data_PCOD9195723
_publ_section_title
;
Structure prediction by ZEFSAII (Michael W. Deem and Ramdas Pophale) SiO2 
 PCOD9195723
Probable space group: C 2/M
;
_chemical_formula_sum "Si O2"
_cell_formula_units_Z 64
_cell_length_a 30.237693
_cell_length_b 7.748793
_cell_length_c 18.683857
_cell_angle_alpha 90.000000
_cell_angle_beta 138.688807
_cell_angle_gamma 90.000000
_cell_volume 2889.953364
_symmetry_space_group_name_H-M "C 2/M"
_symmetry_group_IT_number 12
_symmetry_cell_setting 'monoclinic'
loop_
_space_group_symop_operation_xyz
x,y,z
-x,y,-z
-x,-y,-z
x,-y,z
1/2+x,1/2+y,z
1/2-x,1/2+y,-z
1/2-x,1/2-y,-z
1/2+x,1/2-y,z
loop_
_atom_site_type_symbol
_atom_site_label
_atom_site_fract_x
_atom_site_fract_y
_atom_site_fract_z
Si Si1 0.075631 0.209955 0.574574
Si Si2 0.335538 0.797613 0.181071
Si Si3 0.706515 0.796959 0.257369
Si Si4 0.202031 0.790184 0.088362
Si Si5 0.919741 0.801131 0.148756
Si Si6 0.560237 0.788103 0.124750
Si Si7 0.562344 0.197021 0.289902
Si Si8 0.847853 0.796979 0.472908
O O1 0.124617 0.272599 0.696516
O O2 0.104330 0.270444 0.532835
O O3 0.000000 0.266840 0.500000
O O4 0.075228 0.000000 0.575022
O O5 0.260309 0.733616 0.104747
O O6 0.376412 0.707274 0.168136
O O7 0.332783 0.000000 0.160040
O O8 0.717247 0.775195 0.185769
O O9 0.633245 0.726829 0.187341
O O10 0.772687 0.723111 0.376134
O O11 0.702546 0.000000 0.270165
O O12 0.202601 0.000000 0.089754
O O13 0.129365 0.732596 0.972799
O O14 0.989768 0.705684 0.238728
O O15 0.936104 0.000000 0.153656
O O16 0.552942 0.732492 0.198381
O O17 0.558336 0.000000 0.120639
O O18 0.500000 0.729784 0.000000
O O19 0.616421 0.280107 0.407750
O O20 0.583896 0.000000 0.308053
O O21 0.840895 0.000000 0.448985
#
# Coordination Sequence:
#
# PCOD9195723 Si02
#       8
#     8   8   8   8   8   8   8   8
#     4  10  20  35  55  79 112 157 200 239 288 346
#     4  11  22  36  56  85 117 150 195 244 294 348
#     4  10  20  37  63  88 115 157 202 240 288 354
#     4  10  22  38  57  86 121 154 192 245 299 346
#     4  11  23  39  58  82 118 159 197 241 296 355
#     4   9  19  37  61  90 120 150 191 243 295 349
#     4  11  23  39  61  88 117 152 196 245 296 345
#     4  10  21  37  57  85 119 157 198 240 290 352
#
# _framework density 22.145686000000001
#
# number of rings (size 3 to 8) (size 9 to 14) (size 15 to 20)
#    0.000    1.750    1.250    3.000    0.000    5.250 
#    0.000    1.250    0.000    3.375    0.000    0.000 
#    0.000    0.000    0.000    0.000    0.000    0.000 
#
# Total GULP energy -178845.222669 kJ/mol
# GULP energy per Si atom -5588.913208 kJ/mol
# Density = 2.209528 g / cm^3
# Si number density = 22.145686 Si / 1000 Ang^3
#
#
#
# Elastic Constant Matrix: (Units=GPa)
#
#
# Indices 1 2 3 4 5 6 
#
# 1 100.2273 0.0410 53.7813 0.0000 20.8937 0.0000
# 2 0.0410 31.9914 -0.6489 0.0000 8.7933 0.0000
# 3 53.7813 -0.6489 165.2010 0.0000 14.9712 0.0000
# 4 0.0000 0.0000 0.0000 4.0309 0.0000 -14.8947
# 5 20.8937 8.7933 14.9712 0.0000 35.6314 0.0000
# 6 0.0000 0.0000 0.0000 -14.8947 0.0000 4.2563
#
#
#
# Elastic Compliance Matrix: (Units=1/GPa)
#
#
# Indices 1 2 3 4 5 6 
#
# 1 0.013383 0.001751 -0.003742 0.000000 -0.006707 0.000000
# 2 0.001751 0.033896 0.000431 0.000000 -0.009573 0.000000
# 3 -0.003742 0.000431 0.007364 0.000000 -0.001006 0.000000
# 4 0.000000 0.000000 0.000000 -0.020794 0.000000 -0.072765
# 5 -0.006707 -0.009573 -0.001006 0.000000 0.034783 0.000000
# 6 0.000000 0.000000 0.000000 -0.072765 0.000000 -0.019692
#
#
# Mechanical properties :
#
#
# Convention : Reuss Voigt Hill
#
# Bulk Modulus (GPa) = 19.40934 44.86294 32.13614
# Shear Modulus (GPa) = 72.21668 25.06680 48.64174
#
# Velocity S-wave (km/s) = 5.71670 3.36803 4.69171
# Velocity P-wave (km/s) = 7.23585 5.95205 6.62512
#
# Compressibility (1/GPa) = 0.05152159
#
# Stress axis : x y z
#
# Youngs Moduli (GPa) = 74.72297 29.50195 135.78927
#
# Poissons Ratio (x) = -0.05164 0.50813
# Poissons Ratio (y) = -0.13080 -0.05849
# Poissons Ratio (z) = 0.27962 -0.01271
#
# Static dielectric constant tensor:
#      x y z
#    x 1.805270 0.000000 0.014490 
#    y 0.000000 1.801310 0.000000 
#    z 0.014490 0.000000 1.788920 
# 
# From -- ./inp_files/295799.got.cif
#   From: 2010.05.17/outbox.cif.g08.bks.cpg/sg12_148_cif.got.tgz:295799.got - 2010.06.03 13:09:07.
