data_PCOD9195822
_publ_section_title
;
Structure prediction by ZEFSAII (Michael W. Deem and Ramdas Pophale) SiO2 
 PCOD9195822
Probable space group: C 2/M
;
_chemical_formula_sum "Si O2"
_cell_formula_units_Z 56
_cell_length_a 11.243188
_cell_length_b 28.145901
_cell_length_c 8.806311
_cell_angle_alpha 90.000000
_cell_angle_beta 65.464647
_cell_angle_gamma 90.000000
_cell_volume 2535.124745
_symmetry_space_group_name_H-M "C 2/M"
_symmetry_group_IT_number 12
_symmetry_cell_setting 'monoclinic'
loop_
_space_group_symop_operation_xyz
x,y,z
-x,y,-z
-x,-y,-z
x,-y,z
1/2+x,1/2+y,z
1/2-x,1/2+y,-z
1/2-x,1/2-y,-z
1/2+x,1/2-y,z
loop_
_atom_site_type_symbol
_atom_site_label
_atom_site_fract_x
_atom_site_fract_y
_atom_site_fract_z
Si Si1 0.854753 0.728311 0.061648
Si Si2 0.171535 0.140442 0.677643
Si Si3 0.337537 0.133856 0.881459
Si Si4 0.604572 0.615103 0.212670
Si Si5 0.822643 0.946398 0.558703
Si Si6 0.478244 0.948840 0.191463
Si Si7 0.853843 0.206135 0.589630
O O1 0.773835 0.728513 0.262585
O O2 0.750000 0.750000 0.000000
O O3 0.880108 0.676950 0.968100
O O4 0.000000 0.750594 0.000000
O O5 0.269216 0.149404 0.762506
O O6 0.189330 0.092428 0.568478
O O7 0.177624 0.183796 0.556397
O O8 0.023785 0.130413 0.809748
O O9 0.451439 0.097332 0.781572
O O10 0.225527 0.107431 0.038307
O O11 0.594881 0.572372 0.338849
O O12 0.625915 0.660620 0.310302
O O13 0.674581 0.947613 0.698753
O O14 0.857358 0.000000 0.493663
O O15 0.530149 0.000000 0.220990
O O16 0.500000 0.946881 0.000000
O O17 0.000000 0.229771 0.500000
#
# Coordination Sequence:
#
# PCOD9195822 Si02
#       7
#     8   8   8   8   8   8   8
#     4  11  26  46  71 100 131 170 218 269 327 402
#     4  10  21  35  56  92 123 160 208 257 323 378
#     4  11  22  38  64  90 125 162 207 263 319 382
#     4   9  18  34  58  84 114 163 212 248 308 375
#     4  10  20  35  55  81 121 168 216 267 314 371
#     4  10  20  36  59  84 116 164 218 262 306 366
#     4   8  18  40  66  89 125 167 207 255 314 389
#
# _framework density 22.089642999999999
#
# number of rings (size 3 to 8) (size 9 to 14) (size 15 to 20)
#    0.000    2.143    1.429    2.143    4.000    5.714 
#    0.000    4.286    0.000    2.571    0.000    0.000 
#    0.000    0.000    0.000    0.000    0.000    0.000 
#
# Total GULP energy -156201.174622 kJ/mol
# GULP energy per Si atom -5578.613379 kJ/mol
# Density = 2.203937 g / cm^3
# Si number density = 22.089643 Si / 1000 Ang^3
#
#
#
# Elastic Constant Matrix: (Units=GPa)
#
#
# Indices 1 2 3 4 5 6 
#
# 1 123.9902 30.0082 40.1832 0.0000 -0.8242 0.0000
# 2 30.0082 67.0301 16.2225 0.0000 1.7444 0.0000
# 3 40.1832 16.2225 88.4289 0.0000 1.8170 0.0000
# 4 0.0000 0.0000 0.0000 8.6791 0.0000 6.6080
# 5 -0.8242 1.7444 1.8170 0.0000 33.8751 0.0000
# 6 0.0000 0.0000 0.0000 6.6080 0.0000 17.0422
#
#
#
# Elastic Compliance Matrix: (Units=1/GPa)
#
#
# Indices 1 2 3 4 5 6 
#
# 1 0.010247 -0.003635 -0.004003 0.000000 0.000651 0.000000
# 2 -0.003635 0.016916 -0.001433 0.000000 -0.000883 0.000000
# 3 -0.004003 -0.001433 0.013406 0.000000 -0.000743 0.000000
# 4 0.000000 0.000000 0.000000 0.163482 0.000000 -0.063390
# 5 0.000651 -0.000883 -0.000743 0.000000 0.029621 0.000000
# 6 0.000000 0.000000 0.000000 -0.063390 0.000000 0.083257
#
#
# Mechanical properties :
#
#
# Convention : Reuss Voigt Hill
#
# Bulk Modulus (GPa) = 44.59174 50.25299 47.42237
# Shear Modulus (GPa) = 14.59657 24.78829 19.69243
#
# Velocity S-wave (km/s) = 2.57337 3.35351 2.98900
# Velocity P-wave (km/s) = 5.39075 6.14766 5.78160
#
# Compressibility (1/GPa) = 0.02242568
#
# Stress axis : x y z
#
# Youngs Moduli (GPa) = 97.59418 59.11561 74.59605
#
# Poissons Ratio (x) = 0.21491 0.29858
# Poissons Ratio (y) = 0.35480 0.10691
# Poissons Ratio (z) = 0.39063 0.08472
#
# Static dielectric constant tensor:
#      x y z
#    x 1.869440 0.000000 -0.036620 
#    y 0.000000 1.859230 0.000000 
#    z -0.036620 0.000000 1.806960 
# 
# From -- ./inp_files/54182.got.cif
#   From: 2010.05.17/outbox.cif.g08.bks.cpg/sg12_28_cif.got.tgz:54182.got - 2010.06.03 13:09:07.
