data_PCOD9195280
_publ_section_title
;
Structure prediction by ZEFSAII (Michael W. Deem and Ramdas Pophale) SiO2 
 PCOD9195280
Probable space group: C 2/M
;
_chemical_formula_sum "Si O2"
_cell_formula_units_Z 58
_cell_length_a 18.757135
_cell_length_b 7.748166
_cell_length_c 20.907697
_cell_angle_alpha 90.000000
_cell_angle_beta 107.053344
_cell_angle_gamma 90.000000
_cell_volume 2904.986436
_symmetry_space_group_name_H-M "C 2/M"
_symmetry_group_IT_number 12
_symmetry_cell_setting 'monoclinic'
loop_
_space_group_symop_operation_xyz
x,y,z
-x,y,-z
-x,-y,-z
x,-y,z
1/2+x,1/2+y,z
1/2-x,1/2+y,-z
1/2-x,1/2-y,-z
1/2+x,1/2-y,z
loop_
_atom_site_type_symbol
_atom_site_label
_atom_site_fract_x
_atom_site_fract_y
_atom_site_fract_z
Si Si1 0.398375 0.206690 0.106854
Si Si2 0.667392 0.799974 0.039239
Si Si3 0.000000 0.500000 0.500000
Si Si4 0.433241 0.704219 0.879074
Si Si5 0.715889 0.296200 0.826981
Si Si6 0.374275 0.701477 0.496736
Si Si7 0.211868 0.698676 0.405588
Si Si8 0.685365 0.700256 0.256279
O O1 0.482086 0.264389 0.116662
O O2 0.365160 0.265620 0.165502
O O3 0.396314 0.000000 0.103864
O O4 0.348091 0.276529 0.034410
O O5 0.591960 0.789015 0.061145
O O6 0.728919 0.722034 0.103122
O O7 0.687591 0.000000 0.035443
O O8 0.937325 0.344548 0.500360
O O9 0.420366 0.500000 0.883145
O O10 0.378829 0.769521 0.808226
O O11 0.729368 0.500000 0.824599
O O12 0.739407 0.216406 0.766034
O O13 0.393962 0.500000 0.486013
O O14 0.297945 0.752358 0.438680
O O15 0.345457 0.705429 0.562853
O O16 0.208841 0.500000 0.425396
O O17 0.191404 0.712643 0.326071
O O18 0.669372 0.500000 0.263715
#
# Coordination Sequence:
#
# PCOD9195280 Si02
#       8
#     8   8   2   8   8   8   8   8
#     4  11  21  33  51  74 106 140 179 234 299 360
#     4   9  19  34  52  74 100 136 182 233 293 357
#     4  12  22  40  64 102 144 174 198 264 324 354
#     4  10  21  35  51  77 106 141 186 238 290 349
#     4  10  20  35  53  76 105 141 185 238 293 354
#     4  10  22  39  66 101 139 172 211 259 308 368
#     4  10  20  39  66  97 124 167 220 255 296 370
#     4  10  21  37  60  82 111 149 198 246 286 343
#
# _framework density 19.965669999999999
#
# number of rings (size 3 to 8) (size 9 to 14) (size 15 to 20)
#    0.000    1.931    0.690    3.103    1.931    4.966 
#    0.000    1.379    3.034    4.966    0.000    0.000 
#    0.000    0.000    0.000    0.000    0.000    0.000 
#
# Total GULP energy -161565.206135 kJ/mol
# GULP energy per Si atom -5571.214005 kJ/mol
# Density = 1.992023 g / cm^3
# Si number density = 19.965670 Si / 1000 Ang^3
#
#
#
# Elastic Constant Matrix: (Units=GPa)
#
#
# Indices 1 2 3 4 5 6 
#
# 1 94.7442 26.5461 7.6343 0.0000 -6.1378 0.0000
# 2 26.5461 91.5054 9.9620 0.0000 3.4445 0.0000
# 3 7.6343 9.9620 71.2538 0.0000 -11.1780 0.0000
# 4 0.0000 0.0000 0.0000 15.3815 0.0000 -3.3025
# 5 -6.1378 3.4445 -11.1780 0.0000 8.6315 0.0000
# 6 0.0000 0.0000 0.0000 -3.3025 0.0000 31.9590
#
#
#
# Elastic Compliance Matrix: (Units=1/GPa)
#
#
# Indices 1 2 3 4 5 6 
#
# 1 0.012407 -0.004172 0.001128 0.000000 0.011949 0.000000
# 2 -0.004172 0.012968 -0.003317 0.000000 -0.012437 0.000000
# 3 0.001128 -0.003317 0.018461 0.000000 0.026034 0.000000
# 4 0.000000 0.000000 0.000000 0.066488 0.000000 0.006871
# 5 0.011949 -0.012437 0.026034 0.000000 0.163029 0.000000
# 6 0.000000 0.000000 0.000000 0.006871 0.000000 0.032000
#
#
# Mechanical properties :
#
#
# Convention : Reuss Voigt Hill
#
# Bulk Modulus (GPa) = 32.13915 38.42092 35.28003
# Shear Modulus (GPa) = 15.22317 25.41846 20.32082
#
# Velocity S-wave (km/s) = 2.76428 3.57194 3.19374
# Velocity P-wave (km/s) = 5.13035 6.02469 5.59542
#
# Compressibility (1/GPa) = 0.03111470
#
# Stress axis : x y z
#
# Youngs Moduli (GPa) = 80.60111 77.11342 54.16728
#
# Poissons Ratio (x) = 0.32171 -0.06112
# Poissons Ratio (y) = 0.33626 0.17968
# Poissons Ratio (z) = -0.09095 0.25580
#
# Static dielectric constant tensor:
#      x y z
#    x 1.725420 0.000000 0.015890 
#    y 0.000000 1.744140 0.000000 
#    z 0.015890 0.000000 1.710510 
# 
# From -- ./inp_files/314257.got.cif
#   From: 2010.05.17/outbox.cif.g08.bks.cpg/sg12_158_cif.got.tgz:314257.got - 2010.06.03 13:09:07.
