data_PCOD9195244
_publ_section_title
;
Structure prediction by ZEFSAII (Michael W. Deem and Ramdas Pophale) SiO2 
 PCOD9195244
Probable space group: C 2/M
;
_chemical_formula_sum "Si O2"
_cell_formula_units_Z 56
_cell_length_a 20.188287
_cell_length_b 7.479620
_cell_length_c 25.117336
_cell_angle_alpha 90.000000
_cell_angle_beta 47.125119
_cell_angle_gamma 90.000000
_cell_volume 2779.473220
_symmetry_space_group_name_H-M "C 2/M"
_symmetry_group_IT_number 12
_symmetry_cell_setting 'monoclinic'
loop_
_space_group_symop_operation_xyz
x,y,z
-x,y,-z
-x,-y,-z
x,-y,z
1/2+x,1/2+y,z
1/2-x,1/2+y,-z
1/2-x,1/2-y,-z
1/2+x,1/2-y,z
loop_
_atom_site_type_symbol
_atom_site_label
_atom_site_fract_x
_atom_site_fract_y
_atom_site_fract_z
Si Si1 0.698186 0.791804 0.196329
Si Si2 0.484697 0.708657 0.192799
Si Si3 0.811850 0.787888 0.915701
Si Si4 0.452456 0.217575 0.444520
Si Si5 0.693987 0.719512 0.761999
Si Si6 0.508533 0.783133 0.691743
Si Si7 0.861120 0.717376 0.599679
O O1 0.727020 0.778899 0.119252
O O2 0.767678 0.720461 0.201842
O O3 0.595983 0.718757 0.255340
O O4 0.687789 0.000000 0.215883
O O5 0.493178 0.500000 0.174180
O O6 0.585964 0.786092 0.133432
O O7 0.405116 0.784267 0.200016
O O8 0.456331 0.721491 0.270325
O O9 0.819051 0.000000 0.905599
O O10 0.750000 0.750000 0.000000
O O11 0.441913 0.275233 0.389328
O O12 0.381509 0.276489 0.528224
O O13 0.551911 0.268841 0.412158
O O14 0.451219 0.000000 0.444949
O O15 0.690530 0.500000 0.763179
O O16 0.768753 0.774719 0.677564
O O17 0.508520 0.000000 0.693230
O O18 0.860616 0.500000 0.599762
#
# Coordination Sequence:
#
# PCOD9195244 Si02
#       7
#     8   8   8   8   8   8   8
#     4   9  16  28  50  74  92 117 153 190 224 262
#     4   9  19  32  47  68  94 122 150 183 227 276
#     4  10  20  35  53  72  93 118 148 182 221 271
#     4   8  12  19  35  64  94 117 151 198 235 256
#     4   9  15  27  45  67  94 123 155 189 226 268
#     4   9  15  26  44  67  92 120 157 196 228 262
#     4   8  12  19  36  63  93 120 150 194 234 259
#
# _framework density 20.147703
#
# number of rings (size 3 to 8) (size 9 to 14) (size 15 to 20)
#    0.000    3.143    1.429    1.286    0.000    0.571 
#    0.000    2.143    0.000    4.286    0.000    3.000 
#    0.000    0.000    0.000    0.000    0.000    0.000 
#
# Total GULP energy -156070.890358 kJ/mol
# GULP energy per Si atom -5573.960370 kJ/mol
# Density = 2.010185 g / cm^3
# Si number density = 20.147703 Si / 1000 Ang^3
#
#
#
# Elastic Constant Matrix: (Units=GPa)
#
#
# Indices 1 2 3 4 5 6 
#
# 1 133.9850 0.7723 51.1844 0.0004 9.2828 -0.0017
# 2 0.7723 54.0736 -12.9144 -0.0025 -6.5788 -0.0027
# 3 51.1844 -12.9144 107.4970 0.0007 10.8438 0.0003
# 4 0.0004 -0.0025 0.0007 5.8463 0.0005 8.0200
# 5 9.2828 -6.5788 10.8438 0.0005 18.9951 0.0000
# 6 -0.0017 -0.0027 0.0003 8.0200 0.0000 4.0975
#
#
#
# Elastic Compliance Matrix: (Units=1/GPa)
#
#
# Indices 1 2 3 4 5 6 
#
# 1 0.009314 -0.001487 -0.004353 0.000003 -0.002582 -0.000002
# 2 -0.001487 0.019858 0.002469 0.000005 0.006195 0.000002
# 3 -0.004353 0.002469 0.012066 -0.000001 -0.003906 0.000001
# 4 0.000003 0.000005 -0.000001 -0.101512 0.000003 0.198687
# 5 -0.002582 0.006195 -0.003906 0.000003 0.058282 -0.000004
# 6 -0.000002 0.000002 0.000001 0.198687 -0.000004 -0.144835
#
#
# Mechanical properties :
#
#
# Convention : Reuss Voigt Hill
#
# Bulk Modulus (GPa) = 28.98935 41.51559 35.25247
# Shear Modulus (GPa) = -38.88418 22.88866 -7.99776
#
# Velocity S-wave (km/s) = -4.39789 3.37418 -1.99454
# Velocity P-wave (km/s) = 3.37179 5.98586 3.49725
#
# Compressibility (1/GPa) = 0.03449543
#
# Stress axis : x y z
#
# Youngs Moduli (GPa) = 107.36695 50.35791 82.87885
#
# Poissons Ratio (x) = 0.07487 0.36077
# Poissons Ratio (y) = 0.15963 -0.20460
# Poissons Ratio (z) = 0.46736 -0.12432
#
# Static dielectric constant tensor:
#      x y z
#    x 1.718690 0.000000 0.016610 
#    y 0.000000 1.793840 0.000000 
#    z 0.016610 0.000000 1.718190 
# 
# From -- ./inp_files/280396.got.cif
#   From: 2010.05.17/outbox.cif.g08.bks.cpg/sg12_141_cif.got.tgz:280396.got - 2010.06.03 13:09:07.
