data_PCOD9195915
_publ_section_title
;
Structure prediction by ZEFSAII (Michael W. Deem and Ramdas Pophale) SiO2 
 PCOD9195915
Probable space group: C 2/M
;
_chemical_formula_sum "Si O2"
_cell_formula_units_Z 48
_cell_length_a 13.436809
_cell_length_b 16.453073
_cell_length_c 9.016806
_cell_angle_alpha 90.000000
_cell_angle_beta 89.326553
_cell_angle_gamma 90.000000
_cell_volume 1993.268915
_symmetry_space_group_name_H-M "C 2/M"
_symmetry_group_IT_number 12
_symmetry_cell_setting 'monoclinic'
loop_
_space_group_symop_operation_xyz
x,y,z
-x,y,-z
-x,-y,-z
x,-y,z
1/2+x,1/2+y,z
1/2-x,1/2+y,-z
1/2-x,1/2-y,-z
1/2+x,1/2-y,z
loop_
_atom_site_type_symbol
_atom_site_label
_atom_site_fract_x
_atom_site_fract_y
_atom_site_fract_z
Si Si1 0.257846 0.297443 0.260844
Si Si2 0.908335 0.088003 0.809955
Si Si3 0.573171 0.910212 0.715463
Si Si4 0.526735 0.245292 0.834074
Si Si5 0.292800 0.909706 0.992514
Si Si6 0.776438 0.865070 0.563733
O O1 0.971428 0.500000 0.306793
O O2 0.355933 0.260840 0.184851
O O3 0.289910 0.359267 0.389111
O O4 0.197967 0.341310 0.132249
O O5 0.814892 0.099366 0.924759
O O6 0.857419 0.084532 0.650040
O O7 0.976352 0.167120 0.813110
O O8 0.955895 0.000000 0.840392
O O9 0.505912 0.829344 0.720883
O O10 0.626441 0.910037 0.877011
O O11 0.665383 0.896249 0.602441
O O12 0.788687 0.776671 0.644696
O O13 0.500000 0.220432 0.000000
O O14 0.296101 0.000000 0.924359
#
# Coordination Sequence:
#
# PCOD9195915 Si02
#       6
#     8   8   8   8   8   8
#     4  10  20  35  55  87 111 145 196 229 281 346
#     4  10  21  37  56  84 117 149 188 230 286 347
#     4   9  20  38  59  85 112 146 194 238 281 337
#     4  11  22  34  57  84 117 158 180 230 289 335
#     4   9  18  33  57  83 108 140 187 239 278 330
#     4   9  20  36  59  81 111 150 187 241 284 328
#
# _framework density 24.081047000000002
#
# number of rings (size 3 to 8) (size 9 to 14) (size 15 to 20)
#    0.000    2.333    1.667    1.500    2.333    5.333 
#    0.000    0.833    0.000    0.000    0.000    3.500 
#    0.000    0.000    0.000    0.000    0.000    0.000 
#
# Total GULP energy -134140.123226 kJ/mol
# GULP energy per Si atom -5589.171801 kJ/mol
# Density = 2.402624 g / cm^3
# Si number density = 24.081047 Si / 1000 Ang^3
#
#
#
# Elastic Constant Matrix: (Units=GPa)
#
#
# Indices 1 2 3 4 5 6 
#
# 1 33.9246 19.1850 -1.2835 0.0000 -1.7789 0.0000
# 2 19.1850 162.4294 7.4862 0.0000 0.3800 0.0000
# 3 -1.2835 7.4862 95.0789 0.0000 -6.4047 0.0000
# 4 0.0000 0.0000 0.0000 -5.3406 0.0000 33.4878
# 5 -1.7789 0.3800 -6.4047 0.0000 14.3407 0.0000
# 6 0.0000 0.0000 0.0000 33.4878 0.0000 -11.2282
#
#
#
# Elastic Compliance Matrix: (Units=1/GPa)
#
#
# Indices 1 2 3 4 5 6 
#
# 1 0.031919 -0.003828 0.001037 0.000000 0.004524 0.000000
# 2 -0.003828 0.006640 -0.000638 0.000000 -0.000936 0.000000
# 3 0.001037 -0.000638 0.010920 0.000000 0.005023 0.000000
# 4 0.000000 0.000000 0.000000 0.010578 0.000000 0.031549
# 5 0.004524 -0.000936 0.005023 0.000000 0.072561 0.000000
# 6 0.000000 0.000000 0.000000 0.031549 0.000000 0.005031
#
#
# Mechanical properties :
#
#
# Convention : Reuss Voigt Hill
#
# Bulk Modulus (GPa) = 23.46242 38.02312 30.74277
# Shear Modulus (GPa) = 31.50316 17.29070 24.39693
#
# Velocity S-wave (km/s) = 3.62085 2.68250 3.18640
# Velocity P-wave (km/s) = 5.21967 5.04166 5.13144
#
# Compressibility (1/GPa) = 0.04262135
#
# Stress axis : x y z
#
# Youngs Moduli (GPa) = 31.32966 150.59622 91.57414
#
# Poissons Ratio (x) = 0.57654 -0.09497
# Poissons Ratio (y) = 0.11994 0.05838
# Poissons Ratio (z) = -0.03249 0.09601
#
# Static dielectric constant tensor:
#      x y z
#    x 1.938820 0.000000 0.047350 
#    y 0.000000 2.049210 0.000000 
#    z 0.047350 0.000000 1.890120 
# 
# From -- ./inp_files/74626.got.cif
#   From: 2010.05.17/outbox.cif.g08.bks.cpg/sg12_38_cif.got.tgz:74626.got - 2010.06.03 13:09:07.
