data_PCOD9195156
_publ_section_title
;
Structure prediction by ZEFSAII (Michael W. Deem and Ramdas Pophale) SiO2 
 PCOD9195156
Probable space group: C 2/M
;
_chemical_formula_sum "Si O2"
_cell_formula_units_Z 36
_cell_length_a 10.912033
_cell_length_b 26.884144
_cell_length_c 10.469591
_cell_angle_alpha 90.000000
_cell_angle_beta 151.494406
_cell_angle_gamma 90.000000
_cell_volume 1465.792808
_symmetry_space_group_name_H-M "C 2/M"
_symmetry_group_IT_number 12
_symmetry_cell_setting 'monoclinic'
loop_
_space_group_symop_operation_xyz
x,y,z
-x,y,-z
-x,-y,-z
x,-y,z
1/2+x,1/2+y,z
1/2-x,1/2+y,-z
1/2-x,1/2-y,-z
1/2+x,1/2-y,z
loop_
_atom_site_type_symbol
_atom_site_label
_atom_site_fract_x
_atom_site_fract_y
_atom_site_fract_z
Si Si1 0.210647 0.500000 0.506066
Si Si2 0.270601 0.722514 0.200616
Si Si3 0.500000 0.584211 0.500000
Si Si4 0.754839 0.389423 0.460256
Si Si5 0.715109 0.671106 0.057168
Si Si6 0.763807 0.500000 0.890292
O O1 0.181097 0.444686 0.533776
O O2 0.510698 0.500000 0.745479
O O3 0.012110 0.500000 0.205311
O O4 0.500000 0.706761 0.500000
O O5 0.252641 0.782450 0.186416
O O6 0.320729 0.701014 0.108213
O O7 0.000000 0.702169 0.000000
O O8 0.365002 0.607419 0.503953
O O9 0.717143 0.548625 0.761508
O O10 0.020784 0.359449 0.704776
O O11 0.536495 0.363571 0.173510
#
# Coordination Sequence:
#
# PCOD9195156 Si02
#       6
#     4   8   4   8   8   4
#     4  10  20  35  50  78 122 169 190 235 290 334
#     4  11  24  45  67  86 120 156 190 257 318 347
#     4   9  20  30  50  76 118 170 198 228 284 327
#     4  11  22  35  56  86 127 159 203 239 282 355
#     4  11  25  40  61  97 117 148 214 244 284 376
#     4   9  18  32  44  70 114 167 210 221 260 362
#
# _framework density 24.560088
#
# number of rings (size 3 to 8) (size 9 to 14) (size 15 to 20)
#    0.000    1.556    0.000    6.000    4.667   14.222 
#    0.000    0.000    0.000    0.000    0.000   15.556 
#    0.000    0.000    0.000    0.000    0.000    0.000 
#
# Total GULP energy -100602.907810 kJ/mol
# GULP energy per Si atom -5589.050434 kJ/mol
# Density = 2.450419 g / cm^3
# Si number density = 24.560088 Si / 1000 Ang^3
#
#
#
# Elastic Constant Matrix: (Units=GPa)
#
#
# Indices 1 2 3 4 5 6 
#
# 1 33.6124 7.5762 15.2120 -0.0001 -1.4146 0.0000
# 2 7.5762 144.7834 53.9864 0.0000 7.1543 0.0000
# 3 15.2120 53.9864 175.2290 0.0000 15.3292 0.0000
# 4 -0.0001 0.0000 0.0000 -38.1377 0.0000 -17.1252
# 5 -1.4146 7.1543 15.3292 0.0000 24.7256 0.0000
# 6 0.0000 0.0000 0.0000 -17.1252 0.0000 33.6958
#
#
#
# Elastic Compliance Matrix: (Units=1/GPa)
#
#
# Indices 1 2 3 4 5 6 
#
# 1 0.031357 -0.000778 -0.002811 0.000000 0.003762 0.000000
# 2 -0.000778 0.007838 -0.002268 0.000000 -0.000906 0.000000
# 3 -0.002811 -0.002268 0.006985 0.000000 -0.003835 0.000000
# 4 0.000000 0.000000 0.000000 -0.021349 0.000000 -0.010850
# 5 0.003762 -0.000906 -0.003835 0.000000 0.043299 0.000000
# 6 0.000000 0.000000 0.000000 -0.010850 0.000000 0.024163
#
#
# Mechanical properties :
#
#
# Convention : Reuss Voigt Hill
#
# Bulk Modulus (GPa) = 29.01528 56.35266 42.68397
# Shear Modulus (GPa) = 43.29092 22.51342 32.90217
#
# Velocity S-wave (km/s) = 4.20295 3.03094 3.66411
# Velocity P-wave (km/s) = 5.94918 5.93661 5.94290
#
# Compressibility (1/GPa) = 0.03446460
#
# Stress axis : x y z
#
# Youngs Moduli (GPa) = 31.89066 127.58260 143.16121
#
# Poissons Ratio (x) = 0.09931 0.40249
# Poissons Ratio (y) = 0.02482 0.32468
# Poissons Ratio (z) = 0.08966 0.28935
#
# Static dielectric constant tensor:
#      x y z
#    x 1.968320 0.000000 0.025440 
#    y 0.000000 2.014390 0.000000 
#    z 0.025440 0.000000 1.852260 
# 
# From -- ./inp_files/219397.got.cif
#   From: 2010.05.17/outbox.cif.g08.bks.cpg/sg12_110_cif.got.tgz:219397.got - 2010.06.03 13:09:07.
