data_PCOD9195179
_publ_section_title
;
Structure prediction by ZEFSAII (Michael W. Deem and Ramdas Pophale) SiO2 
 PCOD9195179
Probable space group: C 2/M
;
_chemical_formula_sum "Si O2"
_cell_formula_units_Z 42
_cell_length_a 19.900757
_cell_length_b 20.333147
_cell_length_c 10.782016
_cell_angle_alpha 90.000000
_cell_angle_beta 23.215473
_cell_angle_gamma 90.000000
_cell_volume 1719.807725
_symmetry_space_group_name_H-M "C 2/M"
_symmetry_group_IT_number 12
_symmetry_cell_setting 'monoclinic'
loop_
_space_group_symop_operation_xyz
x,y,z
-x,y,-z
-x,-y,-z
x,-y,z
1/2+x,1/2+y,z
1/2-x,1/2+y,-z
1/2-x,1/2-y,-z
1/2+x,1/2-y,z
loop_
_atom_site_type_symbol
_atom_site_label
_atom_site_fract_x
_atom_site_fract_y
_atom_site_fract_z
Si Si1 0.500000 0.000000 0.000000
Si Si2 0.617833 0.754740 0.906008
Si Si3 0.111598 0.655573 0.531913
Si Si4 0.996724 0.078543 0.316136
Si Si5 0.742838 0.615610 0.464229
Si Si6 0.709949 0.920726 0.007051
O O1 0.640478 0.058123 0.792706
O O2 0.743508 0.704983 0.760853
O O3 0.707291 0.813240 0.675179
O O4 0.500000 0.721120 0.000000
O O5 0.506804 0.792727 0.193319
O O6 0.205350 0.612803 0.479864
O O7 0.974582 0.612248 0.691140
O O8 0.944428 0.101088 0.268782
O O9 0.842986 0.099109 0.670873
O O10 0.180856 0.098172 0.056500
O O11 0.999486 0.000000 0.316469
O O12 0.689313 0.000000 0.037496
#
# Coordination Sequence:
#
# PCOD9195179 Si02
#       6
#     2   8   8   8   8   8
#     4  12  16  24  52  86 106 116 176 236 272 292
#     4  10  20  35  51  77 109 144 175 211 264 314
#     4  11  21  34  56  78 108 143 178 215 258 321
#     4   9  16  28  47  76 113 132 159 226 289 306
#     4  11  18  27  49  78 107 127 171 219 268 305
#     4   9  18  30  50  79 107 134 170 226 278 306
#
# _framework density 24.421334999999999
#
# number of rings (size 3 to 8) (size 9 to 14) (size 15 to 20)
#    0.000    1.905    5.714    3.429    4.000    0.000 
#    0.000    0.952    0.000    0.571    2.476    0.000 
#    0.000   12.190    0.000    0.000    0.000    0.000 
#
# Total GULP energy -117100.479987 kJ/mol
# GULP energy per Si atom -5576.213333 kJ/mol
# Density = 2.436575 g / cm^3
# Si number density = 24.421335 Si / 1000 Ang^3
#
#
#
# Elastic Constant Matrix: (Units=GPa)
#
#
# Indices 1 2 3 4 5 6 
#
# 1 107.8670 45.3981 61.9894 0.0005 -62.8830 -0.0002
# 2 45.3981 101.4285 55.9727 -0.0108 -27.0353 0.0049
# 3 61.9894 55.9727 121.7648 -0.0052 -47.2422 0.0004
# 4 0.0005 -0.0108 -0.0052 48.6922 -0.0029 -20.9310
# 5 -62.8830 -27.0353 -47.2422 -0.0029 55.1014 0.0031
# 6 -0.0002 0.0049 0.0004 -20.9310 0.0031 30.9653
#
#
#
# Elastic Compliance Matrix: (Units=1/GPa)
#
#
# Indices 1 2 3 4 5 6 
#
# 1 0.029761 -0.004483 -0.001149 -0.000001 0.030780 -0.000003
# 2 -0.004483 0.014021 -0.005213 0.000002 -0.002706 0.000000
# 3 -0.001149 -0.005213 0.014524 0.000001 0.008584 0.000001
# 4 -0.000001 0.000002 0.000001 0.028949 0.000002 0.019568
# 5 0.030780 -0.002706 0.008584 0.000002 0.059307 -0.000004
# 6 -0.000003 0.000000 0.000001 0.019568 -0.000004 0.045521
#
#
# Mechanical properties :
#
#
# Convention : Reuss Voigt Hill
#
# Bulk Modulus (GPa) = 27.30909 73.08678 50.19793
# Shear Modulus (GPa) = 22.12618 38.13177 30.12898
#
# Velocity S-wave (km/s) = 3.01328 3.95576 3.51624
# Velocity P-wave (km/s) = 4.82838 7.13137 6.08973
#
# Compressibility (1/GPa) = 0.03661785
#
# Stress axis : x y z
#
# Youngs Moduli (GPa) = 33.60110 71.32149 68.85201
#
# Poissons Ratio (x) = 0.31970 0.07908
# Poissons Ratio (y) = 0.15062 0.35891
# Poissons Ratio (z) = 0.03859 0.37179
#
# Static dielectric constant tensor:
#      x y z
#    x 2.051740 0.000000 0.029210 
#    y 0.000000 1.905610 0.000010 
#    z 0.029210 0.000010 2.044200 
# 
# From -- ./inp_files/132124.got.cif
#   From: 2010.05.17/outbox.cif.g08.bks.cpg/sg12_67_cif.got.tgz:132124.got - 2010.06.03 13:09:07.
