data_PCOD9195129
_publ_section_title
;
Structure prediction by ZEFSAII (Michael W. Deem and Ramdas Pophale) SiO2 
 PCOD9195129
Probable space group: C 2/M
;
_chemical_formula_sum "Si O2"
_cell_formula_units_Z 52
_cell_length_a 13.589996
_cell_length_b 31.318870
_cell_length_c 7.455821
_cell_angle_alpha 90.000000
_cell_angle_beta 43.561229
_cell_angle_gamma 90.000000
_cell_volume 2186.863289
_symmetry_space_group_name_H-M "C 2/M"
_symmetry_group_IT_number 12
_symmetry_cell_setting 'monoclinic'
loop_
_space_group_symop_operation_xyz
x,y,z
-x,y,-z
-x,-y,-z
x,-y,z
1/2+x,1/2+y,z
1/2-x,1/2+y,-z
1/2-x,1/2-y,-z
1/2+x,1/2-y,z
loop_
_atom_site_type_symbol
_atom_site_label
_atom_site_fract_x
_atom_site_fract_y
_atom_site_fract_z
Si Si1 0.744760 0.699421 0.489105
Si Si2 0.119696 0.453273 0.683085
Si Si3 0.843285 0.785765 0.775788
Si Si4 0.482790 0.136075 0.244663
Si Si5 0.000000 0.145603 0.000000
Si Si6 0.669334 0.546656 0.288438
Si Si7 0.780127 0.127595 0.022329
O O1 0.750000 0.750000 0.500000
O O2 0.744479 0.695424 0.276144
O O3 0.875007 0.675281 0.409502
O O4 0.604778 0.677198 0.751310
O O5 0.117388 0.500000 0.595560
O O6 0.085679 0.410370 0.620687
O O7 0.267895 0.448119 0.595002
O O8 0.000000 0.455012 0.000000
O O9 0.000000 0.770759 0.500000
O O10 0.750000 0.750000 0.000000
O O11 0.861958 0.828408 0.865499
O O12 0.616777 0.141123 0.199614
O O13 0.500000 0.134689 0.000000
O O14 0.881081 0.116230 0.057486
O O15 0.500000 0.545852 0.500000
O O16 0.723683 0.500000 0.153310
O O17 0.714756 0.587248 0.115694
#
# Coordination Sequence:
#
# PCOD9195129 Si02
#       7
#     8   8   8   8   4   8   8
#     4  12  28  47  71 101 146 182 250 293 369 434
#     4   9  16  32  59 101 138 167 220 297 371 426
#     4  12  26  46  76 105 142 189 245 308 363 427
#     4  11  22  39  70 106 134 178 233 309 357 426
#     4  12  30  48  67  98 140 208 233 298 358 448
#     4  10  20  34  65 105 139 179 234 301 366 430
#     4  12  24  45  68 101 144 186 243 297 365 428
#
# _framework density 23.77835
#
# number of rings (size 3 to 8) (size 9 to 14) (size 15 to 20)
#    0.000    0.923    6.154    1.385    5.385    0.615 
#    0.000    0.385    0.000    0.923    0.000    2.154 
#    0.000    0.000    0.000    0.000    0.000    0.000 
#
# Total GULP energy -145051.621731 kJ/mol
# GULP energy per Si atom -5578.908528 kJ/mol
# Density = 2.372423 g / cm^3
# Si number density = 23.778350 Si / 1000 Ang^3
#
#
#
# Elastic Constant Matrix: (Units=GPa)
#
#
# Indices 1 2 3 4 5 6 
#
# 1 168.0269 37.9447 42.5907 0.0000 -44.1555 0.0000
# 2 37.9447 153.6847 38.3414 0.0000 -16.8879 0.0000
# 3 42.5907 38.3414 83.2242 0.0000 -25.6840 0.0000
# 4 0.0000 0.0000 0.0000 98.6931 0.0000 -64.6167
# 5 -44.1555 -16.8879 -25.6840 0.0000 41.2013 0.0000
# 6 0.0000 0.0000 0.0000 -64.6167 0.0000 64.5793
#
#
#
# Elastic Compliance Matrix: (Units=1/GPa)
#
#
# Indices 1 2 3 4 5 6 
#
# 1 0.008624 -0.000868 -0.001574 0.000000 0.007905 0.000000
# 2 -0.000868 0.007481 -0.002901 0.000000 0.000328 0.000000
# 3 -0.001574 -0.002901 0.016431 0.000000 0.007367 0.000000
# 4 0.000000 0.000000 0.000000 0.029378 0.000000 0.029395
# 5 0.007905 0.000328 0.007367 0.000000 0.037470 0.000000
# 6 0.000000 0.000000 0.000000 0.029395 0.000000 0.044897
#
#
# Mechanical properties :
#
#
# Convention : Reuss Voigt Hill
#
# Bulk Modulus (GPa) = 45.76598 71.40996 58.58797
# Shear Modulus (GPa) = 30.81654 59.96532 45.39093
#
# Velocity S-wave (km/s) = 3.60389 5.02725 4.37386
# Velocity P-wave (km/s) = 6.05030 7.98713 7.08521
#
# Compressibility (1/GPa) = 0.02185029
#
# Stress axis : x y z
#
# Youngs Moduli (GPa) = 115.95878 133.67365 60.85948
#
# Poissons Ratio (x) = 0.11601 0.09578
# Poissons Ratio (y) = 0.10064 0.17656
# Poissons Ratio (z) = 0.18249 0.38781
#
# Static dielectric constant tensor:
#      x y z
#    x 1.902410 0.000000 0.055530 
#    y 0.000000 1.343960 0.000000 
#    z 0.055530 0.000000 2.071580 
# 
# From -- ./inp_files/68517.got.cif
#   From: 2010.05.17/outbox.cif.g08.bks.cpg/sg12_35_cif.got.tgz:68517.got - 2010.06.03 13:09:07.
