data_PCOD9195078
_publ_section_title
;
Structure prediction by ZEFSAII (Michael W. Deem and Ramdas Pophale) SiO2 
 PCOD9195078
Probable space group: C 2/M
;
_chemical_formula_sum "Si O2"
_cell_formula_units_Z 40
_cell_length_a 8.588686
_cell_length_b 21.562416
_cell_length_c 10.730427
_cell_angle_alpha 90.000000
_cell_angle_beta 62.669473
_cell_angle_gamma 90.000000
_cell_volume 1765.372567
_symmetry_space_group_name_H-M "C 2/M"
_symmetry_group_IT_number 12
_symmetry_cell_setting 'monoclinic'
loop_
_space_group_symop_operation_xyz
x,y,z
-x,y,-z
-x,-y,-z
x,-y,z
1/2+x,1/2+y,z
1/2-x,1/2+y,-z
1/2-x,1/2-y,-z
1/2+x,1/2-y,z
loop_
_atom_site_type_symbol
_atom_site_label
_atom_site_fract_x
_atom_site_fract_y
_atom_site_fract_z
Si Si1 0.211732 0.611118 0.647604
Si Si2 0.328268 0.331181 0.120638
Si Si3 0.892437 0.567769 0.912317
Si Si4 0.492891 0.228036 0.356622
Si Si5 0.442725 0.626295 0.335903
O O1 0.303096 0.596340 0.482117
O O2 0.364566 0.603909 0.694199
O O3 0.038277 0.574719 0.749816
O O4 0.145025 0.682343 0.659317
O O5 0.240303 0.375963 0.052433
O O6 0.179788 0.285372 0.224841
O O7 0.386065 0.375456 0.214154
O O8 0.500000 0.299855 0.000000
O O9 0.808488 0.500000 0.937371
O O10 0.000000 0.572913 0.000000
O O11 0.500000 0.210787 0.500000
O O12 0.444995 0.299645 0.363211
#
# Coordination Sequence:
#
# PCOD9195078 Si02
#       5
#     8   8   8   8   8
#     4  10  20  34  61  91 120 159 210 245 290 364
#     4  11  24  38  60  93 125 158 212 258 295 357
#     4  10  23  45  67  84 115 160 204 259 329 370
#     4  11  19  36  61  88 127 177 203 230 298 364
#     4  11  20  35  60  91 127 167 198 243 296 361
#
# _framework density 22.658107999999999
#
# number of rings (size 3 to 8) (size 9 to 14) (size 15 to 20)
#    0.000    1.400    4.000    3.000    0.000    1.200 
#    0.000   10.000    0.000    0.000    0.000    0.000 
#    0.000    0.000    0.000    0.000    0.000    0.000 
#
# Total GULP energy -111859.369242 kJ/mol
# GULP energy per Si atom -5592.968462 kJ/mol
# Density = 2.260654 g / cm^3
# Si number density = 22.658108 Si / 1000 Ang^3
#
#
#
# Elastic Constant Matrix: (Units=GPa)
#
#
# Indices 1 2 3 4 5 6 
#
# 1 52.1357 -3.5778 16.6655 0.0000 -12.2365 0.0000
# 2 -3.5778 43.1584 1.2739 0.0000 -0.7798 0.0000
# 3 16.6655 1.2739 99.3118 0.0000 -29.6940 0.0000
# 4 0.0000 0.0000 0.0000 9.1175 0.0000 1.6875
# 5 -12.2365 -0.7798 -29.6940 0.0000 49.6704 0.0000
# 6 0.0000 0.0000 0.0000 1.6875 0.0000 -2.4268
#
#
#
# Elastic Compliance Matrix: (Units=1/GPa)
#
#
# Indices 1 2 3 4 5 6 
#
# 1 0.020963 0.001877 -0.002422 0.000000 0.003746 0.000000
# 2 0.001877 0.023349 -0.000446 0.000000 0.000562 0.000000
# 3 -0.002422 -0.000446 0.012543 0.000000 0.006895 0.000000
# 4 0.000000 0.000000 0.000000 0.097173 0.000000 0.067569
# 5 0.003746 0.000562 0.006895 0.000000 0.025186 0.000000
# 6 0.000000 0.000000 0.000000 0.067569 0.000000 -0.365076
#
#
# Mechanical properties :
#
#
# Convention : Reuss Voigt Hill
#
# Bulk Modulus (GPa) = 18.22400 24.81433 21.51917
# Shear Modulus (GPa) = -30.19546 23.28851 -3.45348
#
# Velocity S-wave (km/s) = -3.65452 3.20944 -1.23591
# Velocity P-wave (km/s) = 3.12199 4.97086 2.73520
#
# Compressibility (1/GPa) = 0.05487270
#
# Stress axis : x y z
#
# Youngs Moduli (GPa) = 47.70339 42.82770 79.72602
#
# Poissons Ratio (x) = -0.08039 0.19308
# Poissons Ratio (y) = -0.08954 0.03559
# Poissons Ratio (z) = 0.11553 0.01912
#
# Static dielectric constant tensor:
#      x y z
#    x 1.863230 0.000000 0.008030 
#    y 0.000000 1.792780 0.000000 
#    z 0.008030 0.000000 1.875310 
# 
# From -- ./inp_files/121687.got.cif
#   From: 2010.05.17/outbox.cif.g08.bks.cpg/sg12_61_cif.got.tgz:121687.got - 2010.06.03 13:09:07.
