data_PCOD9195520
_publ_section_title
;
Structure prediction by ZEFSAII (Michael W. Deem and Ramdas Pophale) SiO2 
 PCOD9195520
Probable space group: C 2/M
;
_chemical_formula_sum "Si O2"
_cell_formula_units_Z 64
_cell_length_a 30.751699
_cell_length_b 13.948005
_cell_length_c 11.949358
_cell_angle_alpha 90.000000
_cell_angle_beta 142.113352
_cell_angle_gamma 90.000000
_cell_volume 3147.500426
_symmetry_space_group_name_H-M "C 2/M"
_symmetry_group_IT_number 12
_symmetry_cell_setting 'monoclinic'
loop_
_space_group_symop_operation_xyz
x,y,z
-x,y,-z
-x,-y,-z
x,-y,z
1/2+x,1/2+y,z
1/2-x,1/2+y,-z
1/2-x,1/2-y,-z
1/2+x,1/2-y,z
loop_
_atom_site_type_symbol
_atom_site_label
_atom_site_fract_x
_atom_site_fract_y
_atom_site_fract_z
Si Si1 0.741776 0.396217 0.919086
Si Si2 0.674966 0.287179 0.466377
Si Si3 0.972255 0.612043 0.065270
Si Si4 0.406774 0.606426 0.517542
Si Si5 0.432498 0.228571 0.417577
Si Si6 0.619839 0.111579 0.493933
Si Si7 0.665249 0.236291 0.192110
Si Si8 0.823122 0.204430 0.019159
O O1 0.776134 0.500000 0.974653
O O2 0.666754 0.397004 0.702003
O O3 0.722951 0.374352 0.009979
O O4 0.783708 0.306533 0.955656
O O5 0.619495 0.355486 0.416194
O O6 0.664339 0.182865 0.504510
O O7 0.660633 0.281071 0.305947
O O8 0.757324 0.314598 0.651061
O O9 0.953921 0.500000 0.015057
O O10 0.038736 0.618812 0.283783
O O11 0.902345 0.667896 0.959613
O O12 0.000000 0.646624 0.000000
O O13 0.437587 0.500000 0.582747
O O14 0.451598 0.687412 0.545035
O O15 0.500000 0.179009 0.500000
O O16 0.383371 0.156630 0.388372
O O17 0.392427 0.279687 0.234433
O O18 0.640500 0.000000 0.531813
O O19 0.664901 0.308760 0.087022
#
# Coordination Sequence:
#
# PCOD9195520 Si02
#       8
#     8   8   8   8   8   8   8   8
#     4   9  18  34  55  77 107 143 179 227 280 332
#     4  10  21  36  56  86 118 150 194 244 301 346
#     4  10  20  36  58  86 117 156 199 236 288 357
#     4   9  18  36  58  79 108 146 189 236 285 335
#     4  10  21  36  56  84 115 151 194 237 286 341
#     4  10  21  39  60  86 125 161 193 240 298 358
#     4  11  21  35  56  83 116 150 191 242 291 347
#     4  10  20  35  54  82 111 145 190 228 279 351
#
# _framework density 20.333594999999999
#
# number of rings (size 3 to 8) (size 9 to 14) (size 15 to 20)
#    0.000    2.125    2.500    0.750    1.750    2.000 
#    0.000    2.500    0.000    0.000    0.000   11.375 
#    0.000    0.000    0.000    0.000    0.000    0.000 
#
# Total GULP energy -178501.317782 kJ/mol
# GULP energy per Si atom -5578.166181 kJ/mol
# Density = 2.028731 g / cm^3
# Si number density = 20.333595 Si / 1000 Ang^3
#
#
#
# Elastic Constant Matrix: (Units=GPa)
#
#
# Indices 1 2 3 4 5 6 
#
# 1 105.8126 15.0608 30.9631 0.0000 -25.3676 0.0000
# 2 15.0608 75.9414 -9.2343 0.0000 -0.8920 0.0000
# 3 30.9631 -9.2343 40.2671 0.0000 -3.6128 0.0000
# 4 0.0000 0.0000 0.0000 18.4379 0.0000 3.9539
# 5 -25.3676 -0.8920 -3.6128 0.0000 39.0830 0.0000
# 6 0.0000 0.0000 0.0000 3.9539 0.0000 11.2465
#
#
#
# Elastic Compliance Matrix: (Units=1/GPa)
#
#
# Indices 1 2 3 4 5 6 
#
# 1 0.015932 -0.004571 -0.012484 0.000000 0.009083 0.000000
# 2 -0.004571 0.014871 0.006745 0.000000 -0.002004 0.000000
# 3 -0.012484 0.006745 0.035562 0.000000 -0.004662 0.000000
# 4 0.000000 0.000000 0.000000 0.058659 0.000000 -0.020623
# 5 0.009083 -0.002004 -0.004662 0.000000 0.031005 0.000000
# 6 0.000000 0.000000 0.000000 -0.020623 0.000000 0.096167
#
#
# Mechanical properties :
#
#
# Convention : Reuss Voigt Hill
#
# Bulk Modulus (GPa) = 21.85976 32.84448 27.35212
# Shear Modulus (GPa) = 17.35727 26.10224 21.72976
#
# Velocity S-wave (km/s) = 2.92486 3.58676 3.27259
# Velocity P-wave (km/s) = 4.70959 5.77417 5.26884
#
# Compressibility (1/GPa) = 0.04574617
#
# Stress axis : x y z
#
# Youngs Moduli (GPa) = 62.76754 67.24386 28.11970
#
# Poissons Ratio (x) = 0.30737 0.35105
# Poissons Ratio (y) = 0.28691 -0.18968
# Poissons Ratio (z) = 0.78359 -0.45358
#
# Static dielectric constant tensor:
#      x y z
#    x 1.738940 0.000000 -0.007470 
#    y 0.000000 1.716000 0.000000 
#    z -0.007470 0.000000 1.770200 
# 
# From -- ./inp_files/189505.got.cif
#   From: 2010.05.17/outbox.cif.g08.bks.cpg/sg12_95_cif.got.tgz:189505.got - 2010.06.03 13:09:07.
