data_PCOD9195968
_publ_section_title
;
Structure prediction by ZEFSAII (Michael W. Deem and Ramdas Pophale) SiO2 
 PCOD9195968
Probable space group: C 2/M
;
_chemical_formula_sum "Si O2"
_cell_formula_units_Z 64
_cell_length_a 30.027424
_cell_length_b 12.781521
_cell_length_c 17.164037
_cell_angle_alpha 90.000000
_cell_angle_beta 148.625886
_cell_angle_gamma 90.000000
_cell_volume 3429.605741
_symmetry_space_group_name_H-M "C 2/M"
_symmetry_group_IT_number 12
_symmetry_cell_setting 'monoclinic'
loop_
_space_group_symop_operation_xyz
x,y,z
-x,y,-z
-x,-y,-z
x,-y,z
1/2+x,1/2+y,z
1/2-x,1/2+y,-z
1/2-x,1/2-y,-z
1/2+x,1/2-y,z
loop_
_atom_site_type_symbol
_atom_site_label
_atom_site_fract_x
_atom_site_fract_y
_atom_site_fract_z
Si Si1 0.102565 0.192021 0.489566
Si Si2 0.593583 0.796292 0.645469
Si Si3 0.275810 0.620591 0.893528
Si Si4 0.613450 0.778106 0.342874
Si Si5 0.034803 0.615710 0.964563
Si Si6 0.418261 0.618563 0.239135
Si Si7 0.712597 0.621480 0.389814
Si Si8 0.712180 0.772413 0.237749
O O1 0.100721 0.242193 0.571923
O O2 0.097151 0.273584 0.410435
O O3 0.201390 0.157857 0.628001
O O4 0.016705 0.123831 0.356233
O O5 0.500000 0.850679 0.500000
O O6 0.680108 0.862304 0.785033
O O7 0.590778 0.705994 0.707302
O O8 0.283925 0.500000 0.880157
O O9 0.284824 0.698127 0.833845
O O10 0.349428 0.639852 0.068008
O O11 0.525719 0.805717 0.171389
O O12 0.651514 0.670178 0.364897
O O13 0.688691 0.861103 0.437166
O O14 0.028013 0.500000 0.919526
O O15 0.130873 0.654642 0.110487
O O16 0.000000 0.612415 0.000000
O O17 0.402556 0.500000 0.244945
O O18 0.695536 0.500000 0.348995
O O19 0.704206 0.696130 0.301170
#
# Coordination Sequence:
#
# PCOD9195968 Si02
#       8
#     8   8   8   8   8   8   8   8
#     4   9  20  35  56  78 108 146 182 231 280 318
#     4   9  19  36  57  82 111 146 182 227 277 331
#     4  10  20  35  59  84 112 148 183 228 280 330
#     4  10  20  37  54  79 112 143 189 238 274 335
#     4  11  22  37  57  80 110 152 189 228 286 340
#     4  10  20  35  56  83 113 147 182 223 281 339
#     4  10  20  35  56  79 107 148 188 233 284 328
#     4  10  20  38  56  82 114 144 188 237 275 332
#
# _framework density 18.661035999999999
#
# number of rings (size 3 to 8) (size 9 to 14) (size 15 to 20)
#    0.000    2.125    1.250    1.875    0.000    3.500 
#    0.000    4.375    0.000   11.250    0.000    0.000 
#    0.000    0.000    0.000    0.000    0.000    0.000 
#
# Total GULP energy -178256.599726 kJ/mol
# GULP energy per Si atom -5570.518741 kJ/mol
# Density = 1.861856 g / cm^3
# Si number density = 18.661036 Si / 1000 Ang^3
#
#
#
# Elastic Constant Matrix: (Units=GPa)
#
#
# Indices 1 2 3 4 5 6 
#
# 1 192.3261 0.9705 6.0824 0.0000 1.3836 0.0000
# 2 0.9705 41.5702 13.1937 0.0000 6.1953 0.0000
# 3 6.0824 13.1937 137.9484 0.0000 19.8082 0.0000
# 4 0.0000 0.0000 0.0000 6.8734 0.0000 -9.7585
# 5 1.3836 6.1953 19.8082 0.0000 31.1032 0.0000
# 6 0.0000 0.0000 0.0000 -9.7585 0.0000 116.9463
#
#
#
# Elastic Compliance Matrix: (Units=1/GPa)
#
#
# Indices 1 2 3 4 5 6 
#
# 1 0.005207 -0.000041 -0.000213 0.000000 -0.000088 0.000000
# 2 -0.000041 0.025219 -0.001859 0.000000 -0.003837 0.000000
# 3 -0.000213 -0.001859 0.008125 0.000000 -0.004794 0.000000
# 4 0.000000 0.000000 0.000000 0.165042 0.000000 0.013772
# 5 -0.000088 -0.003837 -0.004794 0.000000 0.035973 0.000000
# 6 0.000000 0.000000 0.000000 0.013772 0.000000 0.009700
#
#
# Mechanical properties :
#
#
# Convention : Reuss Voigt Hill
#
# Bulk Modulus (GPa) = 29.13393 45.81533 37.47463
# Shear Modulus (GPa) = 18.87273 54.42445 36.64859
#
# Velocity S-wave (km/s) = 3.18361 5.40630 4.43641
# Velocity P-wave (km/s) = 5.39999 7.97342 6.80938
#
# Compressibility (1/GPa) = 0.03432425
#
# Stress axis : x y z
#
# Youngs Moduli (GPa) = 192.04628 39.65329 123.08082
#
# Poissons Ratio (x) = 0.00162 0.02623
# Poissons Ratio (y) = 0.00785 0.22883
# Poissons Ratio (z) = 0.04092 0.07372
#
# Static dielectric constant tensor:
#      x y z
#    x 1.648560 0.000000 0.016720 
#    y 0.000000 1.611440 0.000000 
#    z 0.016720 0.000000 1.665360 
# 
# From -- ./inp_files/296518.got.cif
#   From: 2010.05.17/outbox.cif.g08.bks.cpg/sg12_149_cif.got.tgz:296518.got - 2010.06.03 13:09:07.
