data_PCOD9195241
_publ_section_title
;
Structure prediction by ZEFSAII (Michael W. Deem and Ramdas Pophale) SiO2 
 PCOD9195241
Probable space group: C 2/M
;
_chemical_formula_sum "Si O2"
_cell_formula_units_Z 48
_cell_length_a 16.007531
_cell_length_b 7.747230
_cell_length_c 14.789090
_cell_angle_alpha 90.000000
_cell_angle_beta 102.229479
_cell_angle_gamma 90.000000
_cell_volume 1792.434436
_symmetry_space_group_name_H-M "C 2/M"
_symmetry_group_IT_number 12
_symmetry_cell_setting 'monoclinic'
loop_
_space_group_symop_operation_xyz
x,y,z
-x,y,-z
-x,-y,-z
x,-y,z
1/2+x,1/2+y,z
1/2-x,1/2+y,-z
1/2-x,1/2-y,-z
1/2+x,1/2-y,z
loop_
_atom_site_type_symbol
_atom_site_label
_atom_site_fract_x
_atom_site_fract_y
_atom_site_fract_z
Si Si1 0.758502 0.201597 0.133068
Si Si2 0.438573 0.791914 0.359416
Si Si3 0.491240 0.789766 0.806418
Si Si4 0.198657 0.198368 0.303129
Si Si5 0.607007 0.802331 0.980610
Si Si6 0.867110 0.705074 0.523494
O O1 0.756980 0.212408 0.240808
O O2 0.828814 0.301056 0.091524
O O3 0.766026 0.000000 0.109450
O O4 0.666994 0.270076 0.073271
O O5 0.446035 0.724898 0.259252
O O6 0.535684 0.766883 0.418076
O O7 0.374737 0.725184 0.422579
O O8 0.425645 0.000000 0.351811
O O9 0.397177 0.738371 0.753897
O O10 0.522573 0.729027 0.912030
O O11 0.493150 0.000000 0.807708
O O12 0.193922 0.232418 0.409755
O O13 0.219082 0.000000 0.297176
O O14 0.590173 0.000000 0.003483
O O15 0.854583 0.500000 0.515800
#
# Coordination Sequence:
#
# PCOD9195241 Si02
#       6
#     8   8   8   8   8   8
#     4  10  20  35  53  71  95 128 162 196 239 290
#     4   7  11  22  44  69  92 122 156 189 229 283
#     4   9  17  32  52  74 100 127 157 194 240 289
#     4  11  21  31  46  72 102 129 162 202 239 274
#     4   9  19  35  55  75  94 122 160 199 239 288
#     4   8  13  25  44  66  93 125 159 191 232 283
#
# _framework density 26.779221
#
# number of rings (size 3 to 8) (size 9 to 14) (size 15 to 20)
#    0.000    3.000    0.000    4.000    0.000    2.000 
#    0.000   10.000    0.000    1.000    0.000    0.000 
#    0.000    0.000    0.000    0.000    0.000    0.000 
#
# Total GULP energy -134113.131089 kJ/mol
# GULP energy per Si atom -5588.047129 kJ/mol
# Density = 2.671827 g / cm^3
# Si number density = 26.779221 Si / 1000 Ang^3
#
#
#
# Elastic Constant Matrix: (Units=GPa)
#
#
# Indices 1 2 3 4 5 6 
#
# 1 108.3586 -4.6228 25.8673 0.0000 -19.8856 0.0000
# 2 -4.6228 53.5750 4.8853 0.0000 -7.2297 0.0000
# 3 25.8673 4.8853 209.8428 0.0000 -11.5264 0.0000
# 4 0.0000 0.0000 0.0000 16.8318 0.0000 -10.4808
# 5 -19.8856 -7.2297 -11.5264 0.0000 65.1873 0.0000
# 6 0.0000 0.0000 0.0000 -10.4808 0.0000 10.4131
#
#
#
# Elastic Compliance Matrix: (Units=1/GPa)
#
#
# Indices 1 2 3 4 5 6 
#
# 1 0.010111 0.001384 -0.001112 0.000000 0.003041 0.000000
# 2 0.001384 0.019161 -0.000481 0.000000 0.002462 0.000000
# 3 -0.001112 -0.000481 0.004940 0.000000 0.000481 0.000000
# 4 0.000000 0.000000 0.000000 0.159165 0.000000 0.160201
# 5 0.003041 0.002462 0.000481 0.000000 0.016626 0.000000
# 6 0.000000 0.000000 0.000000 0.160201 0.000000 0.257276
#
#
# Mechanical properties :
#
#
# Convention : Reuss Voigt Hill
#
# Bulk Modulus (GPa) = 29.59041 47.11512 38.35277
# Shear Modulus (GPa) = 10.43922 41.52954 25.98438
#
# Velocity S-wave (km/s) = 1.97654 3.94231 3.11837
# Velocity P-wave (km/s) = 4.03518 6.19310 5.22672
#
# Compressibility (1/GPa) = 0.03379473
#
# Stress axis : x y z
#
# Youngs Moduli (GPa) = 98.90042 52.18926 202.42401
#
# Poissons Ratio (x) = -0.07224 0.22501
# Poissons Ratio (y) = -0.13690 0.09746
# Poissons Ratio (z) = 0.10993 0.02513
#
# Static dielectric constant tensor:
#      x y z
#    x 2.216080 0.000000 0.024900 
#    y 0.000000 2.001600 0.000000 
#    z 0.024900 0.000000 2.127680 
# 
# From -- ./inp_files/229274.got.cif
#   From: 2010.05.17/outbox.cif.g08.bks.cpg/sg12_115_cif.got.tgz:229274.got - 2010.06.03 13:09:07.
