data_PCOD9195570
_publ_section_title
;
Structure prediction by ZEFSAII (Michael W. Deem and Ramdas Pophale) SiO2 
 PCOD9195570
Probable space group: C 2/M
;
_chemical_formula_sum "Si O2"
_cell_formula_units_Z 56
_cell_length_a 18.786343
_cell_length_b 7.459755
_cell_length_c 19.240820
_cell_angle_alpha 90.000000
_cell_angle_beta 104.136867
_cell_angle_gamma 90.000000
_cell_volume 2614.776234
_symmetry_space_group_name_H-M "C 2/M"
_symmetry_group_IT_number 12
_symmetry_cell_setting 'monoclinic'
loop_
_space_group_symop_operation_xyz
x,y,z
-x,y,-z
-x,-y,-z
x,-y,z
1/2+x,1/2+y,z
1/2-x,1/2+y,-z
1/2-x,1/2-y,-z
1/2+x,1/2-y,z
loop_
_atom_site_type_symbol
_atom_site_label
_atom_site_fract_x
_atom_site_fract_y
_atom_site_fract_z
Si Si1 0.415003 0.709054 0.302716
Si Si2 0.191523 0.285436 0.425867
Si Si3 0.085583 0.708417 0.996312
Si Si4 0.627587 0.219424 0.152715
Si Si5 0.036638 0.294454 0.440163
Si Si6 0.464546 0.217287 0.159472
Si Si7 0.249878 0.780440 0.709193
O O1 0.415837 0.500000 0.321889
O O2 0.477408 0.796031 0.364757
O O3 0.434460 0.726886 0.226478
O O4 0.333457 0.778965 0.298453
O O5 0.184247 0.500000 0.415484
O O6 0.250000 0.250000 0.500000
O O7 0.112422 0.213252 0.430666
O O8 0.219757 0.219410 0.358107
O O9 0.107390 0.500000 0.995314
O O10 0.128897 0.783215 0.072897
O O11 0.083224 0.783642 0.917908
O O12 0.000000 0.711642 0.000000
O O13 0.549265 0.272664 0.167459
O O14 0.694903 0.275797 0.216577
O O15 0.627020 0.000000 0.150652
O O16 0.055326 0.500000 0.464222
O O17 0.000000 0.211579 0.500000
O O18 0.464303 0.000000 0.156959
O O19 0.249357 0.000000 0.709737
#
# Coordination Sequence:
#
# PCOD9195570 Si02
#       7
#     8   8   8   8   8   8   8
#     4  11  22  33  47  70 101 135 167 197 235 288
#     4  10  20  35  55  77 100 127 159 195 238 287
#     4   7  11  21  43  74  96 115 155 207 250 287
#     4   8  13  26  50  74  94 121 163 210 247 286
#     4  10  21  37  57  79 100 124 158 202 249 289
#     4   9  16  29  51  75  97 123 161 209 252 288
#     4   9  18  31  46  67  97 132 165 196 235 286
#
# _framework density 21.416746
#
# number of rings (size 3 to 8) (size 9 to 14) (size 15 to 20)
#    0.000    2.857    0.000    3.857    0.000    3.143 
#    0.000    1.429    0.000    5.571    0.000    0.000 
#    0.000    0.000    0.000    0.000    0.000    0.000 
#
# Total GULP energy -156256.099206 kJ/mol
# GULP energy per Si atom -5580.574972 kJ/mol
# Density = 2.136800 g / cm^3
# Si number density = 21.416746 Si / 1000 Ang^3
#
#
#
# Elastic Constant Matrix: (Units=GPa)
#
#
# Indices 1 2 3 4 5 6 
#
# 1 154.7632 -0.6656 96.5831 0.0000 4.8485 0.0000
# 2 -0.6656 62.3457 -11.4363 -0.0001 0.3348 0.0000
# 3 96.5831 -11.4363 188.7080 0.0000 3.4703 0.0000
# 4 0.0000 -0.0001 0.0000 5866.2061 0.0000 3366.6378
# 5 4.8485 0.3348 3.4703 0.0000 35.4677 0.0000
# 6 0.0000 0.0000 0.0000 3366.6378 0.0000 1939.7109
#
#
#
# Elastic Compliance Matrix: (Units=1/GPa)
#
#
# Indices 1 2 3 4 5 6 
#
# 1 0.009557 -0.000797 -0.004925 0.000000 -0.000817 0.000000
# 2 -0.000797 0.016289 0.001398 0.000000 -0.000182 0.000000
# 3 -0.004925 0.001398 0.007907 0.000000 -0.000114 0.000000
# 4 0.000000 0.000000 0.000000 0.043595 0.000000 -0.075664
# 5 -0.000817 -0.000182 -0.000114 0.000000 0.028319 0.000000
# 6 0.000000 0.000000 0.000000 -0.075664 0.000000 0.131842
#
#
# Mechanical properties :
#
#
# Convention : Reuss Voigt Hill
#
# Bulk Modulus (GPa) = 39.83168 63.86436 51.84802
# Shear Modulus (GPa) = 19.64464 1589.69933 804.67199
#
# Velocity S-wave (km/s) = 3.03191 27.27418 19.40455
# Velocity P-wave (km/s) = 5.55836 31.96444 22.94146
#
# Compressibility (1/GPa) = 0.02510565
#
# Stress axis : x y z
#
# Youngs Moduli (GPa) = 104.63555 61.39269 126.47783
#
# Poissons Ratio (x) = 0.04893 0.62286
# Poissons Ratio (y) = 0.08339 -0.17686
# Poissons Ratio (z) = 0.51529 -0.08585
#
# Static dielectric constant tensor:
#      x y z
#    x 1.742770 0.000000 -0.009770 
#    y 0.000000 1.877330 0.000000 
#    z -0.009770 0.000000 1.763540 
# 
# From -- ./inp_files/275483.got.cif
#   From: 2010.05.17/outbox.cif.g08.bks.cpg/sg12_138_cif.got.tgz:275483.got - 2010.06.03 13:09:07.
