data_PCOD9195162
_publ_section_title
;
Structure prediction by ZEFSAII (Michael W. Deem and Ramdas Pophale) SiO2 
 PCOD9195162
Probable space group: C 2/M
;
_chemical_formula_sum "Si O2"
_cell_formula_units_Z 64
_cell_length_a 24.714634
_cell_length_b 7.798708
_cell_length_c 20.159947
_cell_angle_alpha 90.000000
_cell_angle_beta 58.667478
_cell_angle_gamma 90.000000
_cell_volume 3319.001079
_symmetry_space_group_name_H-M "C 2/M"
_symmetry_group_IT_number 12
_symmetry_cell_setting 'monoclinic'
loop_
_space_group_symop_operation_xyz
x,y,z
-x,y,-z
-x,-y,-z
x,-y,z
1/2+x,1/2+y,z
1/2-x,1/2+y,-z
1/2-x,1/2-y,-z
1/2+x,1/2-y,z
loop_
_atom_site_type_symbol
_atom_site_label
_atom_site_fract_x
_atom_site_fract_y
_atom_site_fract_z
Si Si1 0.923327 0.210083 0.915602
Si Si2 0.699875 0.795752 0.732222
Si Si3 0.420998 0.293579 0.763110
Si Si4 0.704507 0.299534 0.222081
Si Si5 0.305839 0.794633 0.414800
Si Si6 0.213902 0.205464 0.954930
Si Si7 0.557046 0.795416 0.685984
Si Si8 0.939718 0.804283 0.163588
O O1 0.916114 0.265674 0.843075
O O2 0.991464 0.269956 0.900267
O O3 0.925587 0.000000 0.913944
O O4 0.859406 0.261370 0.993518
O O5 0.754739 0.722699 0.743962
O O6 0.702786 0.727794 0.655027
O O7 0.629260 0.771398 0.807036
O O8 0.708608 0.000000 0.722634
O O9 0.415839 0.500000 0.768850
O O10 0.363329 0.225067 0.755904
O O11 0.490979 0.247213 0.693778
O O12 0.693655 0.500000 0.244579
O O13 0.748603 0.288004 0.129284
O O14 0.250000 0.750000 0.500000
O O15 0.377227 0.743143 0.390347
O O16 0.306376 0.000000 0.410392
O O17 0.214973 0.000000 0.946140
O O18 0.250000 0.250000 0.000000
O O19 0.556031 0.705569 0.758646
O O20 0.558925 0.000000 0.697277
O O21 0.937636 0.000000 0.142028
#
# Coordination Sequence:
#
# PCOD9195162 Si02
#       8
#     8   8   8   8   8   8   8   8
#     4   8  15  28  45  66  93 122 160 207 248 285
#     4   9  19  35  52  72 101 131 161 202 249 294
#     4   9  16  29  48  69  94 128 167 201 243 290
#     4  10  20  35  51  69  99 135 167 205 252 298
#     4   9  18  32  52  78 102 126 156 196 243 291
#     4  11  20  32  48  70  99 130 170 214 255 297
#     4   9  17  29  46  73 103 125 156 201 244 283
#     4   9  16  29  49  69  92 126 165 203 245 293
#
# _framework density 19.282910999999999
#
# number of rings (size 3 to 8) (size 9 to 14) (size 15 to 20)
#    0.000    2.750    1.250    2.625    0.000    3.500 
#    0.000    2.500    0.000    4.500    0.000    5.250 
#    0.000    0.000    0.000    0.000    0.000    0.000 
#
# Total GULP energy -178269.277904 kJ/mol
# GULP energy per Si atom -5570.914934 kJ/mol
# Density = 1.923902 g / cm^3
# Si number density = 19.282911 Si / 1000 Ang^3
#
#
#
# Elastic Constant Matrix: (Units=GPa)
#
#
# Indices 1 2 3 4 5 6 
#
# 1 141.0661 1.8072 55.0221 -0.0001 -32.4228 0.0002
# 2 1.8072 25.0283 -10.5531 -0.0005 0.8325 0.0010
# 3 55.0221 -10.5531 70.8768 0.0000 -33.4778 0.0003
# 4 -0.0001 -0.0005 0.0000 19.7087 0.0000 -6.8270
# 5 -32.4228 0.8325 -33.4778 0.0000 30.8244 0.0000
# 6 0.0002 0.0010 0.0003 -6.8270 0.0000 16.1487
#
#
#
# Elastic Compliance Matrix: (Units=1/GPa)
#
#
# Indices 1 2 3 4 5 6 
#
# 1 0.010803 -0.003981 -0.007312 0.000000 0.003529 0.000000
# 2 -0.003981 0.046293 0.015225 0.000000 0.011098 -0.000003
# 3 -0.007312 0.015225 0.037423 0.000000 0.032542 -0.000002
# 4 0.000000 0.000000 0.000000 0.059444 0.000000 0.025131
# 5 0.003529 0.011098 0.032542 0.000000 0.071198 -0.000001
# 6 0.000000 -0.000003 -0.000002 0.025131 -0.000001 0.072549
#
#
# Mechanical properties :
#
#
# Convention : Reuss Voigt Hill
#
# Bulk Modulus (GPa) = 9.76722 36.61373 23.19048
# Shear Modulus (GPa) = 15.43338 26.04936 20.74137
#
# Velocity S-wave (km/s) = 2.83214 3.67945 3.28325
# Velocity P-wave (km/s) = 3.97126 6.08934 5.14057
#
# Compressibility (1/GPa) = 0.10238327
#
# Stress axis : x y z
#
# Youngs Moduli (GPa) = 92.56584 21.60168 26.72135
#
# Poissons Ratio (x) = 0.08599 0.19539
# Poissons Ratio (y) = 0.36847 -0.40683
# Poissons Ratio (z) = 0.67687 -0.32889
#
# Static dielectric constant tensor:
#      x y z
#    x 1.728580 0.000000 -0.033330 
#    y 0.000000 1.710630 0.000000 
#    z -0.033330 0.000000 1.665390 
# 
# From -- ./inp_files/348523.got.cif
#   From: 2010.05.17/outbox.cif.g08.bks.cpg/sg12_175_cif.got.tgz:348523.got - 2010.06.03 13:09:07.
