data_PCOD9195181
_publ_section_title
;
Structure prediction by ZEFSAII (Michael W. Deem and Ramdas Pophale) SiO2 
 PCOD9195181
Probable space group: C 2/M
;
_chemical_formula_sum "Si O2"
_cell_formula_units_Z 56
_cell_length_a 15.767682
_cell_length_b 18.914087
_cell_length_c 10.983963
_cell_angle_alpha 90.000000
_cell_angle_beta 121.213059
_cell_angle_gamma 90.000000
_cell_volume 2801.582611
_symmetry_space_group_name_H-M "C 2/M"
_symmetry_group_IT_number 12
_symmetry_cell_setting 'monoclinic'
loop_
_space_group_symop_operation_xyz
x,y,z
-x,y,-z
-x,-y,-z
x,-y,z
1/2+x,1/2+y,z
1/2-x,1/2+y,-z
1/2-x,1/2-y,-z
1/2+x,1/2-y,z
loop_
_atom_site_type_symbol
_atom_site_label
_atom_site_fract_x
_atom_site_fract_y
_atom_site_fract_z
Si Si1 0.916872 0.739332 0.659308
Si Si2 0.724907 0.676014 0.608312
Si Si3 0.202102 0.083908 0.812762
Si Si4 0.544876 0.878795 0.653026
Si Si5 0.273474 0.201211 0.191929
Si Si6 0.425462 0.083486 0.047519
Si Si7 0.603640 0.300115 0.895147
O O1 0.835719 0.681570 0.639343
O O2 0.855589 0.802921 0.552211
O O3 0.986836 0.696354 0.618878
O O4 0.991664 0.772397 0.813678
O O5 0.701912 0.607690 0.671567
O O6 0.724061 0.742046 0.700179
O O7 0.121596 0.130439 0.825566
O O8 0.190318 0.000000 0.819118
O O9 0.311499 0.107718 0.943704
O O10 0.500000 0.915480 0.500000
O O11 0.661947 0.865843 0.721462
O O12 0.537892 0.907315 0.786433
O O13 0.336249 0.237656 0.129674
O O14 0.163235 0.187463 0.063329
O O15 0.419704 0.000000 0.019862
O O16 0.500000 0.114110 0.000000
#
# Coordination Sequence:
#
# PCOD9195181 Si02
#       7
#     8   8   8   8   8   8   8
#     4  10  21  33  52  78 114 148 182 248 301 339
#     4  10  20  35  51  81 113 146 190 240 301 352
#     4  10  20  35  56  80 114 154 191 238 287 351
#     4  11  19  33  55  81 110 150 185 235 297 349
#     4   9  17  31  50  76 105 141 186 239 280 346
#     4  10  21  36  54  81 115 153 195 239 288 354
#     4   9  18  32  51  77 105 142 192 231 285 340
#
# _framework density 19.988703000000001
#
# number of rings (size 3 to 8) (size 9 to 14) (size 15 to 20)
#    0.000    2.143    2.857    0.857    2.000    0.857 
#    0.000    1.429    0.000    0.000    0.000    4.000 
#    0.000    0.000    0.000    0.000    0.000    0.000 
#
# Total GULP energy -156011.439863 kJ/mol
# GULP energy per Si atom -5571.837138 kJ/mol
# Density = 1.994321 g / cm^3
# Si number density = 19.988703 Si / 1000 Ang^3
#
#
#
# Elastic Constant Matrix: (Units=GPa)
#
#
# Indices 1 2 3 4 5 6 
#
# 1 40.0722 1.0090 15.3411 0.0000 10.5294 0.0000
# 2 1.0090 56.0968 -6.8656 0.0000 3.7381 0.0000
# 3 15.3411 -6.8656 85.2555 0.0000 17.2004 0.0000
# 4 0.0000 0.0000 0.0000 15.9766 0.0000 -5.0037
# 5 10.5294 3.7381 17.2004 0.0000 30.5767 0.0000
# 6 0.0000 0.0000 0.0000 -5.0037 0.0000 13.5884
#
#
#
# Elastic Compliance Matrix: (Units=1/GPa)
#
#
# Indices 1 2 3 4 5 6 
#
# 1 0.028361 -0.000436 -0.003586 0.000000 -0.007696 0.000000
# 2 -0.000436 0.018330 0.002229 0.000000 -0.003345 0.000000
# 3 -0.003586 0.002229 0.013942 0.000000 -0.006881 0.000000
# 4 0.000000 0.000000 0.000000 0.070751 0.000000 0.026053
# 5 -0.007696 -0.003345 -0.006881 0.000000 0.039634 0.000000
# 6 0.000000 0.000000 0.000000 0.026053 0.000000 0.083186
#
#
# Mechanical properties :
#
#
# Convention : Reuss Voigt Hill
#
# Bulk Modulus (GPa) = 17.52904 22.26594 19.89749
# Shear Modulus (GPa) = 18.06324 23.49102 20.77713
#
# Velocity S-wave (km/s) = 3.00938 3.43186 3.22754
# Velocity P-wave (km/s) = 4.56767 5.18334 4.88521
#
# Compressibility (1/GPa) = 0.05704818
#
# Stress axis : x y z
#
# Youngs Moduli (GPa) = 35.25976 54.55567 71.72345
#
# Poissons Ratio (x) = 0.02379 0.25719
# Poissons Ratio (y) = 0.01538 -0.15990
# Poissons Ratio (z) = 0.12643 -0.12163
#
# Static dielectric constant tensor:
#      x y z
#    x 1.779430 0.000000 -0.007900 
#    y 0.000000 1.702500 0.000000 
#    z -0.007900 0.000000 1.778030 
# 
# From -- ./inp_files/158315.got.cif
#   From: 2010.05.17/outbox.cif.g08.bks.cpg/sg12_80_cif.got.tgz:158315.got - 2010.06.03 13:09:07.
