data_PCOD9195735
_publ_section_title
;
Structure prediction by ZEFSAII (Michael W. Deem and Ramdas Pophale) SiO2 
 PCOD9195735
Probable space group: C 2/M
;
_chemical_formula_sum "Si O2"
_cell_formula_units_Z 48
_cell_length_a 15.043163
_cell_length_b 7.750587
_cell_length_c 24.692785
_cell_angle_alpha 90.000000
_cell_angle_beta 139.858089
_cell_angle_gamma 90.000000
_cell_volume 1856.051578
_symmetry_space_group_name_H-M "C 2/M"
_symmetry_group_IT_number 12
_symmetry_cell_setting 'monoclinic'
loop_
_space_group_symop_operation_xyz
x,y,z
-x,y,-z
-x,-y,-z
x,-y,z
1/2+x,1/2+y,z
1/2-x,1/2+y,-z
1/2-x,1/2-y,-z
1/2+x,1/2-y,z
loop_
_atom_site_type_symbol
_atom_site_label
_atom_site_fract_x
_atom_site_fract_y
_atom_site_fract_z
Si Si1 0.570336 0.712351 0.800433
Si Si2 0.090357 0.203008 0.927179
Si Si3 0.653883 0.707091 0.564094
Si Si4 0.325981 0.792051 0.307886
Si Si5 0.099457 0.700903 0.385098
Si Si6 0.156812 0.696379 0.123000
O O1 0.563803 0.500000 0.793610
O O2 0.530766 0.769991 0.842117
O O3 0.480379 0.785108 0.709768
O O4 0.728529 0.774572 0.863446
O O5 0.998544 0.249462 0.936132
O O6 0.080391 0.000000 0.918696
O O7 0.250000 0.250000 0.000000
O O8 0.500000 0.779610 0.500000
O O9 0.646031 0.500000 0.553957
O O10 0.719846 0.745938 0.653322
O O11 0.750319 0.775748 0.560346
O O12 0.484020 0.725531 0.371986
O O13 0.233931 0.716478 0.217086
O O14 0.323813 0.000000 0.300979
O O15 0.116743 0.500000 0.406205
O O16 0.148839 0.500000 0.102744
#
# Coordination Sequence:
#
# PCOD9195735 Si02
#       6
#     8   8   8   8   8   8
#     4   9  20  37  57  79 105 138 177 219 264 316
#     4  11  23  38  55  80 112 145 179 218 265 316
#     4  10  21  36  53  76 108 145 181 218 265 320
#     4  10  20  35  55  80 107 136 175 222 268 315
#     4   9  19  35  55  78 105 137 175 220 267 315
#     4  10  20  37  59  81 105 138 178 220 266 315
#
# _framework density 25.861350999999999
#
# number of rings (size 3 to 8) (size 9 to 14) (size 15 to 20)
#    0.000    2.167    0.000    2.500    0.000    7.667 
#    0.000    3.333    0.000    0.000    0.000    0.000 
#    0.000    0.000    0.000    0.000    0.000    0.000 
#
# Total GULP energy -134166.262826 kJ/mol
# GULP energy per Si atom -5590.260951 kJ/mol
# Density = 2.580249 g / cm^3
# Si number density = 25.861351 Si / 1000 Ang^3
#
#
#
# Elastic Constant Matrix: (Units=GPa)
#
#
# Indices 1 2 3 4 5 6 
#
# 1 182.6380 1.8426 10.0831 0.0000 19.1992 0.0000
# 2 1.8426 56.9114 -4.0195 0.0000 0.4861 0.0000
# 3 10.0831 -4.0195 68.9933 0.0000 18.1578 0.0000
# 4 0.0000 0.0000 0.0000 26.1888 0.0000 0.8340
# 5 19.1992 0.4861 18.1578 0.0000 54.6141 0.0000
# 6 0.0000 0.0000 0.0000 0.8340 0.0000 19.6805
#
#
#
# Elastic Compliance Matrix: (Units=1/GPa)
#
#
# Indices 1 2 3 4 5 6 
#
# 1 0.005695 -0.000193 -0.000347 0.000000 -0.001885 0.000000
# 2 -0.000193 0.017665 0.001185 0.000000 -0.000483 0.000000
# 3 -0.000347 0.001185 0.015983 0.000000 -0.005202 0.000000
# 4 0.000000 0.000000 0.000000 0.038236 0.000000 -0.001620
# 5 -0.001885 -0.000483 -0.005202 0.000000 0.020707 0.000000
# 6 0.000000 0.000000 0.000000 -0.001620 0.000000 0.050880
#
#
# Mechanical properties :
#
#
# Convention : Reuss Voigt Hill
#
# Bulk Modulus (GPa) = 24.61152 36.03945 30.32549
# Shear Modulus (GPa) = 30.97487 40.13911 35.55699
#
# Velocity S-wave (km/s) = 3.46458 3.94393 3.71200
# Velocity P-wave (km/s) = 5.05389 5.89112 5.48849
#
# Compressibility (1/GPa) = 0.04063138
#
# Stress axis : x y z
#
# Youngs Moduli (GPa) = 175.60626 56.60846 62.56599
#
# Poissons Ratio (x) = 0.01092 0.02174
# Poissons Ratio (y) = 0.03386 -0.07411
# Poissons Ratio (z) = 0.06102 -0.06705
#
# Static dielectric constant tensor:
#      x y z
#    x 2.038360 0.000000 0.058680 
#    y 0.000000 1.921110 0.000000 
#    z 0.058680 0.000000 2.132670 
# 
# From -- ./inp_files/308270.got.cif
#   From: 2010.05.17/outbox.cif.g08.bks.cpg/sg12_155_cif.got.tgz:308270.got - 2010.06.03 13:09:07.
