data_PCOD9195702
_publ_section_title
;
Structure prediction by ZEFSAII (Michael W. Deem and Ramdas Pophale) SiO2 
 PCOD9195702
Probable space group: C 2/M
;
_chemical_formula_sum "Si O2"
_cell_formula_units_Z 40
_cell_length_a 7.617260
_cell_length_b 18.818375
_cell_length_c 19.485484
_cell_angle_alpha 90.000000
_cell_angle_beta 132.552108
_cell_angle_gamma 90.000000
_cell_volume 2057.598927
_symmetry_space_group_name_H-M "C 2/M"
_symmetry_group_IT_number 12
_symmetry_cell_setting 'monoclinic'
loop_
_space_group_symop_operation_xyz
x,y,z
-x,y,-z
-x,-y,-z
x,-y,z
1/2+x,1/2+y,z
1/2-x,1/2+y,-z
1/2-x,1/2-y,-z
1/2+x,1/2-y,z
loop_
_atom_site_type_symbol
_atom_site_label
_atom_site_fract_x
_atom_site_fract_y
_atom_site_fract_z
Si Si1 0.272879 0.705520 0.099914
Si Si2 0.748858 0.585763 0.646084
Si Si3 0.810235 0.586270 0.507530
Si Si4 0.672664 0.577871 0.980659
Si Si5 0.557449 0.149448 0.165171
O O1 0.387180 0.782155 0.124408
O O2 0.277545 0.678477 0.179095
O O3 0.386819 0.643648 0.083907
O O4 0.000000 0.711232 0.000000
O O5 0.764082 0.500000 0.653186
O O6 0.347962 0.892017 0.597270
O O7 0.885998 0.618903 0.746149
O O8 0.467678 0.604533 0.579144
O O9 0.821820 0.500000 0.509919
O O10 0.000000 0.611372 0.500000
O O11 0.661143 0.500000 0.944460
O O12 0.931311 0.592110 0.082232
O O13 0.500000 0.578624 0.000000
#
# Coordination Sequence:
#
# PCOD9195702 Si02
#       5
#     8   8   8   8   8
#     4  10  21  36  55  74 106 155 189 217 273 331
#     4   9  18  32  56  88 113 141 183 230 279 329
#     4   8  15  33  57  81 114 147 175 220 286 345
#     4  10  20  35  55  79 109 144 184 231 275 319
#     4  11  20  35  54  78 111 145 188 228 269 324
#
# _framework density 19.440134
#
# number of rings (size 3 to 8) (size 9 to 14) (size 15 to 20)
#    0.000    2.400    0.000    6.000    0.000    4.400 
#    7.200    0.000    0.000    4.800    0.000    0.000 
#    0.000    0.000    0.000    0.400    0.000    0.200 
#
# Total GULP energy -111499.140274 kJ/mol
# GULP energy per Si atom -5574.957014 kJ/mol
# Density = 1.939589 g / cm^3
# Si number density = 19.440134 Si / 1000 Ang^3
#
#
#
# Elastic Constant Matrix: (Units=GPa)
#
#
# Indices 1 2 3 4 5 6 
#
# 1 126.5504 32.3500 29.9853 0.0000 -18.6920 0.0000
# 2 32.3500 80.0956 27.2742 0.0000 -5.2549 0.0000
# 3 29.9853 27.2742 60.6077 0.0001 -26.0435 0.0000
# 4 0.0000 0.0000 0.0001 10.6949 0.0000 -4.4424
# 5 -18.6920 -5.2549 -26.0435 0.0000 22.4098 0.0000
# 6 0.0000 0.0000 0.0000 -4.4424 0.0000 10.9618
#
#
#
# Elastic Compliance Matrix: (Units=1/GPa)
#
#
# Indices 1 2 3 4 5 6 
#
# 1 0.009899 -0.003429 -0.000303 0.000000 0.007100 0.000000
# 2 -0.003429 0.016789 -0.010779 0.000000 -0.011450 0.000000
# 3 -0.000303 -0.010779 0.040561 0.000000 0.044357 0.000000
# 4 0.000000 0.000000 0.000000 0.112428 -0.000001 0.045563
# 5 0.007100 -0.011450 0.044357 -0.000001 0.099410 0.000000
# 6 0.000000 0.000000 0.000000 0.045563 0.000000 0.109690
#
#
# Mechanical properties :
#
#
# Convention : Reuss Voigt Hill
#
# Bulk Modulus (GPa) = 26.16006 49.60808 37.88407
# Shear Modulus (GPa) = 11.61324 20.65625 16.13474
#
# Velocity S-wave (km/s) = 2.44680 3.26322 2.88405
# Velocity P-wave (km/s) = 4.63340 6.30650 5.53355
#
# Compressibility (1/GPa) = 0.03822622
#
# Stress axis : x y z
#
# Youngs Moduli (GPa) = 101.01838 59.56167 24.65431
#
# Poissons Ratio (x) = 0.20424 0.00748
# Poissons Ratio (y) = 0.34640 0.26575
# Poissons Ratio (z) = 0.03065 0.64202
#
# Static dielectric constant tensor:
#      x y z
#    x 1.800910 0.000000 0.004010 
#    y 0.000000 1.671550 0.000000 
#    z 0.004010 0.000000 1.679460 
# 
# From -- ./inp_files/333245.got.cif
#   From: 2010.05.17/outbox.cif.g08.bks.cpg/sg12_167_cif.got.tgz:333245.got - 2010.06.03 13:09:07.
