data_PCOD9195110
_publ_section_title
;
Structure prediction by ZEFSAII (Michael W. Deem and Ramdas Pophale) SiO2 
 PCOD9195110
Probable space group: C 2/M
;
_chemical_formula_sum "Si O2"
_cell_formula_units_Z 44
_cell_length_a 23.397181
_cell_length_b 14.516933
_cell_length_c 17.132282
_cell_angle_alpha 90.000000
_cell_angle_beta 159.221925
_cell_angle_gamma 90.000000
_cell_volume 2064.310692
_symmetry_space_group_name_H-M "C 2/M"
_symmetry_group_IT_number 12
_symmetry_cell_setting 'monoclinic'
loop_
_space_group_symop_operation_xyz
x,y,z
-x,y,-z
-x,-y,-z
x,-y,z
1/2+x,1/2+y,z
1/2-x,1/2+y,-z
1/2-x,1/2-y,-z
1/2+x,1/2-y,z
loop_
_atom_site_type_symbol
_atom_site_label
_atom_site_fract_x
_atom_site_fract_y
_atom_site_fract_z
Si Si1 0.180824 0.500000 0.463914
Si Si2 0.110274 0.097772 0.717614
Si Si3 0.862428 0.192587 0.889948
Si Si4 0.500050 0.793705 0.362526
Si Si5 0.039487 0.342615 0.860670
Si Si6 0.955899 0.000000 0.035637
Si Si7 0.010477 0.500000 0.609462
O O1 0.371406 0.500000 0.704204
O O2 0.109850 0.411898 0.328883
O O3 0.119898 0.500000 0.479260
O O4 0.000000 0.096026 0.500000
O O5 0.082147 0.199760 0.714999
O O6 0.074604 0.000000 0.715352
O O7 0.298911 0.097839 0.940214
O O8 0.684318 0.208072 0.628709
O O9 0.924168 0.272452 0.024570
O O10 0.000000 0.186935 0.000000
O O11 0.860279 0.093209 0.929145
O O12 0.490531 0.789472 0.257766
O O13 0.427589 0.894246 0.295359
O O14 0.000000 0.000000 0.000000
O O15 0.000000 0.500000 0.500000
#
# Coordination Sequence:
#
# PCOD9195110 Si02
#       7
#     4   8   8   8   8   4   4
#     4  10  22  40  64  92 127 172 208 252 328 379
#     4  11  22  41  66  87 129 175 212 252 313 386
#     4  11  23  41  66  93 125 164 215 263 321 376
#     4  11  23  41  62  99 127 167 212 261 322 382
#     4  11  22  41  65  90 128 166 210 264 317 376
#     4  10  20  40  64  91 124 158 210 263 323 373
#     4  10  20  34  62  92 126 155 203 261 317 368
#
# _framework density 21.314620999999999
#
# number of rings (size 3 to 8) (size 9 to 14) (size 15 to 20)
#    0.000    1.273    2.727    6.000    0.000    2.909 
#    1.636    0.455    0.000    0.000    0.000    0.000 
#    0.000    0.000    0.000    0.000    0.000    0.000 
#
# Total GULP energy -122569.004220 kJ/mol
# GULP energy per Si atom -5571.318374 kJ/mol
# Density = 2.126611 g / cm^3
# Si number density = 21.314621 Si / 1000 Ang^3
#
#
#
# Elastic Constant Matrix: (Units=GPa)
#
#
# Indices 1 2 3 4 5 6 
#
# 1 43.7811 46.6307 19.7655 0.0000 -13.1210 0.0000
# 2 46.6307 193.7573 29.1530 0.0000 -2.6865 0.0000
# 3 19.7655 29.1530 131.2050 0.0000 -12.6406 0.0000
# 4 0.0000 0.0000 0.0000 49.4001 0.0000 -30.5322
# 5 -13.1210 -2.6865 -12.6406 0.0000 27.7099 0.0000
# 6 0.0000 0.0000 0.0000 -30.5322 0.0000 56.3094
#
#
#
# Elastic Compliance Matrix: (Units=1/GPa)
#
#
# Indices 1 2 3 4 5 6 
#
# 1 0.037729 -0.008520 -0.002248 0.000000 0.016014 0.000000
# 2 -0.008520 0.007264 -0.000681 0.000000 -0.003641 0.000000
# 3 -0.002248 -0.000681 0.008371 0.000000 0.002688 0.000000
# 4 0.000000 0.000000 0.000000 0.030446 0.000000 0.016509
# 5 0.016014 -0.003641 0.002688 0.000000 0.044544 0.000000
# 6 0.000000 0.000000 0.000000 0.016509 0.000000 0.026710
#
#
# Mechanical properties :
#
#
# Convention : Reuss Voigt Hill
#
# Bulk Modulus (GPa) = 32.82386 62.20465 47.51426
# Shear Modulus (GPa) = 26.57913 44.89683 35.73798
#
# Velocity S-wave (km/s) = 3.53511 4.59452 4.09918
# Velocity P-wave (km/s) = 5.66531 7.57585 6.68914
#
# Compressibility (1/GPa) = 0.03046564
#
# Stress axis : x y z
#
# Youngs Moduli (GPa) = 26.50448 137.67353 119.46533
#
# Poissons Ratio (x) = 1.17297 0.26855
# Poissons Ratio (y) = 0.22582 0.08138
# Poissons Ratio (z) = 0.05958 0.09378
#
# Static dielectric constant tensor:
#      x y z
#    x 1.814080 0.000000 0.045340 
#    y 0.000000 1.908940 0.000000 
#    z 0.045340 0.000000 1.805770 
# 
# From -- ./inp_files/290201.got.cif
#   From: 2010.05.17/outbox.cif.g08.bks.cpg/sg12_146_cif.got.tgz:290201.got - 2010.06.03 13:09:07.
