data_PCOD9195924
_publ_section_title
;
Structure prediction by ZEFSAII (Michael W. Deem and Ramdas Pophale) SiO2 
 PCOD9195924
Probable space group: C 2/M
;
_chemical_formula_sum "Si O2"
_cell_formula_units_Z 32
_cell_length_a 7.534699
_cell_length_b 19.988292
_cell_length_c 10.305549
_cell_angle_alpha 90.000000
_cell_angle_beta 126.288475
_cell_angle_gamma 90.000000
_cell_volume 1251.046002
_symmetry_space_group_name_H-M "C 2/M"
_symmetry_group_IT_number 12
_symmetry_cell_setting 'monoclinic'
loop_
_space_group_symop_operation_xyz
x,y,z
-x,y,-z
-x,-y,-z
x,-y,z
1/2+x,1/2+y,z
1/2-x,1/2+y,-z
1/2-x,1/2-y,-z
1/2+x,1/2-y,z
loop_
_atom_site_type_symbol
_atom_site_label
_atom_site_fract_x
_atom_site_fract_y
_atom_site_fract_z
Si Si1 0.176352 0.000000 0.827099
Si Si2 0.054891 0.500000 0.783328
Si Si3 0.647675 0.853697 0.755374
Si Si4 0.741541 0.636935 0.907871
Si Si5 0.267926 0.270750 0.332843
O O1 0.321215 0.000000 0.757271
O O2 0.087656 0.075675 0.793946
O O3 0.282662 0.000000 0.020361
O O4 0.096515 0.432322 0.720947
O O5 0.766007 0.808981 0.698163
O O6 0.418654 0.813520 0.676962
O O7 0.772624 0.848485 0.947213
O O8 0.729731 0.700332 0.811478
O O9 0.000000 0.612818 0.000000
O O10 0.500000 0.283495 0.500000
#
# Coordination Sequence:
#
# PCOD9195924 Si02
#       5
#     4   4   8   8   8
#     4   9  10  26  52  75  98 121 177 213 237 287
#     4   9  14  30  55  75  94 131 178 208 239 298
#     4  10  20  35  56  76 100 134 176 210 248 300
#     4   9  15  29  52  77  98 127 172 213 244 290
#     4  11  21  33  50  78 109 135 163 210 260 302
#
# _framework density 25.578593999999999
#
# number of rings (size 3 to 8) (size 9 to 14) (size 15 to 20)
#    0.000    2.250    7.500    1.500    0.000    0.000 
#    0.000    3.125    0.000    3.000    0.000   13.125 
#    0.000    0.000    0.000    0.000    0.000    0.000 
#
# Total GULP energy -89348.276888 kJ/mol
# GULP energy per Si atom -5584.267305 kJ/mol
# Density = 2.552038 g / cm^3
# Si number density = 25.578594 Si / 1000 Ang^3
#
#
#
# Elastic Constant Matrix: (Units=GPa)
#
#
# Indices 1 2 3 4 5 6 
#
# 1 95.5521 43.4801 12.8816 0.0000 11.8201 0.0000
# 2 43.4801 260.3348 33.7483 0.0000 2.0604 0.0000
# 3 12.8816 33.7483 50.6002 0.0000 -13.1308 0.0000
# 4 0.0000 0.0000 0.0000 -2.4847 0.0000 3.2742
# 5 11.8201 2.0604 -13.1308 0.0000 11.0144 0.0000
# 6 0.0000 0.0000 0.0000 3.2742 0.0000 27.1372
#
#
#
# Elastic Compliance Matrix: (Units=1/GPa)
#
#
# Indices 1 2 3 4 5 6 
#
# 1 0.016326 -0.000978 -0.011588 0.000000 -0.031152 0.000000
# 2 -0.000978 0.004554 -0.003963 0.000000 -0.004527 0.000000
# 3 -0.011588 -0.003963 0.041665 0.000000 0.062848 0.000000
# 4 0.000000 0.000000 0.000000 -0.347253 0.000000 0.041898
# 5 -0.031152 -0.004527 0.062848 0.000000 0.199992 0.000000
# 6 0.000000 0.000000 0.000000 0.041898 0.000000 0.031795
#
#
# Mechanical properties :
#
#
# Convention : Reuss Voigt Hill
#
# Bulk Modulus (GPa) = 33.91309 65.18970 49.55140
# Shear Modulus (GPa) = -498.32353 28.22521 -235.04916
#
# Velocity S-wave (km/s) = -13.97295 3.32546 -9.59648
# Velocity P-wave (km/s) = 15.71743 6.34714 10.16738
#
# Compressibility (1/GPa) = 0.02948714
#
# Stress axis : x y z
#
# Youngs Moduli (GPa) = 61.25062 219.57968 24.00083
#
# Poissons Ratio (x) = 0.21475 0.27812
# Poissons Ratio (y) = 0.05990 0.09512
# Poissons Ratio (z) = 0.70977 0.87025
#
# Static dielectric constant tensor:
#      x y z
#    x 2.146450 0.000000 0.086040 
#    y 0.000000 2.053810 0.000000 
#    z 0.086040 0.000000 2.014740 
# 
# From -- ./inp_files/120528.got.cif
#   From: 2010.05.17/outbox.cif.g08.bks.cpg/sg12_61_cif.got.tgz:120528.got - 2010.06.03 13:09:07.
