data_PCOD9195831
_publ_section_title
;
Structure prediction by ZEFSAII (Michael W. Deem and Ramdas Pophale) SiO2 
 PCOD9195831
Probable space group: C 2/M
;
_chemical_formula_sum "Si O2"
_cell_formula_units_Z 64
_cell_length_a 22.282203
_cell_length_b 7.610337
_cell_length_c 22.430492
_cell_angle_alpha 90.000000
_cell_angle_beta 128.291645
_cell_angle_gamma 90.000000
_cell_volume 2985.360211
_symmetry_space_group_name_H-M "C 2/M"
_symmetry_group_IT_number 12
_symmetry_cell_setting 'monoclinic'
loop_
_space_group_symop_operation_xyz
x,y,z
-x,y,-z
-x,-y,-z
x,-y,z
1/2+x,1/2+y,z
1/2-x,1/2+y,-z
1/2-x,1/2-y,-z
1/2+x,1/2-y,z
loop_
_atom_site_type_symbol
_atom_site_label
_atom_site_fract_x
_atom_site_fract_y
_atom_site_fract_z
Si Si1 0.978368 0.299459 0.669356
Si Si2 0.978319 0.797276 0.178734
Si Si3 0.865241 0.785086 0.784061
Si Si4 0.045521 0.206109 0.586700
Si Si5 0.703348 0.212745 0.632646
Si Si6 0.170232 0.289754 0.480193
Si Si7 0.909822 0.214048 0.944096
Si Si8 0.668270 0.288619 0.980595
O O1 0.968768 0.500000 0.683416
O O2 0.896367 0.217591 0.602729
O O3 0.020479 0.207999 0.749386
O O4 0.019973 0.295378 0.631696
O O5 0.900879 0.721492 0.103951
O O6 0.058327 0.723816 0.203066
O O7 0.979115 0.000000 0.159194
O O8 0.786854 0.725656 0.704499
O O9 0.873383 0.734154 0.858288
O O10 0.863481 0.000000 0.780931
O O11 0.135423 0.232256 0.634039
O O12 0.000000 0.273726 0.500000
O O13 0.027276 0.000000 0.580641
O O14 0.675757 0.277923 0.550846
O O15 0.705828 0.000000 0.631654
O O16 0.157377 0.500000 0.475765
O O17 0.250000 0.250000 0.500000
O O18 0.911621 0.000000 0.946730
O O19 0.858247 0.271362 0.969087
O O20 0.000000 0.268995 0.000000
O O21 0.666908 0.500000 0.982577
O O22 0.750000 0.250000 0.000000
#
# Coordination Sequence:
#
# PCOD9195831 Si02
#       8
#     8   8   8   8   8   8   8   8
#     4  11  23  38  58  82 111 152 195 238 289 346
#     4  10  20  37  59  85 118 155 195 244 295 346
#     4   9  17  31  57  88 115 147 192 242 292 343
#     4  11  23  39  59  81 108 150 196 237 285 347
#     4  10  20  35  55  82 114 146 184 238 291 341
#     4  10  21  35  53  78 110 147 186 230 284 341
#     4   9  15  30  57  87 113 147 198 242 282 342
#     4  10  21  36  59  89 124 161 197 246 298 356
#
# _framework density 21.437949
#
# number of rings (size 3 to 8) (size 9 to 14) (size 15 to 20)
#    0.000    2.000    2.500    1.500    0.000    4.500 
#    0.000    1.875    0.000    1.125    0.000    0.000 
#    0.000    0.000    0.000    0.000    0.000    0.000 
#
# Total GULP energy -178617.568541 kJ/mol
# GULP energy per Si atom -5581.799017 kJ/mol
# Density = 2.138915 g / cm^3
# Si number density = 21.437949 Si / 1000 Ang^3
#
#
#
# Elastic Constant Matrix: (Units=GPa)
#
#
# Indices 1 2 3 4 5 6 
#
# 1 123.6386 -2.2321 30.2248 0.0000 4.3021 0.0000
# 2 -2.2321 47.4828 6.9444 0.0000 1.7447 -0.0002
# 3 30.2248 6.9444 103.1562 0.0000 0.4515 0.0000
# 4 0.0000 0.0000 0.0000 -4.2474 0.0000 5.6731
# 5 4.3021 1.7447 0.4515 0.0000 39.4666 0.0000
# 6 0.0000 -0.0002 0.0000 5.6731 0.0000 22.7330
#
#
#
# Elastic Compliance Matrix: (Units=1/GPa)
#
#
# Indices 1 2 3 4 5 6 
#
# 1 0.008778 0.000832 -0.002624 0.000000 -0.000964 0.000000
# 2 0.000832 0.021382 -0.001679 0.000000 -0.001017 0.000000
# 3 -0.002624 -0.001679 0.010575 0.000000 0.000239 0.000000
# 4 0.000000 0.000000 0.000000 -0.176580 0.000000 0.044066
# 5 -0.000964 -0.001017 0.000239 0.000000 0.025485 0.000000
# 6 0.000000 0.000000 0.000000 0.044066 0.000000 0.032992
#
#
# Mechanical properties :
#
#
# Convention : Reuss Voigt Hill
#
# Bulk Modulus (GPa) = 29.59131 38.23908 33.91519
# Shear Modulus (GPa) = -84.51317 27.54648 -28.48334
#
# Velocity S-wave (km/s) = -6.28552 3.58850 -3.64901
# Velocity P-wave (km/s) = 6.23249 5.91993 1.37810
#
# Compressibility (1/GPa) = 0.03379371
#
# Stress axis : x y z
#
# Youngs Moduli (GPa) = 113.92069 46.76777 94.56481
#
# Poissons Ratio (x) = -0.03890 0.24811
# Poissons Ratio (y) = -0.09476 0.15875
# Poissons Ratio (z) = 0.29890 0.07851
#
# Static dielectric constant tensor:
#      x y z
#    x 1.774760 0.000000 -0.007460 
#    y 0.000000 1.809760 0.000000 
#    z -0.007460 0.000000 1.761330 
# 
# From -- ./inp_files/324217.got.cif
#   From: 2010.05.17/outbox.cif.g08.bks.cpg/sg12_163_cif.got.tgz:324217.got - 2010.06.03 13:09:07.
