data_PCOD9195367
_publ_section_title
;
Structure prediction by ZEFSAII (Michael W. Deem and Ramdas Pophale) SiO2 
 PCOD9195367
Probable space group: C 2/M
;
_chemical_formula_sum "Si O2"
_cell_formula_units_Z 64
_cell_length_a 14.355197
_cell_length_b 7.431000
_cell_length_c 29.217942
_cell_angle_alpha 90.000000
_cell_angle_beta 61.593191
_cell_angle_gamma 90.000000
_cell_volume 2741.494211
_symmetry_space_group_name_H-M "C 2/M"
_symmetry_group_IT_number 12
_symmetry_cell_setting 'monoclinic'
loop_
_space_group_symop_operation_xyz
x,y,z
-x,y,-z
-x,-y,-z
x,-y,z
1/2+x,1/2+y,z
1/2-x,1/2+y,-z
1/2-x,1/2-y,-z
1/2+x,1/2-y,z
loop_
_atom_site_type_symbol
_atom_site_label
_atom_site_fract_x
_atom_site_fract_y
_atom_site_fract_z
Si Si1 0.048291 0.293271 0.442722
Si Si2 0.755661 0.791968 0.149715
Si Si3 0.907464 0.285903 0.742877
Si Si4 0.474050 0.719993 0.056939
Si Si5 0.958356 0.786655 0.371337
Si Si6 0.603648 0.704346 0.761570
Si Si7 0.560809 0.281855 0.129591
Si Si8 0.266916 0.278539 0.350358
O O1 0.075746 0.500000 0.447920
O O2 0.966571 0.291103 0.419892
O O3 0.000000 0.211430 0.500000
O O4 0.155467 0.214745 0.396092
O O5 0.702070 0.719648 0.209006
O O6 0.860381 0.715173 0.102159
O O7 0.661096 0.783573 0.134652
O O8 0.781729 0.000000 0.152874
O O9 0.911887 0.500000 0.750100
O O10 0.937531 0.256684 0.683316
O O11 0.003523 0.200626 0.749588
O O12 0.471934 0.500000 0.055551
O O13 0.556711 0.769090 0.077528
O O14 0.500000 0.782945 0.000000
O O15 0.858266 0.725199 0.364949
O O16 0.951052 0.000000 0.377345
O O17 0.636133 0.500000 0.764936
O O18 0.547404 0.781283 0.819713
O O19 0.695829 0.785183 0.708625
O O20 0.560837 0.500000 0.132773
O O21 0.266103 0.500000 0.347861
#
# Coordination Sequence:
#
# PCOD9195367 Si02
#       8
#     8   8   8   8   8   8   8   8
#     4  10  21  36  53  75 102 133 172 212 247 288
#     4   9  18  32  51  74 100 130 162 202 251 297
#     4   9  16  28  49  76 102 126 158 201 250 301
#     4   9  18  32  49  71  99 133 174 209 239 291
#     4  10  20  35  54  75 101 133 166 202 248 299
#     4   8  14  27  48  72  98 127 160 197 243 300
#     4   9  17  30  50  73  96 127 165 204 246 293
#     4   8  16  32  52  72  98 131 161 196 246 299
#
# _framework density 23.344933999999999
#
# number of rings (size 3 to 8) (size 9 to 14) (size 15 to 20)
#    0.000    3.000    0.000    1.500    0.000    2.750 
#    0.000    7.500    0.000    5.250    0.000    0.000 
#    0.000    0.000    0.000    0.000    0.000    0.000 
#
# Total GULP energy -178624.871200 kJ/mol
# GULP energy per Si atom -5582.027225 kJ/mol
# Density = 2.329180 g / cm^3
# Si number density = 23.344934 Si / 1000 Ang^3
#
#
#
# Elastic Constant Matrix: (Units=GPa)
#
#
# Indices 1 2 3 4 5 6 
#
# 1 69.9888 -1.6770 43.5301 -0.0001 7.4974 -0.0001
# 2 -1.6770 80.1342 6.7740 -0.0001 -3.4792 -0.0001
# 3 43.5301 6.7740 162.0046 -0.0001 26.9685 -0.0001
# 4 -0.0001 -0.0001 -0.0001 6.2585 0.0000 3.7559
# 5 7.4974 -3.4792 26.9685 0.0000 39.1288 0.0000
# 6 -0.0001 -0.0001 -0.0001 3.7559 0.0000 5.6631
#
#
#
# Elastic Compliance Matrix: (Units=1/GPa)
#
#
# Indices 1 2 3 4 5 6 
#
# 1 0.017200 0.000752 -0.004649 0.000000 -0.000025 0.000000
# 2 0.000752 0.012653 -0.001010 0.000000 0.001677 0.000000
# 3 -0.004649 -0.001010 0.008281 0.000000 -0.004906 0.000000
# 4 0.000000 0.000000 0.000000 0.265430 0.000000 -0.176040
# 5 -0.000025 0.001677 -0.004906 0.000000 0.029092 0.000000
# 6 0.000000 0.000000 0.000000 -0.176040 0.000000 0.293336
#
#
# Mechanical properties :
#
#
# Convention : Reuss Voigt Hill
#
# Bulk Modulus (GPa) = 35.31178 45.48688 40.39933
# Shear Modulus (GPa) = 7.74898 27.77678 17.76288
#
# Velocity S-wave (km/s) = 1.82388 3.45315 2.76141
# Velocity P-wave (km/s) = 4.42655 5.95197 5.24501
#
# Compressibility (1/GPa) = 0.02831916
#
# Stress axis : x y z
#
# Youngs Moduli (GPa) = 58.13921 79.03243 120.76109
#
# Poissons Ratio (x) = -0.05942 0.56141
# Poissons Ratio (y) = -0.04371 0.12201
# Poissons Ratio (z) = 0.27029 0.07985
#
# Static dielectric constant tensor:
#      x y z
#    x 1.881230 0.000000 -0.010410 
#    y 0.000000 1.876750 0.000000 
#    z -0.010410 0.000000 1.887880 
# 
# From -- ./inp_files/375008.got.cif
#   From: 2010.05.17/outbox.cif.g08.bks.cpg/sg12_188_cif.got.tgz:375008.got - 2010.06.03 13:09:07.
