data_PCOD9195109
_publ_section_title
;
Structure prediction by ZEFSAII (Michael W. Deem and Ramdas Pophale) SiO2 
 PCOD9195109
Probable space group: C 2/M
;
_chemical_formula_sum "Si O2"
_cell_formula_units_Z 44
_cell_length_a 19.486228
_cell_length_b 9.699666
_cell_length_c 12.401663
_cell_angle_alpha 90.000000
_cell_angle_beta 124.346652
_cell_angle_gamma 90.000000
_cell_volume 1935.328889
_symmetry_space_group_name_H-M "C 2/M"
_symmetry_group_IT_number 12
_symmetry_cell_setting 'monoclinic'
loop_
_space_group_symop_operation_xyz
x,y,z
-x,y,-z
-x,-y,-z
x,-y,z
1/2+x,1/2+y,z
1/2-x,1/2+y,-z
1/2-x,1/2-y,-z
1/2+x,1/2-y,z
loop_
_atom_site_type_symbol
_atom_site_label
_atom_site_fract_x
_atom_site_fract_y
_atom_site_fract_z
Si Si1 0.576001 0.664077 0.876273
Si Si2 0.226782 0.000000 0.450054
Si Si3 0.696565 0.156183 0.111281
Si Si4 0.107926 0.161093 0.665150
Si Si5 0.428648 0.847343 0.800693
Si Si6 0.345511 0.772731 0.502670
O O1 0.578071 0.500000 0.889148
O O2 0.565991 0.698789 0.741051
O O3 0.498221 0.731052 0.868615
O O4 0.658737 0.733371 0.996161
O O5 0.270439 0.122040 0.414701
O O6 0.186960 0.121990 0.492094
O O7 0.793031 0.171856 0.223364
O O8 0.642091 0.166596 0.172167
O O9 0.685054 0.000000 0.058457
O O10 0.095858 0.251333 0.548176
O O11 0.089137 0.000000 0.627759
O O12 0.387474 0.836900 0.646498
O O13 0.466562 0.000000 0.846370
#
# Coordination Sequence:
#
# PCOD9195109 Si02
#       6
#     8   4   8   8   8   8
#     4  11  25  43  61  91 130 168 208 258 313 368
#     4  10  20  34  62  90 132 150 200 258 304 358
#     4  10  21  42  69  89 117 167 217 258 307 367
#     4  10  22  42  66  91 129 168 204 254 318 376
#     4  11  24  42  65  92 128 168 206 255 317 375
#     4  11  21  39  62  99 124 162 205 257 312 375
#
# _framework density 22.735151999999999
#
# number of rings (size 3 to 8) (size 9 to 14) (size 15 to 20)
#    0.000    1.455    1.818    3.818    3.818    3.636 
#    8.182    2.727    0.000    0.000    0.000    0.000 
#    0.000    0.000    0.000    0.000    0.000    0.000 
#
# Total GULP energy -122572.193583 kJ/mol
# GULP energy per Si atom -5571.463345 kJ/mol
# Density = 2.268341 g / cm^3
# Si number density = 22.735152 Si / 1000 Ang^3
#
#
#
# Elastic Constant Matrix: (Units=GPa)
#
#
# Indices 1 2 3 4 5 6 
#
# 1 78.6593 28.1561 9.2384 0.0000 -10.7333 0.0000
# 2 28.1561 150.5682 35.7294 0.0000 -8.8912 0.0000
# 3 9.2384 35.7294 86.7369 0.0000 -12.8288 0.0000
# 4 0.0000 0.0000 0.0000 23.7073 0.0000 -7.3001
# 5 -10.7333 -8.8912 -12.8288 0.0000 39.9444 0.0000
# 6 0.0000 0.0000 0.0000 -7.3001 0.0000 19.5124
#
#
#
# Elastic Compliance Matrix: (Units=1/GPa)
#
#
# Indices 1 2 3 4 5 6 
#
# 1 0.014024 -0.002428 -0.000017 0.000000 0.003222 0.000000
# 2 -0.002428 0.007800 -0.002933 0.000000 0.000142 0.000000
# 3 -0.000017 -0.002933 0.013273 0.000000 0.003605 0.000000
# 4 0.000000 0.000000 0.000000 0.047673 0.000000 0.017836
# 5 0.003222 0.000142 0.003605 0.000000 0.027090 0.000000
# 6 0.000000 0.000000 0.000000 0.017836 0.000000 0.057922
#
#
# Mechanical properties :
#
#
# Convention : Reuss Voigt Hill
#
# Bulk Modulus (GPa) = 41.08555 51.35690 46.22122
# Shear Modulus (GPa) = 26.78780 32.82221 29.80500
#
# Velocity S-wave (km/s) = 3.43630 3.80370 3.62465
# Velocity P-wave (km/s) = 5.81849 6.47526 6.15564
#
# Compressibility (1/GPa) = 0.02433946
#
# Stress axis : x y z
#
# Youngs Moduli (GPa) = 71.30680 128.20440 75.34365
#
# Poissons Ratio (x) = 0.31130 0.00127
# Poissons Ratio (y) = 0.17315 0.22102
# Poissons Ratio (z) = 0.00120 0.37609
#
# Static dielectric constant tensor:
#      x y z
#    x 1.898180 0.000000 0.046840 
#    y 0.000000 1.779330 0.000000 
#    z 0.046840 0.000000 1.915100 
# 
# From -- ./inp_files/163283.got.cif
#   From: 2010.05.17/outbox.cif.g08.bks.cpg/sg12_82_cif.got.tgz:163283.got - 2010.06.03 13:09:07.
