data_PCOD9195776
_publ_section_title
;
Structure prediction by ZEFSAII (Michael W. Deem and Ramdas Pophale) SiO2 
 PCOD9195776
Probable space group: C 2/M
;
_chemical_formula_sum "Si O2"
_cell_formula_units_Z 56
_cell_length_a 18.383926
_cell_length_b 8.402830
_cell_length_c 19.148576
_cell_angle_alpha 90.000000
_cell_angle_beta 76.115524
_cell_angle_gamma 90.000000
_cell_volume 2871.586019
_symmetry_space_group_name_H-M "C 2/M"
_symmetry_group_IT_number 12
_symmetry_cell_setting 'monoclinic'
loop_
_space_group_symop_operation_xyz
x,y,z
-x,y,-z
-x,-y,-z
x,-y,z
1/2+x,1/2+y,z
1/2-x,1/2+y,-z
1/2-x,1/2-y,-z
1/2+x,1/2-y,z
loop_
_atom_site_type_symbol
_atom_site_label
_atom_site_fract_x
_atom_site_fract_y
_atom_site_fract_z
Si Si1 0.584078 0.307512 0.999413
Si Si2 0.725512 0.309142 0.429660
Si Si3 0.560547 0.190789 0.428587
Si Si4 0.846839 0.692586 0.286723
Si Si5 0.011897 0.190877 0.287767
Si Si6 0.799003 0.307596 0.142933
Si Si7 0.868953 0.194294 0.856406
O O1 0.584321 0.500000 0.999196
O O2 0.642778 0.249754 0.928439
O O3 0.500000 0.254396 0.000000
O O4 0.607813 0.253801 0.071379
O O5 0.725447 0.500000 0.429663
O O6 0.750000 0.250000 0.500000
O O7 0.642881 0.250455 0.429465
O O8 0.785463 0.254682 0.357671
O O9 0.500000 0.246277 0.500000
O O10 0.536807 0.248984 0.357714
O O11 0.560760 0.000000 0.429015
O O12 0.847535 0.500000 0.286821
O O13 0.823743 0.745900 0.214393
O O14 0.928900 0.751552 0.288218
O O15 0.070801 0.245996 0.215161
O O16 0.012775 0.000000 0.288129
O O17 0.798655 0.500000 0.143127
O O18 0.714822 0.253892 0.144040
O O19 0.869078 0.000000 0.856333
#
# Coordination Sequence:
#
# PCOD9195776 Si02
#       7
#     8   8   8   8   8   8   8
#     4  10  20  35  55  80 112 146 182 230 284 335
#     4  11  23  40  62  87 117 154 194 236 285 339
#     4  11  24  41  60  85 119 154 188 233 288 340
#     4  10  22  39  57  81 116 152 186 234 292 339
#     4  11  22  38  62  87 112 148 193 235 281 342
#     4  10  20  36  57  79 108 147 188 229 277 336
#     4   9  19  36  56  80 112 148 184 229 287 341
#
# _framework density 19.501418000000001
#
# number of rings (size 3 to 8) (size 9 to 14) (size 15 to 20)
#    0.000    1.714    0.000    4.286    0.000   10.000 
#    0.000    4.286    0.000    0.000    0.000    0.000 
#    0.000    0.000    0.000    0.000    0.000    0.000 
#
# Total GULP energy -156546.820384 kJ/mol
# GULP energy per Si atom -5590.957871 kJ/mol
# Density = 1.945703 g / cm^3
# Si number density = 19.501418 Si / 1000 Ang^3
#
#
#
# Elastic Constant Matrix: (Units=GPa)
#
#
# Indices 1 2 3 4 5 6 
#
# 1 246.8064 30.3305 152.8176 0.0000 0.8594 0.0000
# 2 30.3305 18.7912 31.7701 0.0000 0.2413 0.0000
# 3 152.8176 31.7701 247.1785 0.0000 0.4177 0.0000
# 4 0.0000 0.0000 0.0000 28.1636 0.0000 -4.5812
# 5 0.8594 0.2413 0.4177 0.0000 47.4335 0.0000
# 6 0.0000 0.0000 0.0000 -4.5812 0.0000 27.9900
#
#
#
# Elastic Compliance Matrix: (Units=1/GPa)
#
#
# Indices 1 2 3 4 5 6 
#
# 1 0.006918 -0.005027 -0.003631 0.000000 -0.000068 0.000000
# 2 -0.005027 0.071647 -0.006101 0.000000 -0.000220 0.000000
# 3 -0.003631 -0.006101 0.007074 0.000000 0.000035 0.000000
# 4 0.000000 0.000000 0.000000 0.036478 0.000000 0.005970
# 5 -0.000068 -0.000220 0.000035 0.000000 0.021084 0.000000
# 6 0.000000 0.000000 0.000000 0.005970 0.000000 0.036704
#
#
# Mechanical properties :
#
#
# Convention : Reuss Voigt Hill
#
# Bulk Modulus (GPa) = 17.81798 104.73472 61.27635
# Shear Modulus (GPa) = 21.91735 40.57459 31.24597
#
# Velocity S-wave (km/s) = 3.35608 4.56630 4.00714
# Velocity P-wave (km/s) = 4.91673 9.03462 7.27319
#
# Compressibility (1/GPa) = 0.05612309
#
# Stress axis : x y z
#
# Youngs Moduli (GPa) = 144.55462 13.95730 141.35403
#
# Poissons Ratio (x) = 0.07016 0.51322
# Poissons Ratio (y) = 0.72662 0.86237
# Poissons Ratio (z) = 0.52484 0.08515
#
# Static dielectric constant tensor:
#      x y z
#    x 1.636610 0.000000 -0.004080 
#    y 0.000000 1.684260 0.000000 
#    z -0.004080 0.000000 1.652590 
# 
# From -- ./inp_files/275147.got.cif
#   From: 2010.05.17/outbox.cif.g08.bks.cpg/sg12_138_cif.got.tgz:275147.got - 2010.06.03 13:09:07.
