data_PCOD9195736
_publ_section_title
;
Structure prediction by ZEFSAII (Michael W. Deem and Ramdas Pophale) SiO2 
 PCOD9195736
Probable space group: C 2/M
;
_chemical_formula_sum "Si O2"
_cell_formula_units_Z 48
_cell_length_a 21.077938
_cell_length_b 8.439661
_cell_length_c 23.859198
_cell_angle_alpha 90.000000
_cell_angle_beta 39.040860
_cell_angle_gamma 90.000000
_cell_volume 2673.393919
_symmetry_space_group_name_H-M "C 2/M"
_symmetry_group_IT_number 12
_symmetry_cell_setting 'monoclinic'
loop_
_space_group_symop_operation_xyz
x,y,z
-x,y,-z
-x,-y,-z
x,-y,z
1/2+x,1/2+y,z
1/2-x,1/2+y,-z
1/2-x,1/2-y,-z
1/2+x,1/2-y,z
loop_
_atom_site_type_symbol
_atom_site_label
_atom_site_fract_x
_atom_site_fract_y
_atom_site_fract_z
Si Si1 0.755992 0.810212 0.932616
Si Si2 0.065291 0.810353 0.271179
Si Si3 0.890613 0.306858 0.552389
Si Si4 0.143597 0.310128 0.551097
Si Si5 0.709177 0.191311 0.268640
Si Si6 0.386264 0.691813 0.066574
O O1 0.859677 0.758484 0.830342
O O2 0.664868 0.750103 0.955787
O O3 0.754273 0.000000 0.933881
O O4 0.750000 0.750000 0.000000
O O5 0.117996 0.748212 0.291800
O O6 0.951882 0.748038 0.347536
O O7 0.063921 0.000000 0.272991
O O8 0.890439 0.500000 0.551029
O O9 0.871427 0.252076 0.502653
O O10 0.809905 0.256563 0.654683
O O11 0.000000 0.258095 0.500000
O O12 0.142900 0.500000 0.551326
O O13 0.250000 0.250000 0.500000
O O14 0.811439 0.243799 0.168035
O O15 0.707908 0.000000 0.268998
O O16 0.386483 0.500000 0.065028
O O17 0.500000 0.745548 0.000000
#
# Coordination Sequence:
#
# PCOD9195736 Si02
#       6
#     8   8   8   8   8   8
#     4  10  21  37  58  81 107 141 184 229 274 329
#     4  10  20  35  55  80 107 139 179 223 273 323
#     4   9  16  30  54  79  99 133 180 217 254 310
#     4  11  22  37  55  77 111 146 181 222 269 321
#     4   9  16  31  55  78 102 138 180 218 261 315
#     4   9  18  33  54  81 111 141 177 220 270 327
#
# _framework density 17.954705000000001
#
# number of rings (size 3 to 8) (size 9 to 14) (size 15 to 20)
#    0.000    2.333    1.667    1.500    0.000    2.333 
#    3.000    2.500    0.000    0.000    0.000    0.000 
#    0.000    0.000    0.000    0.000    0.000    0.000 
#
# Total GULP energy -133862.260789 kJ/mol
# GULP energy per Si atom -5577.594200 kJ/mol
# Density = 1.791384 g / cm^3
# Si number density = 17.954705 Si / 1000 Ang^3
#
#
#
# Elastic Constant Matrix: (Units=GPa)
#
#
# Indices 1 2 3 4 5 6 
#
# 1 129.5118 16.6491 95.6277 -0.0001 -6.3499 0.0001
# 2 16.6491 14.9032 21.8109 -0.0003 -1.3241 0.0005
# 3 95.6277 21.8109 141.7304 -0.0001 -6.0535 0.0001
# 4 -0.0001 -0.0003 -0.0001 20.6386 0.0001 -3.1928
# 5 -6.3499 -1.3241 -6.0535 0.0001 38.6519 -0.0001
# 6 0.0001 0.0005 0.0001 -3.1928 -0.0001 25.0718
#
#
#
# Elastic Compliance Matrix: (Units=1/GPa)
#
#
# Indices 1 2 3 4 5 6 
#
# 1 0.015494 -0.002564 -0.010022 0.000000 0.000888 0.000000
# 2 -0.002564 0.087059 -0.011636 0.000001 0.000739 -0.000002
# 3 -0.010022 -0.011636 0.015625 0.000000 0.000402 0.000000
# 4 0.000000 0.000001 0.000000 0.049427 0.000000 0.006294
# 5 0.000888 0.000739 0.000402 0.000000 0.026106 0.000000
# 6 0.000000 -0.000002 0.000000 0.006294 0.000000 0.040687
#
#
# Mechanical properties :
#
#
# Convention : Reuss Voigt Hill
#
# Bulk Modulus (GPa) = 14.33998 61.59120 37.96559
# Shear Modulus (GPa) = 16.33530 27.00964 21.67247
#
# Velocity S-wave (km/s) = 3.01957 3.88277 3.47805
# Velocity P-wave (km/s) = 4.49012 7.38101 6.10903
#
# Compressibility (1/GPa) = 0.06973511
#
# Stress axis : x y z
#
# Youngs Moduli (GPa) = 64.54068 11.48652 63.99883
#
# Poissons Ratio (x) = 0.02945 0.64138
# Poissons Ratio (y) = 0.16546 0.74470
# Poissons Ratio (z) = 0.64681 0.13366
#
# Static dielectric constant tensor:
#      x y z
#    x 1.579500 0.000000 0.006510 
#    y 0.000000 1.616380 0.000000 
#    z 0.006510 0.000000 1.643830 
# 
# From -- ./inp_files/345411.got.cif
#   From: 2010.05.17/outbox.cif.g08.bks.cpg/sg12_173_cif.got.tgz:345411.got - 2010.06.03 13:09:07.
