data_PCOD9195900
_publ_section_title
;
Structure prediction by ZEFSAII (Michael W. Deem and Ramdas Pophale) SiO2 
 PCOD9195900
Probable space group: C 2/M
;
_chemical_formula_sum "Si O2"
_cell_formula_units_Z 64
_cell_length_a 15.824130
_cell_length_b 8.028861
_cell_length_c 29.152361
_cell_angle_alpha 90.000000
_cell_angle_beta 57.260529
_cell_angle_gamma 90.000000
_cell_volume 3115.408357
_symmetry_space_group_name_H-M "C 2/M"
_symmetry_group_IT_number 12
_symmetry_cell_setting 'monoclinic'
loop_
_space_group_symop_operation_xyz
x,y,z
-x,y,-z
-x,-y,-z
x,-y,z
1/2+x,1/2+y,z
1/2-x,1/2+y,-z
1/2-x,1/2-y,-z
1/2+x,1/2-y,z
loop_
_atom_site_type_symbol
_atom_site_label
_atom_site_fract_x
_atom_site_fract_y
_atom_site_fract_z
Si Si1 0.849724 0.304640 0.175811
Si Si2 0.467507 0.695709 0.828874
Si Si3 0.282810 0.699478 0.439167
Si Si4 0.090016 0.296331 0.439287
Si Si5 0.376799 0.195674 0.759975
Si Si6 0.088310 0.297022 0.940732
Si Si7 0.486951 0.800267 0.636706
Si Si8 0.782319 0.200400 0.939786
O O1 0.829068 0.500000 0.175663
O O2 0.742462 0.218209 0.210431
O O3 0.909337 0.243831 0.112755
O O4 0.924557 0.278329 0.196030
O O5 0.481500 0.500000 0.832789
O O6 0.417289 0.720127 0.794225
O O7 0.388069 0.764903 0.889720
O O8 0.285153 0.500000 0.436232
O O9 0.250000 0.750000 0.500000
O O10 0.196750 0.758310 0.428880
O O11 0.394649 0.763771 0.397224
O O12 0.090868 0.500000 0.438571
O O13 0.062708 0.238043 0.396153
O O14 0.000000 0.246773 0.500000
O O15 0.432119 0.263136 0.698412
O O16 0.399287 0.000000 0.757888
O O17 0.082480 0.500000 0.942871
O O18 0.194188 0.246217 0.931412
O O19 0.000000 0.235951 0.000000
O O20 0.474318 0.000000 0.639954
O O21 0.786682 0.000000 0.936744
O O22 0.750000 0.250000 0.000000
#
# Coordination Sequence:
#
# PCOD9195900 Si02
#       8
#     8   8   8   8   8   8   8   8
#     4  11  22  40  65  90 121 161 206 258 312 371
#     4  11  23  41  63  88 123 164 209 256 308 374
#     4  11  21  35  60  91 123 163 204 247 303 360
#     4   9  17  34  60  85 117 160 196 234 295 359
#     4  11  24  42  64  90 124 166 210 258 312 370
#     4   9  17  32  55  83 117 153 192 243 308 369
#     4  10  22  41  62  88 121 158 204 252 298 361
#     4  10  20  35  55  85 120 157 197 250 311 370
#
# _framework density 20.543054000000001
#
# number of rings (size 3 to 8) (size 9 to 14) (size 15 to 20)
#    0.000    1.750    2.500    2.250    0.000    4.000 
#    0.000    3.125    0.000    2.625    0.000    0.000 
#    0.000    0.000    0.000    0.000    0.000    0.000 
#
# Total GULP energy -178757.706634 kJ/mol
# GULP energy per Si atom -5586.178332 kJ/mol
# Density = 2.049630 g / cm^3
# Si number density = 20.543054 Si / 1000 Ang^3
#
#
#
# Elastic Constant Matrix: (Units=GPa)
#
#
# Indices 1 2 3 4 5 6 
#
# 1 146.4961 -12.6601 54.3208 0.0000 -3.3690 0.0000
# 2 -12.6601 13.3175 -6.3992 0.0001 4.3605 -0.0001
# 3 54.3208 -6.3992 134.4860 0.0000 0.8315 0.0000
# 4 0.0000 0.0001 0.0000 18.3885 0.0000 -2.6534
# 5 -3.3690 4.3605 0.8315 0.0000 26.1479 0.0001
# 6 0.0000 -0.0001 0.0000 -2.6534 0.0001 26.0360
#
#
#
# Elastic Compliance Matrix: (Units=1/GPa)
#
#
# Indices 1 2 3 4 5 6 
#
# 1 0.008565 0.006597 -0.003146 0.000000 0.000104 0.000000
# 2 0.006597 0.086564 0.001539 0.000000 -0.013635 0.000000
# 3 -0.003146 0.001539 0.008786 0.000000 -0.000941 0.000000
# 4 0.000000 0.000000 0.000000 0.055193 0.000000 0.005625
# 5 0.000104 -0.013635 -0.000941 0.000000 0.040561 0.000000
# 6 0.000000 0.000000 0.000000 0.005625 0.000000 0.038982
#
#
# Mechanical properties :
#
#
# Convention : Reuss Voigt Hill
#
# Bulk Modulus (GPa) = 8.78018 40.53584 24.65801
# Shear Modulus (GPa) = 18.75207 31.38367 25.06787
#
# Velocity S-wave (km/s) = 3.02457 3.91282 3.49701
# Velocity P-wave (km/s) = 4.05964 6.33944 5.32303
#
# Compressibility (1/GPa) = 0.11389294
#
# Stress axis : x y z
#
# Youngs Moduli (GPa) = 116.75072 11.55215 113.82229
#
# Poissons Ratio (x) = -0.07621 0.35813
# Poissons Ratio (y) = -0.77016 -0.17515
# Poissons Ratio (z) = 0.36734 -0.01778
#
# Static dielectric constant tensor:
#      x y z
#    x 1.721700 0.000000 0.010040 
#    y 0.000000 1.731770 0.000000 
#    z 0.010040 0.000000 1.732590 
# 
# From -- ./inp_files/375476.got.cif
#   From: 2010.05.17/outbox.cif.g08.bks.cpg/sg12_188_cif.got.tgz:375476.got - 2010.06.03 13:09:07.
