data_PCOD9195188
_publ_section_title
;
Structure prediction by ZEFSAII (Michael W. Deem and Ramdas Pophale) SiO2 
 PCOD9195188
Probable space group: C 2/M
;
_chemical_formula_sum "Si O2"
_cell_formula_units_Z 56
_cell_length_a 27.445637
_cell_length_b 22.284122
_cell_length_c 5.026769
_cell_angle_alpha 90.000000
_cell_angle_beta 88.910237
_cell_angle_gamma 90.000000
_cell_volume 3073.825513
_symmetry_space_group_name_H-M "C 2/M"
_symmetry_group_IT_number 12
_symmetry_cell_setting 'monoclinic'
loop_
_space_group_symop_operation_xyz
x,y,z
-x,y,-z
-x,-y,-z
x,-y,z
1/2+x,1/2+y,z
1/2-x,1/2+y,-z
1/2-x,1/2-y,-z
1/2+x,1/2-y,z
loop_
_atom_site_type_symbol
_atom_site_label
_atom_site_fract_x
_atom_site_fract_y
_atom_site_fract_z
Si Si1 0.446830 0.609775 0.552240
Si Si2 0.253864 0.068450 0.762153
Si Si3 0.349609 0.242217 0.166181
Si Si4 0.692365 0.306147 0.316779
Si Si5 0.159001 0.066886 0.428227
Si Si6 0.947247 0.805098 0.055663
Si Si7 0.710369 0.136178 0.723817
O O1 0.500000 0.579955 0.500000
O O2 0.398282 0.571582 0.503241
O O3 0.446634 0.664160 0.343093
O O4 0.443115 0.640535 0.842527
O O5 0.197601 0.073704 0.667277
O O6 0.286266 0.085776 0.501631
O O7 0.261669 0.000000 0.840264
O O8 0.269786 0.110444 0.001164
O O9 0.337178 0.280358 0.430728
O O10 0.402699 0.259530 0.053299
O O11 0.338791 0.173119 0.232099
O O12 0.314055 0.263956 0.934872
O O13 0.671241 0.373227 0.259736
O O14 0.748824 0.315966 0.376860
O O15 0.168732 0.000000 0.312978
O O16 0.000000 0.776724 0.000000
#
# Coordination Sequence:
#
# PCOD9195188 Si02
#       7
#     8   8   8   8   8   8   8
#     4  10  20  35  52  70  96 131 177 227 271 306
#     4  10  22  38  54  76 111 142 170 211 255 308
#     4  12  20  35  55  76 106 136 168 220 264 314
#     4  11  21  34  49  75 106 137 170 218 271 306
#     4  10  20  35  53  71  97 137 183 220 259 306
#     4  10  20  35  54  74 100 137 171 212 272 317
#     4  11  22  34  54  81 105 136 179 204 256 318
#
# _framework density 18.218340999999999
#
# number of rings (size 3 to 8) (size 9 to 14) (size 15 to 20)
#    0.000    1.429    2.857    3.857    0.000    0.857 
#    0.000    5.714    0.000    2.571    0.000    0.000 
#    0.000    3.429    0.000    0.000    0.000    0.000 
#
# Total GULP energy -156266.098802 kJ/mol
# GULP energy per Si atom -5580.932100 kJ/mol
# Density = 1.817688 g / cm^3
# Si number density = 18.218341 Si / 1000 Ang^3
#
#
#
# Elastic Constant Matrix: (Units=GPa)
#
#
# Indices 1 2 3 4 5 6 
#
# 1 63.7617 33.1688 -2.9766 0.0000 -11.3010 0.0000
# 2 33.1688 63.3059 6.8550 0.0000 -3.2537 0.0000
# 3 -2.9766 6.8550 66.4230 0.0000 -5.7209 0.0000
# 4 0.0000 0.0000 0.0000 6.2342 0.0000 6.4249
# 5 -11.3010 -3.2537 -5.7209 0.0000 14.5325 0.0000
# 6 0.0000 0.0000 0.0000 6.4249 0.0000 19.0339
#
#
#
# Elastic Compliance Matrix: (Units=1/GPa)
#
#
# Indices 1 2 3 4 5 6 
#
# 1 0.026073 -0.013136 0.004158 0.000000 0.018971 0.000000
# 2 -0.013136 0.022723 -0.003494 0.000000 -0.006503 0.000000
# 3 0.004158 -0.003494 0.016368 0.000000 0.008895 0.000000
# 4 0.000000 0.000000 0.000000 0.245974 0.000000 -0.083029
# 5 0.018971 -0.006503 0.008895 0.000000 0.085609 0.000000
# 6 0.000000 0.000000 0.000000 -0.083029 0.000000 0.080564
#
#
# Mechanical properties :
#
#
# Convention : Reuss Voigt Hill
#
# Bulk Modulus (GPa) = 24.86295 29.73167 27.29731
# Shear Modulus (GPa) = 9.69625 18.38969 14.04297
#
# Velocity S-wave (km/s) = 2.30950 3.18056 2.77937
# Velocity P-wave (km/s) = 4.55945 5.46288 5.03148
#
# Compressibility (1/GPa) = 0.04022048
#
# Stress axis : x y z
#
# Youngs Moduli (GPa) = 38.35327 44.00820 61.09487
#
# Poissons Ratio (x) = 0.57810 -0.25404
# Poissons Ratio (y) = 0.50382 0.21345
# Poissons Ratio (z) = -0.15947 0.15376
#
# Static dielectric constant tensor:
#      x y z
#    x 1.682270 0.000000 -0.001800 
#    y 0.000000 1.630670 0.000000 
#    z -0.001800 0.000000 1.638840 
# 
# From -- ./inp_files/29056.got.cif
#   From: 2010.05.17/outbox.cif.g08.bks.cpg/sg12_15_cif.got.tgz:29056.got - 2010.06.03 13:09:07.
