data_PCOD9195675
_publ_section_title
;
Structure prediction by ZEFSAII (Michael W. Deem and Ramdas Pophale) SiO2 
 PCOD9195675
Probable space group: C 2/M
;
_chemical_formula_sum "Si O2"
_cell_formula_units_Z 56
_cell_length_a 31.617679
_cell_length_b 8.165419
_cell_length_c 18.358110
_cell_angle_alpha 90.000000
_cell_angle_beta 141.546282
_cell_angle_gamma 90.000000
_cell_volume 2947.437464
_symmetry_space_group_name_H-M "C 2/M"
_symmetry_group_IT_number 12
_symmetry_cell_setting 'monoclinic'
loop_
_space_group_symop_operation_xyz
x,y,z
-x,y,-z
-x,-y,-z
x,-y,z
1/2+x,1/2+y,z
1/2-x,1/2+y,-z
1/2-x,1/2-y,-z
1/2+x,1/2-y,z
loop_
_atom_site_type_symbol
_atom_site_label
_atom_site_fract_x
_atom_site_fract_y
_atom_site_fract_z
Si Si1 0.284485 0.314994 0.855379
Si Si2 0.200810 0.815307 0.869848
Si Si3 0.822398 0.194884 0.393330
Si Si4 0.916782 0.301885 0.967351
Si Si5 0.319626 0.196910 0.554919
Si Si6 0.079125 0.199692 0.606388
Si Si7 0.927648 0.300861 0.817516
O O1 0.274011 0.500000 0.867193
O O2 0.249120 0.194577 0.864412
O O3 0.244314 0.286044 0.726260
O O4 0.362564 0.276876 0.947274
O O5 0.129343 0.742466 0.740571
O O6 0.184008 0.000000 0.868342
O O7 0.250000 0.750000 0.000000
O O8 0.830829 0.236480 0.488991
O O9 0.883156 0.242194 0.419143
O O10 0.812406 0.000000 0.372614
O O11 0.911099 0.500000 0.963819
O O12 0.903825 0.251452 0.866023
O O13 0.994150 0.253893 0.087740
O O14 0.250000 0.250000 0.500000
O O15 0.379436 0.256428 0.688711
O O16 0.320853 0.000000 0.553181
O O17 0.000000 0.253449 0.500000
O O18 0.078787 0.000000 0.609908
O O19 0.926701 0.500000 0.816993
#
# Coordination Sequence:
#
# PCOD9195675 Si02
#       7
#     8   8   8   8   8   8   8
#     4  11  21  34  54  80 107 138 179 223 268 320
#     4  10  20  36  58  83 113 144 180 226 277 334
#     4  10  20  35  55  79 107 143 184 224 272 329
#     4   9  16  33  56  75  99 138 181 218 267 322
#     4  11  21  34  52  78 111 144 182 225 271 321
#     4   8  16  34  59  82 106 142 185 228 278 329
#     4   8  17  32  52  74 102 140 178 218 265 322
#
# _framework density 18.999554
#
# number of rings (size 3 to 8) (size 9 to 14) (size 15 to 20)
#    0.000    2.429    0.000    5.143    0.000    1.143 
#    2.571    3.571    0.000   14.571    0.000    0.000 
#    0.000    0.000    0.000    0.000    0.000    0.000 
#
# Total GULP energy -156035.495795 kJ/mol
# GULP energy per Si atom -5572.696278 kJ/mol
# Density = 1.895631 g / cm^3
# Si number density = 18.999554 Si / 1000 Ang^3
#
#
#
# Elastic Constant Matrix: (Units=GPa)
#
#
# Indices 1 2 3 4 5 6 
#
# 1 70.5005 4.0014 61.1079 0.0000 10.4506 0.0000
# 2 4.0014 32.0531 7.1283 0.0000 0.9969 0.0000
# 3 61.1079 7.1283 143.6622 0.0000 -13.0602 0.0000
# 4 0.0000 0.0000 0.0000 22.3739 0.0000 -5.6554
# 5 10.4506 0.9969 -13.0602 0.0000 30.4072 0.0000
# 6 0.0000 0.0000 0.0000 -5.6554 0.0000 17.7837
#
#
#
# Elastic Compliance Matrix: (Units=1/GPa)
#
#
# Indices 1 2 3 4 5 6 
#
# 1 0.027980 -0.000060 -0.013291 0.000000 -0.015323 0.000000
# 2 -0.000060 0.031639 -0.001703 0.000000 -0.001748 0.000000
# 3 -0.013291 -0.001703 0.013652 0.000000 0.010488 0.000000
# 4 0.000000 0.000000 0.000000 0.048602 0.000000 0.015456
# 5 -0.015323 -0.001748 0.010488 0.000000 0.042715 0.000000
# 6 0.000000 0.000000 0.000000 0.015456 0.000000 0.061146
#
#
# Mechanical properties :
#
#
# Convention : Reuss Voigt Hill
#
# Bulk Modulus (GPa) = 23.16904 43.41012 33.28958
# Shear Modulus (GPa) = 18.50268 25.71152 22.10710
#
# Velocity S-wave (km/s) = 3.12404 3.68267 3.41480
# Velocity P-wave (km/s) = 5.02333 6.40159 5.75388
#
# Compressibility (1/GPa) = 0.04316104
#
# Stress axis : x y z
#
# Youngs Moduli (GPa) = 35.74005 31.60672 73.24753
#
# Poissons Ratio (x) = 0.00191 0.97357
# Poissons Ratio (y) = 0.00216 0.12474
# Poissons Ratio (z) = 0.47504 0.05383
#
# Static dielectric constant tensor:
#      x y z
#    x 1.631420 0.000000 -0.008740 
#    y 0.000000 1.697550 0.000000 
#    z -0.008740 0.000000 1.701170 
# 
# From -- ./inp_files/280984.got.cif
#   From: 2010.05.17/outbox.cif.g08.bks.cpg/sg12_141_cif.got.tgz:280984.got - 2010.06.03 13:09:07.
