data_PCOD9195338
_publ_section_title
;
Structure prediction by ZEFSAII (Michael W. Deem and Ramdas Pophale) SiO2 
 PCOD9195338
Probable space group: C 2/M
;
_chemical_formula_sum "Si O2"
_cell_formula_units_Z 52
_cell_length_a 16.644526
_cell_length_b 27.245017
_cell_length_c 9.595361
_cell_angle_alpha 90.000000
_cell_angle_beta 38.453455
_cell_angle_gamma 90.000000
_cell_volume 2705.985680
_symmetry_space_group_name_H-M "C 2/M"
_symmetry_group_IT_number 12
_symmetry_cell_setting 'monoclinic'
loop_
_space_group_symop_operation_xyz
x,y,z
-x,y,-z
-x,-y,-z
x,-y,z
1/2+x,1/2+y,z
1/2-x,1/2+y,-z
1/2-x,1/2-y,-z
1/2+x,1/2-y,z
loop_
_atom_site_type_symbol
_atom_site_label
_atom_site_fract_x
_atom_site_fract_y
_atom_site_fract_z
Si Si1 0.363803 0.056290 0.608511
Si Si2 0.004396 0.783577 0.833317
Si Si3 0.000000 0.875714 0.500000
Si Si4 0.085569 0.401295 0.752092
Si Si5 0.216418 0.169406 0.396060
Si Si6 0.599861 0.814312 0.096460
Si Si7 0.684997 0.368845 0.011413
O O1 0.500000 0.067425 0.500000
O O2 0.387715 0.062626 0.411168
O O3 0.255616 0.093443 0.812582
O O4 0.329758 0.000000 0.686962
O O5 0.961877 0.738507 0.791597
O O6 0.151549 0.798187 0.601049
O O7 0.909622 0.829969 0.935089
O O8 0.000000 0.769905 0.000000
O O9 0.901999 0.843867 0.542976
O O10 0.901840 0.897072 0.751638
O O11 0.218105 0.379324 0.631923
O O12 0.007890 0.355118 0.790892
O O13 0.000000 0.419324 0.000000
O O14 0.321780 0.193133 0.153658
O O15 0.701313 0.837234 0.067586
#
# Coordination Sequence:
#
# PCOD9195338 Si02
#       7
#     8   8   4   8   8   8   8
#     4  11  23  40  63  92 121 152 198 255 307 360
#     4  11  21  32  53  82 117 159 200 243 293 353
#     4   8  18  36  61  78 110 160 198 236 295 352
#     4  10  20  37  61  85 122 158 194 247 305 358
#     4   9  19  34  52  79 114 154 200 244 287 347
#     4  10  20  35  53  82 115 159 201 244 292 355
#     4  10  20  39  58  83 119 157 200 248 300 353
#
# _framework density 19.216657999999999
#
# number of rings (size 3 to 8) (size 9 to 14) (size 15 to 20)
#    0.000    2.000    1.538    2.769    0.000    4.000 
#    0.000    3.462    0.000   11.538    0.000    0.000 
#    0.000    0.000    0.000    0.000    0.000    0.000 
#
# Total GULP energy -144888.306632 kJ/mol
# GULP energy per Si atom -5572.627178 kJ/mol
# Density = 1.917292 g / cm^3
# Si number density = 19.216658 Si / 1000 Ang^3
#
#
#
# Elastic Constant Matrix: (Units=GPa)
#
#
# Indices 1 2 3 4 5 6 
#
# 1 74.2713 12.2632 4.5784 0.0000 0.7539 0.0000
# 2 12.2632 59.9793 38.4336 0.0000 1.1465 0.0000
# 3 4.5784 38.4336 62.5645 0.0000 15.8013 0.0000
# 4 0.0000 0.0000 0.0000 14.7863 0.0000 2.4989
# 5 0.7539 1.1465 15.8013 0.0000 23.4489 0.0000
# 6 0.0000 0.0000 0.0000 2.4989 0.0000 18.0462
#
#
#
# Elastic Compliance Matrix: (Units=1/GPa)
#
#
# Indices 1 2 3 4 5 6 
#
# 1 0.014027 -0.003990 0.001795 0.000000 -0.001465 0.000000
# 2 -0.003990 0.031807 -0.022760 0.000000 0.013910 0.000000
# 3 0.001795 -0.022760 0.035631 0.000000 -0.022956 0.000000
# 4 0.000000 0.000000 0.000000 0.069251 0.000000 -0.009589
# 5 -0.001465 0.013910 -0.022956 0.000000 0.057482 0.000000
# 6 0.000000 0.000000 0.000000 -0.009589 0.000000 0.056741
#
#
# Mechanical properties :
#
#
# Convention : Reuss Voigt Hill
#
# Bulk Modulus (GPa) = 31.69133 34.15170 32.92151
# Shear Modulus (GPa) = 15.36722 20.69226 18.02974
#
# Velocity S-wave (km/s) = 2.83093 3.28500 3.06639
# Velocity P-wave (km/s) = 5.21661 5.67440 5.45031
#
# Compressibility (1/GPa) = 0.03155438
#
# Stress axis : x y z
#
# Youngs Moduli (GPa) = 71.29012 31.44009 28.06509
#
# Poissons Ratio (x) = 0.12544 -0.05036
# Poissons Ratio (y) = 0.28444 0.63876
# Poissons Ratio (z) = -0.12793 0.71558
#
# Static dielectric constant tensor:
#      x y z
#    x 1.672980 0.000000 0.015670 
#    y 0.000000 1.653170 0.000000 
#    z 0.015670 0.000000 1.727090 
# 
# From -- ./inp_files/68516.got.cif
#   From: 2010.05.17/outbox.cif.g08.bks.cpg/sg12_35_cif.got.tgz:68516.got - 2010.06.03 13:09:07.
