data_PCOD9195008
_publ_section_title
;
Structure prediction by ZEFSAII (Michael W. Deem and Ramdas Pophale) SiO2 
 PCOD9195008
Probable space group: C 2/M
;
_chemical_formula_sum "Si O2"
_cell_formula_units_Z 50
_cell_length_a 26.808254
_cell_length_b 12.031663
_cell_length_c 11.151767
_cell_angle_alpha 90.000000
_cell_angle_beta 135.712826
_cell_angle_gamma 90.000000
_cell_volume 2511.608618
_symmetry_space_group_name_H-M "C 2/M"
_symmetry_group_IT_number 12
_symmetry_cell_setting 'monoclinic'
loop_
_space_group_symop_operation_xyz
x,y,z
-x,y,-z
-x,-y,-z
x,-y,z
1/2+x,1/2+y,z
1/2-x,1/2+y,-z
1/2-x,1/2-y,-z
1/2+x,1/2-y,z
loop_
_atom_site_type_symbol
_atom_site_label
_atom_site_fract_x
_atom_site_fract_y
_atom_site_fract_z
Si Si1 0.823120 0.280355 0.777857
Si Si2 0.206693 0.126575 0.044173
Si Si3 0.000000 0.000000 0.500000
Si Si4 0.328075 0.372541 0.556782
Si Si5 0.056601 0.622649 0.862531
Si Si6 0.549363 0.699853 0.412778
Si Si7 0.637942 0.191510 0.767821
O O1 0.807257 0.194526 0.858797
O O2 0.751207 0.349663 0.630568
O O3 0.839478 0.210877 0.686872
O O4 0.888352 0.355150 0.935031
O O5 0.290553 0.133630 0.156947
O O6 0.183296 0.000000 0.013328
O O7 0.164486 0.189538 0.865933
O O8 0.012122 0.901231 0.418249
O O9 0.333938 0.500000 0.606219
O O10 0.385538 0.347076 0.553298
O O11 0.023578 0.500000 0.815703
O O12 0.102472 0.628932 0.818108
O O13 0.002988 0.726006 0.758489
O O14 0.582241 0.784124 0.567738
#
# Coordination Sequence:
#
# PCOD9195008 Si02
#       7
#     8   8   2   8   8   8   8
#     4  10  23  43  64  94 124 164 220 262 325 382
#     4  10  20  34  59  90 127 159 204 263 317 373
#     4  12  24  44  62  94 140 168 212 270 326 384
#     4  11  23  43  68  93 126 168 219 274 322 386
#     4  11  24  43  65  93 131 170 212 267 325 389
#     4  12  24  41  65  97 130 174 216 260 329 390
#     4  10  21  37  57  95 124 164 210 254 316 387
#
# _framework density 19.90756
#
# number of rings (size 3 to 8) (size 9 to 14) (size 15 to 20)
#    0.000    1.280    4.000    1.440    1.120    2.560 
#    1.440    3.200    0.000    0.000    0.000    0.000 
#    0.000    0.000    0.000    0.000    0.000    0.000 
#
# Total GULP energy -139486.463062 kJ/mol
# GULP energy per Si atom -5579.458522 kJ/mol
# Density = 1.986225 g / cm^3
# Si number density = 19.907560 Si / 1000 Ang^3
#
#
#
# Elastic Constant Matrix: (Units=GPa)
#
#
# Indices 1 2 3 4 5 6 
#
# 1 48.2329 18.5449 15.3375 0.0000 -1.4702 0.0000
# 2 18.5449 104.3842 10.6732 0.0000 8.2296 0.0000
# 3 15.3375 10.6732 79.4155 0.0000 3.1278 0.0000
# 4 0.0000 0.0000 0.0000 10.3636 0.0000 -3.3809
# 5 -1.4702 8.2296 3.1278 0.0000 20.0004 0.0000
# 6 0.0000 0.0000 0.0000 -3.3809 0.0000 1.8574
#
#
#
# Elastic Compliance Matrix: (Units=1/GPa)
#
#
# Indices 1 2 3 4 5 6 
#
# 1 0.023776 -0.004118 -0.004200 0.000000 0.004099 0.000000
# 2 -0.004118 0.010725 -0.000463 0.000000 -0.004643 0.000000
# 3 -0.004200 -0.000463 0.013554 0.000000 -0.002238 0.000000
# 4 0.000000 0.000000 0.000000 0.237563 0.000000 0.432429
# 5 0.004099 -0.004643 -0.002238 0.000000 0.052561 0.000000
# 6 0.000000 0.000000 0.000000 0.432429 0.000000 1.325538
#
#
# Mechanical properties :
#
#
# Convention : Reuss Voigt Hill
#
# Bulk Modulus (GPa) = 32.79450 35.68263 34.23857
# Shear Modulus (GPa) = 2.95606 18.94273 10.94939
#
# Velocity S-wave (km/s) = 1.21988 3.08804 2.34778
# Velocity P-wave (km/s) = 4.30038 5.53875 4.95838
#
# Compressibility (1/GPa) = 0.03049292
#
# Stress axis : x y z
#
# Youngs Moduli (GPa) = 42.05843 93.24005 73.78152
#
# Poissons Ratio (x) = 0.38395 0.30988
# Poissons Ratio (y) = 0.17319 0.03418
# Poissons Ratio (z) = 0.17664 0.04319
#
# Static dielectric constant tensor:
#      x y z
#    x 1.686020 0.000000 0.024100 
#    y 0.000000 1.662390 0.000000 
#    z 0.024100 0.000000 1.710260 
# 
# From -- ./inp_files/188764.got.cif
#   From: 2010.05.17/outbox.cif.g08.bks.cpg/sg12_95_cif.got.tgz:188764.got - 2010.06.03 13:09:07.
