data_PCOD9195051
_publ_section_title
;
Structure prediction by ZEFSAII (Michael W. Deem and Ramdas Pophale) SiO2 
 PCOD9195051
Probable space group: C 2/M
;
_chemical_formula_sum "Si O2"
_cell_formula_units_Z 24
_cell_length_a 8.764786
_cell_length_b 25.778048
_cell_length_c 4.924695
_cell_angle_alpha 90.000000
_cell_angle_beta 102.808145
_cell_angle_gamma 90.000000
_cell_volume 1084.995133
_symmetry_space_group_name_H-M "C 2/M"
_symmetry_group_IT_number 12
_symmetry_cell_setting 'monoclinic'
loop_
_space_group_symop_operation_xyz
x,y,z
-x,y,-z
-x,-y,-z
x,-y,z
1/2+x,1/2+y,z
1/2-x,1/2+y,-z
1/2-x,1/2-y,-z
1/2+x,1/2-y,z
loop_
_atom_site_type_symbol
_atom_site_label
_atom_site_fract_x
_atom_site_fract_y
_atom_site_fract_z
Si Si1 0.827215 0.887224 0.796462
Si Si2 0.000000 0.261192 0.500000
Si Si3 0.248903 0.179839 0.747038
Si Si4 0.619820 0.500000 0.292222
O O1 0.821173 0.857668 0.511434
O O2 0.785269 0.946661 0.707695
O O3 0.727997 0.853929 0.973796
O O4 0.000000 0.887129 0.000000
O O5 0.120387 0.225497 0.719292
O O6 0.100130 0.294662 0.329725
O O7 0.500000 0.500000 0.500000
O O8 0.500000 0.500000 0.000000
#
# Coordination Sequence:
#
# PCOD9195051 Si02
#       4
#     8   4   8   4
#     4  11  20  37  59  89 116 150 191 247 293 342
#     4  10  24  40  58  86 116 168 194 238 284 348
#     4  11  23  38  60  84 122 152 201 235 290 344
#     4  10  20  34  60  89 118 147 192 241 300 341
#
# _framework density 22.119914999999999
#
# number of rings (size 3 to 8) (size 9 to 14) (size 15 to 20)
#    0.000    1.333    3.333    4.000    0.000    9.333 
#    0.000    0.000    0.000    6.000    0.000    0.000 
#    0.000    0.000    0.000    0.000    0.000    0.000 
#
# Total GULP energy -67113.174917 kJ/mol
# GULP energy per Si atom -5592.764576 kJ/mol
# Density = 2.206957 g / cm^3
# Si number density = 22.119915 Si / 1000 Ang^3
#
#
#
# Elastic Constant Matrix: (Units=GPa)
#
#
# Indices 1 2 3 4 5 6 
#
# 1 88.8060 68.6142 13.7609 0.0000 -22.8179 0.0000
# 2 68.6142 185.9725 43.5942 0.0000 -32.3278 0.0000
# 3 13.7609 43.5942 122.4235 0.0000 -25.1976 0.0000
# 4 0.0000 0.0000 0.0000 23.5051 0.0000 -7.4029
# 5 -22.8179 -32.3278 -25.1976 0.0000 34.0013 0.0000
# 6 0.0000 0.0000 0.0000 -7.4029 0.0000 2.0195
#
#
#
# Elastic Compliance Matrix: (Units=1/GPa)
#
#
# Indices 1 2 3 4 5 6 
#
# 1 0.017095 -0.005361 0.001534 0.000000 0.007512 0.000000
# 2 -0.005361 0.008281 -0.001730 0.000000 0.002994 0.000000
# 3 0.001534 -0.001730 0.010013 0.000000 0.006804 0.000000
# 4 0.000000 0.000000 0.000000 -0.275307 0.000000 -1.009209
# 5 0.007512 0.002994 0.006804 0.000000 0.042341 0.000000
# 6 0.000000 0.000000 0.000000 -1.009209 0.000000 -3.204346
#
#
# Mechanical properties :
#
#
# Convention : Reuss Voigt Hill
#
# Bulk Modulus (GPa) = 41.19700 72.12673 56.66187
# Shear Modulus (GPa) = -1.47810 29.98734 14.25462
#
# Velocity S-wave (km/s) = -0.81834 3.68594 2.54131
# Velocity P-wave (km/s) = 4.21568 7.12691 5.85511
#
# Compressibility (1/GPa) = 0.02427361
#
# Stress axis : x y z
#
# Youngs Moduli (GPa) = 58.49708 120.75920 99.87474
#
# Poissons Ratio (x) = 0.64737 -0.15316
# Poissons Ratio (y) = 0.31359 0.17279
# Poissons Ratio (z) = -0.08971 0.20892
#
# Static dielectric constant tensor:
#      x y z
#    x 1.836960 0.000000 0.006300 
#    y 0.000000 1.909440 0.000000 
#    z 0.006300 0.000000 1.794590 
# 
# From -- ./inp_files/2771.got.cif
#   From: 2010.05.17/outbox.cif.g08.bks.cpg/sg12_2_cif.got.tgz:2771.got - 2010.06.03 13:09:07.
