data_PCOD9195392
_publ_section_title
;
Structure prediction by ZEFSAII (Michael W. Deem and Ramdas Pophale) SiO2 
 PCOD9195392
Probable space group: C 2/M
;
_chemical_formula_sum "Si O2"
_cell_formula_units_Z 64
_cell_length_a 15.063032
_cell_length_b 8.010661
_cell_length_c 28.277136
_cell_angle_alpha 90.000000
_cell_angle_beta 106.050945
_cell_angle_gamma 90.000000
_cell_volume 3279.041365
_symmetry_space_group_name_H-M "C 2/M"
_symmetry_group_IT_number 12
_symmetry_cell_setting 'monoclinic'
loop_
_space_group_symop_operation_xyz
x,y,z
-x,y,-z
-x,-y,-z
x,-y,z
1/2+x,1/2+y,z
1/2-x,1/2+y,-z
1/2-x,1/2-y,-z
1/2+x,1/2-y,z
loop_
_atom_site_type_symbol
_atom_site_label
_atom_site_fract_x
_atom_site_fract_y
_atom_site_fract_z
Si Si1 0.295365 0.700849 0.866267
Si Si2 0.540620 0.696435 0.763030
Si Si3 0.711311 0.797782 0.423563
Si Si4 0.602086 0.799189 0.500265
Si Si5 0.481825 0.704801 0.944036
Si Si6 0.097198 0.200637 0.873093
Si Si7 0.147376 0.305037 0.311829
Si Si8 0.265080 0.195643 0.244456
O O1 0.300601 0.500000 0.864030
O O2 0.383962 0.759313 0.908036
O O3 0.201690 0.747675 0.878982
O O4 0.285491 0.760986 0.810632
O O5 0.562192 0.500000 0.766733
O O6 0.540566 0.754943 0.817871
O O7 0.443854 0.723384 0.723449
O O8 0.626261 0.783461 0.749509
O O9 0.642488 0.739967 0.455473
O O10 0.815618 0.743846 0.451280
O O11 0.677715 0.738291 0.367430
O O12 0.710714 0.000000 0.423615
O O13 0.500000 0.736830 0.500000
O O14 0.595765 0.000000 0.496577
O O15 0.481923 0.500000 0.945066
O O16 0.556988 0.761443 0.916667
O O17 0.500000 0.761498 0.000000
O O18 0.091693 0.000000 0.873707
O O19 0.126248 0.500000 0.314444
O O20 0.228820 0.283773 0.285801
O O21 0.243220 0.000000 0.246316
#
# Coordination Sequence:
#
# PCOD9195392 Si02
#       8
#     8   8   8   8   8   8   8   8
#     4   9  18  33  52  73  97 128 167 210 255 305
#     4  10  20  35  54  77 105 138 177 216 260 315
#     4   9  20  36  52  77 109 136 169 213 256 301
#     4   9  18  35  58  79 101 135 176 213 252 300
#     4   9  17  30  49  72  98 130 166 203 250 308
#     4   9  18  33  52  73  98 130 168 209 252 303
#     4  11  22  35  52  78 113 145 174 214 261 308
#     4  10  20  35  54  76 103 137 178 219 261 311
#
# _framework density 19.517899
#
# number of rings (size 3 to 8) (size 9 to 14) (size 15 to 20)
#    0.000    2.500    0.000    1.875    0.000    5.750 
#    0.000    1.875    0.000    0.750    0.000    0.000 
#    0.000    0.000    0.000    0.000    0.000    0.000 
#
# Total GULP energy -178550.016765 kJ/mol
# GULP energy per Si atom -5579.688024 kJ/mol
# Density = 1.947348 g / cm^3
# Si number density = 19.517899 Si / 1000 Ang^3
#
#
#
# Elastic Constant Matrix: (Units=GPa)
#
#
# Indices 1 2 3 4 5 6 
#
# 1 243.5562 -36.9123 257.9883 0.0000 67.9258 0.0000
# 2 -36.9123 22.3438 -44.4596 0.0000 -20.6305 0.0000
# 3 257.9883 -44.4596 386.0480 0.0000 84.8498 0.0000
# 4 0.0000 0.0000 0.0000 15.6972 0.0000 1.7072
# 5 67.9258 -20.6305 84.8498 0.0000 54.9323 0.0000
# 6 0.0000 0.0000 0.0000 1.7072 0.0000 23.8023
#
#
#
# Elastic Compliance Matrix: (Units=1/GPa)
#
#
# Indices 1 2 3 4 5 6 
#
# 1 0.015010 0.004127 -0.008807 0.000000 -0.003408 0.000000
# 2 0.004127 0.072697 0.001113 0.000000 0.020480 0.000000
# 3 -0.008807 0.001113 0.009264 0.000000 -0.003001 0.000000
# 4 0.000000 0.000000 0.000000 0.064207 0.000000 -0.004605
# 5 -0.003408 0.020480 -0.003001 0.000000 0.034744 0.000000
# 6 0.000000 0.000000 0.000000 -0.004605 0.000000 0.042343
#
#
# Mechanical properties :
#
#
# Convention : Reuss Voigt Hill
#
# Bulk Modulus (GPa) = 11.13120 111.68674 61.40897
# Shear Modulus (GPa) = 18.15904 50.57513 34.36709
#
# Velocity S-wave (km/s) = 3.05352 5.09592 4.20074
# Velocity P-wave (km/s) = 4.25998 9.59018 7.42021
#
# Compressibility (1/GPa) = 0.08983754
#
# Stress axis : x y z
#
# Youngs Moduli (GPa) = 66.62016 13.75565 107.95032
#
# Poissons Ratio (x) = -0.05677 0.95071
# Poissons Ratio (y) = -0.27496 -0.12013
# Poissons Ratio (z) = 0.58672 -0.01531
#
# Static dielectric constant tensor:
#      x y z
#    x 1.651960 0.000000 -0.011450 
#    y 0.000000 1.692500 0.000000 
#    z -0.011450 0.000000 1.682000 
# 
# From -- ./inp_files/359775.got.cif
#   From: 2010.05.17/outbox.cif.g08.bks.cpg/sg12_180_cif.got.tgz:359775.got - 2010.06.03 13:09:07.
