data_PCOD9195044
_publ_section_title
;
Structure prediction by ZEFSAII (Michael W. Deem and Ramdas Pophale) SiO2 
 PCOD9195044
Probable space group: C 2/M
;
_chemical_formula_sum "Si O2"
_cell_formula_units_Z 58
_cell_length_a 18.085729
_cell_length_b 7.312389
_cell_length_c 20.717497
_cell_angle_alpha 90.000000
_cell_angle_beta 61.291444
_cell_angle_gamma 90.000000
_cell_volume 2403.084522
_symmetry_space_group_name_H-M "C 2/M"
_symmetry_group_IT_number 12
_symmetry_cell_setting 'monoclinic'
loop_
_space_group_symop_operation_xyz
x,y,z
-x,y,-z
-x,-y,-z
x,-y,z
1/2+x,1/2+y,z
1/2-x,1/2+y,-z
1/2-x,1/2-y,-z
1/2+x,1/2-y,z
loop_
_atom_site_type_symbol
_atom_site_label
_atom_site_fract_x
_atom_site_fract_y
_atom_site_fract_z
Si Si1 0.775304 0.278725 0.120068
Si Si2 0.586507 0.275648 0.161855
Si Si3 0.389838 0.280179 0.597137
Si Si4 0.561647 0.710517 0.028167
Si Si5 0.427580 0.286597 0.306885
Si Si6 0.283270 0.780156 0.262292
Si Si7 0.652188 0.282647 0.529189
Si Si8 0.000000 0.500000 0.500000
O O1 0.776596 0.500000 0.119029
O O2 0.680678 0.220716 0.142022
O O3 0.799002 0.218186 0.182623
O O4 0.844548 0.215572 0.040066
O O5 0.586732 0.500000 0.161342
O O6 0.563117 0.212590 0.099527
O O7 0.514035 0.213058 0.241065
O O8 0.403822 0.500000 0.594717
O O9 0.311899 0.232320 0.675970
O O10 0.362291 0.213367 0.537005
O O11 0.473322 0.161369 0.565316
O O12 0.534029 0.500000 0.047523
O O13 0.500000 0.793605 0.000000
O O14 0.444198 0.500000 0.312301
O O15 0.353382 0.278010 0.284449
O O16 0.394304 0.208785 0.388059
O O17 0.285579 0.000000 0.261787
O O18 0.636311 0.500000 0.531663
O O19 0.750000 0.250000 0.500000
#
# Coordination Sequence:
#
# PCOD9195044 Si02
#       8
#     8   8   8   8   8   8   8   2
#     4  10  21  37  59  83 116 161 198 235 298 369
#     4   9  19  36  56  83 116 152 193 242 302 365
#     4  10  23  42  61  90 127 165 210 269 317 376
#     4  10  20  36  59  86 115 148 190 247 303 353
#     4  10  20  35  62  88 113 154 206 252 298 371
#     4  10  21  37  58  84 119 159 197 251 310 357
#     4  10  20  34  60  88 117 154 202 259 317 365
#     4  12  26  40  64  90 120 168 220 250 322 402
#
# _framework density 24.135648
#
# number of rings (size 3 to 8) (size 9 to 14) (size 15 to 20)
#    0.000    2.069    1.379    1.448    1.931    3.034 
#    0.000    5.517    0.000    0.000    0.000    0.000 
#    0.000    0.000    0.000    0.000    0.000    0.000 
#
# Total GULP energy -161879.111942 kJ/mol
# GULP energy per Si atom -5582.038343 kJ/mol
# Density = 2.408071 g / cm^3
# Si number density = 24.135648 Si / 1000 Ang^3
#
#
#
# Elastic Constant Matrix: (Units=GPa)
#
#
# Indices 1 2 3 4 5 6 
#
# 1 73.0399 -12.1524 20.2910 -0.0006 3.1031 0.0003
# 2 -12.1524 105.1911 -3.0710 -0.0014 -1.2911 0.0003
# 3 20.2910 -3.0710 150.3690 -0.0001 -5.3101 -0.0003
# 4 -0.0006 -0.0014 -0.0001 15.4969 -0.0002 -8.1167
# 5 3.1031 -1.2911 -5.3101 -0.0002 49.2372 -0.0003
# 6 0.0003 0.0003 -0.0003 -8.1167 -0.0003 3.5417
#
#
#
# Elastic Compliance Matrix: (Units=1/GPa)
#
#
# Indices 1 2 3 4 5 6 
#
# 1 0.014552 0.001610 -0.001969 0.000001 -0.001087 0.000001
# 2 0.001610 0.009694 -0.000014 -0.000002 0.000151 -0.000006
# 3 -0.001969 -0.000014 0.006947 -0.000002 0.000873 -0.000004
# 4 0.000001 -0.000002 -0.000002 -0.322108 -0.000007 -0.738197
# 5 -0.001087 0.000151 0.000873 -0.000007 0.020476 -0.000013
# 6 0.000001 -0.000006 -0.000004 -0.738197 -0.000013 -1.409424
#
#
# Mechanical properties :
#
#
# Convention : Reuss Voigt Hill
#
# Bulk Modulus (GPa) = 32.84374 37.63725 35.24049
# Shear Modulus (GPa) = -2.99586 35.22399 16.11407
#
# Velocity S-wave (km/s) = -1.11533 3.82438 2.58669
# Velocity P-wave (km/s) = 3.46106 5.92698 4.85324
#
# Compressibility (1/GPa) = 0.03044720
#
# Stress axis : x y z
#
# Youngs Moduli (GPa) = 68.71748 103.15670 143.95576
#
# Poissons Ratio (x) = -0.16612 0.28348
# Poissons Ratio (y) = -0.11066 0.00201
# Poissons Ratio (z) = 0.13532 0.00144
#
# Static dielectric constant tensor:
#      x y z
#    x 2.088450 0.000000 -0.030040 
#    y 0.000000 1.975310 0.000000 
#    z -0.030040 0.000000 1.877140 
# 
# From -- ./inp_files/314756.got.cif
#   From: 2010.05.17/outbox.cif.g08.bks.cpg/sg12_158_cif.got.tgz:314756.got - 2010.06.03 13:09:07.
