data_PCOD9195145
_publ_section_title
;
Structure prediction by ZEFSAII (Michael W. Deem and Ramdas Pophale) SiO2 
 PCOD9195145
Probable space group: C 2/M
;
_chemical_formula_sum "Si O2"
_cell_formula_units_Z 64
_cell_length_a 19.028488
_cell_length_b 7.448794
_cell_length_c 25.001135
_cell_angle_alpha 90.000000
_cell_angle_beta 45.115161
_cell_angle_gamma 90.000000
_cell_volume 2510.765341
_symmetry_space_group_name_H-M "C 2/M"
_symmetry_group_IT_number 12
_symmetry_cell_setting 'monoclinic'
loop_
_space_group_symop_operation_xyz
x,y,z
-x,y,-z
-x,-y,-z
x,-y,z
1/2+x,1/2+y,z
1/2-x,1/2+y,-z
1/2-x,1/2-y,-z
1/2+x,1/2-y,z
loop_
_atom_site_type_symbol
_atom_site_label
_atom_site_fract_x
_atom_site_fract_y
_atom_site_fract_z
Si Si1 0.077179 0.716987 0.503730
Si Si2 0.580996 0.787924 0.888496
Si Si3 0.705697 0.714439 0.242604
Si Si4 0.059462 0.220245 0.737483
Si Si5 0.870787 0.710467 0.009917
Si Si6 0.265542 0.786403 0.661303
Si Si7 0.358842 0.702891 0.418899
Si Si8 0.842764 0.780181 0.850616
O O1 0.074235 0.500000 0.508423
O O2 0.181372 0.775926 0.421335
O O3 0.070372 0.783666 0.567602
O O4 0.000000 0.773875 0.500000
O O5 0.682802 0.707253 0.812643
O O6 0.603491 0.781119 0.940379
O O7 0.576882 0.000000 0.877913
O O8 0.473188 0.710917 0.931223
O O9 0.711791 0.500000 0.233764
O O10 0.667553 0.748083 0.322619
O O11 0.660851 0.774585 0.210467
O O12 0.153077 0.282597 0.721832
O O13 0.088693 0.283451 0.661577
O O14 0.949867 0.279766 0.813385
O O15 0.054518 0.000000 0.741695
O O16 0.866181 0.500000 0.997590
O O17 0.758616 0.783180 0.066033
O O18 0.261169 0.000000 0.659722
O O19 0.345541 0.500000 0.408988
O O20 0.250000 0.750000 0.500000
O O21 0.838473 0.000000 0.854497
#
# Coordination Sequence:
#
# PCOD9195145 Si02
#       8
#     8   8   8   8   8   8   8   8
#     4  10  22  39  55  73 100 131 164 205 251 295
#     4   7  10  18  34  61  93 119 142 183 234 275
#     4   9  17  28  46  72  98 119 151 197 239 275
#     4   9  18  32  48  66  93 125 156 194 237 280
#     4   7   9  16  34  61  92 118 144 181 233 279
#     4  10  20  35  49  64  94 131 158 186 233 292
#     4  11  21  36  57  77 100 129 166 207 246 294
#     4   8  14  25  44  71  95 117 150 198 240 272
#
# _framework density 25.490235999999999
#
# number of rings (size 3 to 8) (size 9 to 14) (size 15 to 20)
#    0.000    3.125    1.250    2.625    1.750    0.750 
#    0.000    0.000    0.000    1.500    0.000    7.000 
#    0.000    0.000    0.000    0.000    0.000    0.000 
#
# Total GULP energy -178389.809585 kJ/mol
# GULP energy per Si atom -5574.681550 kJ/mol
# Density = 2.543222 g / cm^3
# Si number density = 25.490236 Si / 1000 Ang^3
#
#
#
# Elastic Constant Matrix: (Units=GPa)
#
#
# Indices 1 2 3 4 5 6 
#
# 1 98.7530 -5.1578 26.5335 -0.0001 -19.0344 -0.0003
# 2 -5.1578 75.2029 -0.9442 0.0074 -7.9782 0.0060
# 3 26.5335 -0.9442 21.4171 0.0010 -10.9409 0.0003
# 4 -0.0001 0.0074 0.0010 -43.8140 -0.0002 -10.8754
# 5 -19.0344 -7.9782 -10.9409 -0.0002 53.6206 -0.0002
# 6 -0.0003 0.0060 0.0003 -10.8754 -0.0002 -2.9460
#
#
#
# Elastic Compliance Matrix: (Units=1/GPa)
#
#
# Indices 1 2 3 4 5 6 
#
# 1 0.015403 0.001036 -0.018046 0.000001 0.001940 -0.000007
# 2 0.001036 0.013643 0.000607 -0.000054 0.002521 0.000226
# 3 -0.018046 0.000607 0.073512 -0.000009 0.008684 0.000045
# 4 0.000001 -0.000054 -0.000009 -0.272680 -0.000007 1.006604
# 5 0.001940 0.002521 0.008684 -0.000007 0.021485 0.000029
# 6 -0.000007 0.000226 0.000045 1.006604 0.000029 -4.055342
#
#
# Mechanical properties :
#
#
# Convention : Reuss Voigt Hill
#
# Bulk Modulus (GPa) = 14.33688 26.24846 20.29267
# Shear Modulus (GPa) = -1.20542 13.03488 5.91473
#
# Velocity S-wave (km/s) = -0.68842 2.26380 1.52493
# Velocity P-wave (km/s) = 2.23713 4.14160 3.32848
#
# Compressibility (1/GPa) = 0.06975019
#
# Stress axis : x y z
#
# Youngs Moduli (GPa) = 64.92253 73.29510 13.60328
#
# Poissons Ratio (x) = -0.07591 0.24549
# Poissons Ratio (y) = -0.06723 -0.00825
# Poissons Ratio (z) = 1.17160 -0.04446
#
# Static dielectric constant tensor:
#      x y z
#    x 2.019690 0.000000 -0.034810 
#    y 0.000000 1.941170 0.000000 
#    z -0.034810 0.000000 2.125900 
# 
# From -- ./inp_files/343051.got.cif
#   From: 2010.05.17/outbox.cif.g08.bks.cpg/sg12_172_cif.got.tgz:343051.got - 2010.06.03 13:09:07.
