data_PCOD9195256
_publ_section_title
;
Structure prediction by ZEFSAII (Michael W. Deem and Ramdas Pophale) SiO2 
 PCOD9195256
Probable space group: C 2/M
;
_chemical_formula_sum "Si O2"
_cell_formula_units_Z 56
_cell_length_a 31.505011
_cell_length_b 9.278000
_cell_length_c 19.711858
_cell_angle_alpha 90.000000
_cell_angle_beta 143.040021
_cell_angle_gamma 90.000000
_cell_volume 3464.349774
_symmetry_space_group_name_H-M "C 2/M"
_symmetry_group_IT_number 12
_symmetry_cell_setting 'monoclinic'
loop_
_space_group_symop_operation_xyz
x,y,z
-x,y,-z
-x,-y,-z
x,-y,z
1/2+x,1/2+y,z
1/2-x,1/2+y,-z
1/2-x,1/2-y,-z
1/2+x,1/2-y,z
loop_
_atom_site_type_symbol
_atom_site_label
_atom_site_fract_x
_atom_site_fract_y
_atom_site_fract_z
Si Si1 0.651566 0.171752 0.133265
Si Si2 0.431866 0.334467 0.862931
Si Si3 0.965611 0.327873 0.270586
Si Si4 0.045597 0.172114 0.492024
Si Si5 0.520060 0.172931 0.867785
Si Si6 0.807033 0.672157 0.119826
Si Si7 0.300431 0.327888 0.255354
O O1 0.628566 0.255353 0.171358
O O2 0.729700 0.205592 0.206831
O O3 0.646897 0.000000 0.139592
O O4 0.593896 0.205807 0.000838
O O5 0.414157 0.500000 0.825756
O O6 0.458039 0.250616 0.829964
O O7 0.500000 0.332639 0.000000
O O8 0.976485 0.500000 0.288498
O O9 0.976424 0.283906 0.206253
O O10 0.885106 0.299243 0.190126
O O11 0.016433 0.249780 0.388458
O O12 0.127598 0.201183 0.611996
O O13 0.000000 0.216936 0.500000
O O14 0.036375 0.000000 0.472731
O O15 0.510902 0.000000 0.859843
O O16 0.795938 0.500000 0.106304
O O17 0.801914 0.738328 0.188145
O O18 0.750000 0.750000 0.000000
O O19 0.299081 0.500000 0.237781
#
# Coordination Sequence:
#
# PCOD9195256 Si02
#       7
#     8   8   8   8   8   8   8
#     4   9  17  31  52  74 101 135 167 202 247 303
#     4   9  17  29  47  74 105 131 160 201 249 303
#     4  10  21  35  52  74 101 134 174 215 251 299
#     4  10  20  35  54  74  99 134 175 216 258 300
#     4   9  17  31  50  73 100 132 168 203 248 303
#     4  11  22  34  50  74 104 136 168 206 255 304
#     4  10  20  35  53  74 102 135 173 212 251 301
#
# _framework density 16.164650000000002
#
# number of rings (size 3 to 8) (size 9 to 14) (size 15 to 20)
#    0.000    2.286    1.429    1.714    0.000    6.571 
#    0.000    2.857    0.000    0.857    0.000    0.000 
#    0.000    0.000    0.000    0.000    0.000    0.000 
#
# Total GULP energy -156197.888913 kJ/mol
# GULP energy per Si atom -5578.496033 kJ/mol
# Density = 1.612786 g / cm^3
# Si number density = 16.164650 Si / 1000 Ang^3
#
#
#
# Elastic Constant Matrix: (Units=GPa)
#
#
# Indices 1 2 3 4 5 6 
#
# 1 175.8215 76.3461 82.4766 0.0000 -2.2350 0.0000
# 2 76.3461 55.0739 59.0700 0.0000 1.5596 0.0000
# 3 82.4766 59.0700 109.0375 0.0000 2.1156 0.0000
# 4 0.0000 0.0000 0.0000 26.2769 0.0000 -5.8218
# 5 -2.2350 1.5596 2.1156 0.0000 4.0924 0.0000
# 6 0.0000 0.0000 0.0000 -5.8218 0.0000 24.9022
#
#
#
# Elastic Compliance Matrix: (Units=1/GPa)
#
#
# Indices 1 2 3 4 5 6 
#
# 1 0.015341 -0.021353 -0.000360 0.000000 0.016702 0.000000
# 2 -0.021353 0.073140 -0.022935 0.000000 -0.027679 0.000000
# 3 -0.000360 -0.022935 0.021922 0.000000 -0.002790 0.000000
# 4 0.000000 0.000000 0.000000 0.040135 0.000000 0.009383
# 5 0.016702 -0.027679 -0.002790 0.000000 0.265469 0.000000
# 6 0.000000 0.000000 0.000000 0.009383 0.000000 0.042351
#
#
# Mechanical properties :
#
#
# Convention : Reuss Voigt Hill
#
# Bulk Modulus (GPa) = 47.37518 86.19090 66.78304
# Shear Modulus (GPa) = 9.01406 19.19032 14.10219
#
# Velocity S-wave (km/s) = 2.36400 3.44928 2.95686
# Velocity P-wave (km/s) = 6.06818 8.32465 7.28432
#
# Compressibility (1/GPa) = 0.02110810
#
# Stress axis : x y z
#
# Youngs Moduli (GPa) = 65.18583 13.67241 45.61536
#
# Poissons Ratio (x) = 0.29194 0.01644
# Poissons Ratio (y) = 1.39189 1.04617
# Poissons Ratio (z) = 0.02349 0.31357
#
# Static dielectric constant tensor:
#      x y z
#    x 1.525810 0.000000 0.005730 
#    y 0.000000 1.541950 0.000000 
#    z 0.005730 0.000000 1.514450 
# 
# From -- ./inp_files/280877.got.cif
#   From: 2010.05.17/outbox.cif.g08.bks.cpg/sg12_141_cif.got.tgz:280877.got - 2010.06.03 13:09:07.
