data_PCOD9195023
_publ_section_title
;
Structure prediction by ZEFSAII (Michael W. Deem and Ramdas Pophale) SiO2 
 PCOD9195023
Probable space group: C 2/M
;
_chemical_formula_sum "Si O2"
_cell_formula_units_Z 38
_cell_length_a 14.238981
_cell_length_b 29.303352
_cell_length_c 5.068402
_cell_angle_alpha 90.000000
_cell_angle_beta 50.451073
_cell_angle_gamma 90.000000
_cell_volume 1630.674733
_symmetry_space_group_name_H-M "C 2/M"
_symmetry_group_IT_number 12
_symmetry_cell_setting 'monoclinic'
loop_
_space_group_symop_operation_xyz
x,y,z
-x,y,-z
-x,-y,-z
x,-y,z
1/2+x,1/2+y,z
1/2-x,1/2+y,-z
1/2-x,1/2-y,-z
1/2+x,1/2-y,z
loop_
_atom_site_type_symbol
_atom_site_label
_atom_site_fract_x
_atom_site_fract_y
_atom_site_fract_z
Si Si1 0.255359 0.900618 0.102260
Si Si2 0.828937 0.342937 0.460379
Si Si3 0.000000 0.288378 0.500000
Si Si4 0.500000 0.500000 0.000000
Si Si5 0.000000 0.135818 0.500000
Si Si6 0.112785 0.217048 0.971404
Si Si7 0.690028 0.500000 0.168959
O O1 0.324518 0.873107 0.206820
O O2 0.109993 0.893430 0.419136
O O3 0.270584 0.954249 0.046461
O O4 0.285834 0.876026 0.773811
O O5 0.949554 0.320189 0.360113
O O6 0.732697 0.300433 0.608948
O O7 0.889654 0.255728 0.798085
O O8 0.601016 0.500000 0.582226
O O9 0.388553 0.500000 0.962814
O O10 0.939827 0.170204 0.813084
O O11 0.000000 0.233623 0.000000
#
# Coordination Sequence:
#
# PCOD9195023 Si02
#       7
#     8   8   4   2   4   8   4
#     4  11  23  39  64  89 131 166 214 255 323 381
#     4  11  25  42  62  94 126 170 209 270 317 380
#     4  11  26  40  64  90 124 168 224 268 314 379
#     4  10  20  34  60 102 132 160 208 246 328 394
#     4   9  18  35  54  91 126 161 188 247 312 385
#     4  10  20  38  62  88 126 162 200 258 323 390
#     4  11  22  38  62  97 132 176 210 265 315 394
#
# _framework density 23.303236999999999
#
# number of rings (size 3 to 8) (size 9 to 14) (size 15 to 20)
#    0.000    1.474    2.105    3.158    2.947    2.526 
#    0.000    0.000    0.000    3.789    0.000    0.000 
#    0.000    0.000    0.000    0.000    0.000    0.000 
#
# Total GULP energy -105912.317378 kJ/mol
# GULP energy per Si atom -5574.332494 kJ/mol
# Density = 2.325020 g / cm^3
# Si number density = 23.303237 Si / 1000 Ang^3
#
#
#
# Elastic Constant Matrix: (Units=GPa)
#
#
# Indices 1 2 3 4 5 6 
#
# 1 113.5575 55.4330 26.6715 0.0000 15.6442 0.0000
# 2 55.4330 180.1734 32.2865 0.0000 0.7934 0.0000
# 3 26.6715 32.2865 69.9989 0.0000 21.2963 0.0000
# 4 0.0000 0.0000 0.0000 36.0739 0.0000 -63.2201
# 5 15.6442 0.7934 21.2963 0.0000 37.6217 0.0000
# 6 0.0000 0.0000 0.0000 -63.2201 0.0000 120.4680
#
#
#
# Elastic Compliance Matrix: (Units=1/GPa)
#
#
# Indices 1 2 3 4 5 6 
#
# 1 0.011242 -0.003132 -0.001736 0.000000 -0.003626 0.000000
# 2 -0.003132 0.007020 -0.002894 0.000000 0.002793 0.000000
# 3 -0.001736 -0.002894 0.019382 0.000000 -0.010189 0.000000
# 4 0.000000 0.000000 0.000000 0.345213 0.000000 0.181163
# 5 -0.003626 0.002793 -0.010189 0.000000 0.033797 0.000000
# 6 0.000000 0.000000 0.000000 0.181163 0.000000 0.103373
#
#
# Mechanical properties :
#
#
# Convention : Reuss Voigt Hill
#
# Bulk Modulus (GPa) = 45.20688 65.83465 55.52077
# Shear Modulus (GPa) = 9.20938 55.45529 32.33234
#
# Velocity S-wave (km/s) = 1.99011 4.88353 3.72890
# Velocity P-wave (km/s) = 4.97215 7.75314 6.51281
#
# Compressibility (1/GPa) = 0.02212053
#
# Stress axis : x y z
#
# Youngs Moduli (GPa) = 88.95098 142.44807 51.59401
#
# Poissons Ratio (x) = 0.44612 0.08956
# Poissons Ratio (y) = 0.27858 0.14933
# Poissons Ratio (z) = 0.15440 0.41229
#
# Static dielectric constant tensor:
#      x y z
#    x 1.791730 0.000000 -0.245970 
#    y 0.000000 1.841690 0.000000 
#    z -0.245970 0.000000 1.600390 
# 
# From -- ./inp_files/12043.got.cif
#   From: 2010.05.17/outbox.cif.g08.bks.cpg/sg12_7_cif.got.tgz:12043.got - 2010.06.03 13:09:07.
