data_PCOD9195479
_publ_section_title
;
Structure prediction by ZEFSAII (Michael W. Deem and Ramdas Pophale) SiO2 
 PCOD9195479
Probable space group: C 2/M
;
_chemical_formula_sum "Si O2"
_cell_formula_units_Z 64
_cell_length_a 28.823442
_cell_length_b 8.660186
_cell_length_c 26.080968
_cell_angle_alpha 90.000000
_cell_angle_beta 30.898950
_cell_angle_gamma 90.000000
_cell_volume 3343.172645
_symmetry_space_group_name_H-M "C 2/M"
_symmetry_group_IT_number 12
_symmetry_cell_setting 'monoclinic'
loop_
_space_group_symop_operation_xyz
x,y,z
-x,y,-z
-x,-y,-z
x,-y,z
1/2+x,1/2+y,z
1/2-x,1/2+y,-z
1/2-x,1/2-y,-z
1/2+x,1/2-y,z
loop_
_atom_site_type_symbol
_atom_site_label
_atom_site_fract_x
_atom_site_fract_y
_atom_site_fract_z
Si Si1 0.076332 0.813752 0.549814
Si Si2 0.851139 0.684056 0.411754
Si Si3 0.090461 0.814993 0.748429
Si Si4 0.911036 0.185278 0.977227
Si Si5 0.256768 0.186462 0.324789
Si Si6 0.127329 0.186279 0.260551
Si Si7 0.293061 0.813881 0.175066
Si Si8 0.743047 0.184401 0.063295
O O1 0.107308 0.744632 0.574666
O O2 0.152720 0.775318 0.435614
O O3 0.975029 0.763936 0.631810
O O4 0.075679 0.000000 0.555610
O O5 0.846413 0.500000 0.416727
O O6 0.750000 0.750000 0.500000
O O7 0.909206 0.741235 0.308115
O O8 0.181096 0.763220 0.691223
O O9 0.006379 0.764087 0.863504
O O10 0.087479 0.000000 0.746104
O O11 0.912874 0.000000 0.980600
O O12 0.878595 0.255149 0.061745
O O13 0.833040 0.225769 0.010139
O O14 0.287478 0.236629 0.239168
O O15 0.266244 0.000000 0.319333
O O16 0.202548 0.238048 0.230452
O O17 0.160399 0.246722 0.174151
O O18 0.129399 0.000000 0.258121
O O19 0.293892 0.000000 0.173788
O O20 0.735892 0.000000 0.068538
O O21 0.750000 0.250000 0.000000
#
# Coordination Sequence:
#
# PCOD9195479 Si02
#       8
#     8   8   8   8   8   8   8   8
#     4  10  21  37  58  84 117 154 191 231 281 338
#     4  12  24  39  59  84 116 152 190 234 286 338
#     4  11  23  39  59  84 113 151 194 235 283 341
#     4   9  21  39  57  79 111 149 189 233 285 341
#     4  10  21  37  58  85 115 150 191 238 286 336
#     4   9  19  36  57  82 113 150 189 233 280 335
#     4   9  19  37  60  85 114 148 191 239 286 333
#     4  10  20  35  54  79 109 145 187 234 286 341
#
# _framework density 19.143492999999999
#
# number of rings (size 3 to 8) (size 9 to 14) (size 15 to 20)
#    0.000    2.000    1.250    1.875    1.750    3.500 
#    0.000    5.000    0.000    0.000    0.000    5.250 
#    0.000    0.000    0.000    0.000    0.000    0.000 
#
# Total GULP energy -178705.479698 kJ/mol
# GULP energy per Si atom -5584.546241 kJ/mol
# Density = 1.909992 g / cm^3
# Si number density = 19.143493 Si / 1000 Ang^3
#
#
#
# Elastic Constant Matrix: (Units=GPa)
#
#
# Indices 1 2 3 4 5 6 
#
# 1 13.6657 1.8241 4.0074 0.0008 15.3366 -0.0091
# 2 1.8241 15.8226 17.3551 -0.0012 1.2695 -0.0038
# 3 4.0074 17.3551 111.0022 -0.0019 3.7039 -0.0052
# 4 0.0008 -0.0012 -0.0019 27.1998 0.0010 1.2067
# 5 15.3366 1.2695 3.7039 0.0010 39.9353 0.0036
# 6 -0.0091 -0.0038 -0.0052 1.2067 0.0036 21.8149
#
#
#
# Elastic Compliance Matrix: (Units=1/GPa)
#
#
# Indices 1 2 3 4 5 6 
#
# 1 0.130737 -0.009322 -0.001602 -0.000005 -0.049763 0.000061
# 2 -0.009322 0.077017 -0.011779 0.000002 0.002224 0.000006
# 3 -0.001602 -0.011779 0.010909 0.000000 -0.000022 0.000000
# 4 -0.000005 0.000002 0.000000 0.036855 0.000001 -0.002039
# 5 -0.049763 0.002224 -0.000022 0.000001 0.044083 -0.000028
# 6 0.000061 0.000006 0.000000 -0.002039 -0.000028 0.045953
#
#
# Mechanical properties :
#
#
# Convention : Reuss Voigt Hill
#
# Bulk Modulus (GPa) = 5.77180 20.76264 13.26722
# Shear Modulus (GPa) = 11.14298 25.61026 18.37662
#
# Velocity S-wave (km/s) = 2.41524 3.66157 3.10165
# Velocity P-wave (km/s) = 3.28625 5.36148 4.44662
#
# Compressibility (1/GPa) = 0.17325620
#
# Stress axis : x y z
#
# Youngs Moduli (GPa) = 7.64894 12.98416 91.66686
#
# Poissons Ratio (x) = 0.12104 0.14683
# Poissons Ratio (y) = 0.07131 1.07976
# Poissons Ratio (z) = 0.01225 0.15294
#
# Static dielectric constant tensor:
#      x y z
#    x 1.642410 0.000000 -0.012330 
#    y 0.000000 1.649510 0.000000 
#    z -0.012330 0.000000 1.675140 
# 
# From -- ./inp_files/353425.got.cif
#   From: 2010.05.17/outbox.cif.g08.bks.cpg/sg12_177_cif.got.tgz:353425.got - 2010.06.03 13:09:07.
