data_PCOD9195912
_publ_section_title
;
Structure prediction by ZEFSAII (Michael W. Deem and Ramdas Pophale) SiO2 
 PCOD9195912
Probable space group: C 2/M
;
_chemical_formula_sum "Si O2"
_cell_formula_units_Z 40
_cell_length_a 16.124975
_cell_length_b 8.518491
_cell_length_c 31.774182
_cell_angle_alpha 90.000000
_cell_angle_beta 152.451596
_cell_angle_gamma 90.000000
_cell_volume 2018.579098
_symmetry_space_group_name_H-M "C 2/M"
_symmetry_group_IT_number 12
_symmetry_cell_setting 'monoclinic'
loop_
_space_group_symop_operation_xyz
x,y,z
-x,y,-z
-x,-y,-z
x,-y,z
1/2+x,1/2+y,z
1/2-x,1/2+y,-z
1/2-x,1/2-y,-z
1/2+x,1/2-y,z
loop_
_atom_site_type_symbol
_atom_site_label
_atom_site_fract_x
_atom_site_fract_y
_atom_site_fract_z
Si Si1 0.312831 0.188121 0.893774
Si Si2 0.609411 0.189023 0.402819
Si Si3 0.202424 0.808901 0.598663
Si Si4 0.470049 0.811760 0.790245
Si Si5 0.708799 0.688227 0.211005
O O1 0.309707 0.251938 0.844843
O O2 0.148127 0.254164 0.846932
O O3 0.299295 0.000000 0.886499
O O4 0.500000 0.231871 0.000000
O O5 0.750000 0.250000 0.500000
O O6 0.677359 0.236659 0.387144
O O7 0.404788 0.242490 0.315968
O O8 0.611110 0.000000 0.405220
O O9 0.301497 0.757197 0.685572
O O10 0.000000 0.752929 0.500000
O O11 0.196584 0.000000 0.597154
O O12 0.440059 0.748988 0.823638
O O13 0.471074 0.000000 0.791429
O O14 0.706935 0.500000 0.209614
#
# Coordination Sequence:
#
# PCOD9195912 Si02
#       5
#     8   8   8   8   8
#     4  11  25  45  68  94 125 164 212 266 323 381
#     4  10  20  35  55  86 125 166 209 255 310 370
#     4   9  17  32  55  84 122 163 204 249 304 367
#     4  11  22  40  66  94 127 168 210 261 320 374
#     4  11  23  41  64  93 130 168 211 262 314 378
#
# _framework density 19.815918
#
# number of rings (size 3 to 8) (size 9 to 14) (size 15 to 20)
#    0.000    1.600    2.000    3.000    0.000    5.600 
#    0.000    0.000    0.000    4.200    0.000    0.000 
#    0.000    0.000    0.000    0.000    0.000    0.000 
#
# Total GULP energy -111763.555316 kJ/mol
# GULP energy per Si atom -5588.177766 kJ/mol
# Density = 1.977082 g / cm^3
# Si number density = 19.815918 Si / 1000 Ang^3
#
#
#
# Elastic Constant Matrix: (Units=GPa)
#
#
# Indices 1 2 3 4 5 6 
#
# 1 184.0573 38.5153 74.3598 0.0000 -0.7019 0.0000
# 2 38.5153 39.6329 40.3593 0.0000 -0.4825 -0.0001
# 3 74.3598 40.3593 132.5435 0.0004 0.3367 0.0000
# 4 0.0000 0.0000 0.0004 27.5376 0.0000 -2.0096
# 5 -0.7019 -0.4825 0.3367 0.0000 23.1619 0.0000
# 6 0.0000 -0.0001 0.0000 -2.0096 0.0000 28.7568
#
#
#
# Elastic Compliance Matrix: (Units=1/GPa)
#
#
# Indices 1 2 3 4 5 6 
#
# 1 0.007512 -0.004357 -0.002888 0.000000 0.000179 0.000000
# 2 -0.004357 0.039119 -0.009469 0.000000 0.000821 0.000000
# 3 -0.002888 -0.009469 0.012050 0.000000 -0.000460 0.000000
# 4 0.000000 0.000000 0.000000 0.036500 0.000000 0.002551
# 5 0.000179 0.000821 -0.000460 0.000000 0.043204 0.000000
# 6 0.000000 0.000000 0.000000 0.002551 0.000000 0.034953
#
#
# Mechanical properties :
#
#
# Convention : Reuss Voigt Hill
#
# Bulk Modulus (GPa) = 39.60194 73.63361 56.61778
# Shear Modulus (GPa) = 23.23599 29.42454 26.33027
#
# Velocity S-wave (km/s) = 3.42803 3.85761 3.64915
# Velocity P-wave (km/s) = 5.97468 7.55520 6.81094
#
# Compressibility (1/GPa) = 0.02525129
#
# Stress axis : x y z
#
# Youngs Moduli (GPa) = 133.11254 25.56334 82.99008
#
# Poissons Ratio (x) = 0.11138 0.23970
# Poissons Ratio (y) = 0.57999 0.78585
# Poissons Ratio (z) = 0.38448 0.24206
#
# Static dielectric constant tensor:
#      x y z
#    x 1.677690 0.000000 0.005640 
#    y 0.000000 1.670440 0.000000 
#    z 0.005640 0.000000 1.701420 
# 
# From -- ./inp_files/211174.got.cif
#   From: 2010.05.17/outbox.cif.g08.bks.cpg/sg12_106_cif.got.tgz:211174.got - 2010.06.03 13:09:07.
