data_PCOD9195990
_publ_section_title
;
Structure prediction by ZEFSAII (Michael W. Deem and Ramdas Pophale) SiO2 
 PCOD9195990
Probable space group: C 2/M
;
_chemical_formula_sum "Si O2"
_cell_formula_units_Z 48
_cell_length_a 16.498735
_cell_length_b 7.609470
_cell_length_c 14.952229
_cell_angle_alpha 90.000000
_cell_angle_beta 77.195103
_cell_angle_gamma 90.000000
_cell_volume 1830.516714
_symmetry_space_group_name_H-M "C 2/M"
_symmetry_group_IT_number 12
_symmetry_cell_setting 'monoclinic'
loop_
_space_group_symop_operation_xyz
x,y,z
-x,y,-z
-x,-y,-z
x,-y,z
1/2+x,1/2+y,z
1/2-x,1/2+y,-z
1/2-x,1/2-y,-z
1/2+x,1/2-y,z
loop_
_atom_site_type_symbol
_atom_site_label
_atom_site_fract_x
_atom_site_fract_y
_atom_site_fract_z
Si Si1 0.199117 0.207356 0.379130
Si Si2 0.882222 0.202399 0.774155
Si Si3 0.930274 0.214814 0.946299
Si Si4 0.301294 0.285144 0.117814
Si Si5 0.429567 0.792986 0.452318
Si Si6 0.119791 0.802628 0.723616
O O1 0.133511 0.278780 0.320567
O O2 0.156977 0.227537 0.484957
O O3 0.286649 0.297680 0.340174
O O4 0.213277 0.000000 0.359484
O O5 0.936196 0.278618 0.842581
O O6 0.788642 0.209459 0.838355
O O7 0.906504 0.000000 0.754861
O O8 0.932167 0.000000 0.941943
O O9 0.843580 0.265764 0.014578
O O10 0.000000 0.268436 0.000000
O O11 0.295665 0.500000 0.123242
O O12 0.363401 0.224174 0.182721
O O13 0.500000 0.714405 0.500000
O O14 0.436060 0.762099 0.344890
O O15 0.428538 0.000000 0.464635
O O16 0.092843 0.000000 0.747981
#
# Coordination Sequence:
#
# PCOD9195990 Si02
#       6
#     8   8   8   8   8   8
#     4  10  20  35  56  80 105 135 174 217 259 306
#     4   9  18  32  53  78 102 133 170 210 253 297
#     4   9  17  30  49  75 106 137 170 208 250 297
#     4   9  18  32  53  78 102 133 170 210 253 297
#     4  11  24  39  54  75 105 139 172 211 262 313
#     4  10  20  35  56  80 105 135 174 217 259 306
#
# _framework density 26.222103000000001
#
# number of rings (size 3 to 8) (size 9 to 14) (size 15 to 20)
#    0.000    2.333    0.000    2.500    0.000    4.000 
#    0.000    3.333    0.000    2.000    0.000    0.000 
#    0.000    0.000    0.000    0.000    0.000    0.000 
#
# Total GULP energy -134182.974035 kJ/mol
# GULP energy per Si atom -5590.957251 kJ/mol
# Density = 2.616242 g / cm^3
# Si number density = 26.222103 Si / 1000 Ang^3
#
#
#
# Elastic Constant Matrix: (Units=GPa)
#
#
# Indices 1 2 3 4 5 6 
#
# 1 79.3887 -6.6928 14.1894 0.0000 23.2953 0.0000
# 2 -6.6928 70.8001 -9.9653 0.0000 2.6055 0.0000
# 3 14.1894 -9.9653 171.7763 0.0000 22.2376 0.0000
# 4 0.0000 0.0000 0.0000 10.0504 0.0000 2.4151
# 5 23.2953 2.6055 22.2376 0.0000 55.9226 0.0000
# 6 0.0000 0.0000 0.0000 2.4151 0.0000 14.6496
#
#
#
# Elastic Compliance Matrix: (Units=1/GPa)
#
#
# Indices 1 2 3 4 5 6 
#
# 1 0.014547 0.001549 -0.000335 0.000000 -0.005999 0.000000
# 2 0.001549 0.014464 0.000930 0.000000 -0.001689 0.000000
# 3 -0.000335 0.000930 0.006210 0.000000 -0.002373 0.000000
# 4 0.000000 0.000000 0.000000 0.103602 0.000000 -0.017080
# 5 -0.005999 -0.001689 -0.002373 0.000000 0.021403 0.000000
# 6 0.000000 0.000000 0.000000 -0.017080 0.000000 0.071077
#
#
# Mechanical properties :
#
#
# Convention : Reuss Voigt Hill
#
# Bulk Modulus (GPa) = 25.31168 35.22529 30.26849
# Shear Modulus (GPa) = 20.81720 37.75345 29.28532
#
# Velocity S-wave (km/s) = 2.82064 3.79853 3.34551
# Velocity P-wave (km/s) = 4.50353 5.71848 5.14698
#
# Compressibility (1/GPa) = 0.03950745
#
# Stress axis : x y z
#
# Youngs Moduli (GPa) = 68.74318 69.13864 161.02056
#
# Poissons Ratio (x) = -0.10707 0.05398
# Poissons Ratio (y) = -0.10646 -0.14971
# Poissons Ratio (z) = 0.02304 -0.06428
#
# Static dielectric constant tensor:
#      x y z
#    x 2.132540 0.000000 0.071660 
#    y 0.000000 1.995570 0.000000 
#    z 0.071660 0.000000 2.031950 
# 
# From -- ./inp_files/196519.got.cif
#   From: 2010.05.17/outbox.cif.g08.bks.cpg/sg12_99_cif.got.tgz:196519.got - 2010.06.03 13:09:07.
