data_PCOD9195437
_publ_section_title
;
Structure prediction by ZEFSAII (Michael W. Deem and Ramdas Pophale) SiO2 
 PCOD9195437
Probable space group: C 2/M
;
_chemical_formula_sum "Si O2"
_cell_formula_units_Z 64
_cell_length_a 30.697128
_cell_length_b 7.735619
_cell_length_c 15.510100
_cell_angle_alpha 90.000000
_cell_angle_beta 121.320014
_cell_angle_gamma 90.000000
_cell_volume 3146.344576
_symmetry_space_group_name_H-M "C 2/M"
_symmetry_group_IT_number 12
_symmetry_cell_setting 'monoclinic'
loop_
_space_group_symop_operation_xyz
x,y,z
-x,y,-z
-x,-y,-z
x,-y,z
1/2+x,1/2+y,z
1/2-x,1/2+y,-z
1/2-x,1/2-y,-z
1/2+x,1/2-y,z
loop_
_atom_site_type_symbol
_atom_site_label
_atom_site_fract_x
_atom_site_fract_y
_atom_site_fract_z
Si Si1 0.659269 0.701809 0.170229
Si Si2 0.697746 0.292369 0.896303
Si Si3 0.888965 0.209875 0.702826
Si Si4 0.640699 0.204694 0.516747
Si Si5 0.112801 0.213105 0.942771
Si Si6 0.502099 0.704168 0.777795
Si Si7 0.226007 0.201330 0.737225
Si Si8 0.973047 0.709517 0.559392
O O1 0.644917 0.500000 0.156004
O O2 0.637053 0.774446 0.236435
O O3 0.720117 0.713673 0.228695
O O4 0.635879 0.772808 0.057555
O O5 0.692842 0.500000 0.887836
O O6 0.649930 0.229101 0.903439
O O7 0.702578 0.228509 0.802928
O O8 0.750000 0.250000 0.000000
O O9 0.859319 0.261440 0.585475
O O10 0.947559 0.273497 0.754482
O O11 0.889781 0.000000 0.703747
O O12 0.686291 0.282230 0.618753
O O13 0.585529 0.269220 0.493203
O O14 0.642653 0.000000 0.532605
O O15 0.054762 0.272583 0.870365
O O16 0.113176 0.000000 0.941993
O O17 0.501405 0.500000 0.795807
O O18 0.501675 0.729778 0.674533
O O19 0.237468 0.000000 0.763323
O O20 0.972791 0.500000 0.560179
O O21 0.000000 0.768091 0.500000
#
# Coordination Sequence:
#
# PCOD9195437 Si02
#       8
#     8   8   8   8   8   8   8   8
#     4  10  20  36  58  79 107 145 182 220 266 320
#     4  10  20  35  54  77 109 144 176 218 266 313
#     4   9  19  36  57  82 108 138 179 227 269 311
#     4  10  21  37  57  78 106 145 180 218 272 324
#     4   9  18  33  54  81 110 140 175 214 262 320
#     4   9  18  33  54  80 109 138 174 218 265 315
#     4  11  23  36  54  82 112 140 179 227 268 315
#     4   9  19  35  52  75 106 139 178 219 260 315
#
# _framework density 20.341066000000001
#
# number of rings (size 3 to 8) (size 9 to 14) (size 15 to 20)
#    0.000    2.375    1.250    0.750    1.750    2.750 
#    0.000    3.750    0.000    0.000    0.000    4.375 
#    0.000    0.000    0.000    0.000    0.000    0.000 
#
# Total GULP energy -178616.991278 kJ/mol
# GULP energy per Si atom -5581.780977 kJ/mol
# Density = 2.029477 g / cm^3
# Si number density = 20.341066 Si / 1000 Ang^3
#
#
#
# Elastic Constant Matrix: (Units=GPa)
#
#
# Indices 1 2 3 4 5 6 
#
# 1 114.0622 -5.7345 102.2441 0.0000 -28.5369 0.0000
# 2 -5.7345 26.4803 -13.4406 0.0000 -3.6342 0.0000
# 3 102.2441 -13.4406 142.2278 0.0000 5.2548 0.0000
# 4 0.0000 0.0000 0.0000 13.4911 0.0000 1.2126
# 5 -28.5369 -3.6342 5.2548 0.0000 37.1900 0.0000
# 6 0.0000 0.0000 0.0000 1.2126 0.0000 13.5631
#
#
#
# Elastic Compliance Matrix: (Units=1/GPa)
#
#
# Indices 1 2 3 4 5 6 
#
# 1 0.081436 -0.003875 -0.061525 0.000000 0.070803 0.000000
# 2 -0.003875 0.040274 0.006591 0.000000 0.000031 0.000000
# 3 -0.061525 0.006591 0.053884 0.000000 -0.054179 0.000000
# 4 0.000000 0.000000 0.000000 0.074723 0.000000 -0.006681
# 5 0.070803 0.000031 -0.054179 0.000000 0.088876 0.000000
# 6 0.000000 0.000000 0.000000 -0.006681 0.000000 0.074327
#
#
# Mechanical properties :
#
#
# Convention : Reuss Voigt Hill
#
# Bulk Modulus (GPa) = 17.24851 49.87869 33.56360
# Shear Modulus (GPa) = 9.08324 26.16226 17.62275
#
# Velocity S-wave (km/s) = 2.11546 3.59023 2.94660
# Velocity P-wave (km/s) = 3.80328 6.46225 5.30215
#
# Compressibility (1/GPa) = 0.05797602
#
# Stress axis : x y z
#
# Youngs Moduli (GPa) = 12.27955 24.82979 18.55836
#
# Poissons Ratio (x) = 0.09622 1.14180
# Poissons Ratio (y) = 0.04759 -0.12231
# Poissons Ratio (z) = 0.75549 -0.16364
#
# Static dielectric constant tensor:
#      x y z
#    x 1.715920 0.000000 -0.013640 
#    y 0.000000 1.764000 0.000000 
#    z -0.013640 0.000000 1.685460 
# 
# From -- ./inp_files/249095.got.cif
#   From: 2010.05.17/outbox.cif.g08.bks.cpg/sg12_125_cif.got.tgz:249095.got - 2010.06.03 13:09:07.
