data_PCOD9195384
_publ_section_title
;
Structure prediction by ZEFSAII (Michael W. Deem and Ramdas Pophale) SiO2 
 PCOD9195384
Probable space group: C 2/M
;
_chemical_formula_sum "Si O2"
_cell_formula_units_Z 64
_cell_length_a 20.390156
_cell_length_b 7.496864
_cell_length_c 18.150864
_cell_angle_alpha 90.000000
_cell_angle_beta 67.274566
_cell_angle_gamma 90.000000
_cell_volume 2559.181545
_symmetry_space_group_name_H-M "C 2/M"
_symmetry_group_IT_number 12
_symmetry_cell_setting 'monoclinic'
loop_
_space_group_symop_operation_xyz
x,y,z
-x,y,-z
-x,-y,-z
x,-y,z
1/2+x,1/2+y,z
1/2-x,1/2+y,-z
1/2-x,1/2-y,-z
1/2+x,1/2-y,z
loop_
_atom_site_type_symbol
_atom_site_label
_atom_site_fract_x
_atom_site_fract_y
_atom_site_fract_z
Si Si1 0.823630 0.798142 0.180498
Si Si2 0.093857 0.782895 0.151338
Si Si3 0.280962 0.293252 0.643024
Si Si4 0.670552 0.798481 0.576247
Si Si5 0.039509 0.713067 0.554392
Si Si6 0.581343 0.719014 0.989744
Si Si7 0.936756 0.203471 0.255963
Si Si8 0.398028 0.714951 0.693802
O O1 0.768537 0.712800 0.261723
O O2 0.895152 0.807997 0.197709
O O3 0.797779 0.000000 0.178170
O O4 0.854897 0.719191 0.091873
O O5 0.103803 0.725933 0.062889
O O6 0.130322 0.727085 0.212973
O O7 0.013387 0.727673 0.203630
O O8 0.097982 0.000000 0.148101
O O9 0.291461 0.500000 0.620917
O O10 0.238132 0.216758 0.590686
O O11 0.353156 0.211598 0.644051
O O12 0.618574 0.714383 0.537413
O O13 0.612965 0.807887 0.667291
O O14 0.688881 0.000000 0.548335
O O15 0.048217 0.500000 0.542481
O O16 0.980610 0.742214 0.643504
O O17 0.000000 0.787612 0.500000
O O18 0.580628 0.500000 0.987236
O O19 0.500000 0.771551 0.000000
O O20 0.942206 0.000000 0.282367
O O21 0.391785 0.500000 0.694851
#
# Coordination Sequence:
#
# PCOD9195384 Si02
#       8
#     8   8   8   8   8   8   8   8
#     4   9  16  26  45  71  96 125 166 211 248 283
#     4   9  15  24  42  68  95 122 156 202 247 279
#     4   9  19  34  51  70  98 136 168 197 239 291
#     4   9  17  31  50  71  96 128 160 190 234 292
#     4  10  21  36  55  79 104 127 152 193 248 295
#     4   9  14  22  39  68 100 125 157 208 258 288
#     4   9  14  23  43  70  94 117 155 205 241 272
#     4  10  20  35  54  75  99 130 167 201 237 288
#
# _framework density 25.007995999999999
#
# number of rings (size 3 to 8) (size 9 to 14) (size 15 to 20)
#    0.000    2.750    2.500    0.000    0.000    0.750 
#    0.000    1.250    0.000    1.875    0.000    0.000 
#    0.000    0.000    0.000    0.000    0.000    0.000 
#
# Total GULP energy -178395.982850 kJ/mol
# GULP energy per Si atom -5574.874464 kJ/mol
# Density = 2.495108 g / cm^3
# Si number density = 25.007996 Si / 1000 Ang^3
#
#
#
# Elastic Constant Matrix: (Units=GPa)
#
#
# Indices 1 2 3 4 5 6 
#
# 1 151.4315 10.8752 42.1888 -0.0005 32.0935 -0.0001
# 2 10.8752 81.8363 30.0287 -0.0011 -1.3069 0.0000
# 3 42.1888 30.0287 147.0970 -0.0001 19.4551 0.0000
# 4 -0.0005 -0.0011 -0.0001 46.0077 -0.0002 -37.7713
# 5 32.0935 -1.3069 19.4551 -0.0002 42.2243 -0.0001
# 6 -0.0001 0.0000 0.0000 -37.7713 -0.0001 23.5677
#
#
#
# Elastic Compliance Matrix: (Units=1/GPa)
#
#
# Indices 1 2 3 4 5 6 
#
# 1 0.008254 -0.000637 -0.001496 0.000000 -0.005604 0.000000
# 2 -0.000637 0.013382 -0.002841 -0.000001 0.002208 -0.000001
# 3 -0.001496 -0.002841 0.008166 0.000000 -0.002713 0.000000
# 4 0.000000 -0.000001 0.000000 -0.068836 0.000000 -0.110321
# 5 -0.005604 0.002208 -0.002713 0.000000 0.029261 -0.000001
# 6 0.000000 -0.000001 0.000000 -0.110321 -0.000001 -0.134378
#
#
# Mechanical properties :
#
#
# Convention : Reuss Voigt Hill
#
# Bulk Modulus (GPa) = 50.36973 60.72779 55.54876
# Shear Modulus (GPa) = -39.18979 42.17810 1.49415
#
# Velocity S-wave (km/s) = -3.96294 4.11126 0.77380
# Velocity P-wave (km/s) = 0.86875 6.84636 4.80198
#
# Compressibility (1/GPa) = 0.01985319
#
# Stress axis : x y z
#
# Youngs Moduli (GPa) = 121.15517 74.72764 122.45676
#
# Poissons Ratio (x) = 0.04763 0.18319
# Poissons Ratio (y) = 0.07723 0.34790
# Poissons Ratio (z) = 0.18125 0.21230
#
# Static dielectric constant tensor:
#      x y z
#    x 2.033610 0.000000 0.062160 
#    y 0.000000 1.939770 0.000000 
#    z 0.062160 0.000000 2.054520 
# 
# From -- ./inp_files/276485.got.cif
#   From: 2010.05.17/outbox.cif.g08.bks.cpg/sg12_139_cif.got.tgz:276485.got - 2010.06.03 13:09:07.
