data_PCOD9195607
_publ_section_title
;
Structure prediction by ZEFSAII (Michael W. Deem and Ramdas Pophale) SiO2 
 PCOD9195607
Probable space group: C 2/M
;
_chemical_formula_sum "Si O2"
_cell_formula_units_Z 56
_cell_length_a 14.751546
_cell_length_b 9.163779
_cell_length_c 20.055651
_cell_angle_alpha 90.000000
_cell_angle_beta 111.577733
_cell_angle_gamma 90.000000
_cell_volume 2521.124276
_symmetry_space_group_name_H-M "C 2/M"
_symmetry_group_IT_number 12
_symmetry_cell_setting 'monoclinic'
loop_
_space_group_symop_operation_xyz
x,y,z
-x,y,-z
-x,-y,-z
x,-y,z
1/2+x,1/2+y,z
1/2-x,1/2+y,-z
1/2-x,1/2-y,-z
1/2+x,1/2-y,z
loop_
_atom_site_type_symbol
_atom_site_label
_atom_site_fract_x
_atom_site_fract_y
_atom_site_fract_z
Si Si1 0.678024 0.163148 0.143581
Si Si2 0.534444 0.836852 0.856419
Si Si3 0.675209 0.332780 0.572071
Si Si4 0.747141 0.832667 0.716653
Si Si5 0.652837 0.325333 1.000000
Si Si6 0.396862 0.832780 0.572071
Si Si7 0.969511 0.167333 0.716653
O O1 0.579111 0.144788 0.158221
O O2 0.749787 0.244944 0.213363
O O3 0.647700 0.261984 0.072953
O O4 0.711500 0.000000 0.131898
O O5 0.536424 0.755056 0.786637
O O6 0.579602 0.000000 0.868102
O O7 0.574747 0.738016 0.927046
O O8 0.644625 0.500000 0.572848
O O9 0.683608 0.247658 0.643647
O O10 0.610975 0.250000 0.500000
O O11 0.785920 0.334998 0.571840
O O12 0.858747 0.835140 0.717493
O O13 0.717457 0.000000 0.718330
O O14 0.653219 0.500000 1.000000
O O15 0.750000 0.250000 0.000000
O O16 0.460039 0.747658 0.643647
O O17 0.428222 0.000000 0.572847
O O18 0.000873 0.000000 0.718329
#
# Coordination Sequence:
#
# PCOD9195607 Si02
#       7
#     8   8   8   8   8   8   8
#     4  10  20  35  55  78 104 134 169 209 253 302
#     4  10  20  35  55  78 104 134 169 209 253 302
#     4   9  15  22  33  52  82 121 161 200 244 293
#     4   9  16  26  41  63  91 124 163 204 245 292
#     4  12  25  40  57  77 103 133 167 208 255 306
#     4   9  15  22  33  52  82 121 161 200 244 293
#     4   9  16  26  41  63  91 124 163 204 245 292
#
# _framework density 22.212312000000001
#
# number of rings (size 3 to 8) (size 9 to 14) (size 15 to 20)
#    0.000    2.286    0.000    4.286    0.000   10.286 
#    0.000    0.000    0.000    0.000    0.000    0.000 
#    0.000    1.143    0.000   11.429    0.000   17.714 
#
# Total GULP energy -156490.359360 kJ/mol
# GULP energy per Si atom -5588.941406 kJ/mol
# Density = 2.216176 g / cm^3
# Si number density = 22.212312 Si / 1000 Ang^3
#
#
#
# Elastic Constant Matrix: (Units=GPa)
#
#
# Indices 1 2 3 4 5 6 
#
# 1 41.6808 10.8218 4.1028 0.0000 24.9160 0.0000
# 2 10.8218 276.6890 151.7029 0.0000 -5.1699 0.0000
# 3 4.1028 151.7029 241.0620 0.0000 -32.2287 0.0000
# 4 0.0000 0.0000 0.0000 42.3503 0.0000 -1.2487
# 5 24.9160 -5.1699 -32.2287 0.0000 -318.6707 0.0000
# 6 0.0000 0.0000 0.0000 -1.2487 0.0000 8.3106
#
#
#
# Elastic Compliance Matrix: (Units=1/GPa)
#
#
# Indices 1 2 3 4 5 6 
#
# 1 0.023186 -0.001202 0.000599 0.000000 0.001772 0.000000
# 2 -0.001202 0.005559 -0.003456 0.000000 0.000165 0.000000
# 3 0.000599 -0.003456 0.006242 0.000000 -0.000528 0.000000
# 4 0.000000 0.000000 0.000000 0.023718 0.000000 0.003564
# 5 0.001772 0.000165 -0.000528 0.000000 -0.002949 0.000000
# 6 0.000000 0.000000 0.000000 0.003564 0.000000 0.120863
#
#
# Mechanical properties :
#
#
# Convention : Reuss Voigt Hill
#
# Bulk Modulus (GPa) = 37.21771 99.18742 68.20256
# Shear Modulus (GPa) = 25.81399 -27.41500 -0.80051
#
# Velocity S-wave (km/s) = 3.41273 -3.51697 -0.60097
# Velocity P-wave (km/s) = 5.68513 5.31593 5.50363
#
# Compressibility (1/GPa) = 0.02686893
#
# Stress axis : x y z
#
# Youngs Moduli (GPa) = 43.12977 179.88847 160.19913
#
# Poissons Ratio (x) = 0.21622 -0.09591
# Poissons Ratio (y) = 0.05184 0.55361
# Poissons Ratio (z) = -0.02582 0.62165
#
# Static dielectric constant tensor:
#      x y z
#    x 2.133830 0.000000 0.010640 
#    y 0.000000 1.780030 0.000000 
#    z 0.010640 0.000000 1.843540 
# 
# From -- ./inp_files/314431.got.cif
#   From: 2010.05.17/outbox.cif.g08.bks.cpg/sg12_158_cif.got.tgz:314431.got - 2010.06.03 13:09:07.
