data_PCOD9195346
_publ_section_title
;
Structure prediction by ZEFSAII (Michael W. Deem and Ramdas Pophale) SiO2 
 PCOD9195346
Probable space group: C 2/M
;
_chemical_formula_sum "Si O2"
_cell_formula_units_Z 56
_cell_length_a 9.766882
_cell_length_b 27.162760
_cell_length_c 11.905139
_cell_angle_alpha 90.000000
_cell_angle_beta 61.758499
_cell_angle_gamma 90.000000
_cell_volume 2782.408940
_symmetry_space_group_name_H-M "C 2/M"
_symmetry_group_IT_number 12
_symmetry_cell_setting 'monoclinic'
loop_
_space_group_symop_operation_xyz
x,y,z
-x,y,-z
-x,-y,-z
x,-y,z
1/2+x,1/2+y,z
1/2-x,1/2+y,-z
1/2-x,1/2-y,-z
1/2+x,1/2-y,z
loop_
_atom_site_type_symbol
_atom_site_label
_atom_site_fract_x
_atom_site_fract_y
_atom_site_fract_z
Si Si1 0.194017 0.082899 0.188803
Si Si2 0.139249 0.257359 0.151919
Si Si3 0.317203 0.000000 0.561542
Si Si4 0.151744 0.081251 0.776231
Si Si5 0.856780 0.554834 0.899688
Si Si6 0.903662 0.810418 0.156730
Si Si7 0.170528 0.000000 0.381491
Si Si8 0.052504 0.649612 0.850888
O O1 0.188584 0.046891 0.295487
O O2 0.267125 0.134362 0.204312
O O3 0.027922 0.080955 0.191654
O O4 0.307750 0.062237 0.047852
O O5 0.267989 0.270304 0.193440
O O6 0.029182 0.210086 0.195250
O O7 0.022919 0.303889 0.182173
O O8 0.250000 0.250000 0.000000
O O9 0.500000 0.000000 0.500000
O O10 0.243653 0.047825 0.651382
O O11 0.280478 0.000000 0.445121
O O12 0.207601 0.060583 0.875469
O O13 0.178758 0.139487 0.775752
O O14 0.921449 0.500000 0.858110
O O15 0.972012 0.600170 0.832609
O O16 0.000000 0.817713 0.000000
O O17 0.000000 0.000000 0.500000
O O18 0.000000 0.657650 0.000000
#
# Coordination Sequence:
#
# PCOD9195346 Si02
#       8
#     8   8   4   8   8   8   4   8
#     4  11  24  36  63  86 129 168 206 259 311 376
#     4  10  20  35  53  86 129 180 200 253 297 375
#     4  12  30  47  69  86 123 167 216 273 321 379
#     4  12  23  41  60  94 123 167 212 259 311 381
#     4  11  22  36  58  92 132 170 205 245 309 381
#     4  10  21  34  59  86 134 168 207 247 308 375
#     4  12  24  47  58  89 121 167 219 267 314 374
#     4  10  22  35  54  89 129 169 211 244 308 374
#
# _framework density 20.126443999999999
#
# number of rings (size 3 to 8) (size 9 to 14) (size 15 to 20)
#    0.000    1.143    4.286    2.571   11.000    1.429 
#    0.000    0.000    0.000    0.000    0.000    5.000 
#    0.000    0.000    0.000    0.000    0.000    0.000 
#
# Total GULP energy -156192.796820 kJ/mol
# GULP energy per Si atom -5578.314172 kJ/mol
# Density = 2.008063 g / cm^3
# Si number density = 20.126444 Si / 1000 Ang^3
#
#
#
# Elastic Constant Matrix: (Units=GPa)
#
#
# Indices 1 2 3 4 5 6 
#
# 1 143.8696 36.1382 28.3762 0.0000 1.1495 0.0000
# 2 36.1382 96.8876 15.1305 0.0000 -6.1306 0.0000
# 3 28.3762 15.1305 48.3302 0.0000 6.9202 0.0000
# 4 0.0000 0.0000 0.0000 4.6688 0.0000 4.3740
# 5 1.1495 -6.1306 6.9202 0.0000 30.3877 0.0000
# 6 0.0000 0.0000 0.0000 4.3740 0.0000 35.6445
#
#
#
# Elastic Compliance Matrix: (Units=1/GPa)
#
#
# Indices 1 2 3 4 5 6 
#
# 1 0.008393 -0.002470 -0.004174 0.000000 0.000135 0.000000
# 2 -0.002470 0.011862 -0.002707 0.000000 0.003103 0.000000
# 3 -0.004174 -0.002707 0.024855 0.000000 -0.006049 0.000000
# 4 0.000000 0.000000 0.000000 0.242009 0.000000 -0.029698
# 5 0.000135 0.003103 -0.006049 0.000000 0.034906 0.000000
# 6 0.000000 0.000000 0.000000 -0.029698 0.000000 0.031699
#
#
# Mechanical properties :
#
#
# Convention : Reuss Voigt Hill
#
# Bulk Modulus (GPa) = 37.86852 49.81968 43.84410
# Shear Modulus (GPa) = 13.11541 28.10305 20.60923
#
# Velocity S-wave (km/s) = 2.55551 3.74080 3.20345
# Velocity P-wave (km/s) = 5.25011 6.59281 5.95940
#
# Compressibility (1/GPa) = 0.02640716
#
# Stress axis : x y z
#
# Youngs Moduli (GPa) = 119.14085 84.30429 40.23280
#
# Poissons Ratio (x) = 0.20826 0.16793
# Poissons Ratio (y) = 0.29432 0.10893
# Poissons Ratio (z) = 0.49729 0.22825
#
# Static dielectric constant tensor:
#      x y z
#    x 1.771420 0.000000 -0.016450 
#    y 0.000000 1.813170 0.000000 
#    z -0.016450 0.000000 1.680190 
# 
# From -- ./inp_files/125673.got.cif
#   From: 2010.05.17/outbox.cif.g08.bks.cpg/sg12_63_cif.got.tgz:125673.got - 2010.06.03 13:09:07.
