data_PCOD9195624
_publ_section_title
;
Structure prediction by ZEFSAII (Michael W. Deem and Ramdas Pophale) SiO2 
 PCOD9195624
Probable space group: C 2/M
;
_chemical_formula_sum "Si O2"
_cell_formula_units_Z 64
_cell_length_a 20.761413
_cell_length_b 8.641639
_cell_length_c 21.766641
_cell_angle_alpha 90.000000
_cell_angle_beta 121.069614
_cell_angle_gamma 90.000000
_cell_volume 3344.972470
_symmetry_space_group_name_H-M "C 2/M"
_symmetry_group_IT_number 12
_symmetry_cell_setting 'monoclinic'
loop_
_space_group_symop_operation_xyz
x,y,z
-x,y,-z
-x,-y,-z
x,-y,z
1/2+x,1/2+y,z
1/2-x,1/2+y,-z
1/2-x,1/2-y,-z
1/2+x,1/2-y,z
loop_
_atom_site_type_symbol
_atom_site_label
_atom_site_fract_x
_atom_site_fract_y
_atom_site_fract_z
Si Si1 0.433638 0.813898 0.612323
Si Si2 0.055883 0.313128 0.938062
Si Si3 0.727869 0.688797 0.806242
Si Si4 0.685937 0.685052 0.923646
Si Si5 0.587072 0.315211 0.657927
Si Si6 0.605108 0.811954 0.100528
Si Si7 0.131455 0.315384 0.553781
Si Si8 0.722397 0.185704 0.420601
O O1 0.514404 0.738253 0.660200
O O2 0.405112 0.769319 0.529571
O O3 0.365789 0.771146 0.625241
O O4 0.441158 0.000000 0.617258
O O5 0.058439 0.500000 0.934883
O O6 0.106089 0.242010 0.909583
O O7 0.968806 0.262777 0.898507
O O8 0.091767 0.271324 0.022270
O O9 0.728799 0.500000 0.805047
O O10 0.703459 0.734839 0.862847
O O11 0.664178 0.739799 0.727630
O O12 0.813368 0.741793 0.837212
O O13 0.689015 0.500000 0.926867
O O14 0.750000 0.750000 0.000000
O O15 0.587710 0.500000 0.654656
O O16 0.585594 0.246609 0.588864
O O17 0.605074 0.000000 0.102124
O O18 0.133575 0.500000 0.556038
O O19 0.216817 0.250799 0.596865
O O20 0.750000 0.250000 0.500000
O O21 0.726791 0.000000 0.423084
#
# Coordination Sequence:
#
# PCOD9195624 Si02
#       8
#     8   8   8   8   8   8   8   8
#     4   9  19  35  54  77 107 139 171 216 268 308
#     4   9  16  29  54  81  99 126 169 209 249 300
#     4   9  19  35  52  72 103 140 173 211 261 311
#     4  11  20  33  54  77 104 134 166 210 257 306
#     4  11  22  34  52  76 103 142 183 216 260 317
#     4   8  14  29  53  75  99 132 167 203 247 307
#     4  10  20  35  55  78 106 139 175 221 271 313
#     4   9  17  31  53  80 107 135 170 215 265 313
#
# _framework density 19.133189999999999
#
# number of rings (size 3 to 8) (size 9 to 14) (size 15 to 20)
#    0.000    2.500    1.250    3.375    0.000    4.500 
#    0.000    5.000    0.000    4.500    0.000    0.000 
#    0.000    0.000    0.000    0.000    0.000    0.000 
#
# Total GULP energy -178453.788266 kJ/mol
# GULP energy per Si atom -5576.680883 kJ/mol
# Density = 1.908964 g / cm^3
# Si number density = 19.133190 Si / 1000 Ang^3
#
#
#
# Elastic Constant Matrix: (Units=GPa)
#
#
# Indices 1 2 3 4 5 6 
#
# 1 127.7235 16.7040 16.5012 0.0000 29.9216 0.0000
# 2 16.7040 20.8795 7.1925 0.0000 6.3449 0.0000
# 3 16.5012 7.1925 36.2921 0.0000 20.3358 0.0000
# 4 0.0000 0.0000 0.0000 12.8916 0.0000 1.3246
# 5 29.9216 6.3449 20.3358 0.0000 29.9661 0.0000
# 6 0.0000 0.0000 0.0000 1.3246 0.0000 35.1996
#
#
#
# Elastic Compliance Matrix: (Units=1/GPa)
#
#
# Indices 1 2 3 4 5 6 
#
# 1 0.010983 -0.006221 0.002656 0.000000 -0.011452 0.000000
# 2 -0.006221 0.055701 -0.008201 0.000000 -0.000016 0.000000
# 3 0.002656 -0.008201 0.045963 0.000000 -0.032107 0.000000
# 4 0.000000 0.000000 0.000000 0.077871 0.000000 -0.002930
# 5 -0.011452 -0.000016 -0.032107 0.000000 0.066598 0.000000
# 6 0.000000 0.000000 0.000000 -0.002930 0.000000 0.028520
#
#
# Mechanical properties :
#
#
# Convention : Reuss Voigt Hill
#
# Bulk Modulus (GPa) = 11.22163 29.52118 20.37141
# Shear Modulus (GPa) = 14.75479 25.24462 19.99971
#
# Velocity S-wave (km/s) = 2.77999 3.63632 3.23660
# Velocity P-wave (km/s) = 4.02271 5.75267 4.96364
#
# Compressibility (1/GPa) = 0.08911359
#
# Stress axis : x y z
#
# Youngs Moduli (GPa) = 91.05260 17.95292 21.75670
#
# Poissons Ratio (x) = 0.11169 -0.05779
# Poissons Ratio (y) = 0.56648 0.17843
# Poissons Ratio (z) = -0.24186 0.14724
#
# Static dielectric constant tensor:
#      x y z
#    x 1.697440 0.000000 0.034560 
#    y 0.000000 1.647930 0.000000 
#    z 0.034560 0.000000 1.670210 
# 
# From -- ./inp_files/320115.got.cif
#   From: 2010.05.17/outbox.cif.g08.bks.cpg/sg12_161_cif.got.tgz:320115.got - 2010.06.03 13:09:07.
