data_PCOD9195292
_publ_section_title
;
Structure prediction by ZEFSAII (Michael W. Deem and Ramdas Pophale) SiO2 
 PCOD9195292
Probable space group: C 2/M
;
_chemical_formula_sum "Si O2"
_cell_formula_units_Z 56
_cell_length_a 13.268539
_cell_length_b 13.425621
_cell_length_c 19.918827
_cell_angle_alpha 90.000000
_cell_angle_beta 38.186757
_cell_angle_gamma 90.000000
_cell_volume 2193.658575
_symmetry_space_group_name_H-M "C 2/M"
_symmetry_group_IT_number 12
_symmetry_cell_setting 'monoclinic'
loop_
_space_group_symop_operation_xyz
x,y,z
-x,y,-z
-x,-y,-z
x,-y,z
1/2+x,1/2+y,z
1/2-x,1/2+y,-z
1/2-x,1/2-y,-z
1/2+x,1/2-y,z
loop_
_atom_site_type_symbol
_atom_site_label
_atom_site_fract_x
_atom_site_fract_y
_atom_site_fract_z
Si Si1 0.649855 0.169416 0.270658
Si Si2 0.260278 0.388591 0.599213
Si Si3 0.472525 0.110999 0.942652
Si Si4 0.404972 0.613137 0.253958
Si Si5 0.651401 0.394587 0.297010
Si Si6 0.411605 0.810189 0.835861
Si Si7 0.629060 0.179296 0.494242
O O1 0.791843 0.144490 0.249034
O O2 0.606123 0.286695 0.295000
O O3 0.699368 0.152306 0.167605
O O4 0.478397 0.128354 0.390838
O O5 0.266066 0.500000 0.568000
O O6 0.361769 0.391199 0.615797
O O7 0.081753 0.360002 0.721377
O O8 0.316722 0.295172 0.525239
O O9 0.656975 0.101530 0.820061
O O10 0.378276 0.157721 0.929314
O O11 0.404875 0.000000 0.991097
O O12 0.500000 0.163520 0.000000
O O13 0.457040 0.500000 0.218888
O O14 0.549611 0.692695 0.183173
O O15 0.286307 0.625302 0.380793
O O16 0.580362 0.500000 0.309551
O O17 0.500000 0.180716 0.500000
#
# Coordination Sequence:
#
# PCOD9195292 Si02
#       7
#     8   8   8   8   8   8   8
#     4  11  20  33  52  76 103 143 181 221 258 307
#     4   9  16  29  48  70 100 134 170 218 264 304
#     4   9  17  34  61  84 101 124 158 209 272 327
#     4  10  21  37  52  71 108 152 187 218 254 305
#     4   9  16  30  51  76 103 130 164 210 268 314
#     4  10  20  35  53  77 106 136 176 218 264 315
#     4   9  17  31  46  72 102 139 186 220 253 297
#
# _framework density 25.528130999999998
#
# number of rings (size 3 to 8) (size 9 to 14) (size 15 to 20)
#    0.000    2.429    5.714    1.286    0.000    7.429 
#    0.000    2.143    0.000    0.429    0.000    0.000 
#    0.000    0.000    0.000    0.000    0.000    0.000 
#
# Total GULP energy -156344.926727 kJ/mol
# GULP energy per Si atom -5583.747383 kJ/mol
# Density = 2.547003 g / cm^3
# Si number density = 25.528131 Si / 1000 Ang^3
#
#
#
# Elastic Constant Matrix: (Units=GPa)
#
#
# Indices 1 2 3 4 5 6 
#
# 1 79.4736 19.7368 38.4855 -0.0001 38.8799 0.0000
# 2 19.7368 108.5517 18.1884 -0.0001 23.3584 0.0001
# 3 38.4855 18.1884 98.9353 -0.0005 33.3066 0.0003
# 4 -0.0001 -0.0001 -0.0005 6.6316 0.0003 11.4105
# 5 38.8799 23.3584 33.3066 0.0003 52.4816 -0.0001
# 6 0.0000 0.0001 0.0003 11.4105 -0.0001 1.7843
#
#
#
# Elastic Compliance Matrix: (Units=1/GPa)
#
#
# Indices 1 2 3 4 5 6 
#
# 1 0.020754 -0.000389 -0.003668 0.000000 -0.012875 0.000000
# 2 -0.000389 0.010210 -0.000373 0.000000 -0.004020 0.000000
# 3 -0.003668 -0.000373 0.013521 -0.000001 -0.005698 0.000001
# 4 0.000000 0.000000 -0.000001 -0.015074 0.000001 0.096399
# 5 -0.012875 -0.004020 -0.005698 0.000001 0.033998 -0.000002
# 6 0.000000 0.000000 0.000001 0.096399 -0.000002 -0.056025
#
#
# Mechanical properties :
#
#
# Convention : Reuss Voigt Hill
#
# Bulk Modulus (GPa) = 28.06794 48.86467 38.46631
# Shear Modulus (GPa) = 177.83246 26.21615 102.02431
#
# Velocity S-wave (km/s) = 8.35539 3.20808 6.32868
# Velocity P-wave (km/s) = 10.20305 5.73633 8.27671
#
# Compressibility (1/GPa) = 0.03562783
#
# Stress axis : x y z
#
# Youngs Moduli (GPa) = 48.18413 97.94002 73.95897
#
# Poissons Ratio (x) = 0.03805 0.27124
# Poissons Ratio (y) = 0.01872 0.02755
# Poissons Ratio (z) = 0.17672 0.03649
#
# Static dielectric constant tensor:
#      x y z
#    x 2.118610 0.000000 0.044250 
#    y 0.000000 2.025410 0.000000 
#    z 0.044250 0.000000 2.023520 
# 
# From -- ./inp_files/214273.got.cif
#   From: 2010.05.17/outbox.cif.g08.bks.cpg/sg12_108_cif.got.tgz:214273.got - 2010.06.03 13:09:07.
