data_PCOD9195971
_publ_section_title
;
Structure prediction by ZEFSAII (Michael W. Deem and Ramdas Pophale) SiO2 
 PCOD9195971
Probable space group: C 2/M
;
_chemical_formula_sum "Si O2"
_cell_formula_units_Z 56
_cell_length_a 14.517759
_cell_length_b 14.847318
_cell_length_c 16.905040
_cell_angle_alpha 90.000000
_cell_angle_beta 126.576900
_cell_angle_gamma 90.000000
_cell_volume 2926.244398
_symmetry_space_group_name_H-M "C 2/M"
_symmetry_group_IT_number 12
_symmetry_cell_setting 'monoclinic'
loop_
_space_group_symop_operation_xyz
x,y,z
-x,y,-z
-x,-y,-z
x,-y,z
1/2+x,1/2+y,z
1/2-x,1/2+y,-z
1/2-x,1/2-y,-z
1/2+x,1/2-y,z
loop_
_atom_site_type_symbol
_atom_site_label
_atom_site_fract_x
_atom_site_fract_y
_atom_site_fract_z
Si Si1 0.191957 0.207707 0.721166
Si Si2 0.734150 0.355174 0.002402
Si Si3 0.865517 0.896785 0.457005
Si Si4 0.235786 0.603952 0.805459
Si Si5 0.468812 0.606808 0.846601
Si Si6 0.131470 0.397733 0.085345
Si Si7 0.034960 0.109016 0.331374
O O1 0.194006 0.173406 0.631953
O O2 0.176610 0.314298 0.727921
O O3 0.304205 0.170572 0.823550
O O4 0.084354 0.156048 0.706221
O O5 0.597830 0.368278 0.932227
O O6 0.796417 0.398592 0.959189
O O7 0.750000 0.250000 0.000000
O O8 0.785062 0.387260 0.111775
O O9 0.871797 0.872175 0.552739
O O10 0.000000 0.898241 0.500000
O O11 0.823012 0.000000 0.424997
O O12 0.213257 0.500000 0.769164
O O13 0.370532 0.625069 0.859401
O O14 0.470966 0.500000 0.840897
O O15 0.434431 0.640010 0.741309
O O16 0.131868 0.500000 0.118188
O O17 0.000000 0.372129 0.000000
O O18 0.017997 0.000000 0.324586
#
# Coordination Sequence:
#
# PCOD9195971 Si02
#       7
#     8   8   8   8   8   8   8
#     4  11  19  34  54  79 111 147 178 222 276 331
#     4  12  22  36  56  78 107 147 186 227 273 320
#     4   8  15  28  55  88 113 135 171 228 284 334
#     4  11  24  37  52  77 108 149 195 232 260 309
#     4  10  20  35  56  79 108 145 185 230 272 315
#     4  11  23  36  53  80 114 145 175 216 271 339
#     4   9  16  32  60  92 113 132 175 231 288 334
#
# _framework density 19.137157999999999
#
# number of rings (size 3 to 8) (size 9 to 14) (size 15 to 20)
#    0.000    1.714    2.857    3.857    2.000    1.143 
#    0.000    0.714    0.000    3.857    0.000    0.000 
#    0.000    0.000    0.000    0.000    0.000    0.000 
#
# Total GULP energy -156150.152483 kJ/mol
# GULP energy per Si atom -5576.791160 kJ/mol
# Density = 1.909360 g / cm^3
# Si number density = 19.137158 Si / 1000 Ang^3
#
#
#
# Elastic Constant Matrix: (Units=GPa)
#
#
# Indices 1 2 3 4 5 6 
#
# 1 34.2778 4.3826 13.0212 0.0000 -0.2518 0.0000
# 2 4.3826 102.6621 53.9955 0.0000 -0.0720 0.0000
# 3 13.0212 53.9955 92.7522 0.0000 -15.1965 0.0000
# 4 0.0000 0.0000 0.0000 28.2842 0.0000 -21.1657
# 5 -0.2518 -0.0720 -15.1965 0.0000 18.2379 0.0000
# 6 0.0000 0.0000 0.0000 -21.1657 0.0000 99.9210
#
#
#
# Elastic Compliance Matrix: (Units=1/GPa)
#
#
# Indices 1 2 3 4 5 6 
#
# 1 0.031296 0.002003 -0.006355 0.000000 -0.004855 0.000000
# 2 0.002003 0.015202 -0.010558 0.000000 -0.008710 0.000000
# 3 -0.006355 -0.010558 0.020613 0.000000 0.017046 0.000000
# 4 0.000000 0.000000 0.000000 0.042015 0.000000 0.008900
# 5 -0.004855 -0.008710 0.017046 0.000000 0.068933 0.000000
# 6 0.000000 0.000000 0.000000 0.008900 0.000000 0.011893
#
#
# Mechanical properties :
#
#
# Convention : Reuss Voigt Hill
#
# Bulk Modulus (GPa) = 26.81653 41.38785 34.10219
# Shear Modulus (GPa) = 21.53294 39.84146 30.68720
#
# Velocity S-wave (km/s) = 3.35802 4.56772 4.00877
# Velocity P-wave (km/s) = 5.39243 7.03511 6.26782
#
# Compressibility (1/GPa) = 0.03729043
#
# Stress axis : x y z
#
# Youngs Moduli (GPa) = 31.95318 65.78022 48.51370
#
# Poissons Ratio (x) = -0.13176 0.30831
# Poissons Ratio (y) = -0.06400 0.51221
# Poissons Ratio (z) = 0.20307 0.69451
#
# Static dielectric constant tensor:
#      x y z
#    x 1.663960 0.000000 -0.049400 
#    y 0.000000 1.741650 0.000000 
#    z -0.049400 0.000000 1.670530 
# 
# From -- ./inp_files/270387.got.cif
#   From: 2010.05.17/outbox.cif.g08.bks.cpg/sg12_136_cif.got.tgz:270387.got - 2010.06.03 13:09:07.
