data_PCOD9195029
_publ_section_title
;
Structure prediction by ZEFSAII (Michael W. Deem and Ramdas Pophale) SiO2 
 PCOD9195029
Probable space group: C 2/M
;
_chemical_formula_sum "Si O2"
_cell_formula_units_Z 56
_cell_length_a 8.530805
_cell_length_b 12.408963
_cell_length_c 28.348069
_cell_angle_alpha 90.000000
_cell_angle_beta 72.983736
_cell_angle_gamma 90.000000
_cell_volume 2869.509005
_symmetry_space_group_name_H-M "C 2/M"
_symmetry_group_IT_number 12
_symmetry_cell_setting 'monoclinic'
loop_
_space_group_symop_operation_xyz
x,y,z
-x,y,-z
-x,-y,-z
x,-y,z
1/2+x,1/2+y,z
1/2-x,1/2+y,-z
1/2-x,1/2-y,-z
1/2+x,1/2-y,z
loop_
_atom_site_type_symbol
_atom_site_label
_atom_site_fract_x
_atom_site_fract_y
_atom_site_fract_z
Si Si1 0.808035 0.318718 0.393992
Si Si2 0.000000 0.714865 0.000000
Si Si3 0.441585 0.877328 0.825364
Si Si4 0.423277 0.500000 0.627855
Si Si5 0.591014 0.879126 0.441935
Si Si6 0.787378 0.791312 0.233003
Si Si7 0.269060 0.123549 0.941017
Si Si8 0.975463 0.178833 0.304742
O O1 0.668836 0.405874 0.395986
O O2 0.725051 0.213663 0.424696
O O3 0.953894 0.362940 0.413796
O O4 0.886495 0.280042 0.337712
O O5 0.107934 0.645329 0.026403
O O6 0.878288 0.792445 0.039936
O O7 0.298556 0.862169 0.799315
O O8 0.577989 0.788470 0.801357
O O9 0.365335 0.860030 0.883677
O O10 0.506355 0.000000 0.816958
O O11 0.495504 0.592835 0.657462
O O12 0.500000 0.870842 0.500000
O O13 0.664433 0.000000 0.431937
O O14 0.646722 0.717781 0.268429
O O15 0.867627 0.855616 0.269347
O O16 0.210325 0.000000 0.947320
#
# Coordination Sequence:
#
# PCOD9195029 Si02
#       8
#     8   4   8   4   8   8   8   8
#     4  12  23  44  62  92 121 155 193 246 291 345
#     4  10  20  34  60  82 114 150 188 250 286 338
#     4  10  22  38  58  81 118 156 189 239 292 342
#     4  12  24  38  66  88 125 150 193 248 295 337
#     4  11  25  43  65  90 121 157 195 238 292 353
#     4  10  22  40  57  86 117 152 198 236 282 349
#     4  10  20  36  56  85 113 150 195 236 293 347
#     4  11  23  40  60  88 117 152 197 239 287 343
#
# _framework density 19.515533999999999
#
# number of rings (size 3 to 8) (size 9 to 14) (size 15 to 20)
#    0.000    1.286    3.571    1.714    3.000    0.000 
#    0.000    0.357    0.000    8.571    0.000    0.000 
#    0.000    0.000    0.000    0.000    0.000    0.000 
#
# Total GULP energy -155922.682615 kJ/mol
# GULP energy per Si atom -5568.667236 kJ/mol
# Density = 1.947112 g / cm^3
# Si number density = 19.515534 Si / 1000 Ang^3
#
#
#
# Elastic Constant Matrix: (Units=GPa)
#
#
# Indices 1 2 3 4 5 6 
#
# 1 16.7806 -7.0923 -5.8045 0.0000 -1.1582 0.0000
# 2 -7.0923 86.7312 17.1620 0.0000 -11.9236 0.0000
# 3 -5.8045 17.1620 71.7107 0.0000 -2.9800 0.0000
# 4 0.0000 0.0000 0.0000 5.0416 0.0000 1.0350
# 5 -1.1582 -11.9236 -2.9800 0.0000 24.9960 0.0000
# 6 0.0000 0.0000 0.0000 1.0350 0.0000 7.2085
#
#
#
# Elastic Compliance Matrix: (Units=1/GPa)
#
#
# Indices 1 2 3 4 5 6 
#
# 1 0.063634 0.005196 0.004153 0.000000 0.005922 0.000000
# 2 0.005196 0.013316 -0.002505 0.000000 0.006294 0.000000
# 3 0.004153 -0.002505 0.014913 0.000000 0.000776 0.000000
# 4 0.000000 0.000000 0.000000 0.204372 0.000000 -0.029345
# 5 0.005922 0.006294 0.000776 0.000000 0.043376 0.000000
# 6 0.000000 0.000000 0.000000 -0.029345 0.000000 0.142938
#
#
# Mechanical properties :
#
#
# Convention : Reuss Voigt Hill
#
# Bulk Modulus (GPa) = 9.47402 20.41701 14.94551
# Shear Modulus (GPa) = 9.91979 18.84639 14.38309
#
# Velocity S-wave (km/s) = 2.25700 3.11096 2.71773
# Velocity P-wave (km/s) = 3.41427 4.83619 4.18605
#
# Compressibility (1/GPa) = 0.10555185
#
# Stress axis : x y z
#
# Youngs Moduli (GPa) = 15.71482 75.09957 67.05674
#
# Poissons Ratio (x) = -0.39021 -0.27851
# Poissons Ratio (y) = -0.08165 0.16795
# Poissons Ratio (z) = -0.06527 0.18810
#
# Static dielectric constant tensor:
#      x y z
#    x 1.689790 0.000000 -0.005880 
#    y 0.000000 1.665940 0.000000 
#    z -0.005880 0.000000 1.661540 
# 
# From -- ./inp_files/355783.got.cif
#   From: 2010.05.17/outbox.cif.g08.bks.cpg/sg12_178_cif.got.tgz:355783.got - 2010.06.03 13:09:07.
