data_PCOD9195155
_publ_section_title
;
Structure prediction by ZEFSAII (Michael W. Deem and Ramdas Pophale) SiO2 
 PCOD9195155
Probable space group: C 2/M
;
_chemical_formula_sum "Si O2"
_cell_formula_units_Z 32
_cell_length_a 10.490083
_cell_length_b 18.199187
_cell_length_c 8.109689
_cell_angle_alpha 90.000000
_cell_angle_beta 61.567631
_cell_angle_gamma 90.000000
_cell_volume 1361.480930
_symmetry_space_group_name_H-M "C 2/M"
_symmetry_group_IT_number 12
_symmetry_cell_setting 'monoclinic'
loop_
_space_group_symop_operation_xyz
x,y,z
-x,y,-z
-x,-y,-z
x,-y,z
1/2+x,1/2+y,z
1/2-x,1/2+y,-z
1/2-x,1/2-y,-z
1/2+x,1/2-y,z
loop_
_atom_site_type_symbol
_atom_site_label
_atom_site_fract_x
_atom_site_fract_y
_atom_site_fract_z
Si Si1 0.029611 0.085164 0.715909
Si Si2 0.781403 0.332358 0.416576
Si Si3 0.826177 0.414984 0.703499
Si Si4 0.728709 0.832043 0.948847
O O1 0.130940 0.121916 0.513461
O O2 0.148834 0.087229 0.790590
O O3 0.886952 0.131118 0.836054
O O4 0.995558 0.000000 0.704901
O O5 0.750000 0.250000 0.500000
O O6 0.869544 0.374602 0.505516
O O7 0.835543 0.331038 0.196345
O O8 0.867401 0.500000 0.681000
O O9 0.856095 0.375635 0.857090
O O10 0.750000 0.750000 0.000000
#
# Coordination Sequence:
#
# PCOD9195155 Si02
#       4
#     8   8   8   8
#     4   9  20  36  54  81 113 139 175 225 274 322
#     4  10  20  35  50  76 112 144 179 220 274 319
#     4   9  20  34  52  78 108 138 176 220 270 320
#     4  12  20  31  52  77 111 148 178 219 273 317
#
# _framework density 23.503817000000002
#
# number of rings (size 3 to 8) (size 9 to 14) (size 15 to 20)
#    1.500    0.500    2.500    2.250    0.000    7.000 
#    0.000    0.000    0.000    0.000    0.000    8.750 
#    0.000   24.000    0.000    0.000    0.000    0.000 
#
# Total GULP energy -89334.533164 kJ/mol
# GULP energy per Si atom -5583.408323 kJ/mol
# Density = 2.345032 g / cm^3
# Si number density = 23.503817 Si / 1000 Ang^3
#
#
#
# Elastic Constant Matrix: (Units=GPa)
#
#
# Indices 1 2 3 4 5 6 
#
# 1 91.1305 29.5641 41.0637 0.0000 1.0470 0.0000
# 2 29.5641 218.0092 110.5570 0.0000 10.0590 0.0000
# 3 41.0637 110.5570 276.5455 0.0000 22.1306 0.0000
# 4 0.0000 0.0000 0.0000 36.5471 0.0000 -16.1669
# 5 1.0470 10.0590 22.1306 0.0000 39.0910 0.0000
# 6 0.0000 0.0000 0.0000 -16.1669 0.0000 -22.1861
#
#
#
# Elastic Compliance Matrix: (Units=1/GPa)
#
#
# Indices 1 2 3 4 5 6 
#
# 1 0.011920 -0.000907 -0.001467 0.000000 0.000745 0.000000
# 2 -0.000907 0.005824 -0.002174 0.000000 -0.000243 0.000000
# 3 -0.001467 -0.002174 0.004876 0.000000 -0.002162 0.000000
# 4 0.000000 0.000000 0.000000 0.020692 0.000000 -0.015078
# 5 0.000745 -0.000243 -0.002162 0.000000 0.026848 0.000000
# 6 0.000000 0.000000 0.000000 -0.015078 0.000000 -0.034086
#
#
# Mechanical properties :
#
#
# Convention : Reuss Voigt Hill
#
# Bulk Modulus (GPa) = 73.94366 105.33943 89.64155
# Shear Modulus (GPa) = 100.64959 37.65711 69.15335
#
# Velocity S-wave (km/s) = 6.55100 4.00705 5.43011
# Velocity P-wave (km/s) = 9.42069 8.14395 8.80549
#
# Compressibility (1/GPa) = 0.01352381
#
# Stress axis : x y z
#
# Youngs Moduli (GPa) = 83.89288 171.71287 205.08602
#
# Poissons Ratio (x) = 0.15572 0.30086
# Poissons Ratio (y) = 0.07608 0.44586
# Poissons Ratio (z) = 0.12307 0.37331
#
# Static dielectric constant tensor:
#      x y z
#    x 3.190230 0.000000 -0.383900 
#    y 0.000000 1.789830 0.000000 
#    z -0.383900 0.000000 2.367580 
# 
# From -- ./inp_files/60562.got.cif
#   From: 2010.05.17/outbox.cif.g08.bks.cpg/sg12_31_cif.got.tgz:60562.got - 2010.06.03 13:09:07.
