data_PCOD9195194
_publ_section_title
;
Structure prediction by ZEFSAII (Michael W. Deem and Ramdas Pophale) SiO2 
 PCOD9195194
Probable space group: C 2/M
;
_chemical_formula_sum "Si O2"
_cell_formula_units_Z 40
_cell_length_a 15.311532
_cell_length_b 30.300576
_cell_length_c 9.201824
_cell_angle_alpha 90.000000
_cell_angle_beta 149.507468
_cell_angle_gamma 90.000000
_cell_volume 2166.288103
_symmetry_space_group_name_H-M "C 2/M"
_symmetry_group_IT_number 12
_symmetry_cell_setting 'monoclinic'
loop_
_space_group_symop_operation_xyz
x,y,z
-x,y,-z
-x,-y,-z
x,-y,z
1/2+x,1/2+y,z
1/2-x,1/2+y,-z
1/2-x,1/2-y,-z
1/2+x,1/2-y,z
loop_
_atom_site_type_symbol
_atom_site_label
_atom_site_fract_x
_atom_site_fract_y
_atom_site_fract_z
Si Si1 0.335917 0.936426 0.366428
Si Si2 0.699258 0.791527 0.327842
Si Si3 0.694704 0.346078 0.258089
Si Si4 0.849554 0.500000 0.661509
Si Si5 0.308703 0.763887 0.241600
Si Si6 0.538754 0.500000 0.884167
O O1 0.500000 0.944814 0.500000
O O2 0.304239 0.884882 0.345270
O O3 0.359318 0.959224 0.559441
O O4 0.166468 0.958321 0.048215
O O5 0.750000 0.750000 0.500000
O O6 0.737792 0.832699 0.485393
O O7 0.804383 0.780354 0.333618
O O8 0.500000 0.790634 0.000000
O O9 0.698808 0.302100 0.162957
O O10 0.500000 0.361411 0.000000
O O11 0.656204 0.500000 0.456520
O O12 0.000000 0.500000 0.000000
O O13 0.500000 0.781901 0.500000
O O14 0.250000 0.750000 0.000000
O O15 0.500000 0.500000 0.000000
#
# Coordination Sequence:
#
# PCOD9195194 Si02
#       6
#     8   8   8   4   8   4
#     4  10  20  37  59  84 112 147 187 225 269 332
#     4  10  20  35  52  72 101 140 180 221 275 334
#     4  11  21  36  55  77 107 147 186 223 271 333
#     4  10  20  37  62  89 114 145 180 224 276 330
#     4  11  20  33  52  77 104 136 180 231 277 319
#     4   8  16  35  60  83 110 147 179 212 268 342
#
# _framework density 18.464763999999999
#
# number of rings (size 3 to 8) (size 9 to 14) (size 15 to 20)
#    0.000    2.000    0.000    9.600    0.000    0.800 
#    0.000    2.000    0.000    2.400    0.000    0.000 
#    0.000    0.000    0.000    0.000    0.000    0.000 
#
# Total GULP energy -111400.030437 kJ/mol
# GULP energy per Si atom -5570.001522 kJ/mol
# Density = 1.842274 g / cm^3
# Si number density = 18.464764 Si / 1000 Ang^3
#
#
#
# Elastic Constant Matrix: (Units=GPa)
#
#
# Indices 1 2 3 4 5 6 
#
# 1 99.3457 26.1389 37.4142 0.0000 4.9613 0.0000
# 2 26.1389 81.9875 22.7159 0.0000 -5.8424 0.0000
# 3 37.4142 22.7159 134.3523 0.0000 0.5790 0.0000
# 4 0.0000 0.0000 0.0000 32.6355 0.0000 13.4613
# 5 4.9613 -5.8424 0.5790 0.0000 41.5294 0.0000
# 6 0.0000 0.0000 0.0000 13.4613 0.0000 27.7755
#
#
#
# Elastic Compliance Matrix: (Units=1/GPa)
#
#
# Indices 1 2 3 4 5 6 
#
# 1 0.012058 -0.003198 -0.002809 0.000000 -0.001851 0.000000
# 2 -0.003198 0.013785 -0.001450 0.000000 0.002342 0.000000
# 3 -0.002809 -0.001450 0.008471 0.000000 0.000013 0.000000
# 4 0.000000 0.000000 0.000000 0.038297 0.000000 -0.018561
# 5 -0.001851 0.002342 0.000013 0.000000 0.024630 0.000000
# 6 0.000000 0.000000 0.000000 -0.018561 0.000000 0.044998
#
#
# Mechanical properties :
#
#
# Convention : Reuss Voigt Hill
#
# Bulk Modulus (GPa) = 51.54939 54.24706 52.89822
# Shear Modulus (GPa) = 30.55874 35.68252 33.12063
#
# Velocity S-wave (km/s) = 4.07255 4.40075 4.23983
# Velocity P-wave (km/s) = 7.07761 7.43402 7.25800
#
# Compressibility (1/GPa) = 0.01939887
#
# Stress axis : x y z
#
# Youngs Moduli (GPa) = 82.93513 72.54177 118.05583
#
# Poissons Ratio (x) = 0.23197 0.33164
# Poissons Ratio (y) = 0.26521 0.17122
# Poissons Ratio (z) = 0.23298 0.10521
#
# Static dielectric constant tensor:
#      x y z
#    x 1.657100 0.000000 0.022360 
#    y 0.000000 1.653620 0.000000 
#    z 0.022360 0.000000 1.656140 
# 
# From -- ./inp_files/68764.got.cif
#   From: 2010.05.17/outbox.cif.g08.bks.cpg/sg12_35_cif.got.tgz:68764.got - 2010.06.03 13:09:07.
