data_PCOD9195014
_publ_section_title
;
Structure prediction by ZEFSAII (Michael W. Deem and Ramdas Pophale) SiO2 
 PCOD9195014
Probable space group: C 2/M
;
_chemical_formula_sum "Si O2"
_cell_formula_units_Z 44
_cell_length_a 15.151578
_cell_length_b 25.710249
_cell_length_c 18.276119
_cell_angle_alpha 90.000000
_cell_angle_beta 162.059595
_cell_angle_gamma 90.000000
_cell_volume 2192.995630
_symmetry_space_group_name_H-M "C 2/M"
_symmetry_group_IT_number 12
_symmetry_cell_setting 'monoclinic'
loop_
_space_group_symop_operation_xyz
x,y,z
-x,y,-z
-x,-y,-z
x,-y,z
1/2+x,1/2+y,z
1/2-x,1/2+y,-z
1/2-x,1/2-y,-z
1/2+x,1/2-y,z
loop_
_atom_site_type_symbol
_atom_site_label
_atom_site_fract_x
_atom_site_fract_y
_atom_site_fract_z
Si Si1 0.777550 0.190037 0.542201
Si Si2 0.221457 0.606426 0.829420
Si Si3 0.655190 0.640563 0.552092
Si Si4 0.851764 0.500000 0.300309
Si Si5 0.196363 0.938690 0.794836
Si Si6 0.311173 0.621330 0.062420
O O1 0.750000 0.250000 0.500000
O O2 0.488578 0.156203 0.327542
O O3 0.930369 0.168826 0.589508
O O4 0.977906 0.170705 0.766094
O O5 0.066467 0.555470 0.672469
O O6 0.500000 0.618087 0.000000
O O7 0.321840 0.594874 0.991567
O O8 0.500000 0.662079 0.500000
O O9 0.549784 0.582126 0.453128
O O10 0.992420 0.642321 0.823993
O O11 0.000000 0.500000 0.500000
O O12 0.500000 0.500000 0.000000
O O13 0.138719 0.918002 0.831128
O O14 0.204191 0.000000 0.802528
O O15 0.500000 0.919501 0.000000
#
# Coordination Sequence:
#
# PCOD9195014 Si02
#       6
#     8   8   8   4   8   8
#     4  10  24  45  65  97 129 171 228 296 350 427
#     4  10  24  44  67 100 137 185 230 293 356 430
#     4  10  20  39  58  89 124 169 214 271 335 405
#     4  10  24  44  74 106 144 193 244 299 356 434
#     4  10  20  34  59  91 129 177 222 272 327 404
#     4  10  22  41  64  90 137 166 227 282 346 415
#
# _framework density 20.063879
#
# number of rings (size 3 to 8) (size 9 to 14) (size 15 to 20)
#    0.000    2.000    1.818    0.000    6.364    4.000 
#   19.636    0.000    0.000    0.000    0.000    0.000 
#    0.000    0.000    0.000    0.000    0.000    0.000 
#
# Total GULP energy -122479.395493 kJ/mol
# GULP energy per Si atom -5567.245250 kJ/mol
# Density = 2.001821 g / cm^3
# Si number density = 20.063879 Si / 1000 Ang^3
#
#
#
# Elastic Constant Matrix: (Units=GPa)
#
#
# Indices 1 2 3 4 5 6 
#
# 1 145.7016 42.2183 30.7304 -0.0281 -3.8425 -0.0053
# 2 42.2183 127.0049 30.6800 -0.0342 -7.8457 -0.0032
# 3 30.7304 30.6800 83.3564 -0.0727 -4.4991 -0.0144
# 4 -0.0281 -0.0342 -0.0727 13.9062 -0.0433 2.8645
# 5 -3.8425 -7.8457 -4.4991 -0.0433 33.7503 -0.0076
# 6 -0.0053 -0.0032 -0.0144 2.8645 -0.0076 20.4541
#
#
#
# Elastic Compliance Matrix: (Units=1/GPa)
#
#
# Indices 1 2 3 4 5 6 
#
# 1 0.007930 -0.002111 -0.002139 0.000000 0.000127 0.000000
# 2 -0.002111 0.009290 -0.002556 0.000010 0.001579 -0.000002
# 3 -0.002139 -0.002556 0.013780 0.000065 0.000999 0.000000
# 4 0.000000 0.000010 0.000065 0.074047 0.000104 -0.010370
# 5 0.000127 0.001579 0.000999 0.000104 0.030144 -0.000002
# 6 0.000000 -0.000002 0.000000 -0.010370 -0.000002 0.050342
#
#
# Mechanical properties :
#
#
# Convention : Reuss Voigt Hill
#
# Bulk Modulus (GPa) = 57.51409 62.59115 60.05262
# Shear Modulus (GPa) = 24.39705 30.45106 27.42406
#
# Velocity S-wave (km/s) = 3.49086 3.90000 3.70109
# Velocity P-wave (km/s) = 6.70640 7.17939 6.94692
#
# Compressibility (1/GPa) = 0.01738704
#
# Stress axis : x y z
#
# Youngs Moduli (GPa) = 126.10826 107.63718 72.56837
#
# Poissons Ratio (x) = 0.22725 0.15526
# Poissons Ratio (y) = 0.26625 0.18547
# Poissons Ratio (z) = 0.26980 0.27511
#
# Static dielectric constant tensor:
#      x y z
#    x 1.747470 0.000010 -0.013310 
#    y 0.000010 1.777570 -0.000020 
#    z -0.013310 -0.000020 1.825000 
# 
# From -- ./inp_files/272909.got.cif
#   From: 2010.05.17/outbox.cif.g08.bks.cpg/sg12_137_cif.got.tgz:272909.got - 2010.06.03 13:09:07.
