data_PCOD9195926
_publ_section_title
;
Structure prediction by ZEFSAII (Michael W. Deem and Ramdas Pophale) SiO2 
 PCOD9195926
Probable space group: C 2/M
;
_chemical_formula_sum "Si O2"
_cell_formula_units_Z 56
_cell_length_a 25.608814
_cell_length_b 7.616592
_cell_length_c 19.419937
_cell_angle_alpha 90.000000
_cell_angle_beta 130.325684
_cell_angle_gamma 90.000000
_cell_volume 2887.809298
_symmetry_space_group_name_H-M "C 2/M"
_symmetry_group_IT_number 12
_symmetry_cell_setting 'monoclinic'
loop_
_space_group_symop_operation_xyz
x,y,z
-x,y,-z
-x,-y,-z
x,-y,z
1/2+x,1/2+y,z
1/2-x,1/2+y,-z
1/2-x,1/2-y,-z
1/2+x,1/2-y,z
loop_
_atom_site_type_symbol
_atom_site_label
_atom_site_fract_x
_atom_site_fract_y
_atom_site_fract_z
Si Si1 0.194974 0.208233 0.012274
Si Si2 0.290086 0.208550 0.751491
Si Si3 0.054868 0.710863 0.103450
Si Si4 0.454361 0.288951 0.744568
Si Si5 0.904967 0.215220 0.185441
Si Si6 0.798894 0.800043 0.209253
Si Si7 0.197956 0.208552 0.394878
O O1 0.227315 0.299668 0.105476
O O2 0.192174 0.000000 0.023250
O O3 0.250000 0.250000 0.000000
O O4 0.126131 0.266748 0.915746
O O5 0.366356 0.278121 0.835649
O O6 0.226770 0.283252 0.741660
O O7 0.279453 0.229773 0.661243
O O8 0.291576 0.000000 0.766880
O O9 0.057754 0.500000 0.098435
O O10 0.034131 0.749063 0.164725
O O11 0.000000 0.776532 0.000000
O O12 0.454259 0.500000 0.738499
O O13 0.516770 0.227035 0.750184
O O14 0.379301 0.220976 0.660432
O O15 0.856495 0.277663 0.206949
O O16 0.900658 0.000000 0.182933
O O17 0.821628 0.000000 0.241417
O O18 0.250000 0.250000 0.500000
O O19 0.192395 0.000000 0.385813
#
# Coordination Sequence:
#
# PCOD9195926 Si02
#       7
#     8   8   8   8   8   8   8
#     4   9  16  26  40  60  89 128 168 200 226 259
#     4   9  18  32  49  71  98 127 160 194 234 283
#     4   9  18  30  43  64  96 131 161 194 233 273
#     4   9  18  32  49  70  93 121 158 195 235 284
#     4   8  15  28  44  65  94 125 159 197 232 267
#     4   9  17  29  46  67  95 129 161 196 232 270
#     4  10  20  35  56  76  93 116 151 198 247 294
#
# _framework density 19.391863000000001
#
# number of rings (size 3 to 8) (size 9 to 14) (size 15 to 20)
#    0.000    3.000    0.000    1.714    2.000    1.429 
#    0.000    2.857    0.000    0.857    0.000    6.000 
#    0.000    0.000    0.000    0.000    0.000    0.000 
#
# Total GULP energy -155893.063241 kJ/mol
# GULP energy per Si atom -5567.609401 kJ/mol
# Density = 1.934773 g / cm^3
# Si number density = 19.391863 Si / 1000 Ang^3
#
#
#
# Elastic Constant Matrix: (Units=GPa)
#
#
# Indices 1 2 3 4 5 6 
#
# 1 166.2826 3.0354 70.6315 0.0000 -1.3071 0.0000
# 2 3.0354 45.7727 -3.1563 0.0000 1.4363 0.0000
# 3 70.6315 -3.1563 112.9620 0.0000 5.6554 0.0000
# 4 0.0000 0.0000 0.0000 17.8560 0.0000 -3.2387
# 5 -1.3071 1.4363 5.6554 0.0000 15.1081 0.0000
# 6 0.0000 0.0000 0.0000 -3.2387 0.0000 11.9827
#
#
#
# Elastic Compliance Matrix: (Units=1/GPa)
#
#
# Indices 1 2 3 4 5 6 
#
# 1 0.008343 -0.001014 -0.005387 0.000000 0.002835 0.000000
# 2 -0.001014 0.022095 0.001387 0.000000 -0.002707 0.000000
# 3 -0.005387 0.001387 0.012524 0.000000 -0.005286 0.000000
# 4 0.000000 0.000000 0.000000 0.058890 0.000000 0.015917
# 5 0.002835 -0.002707 -0.005286 0.000000 0.068671 0.000000
# 6 0.000000 0.000000 0.000000 0.015917 0.000000 0.087756
#
#
# Mechanical properties :
#
#
# Convention : Reuss Voigt Hill
#
# Bulk Modulus (GPa) = 30.36335 51.78203 41.07269
# Shear Modulus (GPa) = 17.90292 25.95649 21.92970
#
# Velocity S-wave (km/s) = 3.04175 3.66255 3.36649
# Velocity P-wave (km/s) = 5.29415 6.68182 6.02805
#
# Compressibility (1/GPa) = 0.03293445
#
# Stress axis : x y z
#
# Youngs Moduli (GPa) = 119.86488 45.25934 79.84646
#
# Poissons Ratio (x) = 0.04588 0.43011
# Poissons Ratio (y) = 0.12150 -0.11072
# Poissons Ratio (z) = 0.64567 -0.06276
#
# Static dielectric constant tensor:
#      x y z
#    x 1.735170 0.000000 0.019410 
#    y 0.000000 1.681690 0.000000 
#    z 0.019410 0.000000 1.602420 
# 
# From -- ./inp_files/287845.got.cif
#   From: 2010.05.17/outbox.cif.g08.bks.cpg/sg12_144_cif.got.tgz:287845.got - 2010.06.03 13:09:07.
