data_PCOD9195461
_publ_section_title
;
Structure prediction by ZEFSAII (Michael W. Deem and Ramdas Pophale) SiO2 
 PCOD9195461
Probable space group: C 2/M
;
_chemical_formula_sum "Si O2"
_cell_formula_units_Z 52
_cell_length_a 15.940118
_cell_length_b 7.870697
_cell_length_c 19.801393
_cell_angle_alpha 90.000000
_cell_angle_beta 122.198214
_cell_angle_gamma 90.000000
_cell_volume 2102.221664
_symmetry_space_group_name_H-M "C 2/M"
_symmetry_group_IT_number 12
_symmetry_cell_setting 'monoclinic'
loop_
_space_group_symop_operation_xyz
x,y,z
-x,y,-z
-x,-y,-z
x,-y,z
1/2+x,1/2+y,z
1/2-x,1/2+y,-z
1/2-x,1/2-y,-z
1/2+x,1/2-y,z
loop_
_atom_site_type_symbol
_atom_site_label
_atom_site_fract_x
_atom_site_fract_y
_atom_site_fract_z
Si Si1 0.535530 0.200310 0.748688
Si Si2 0.146361 0.198281 0.255455
Si Si3 0.170635 0.000000 0.437095
Si Si4 0.280658 0.795794 0.088764
Si Si5 0.870993 0.320386 0.496148
Si Si6 0.369535 0.695463 0.351287
Si Si7 0.087771 0.207160 0.085835
O O1 0.429837 0.288276 0.715194
O O2 0.614379 0.267574 0.838340
O O3 0.587017 0.231514 0.699201
O O4 0.519688 0.000000 0.751626
O O5 0.249580 0.294267 0.300079
O O6 0.085284 0.256615 0.162871
O O7 0.172051 0.000000 0.258197
O O8 0.112823 0.152287 0.453944
O O9 0.251575 0.143990 0.442501
O O10 0.192578 0.737658 0.100029
O O11 0.284624 0.000000 0.095013
O O12 0.250000 0.750000 0.000000
O O13 0.909110 0.500000 0.542279
O O14 0.901637 0.294092 0.431957
O O15 0.396498 0.500000 0.368530
O O16 0.084326 0.000000 0.082406
O O17 0.000000 0.269417 0.000000
#
# Coordination Sequence:
#
# PCOD9195461 Si02
#       7
#     8   8   4   8   8   8   8
#     4  11  23  40  57  82 119 156 199 256 308 366
#     4  11  22  39  59  83 117 155 198 255 310 366
#     4   8  16  30  54  92 124 160 206 244 292 358
#     4  10  20  35  54  78 109 148 193 246 309 365
#     4   9  16  31  55  88 128 160 203 251 294 355
#     4  12  23  37  60  91 121 163 206 250 306 366
#     4   9  17  32  54  77 106 146 192 242 306 369
#
# _framework density 24.735734999999998
#
# number of rings (size 3 to 8) (size 9 to 14) (size 15 to 20)
#    0.462    1.385    2.308    3.231    0.000    2.462 
#    0.000    0.000    0.000    3.231    0.000    6.462 
#    0.000    0.000    0.000    0.000    0.000    0.000 
#
# Total GULP energy -145027.227237 kJ/mol
# GULP energy per Si atom -5577.970278 kJ/mol
# Density = 2.467944 g / cm^3
# Si number density = 24.735735 Si / 1000 Ang^3
#
#
#
# Elastic Constant Matrix: (Units=GPa)
#
#
# Indices 1 2 3 4 5 6 
#
# 1 141.2302 4.1253 51.7419 0.0000 5.4441 0.0000
# 2 4.1253 100.2797 5.1090 0.0000 5.4263 0.0000
# 3 51.7419 5.1090 115.1384 0.0000 2.4224 0.0000
# 4 0.0000 0.0000 0.0000 15.1445 0.0000 -12.0018
# 5 5.4441 5.4263 2.4224 0.0000 54.6605 0.0000
# 6 0.0000 0.0000 0.0000 -12.0018 0.0000 29.8298
#
#
#
# Elastic Compliance Matrix: (Units=1/GPa)
#
#
# Indices 1 2 3 4 5 6 
#
# 1 0.008503 -0.000120 -0.003802 0.000000 -0.000666 0.000000
# 2 -0.000120 0.010048 -0.000372 0.000000 -0.000969 0.000000
# 3 -0.003802 -0.000372 0.010411 0.000000 -0.000046 0.000000
# 4 0.000000 0.000000 0.000000 0.096940 0.000000 0.039003
# 5 -0.000666 -0.000969 -0.000046 0.000000 0.018459 0.000000
# 6 0.000000 0.000000 0.000000 0.039003 0.000000 0.049216
#
#
# Mechanical properties :
#
#
# Convention : Reuss Voigt Hill
#
# Bulk Modulus (GPa) = 49.07813 53.17786 51.12800
# Shear Modulus (GPa) = 23.92853 39.63844 31.78349
#
# Velocity S-wave (km/s) = 3.11363 4.00744 3.58847
# Velocity P-wave (km/s) = 5.72803 6.55422 6.15500
#
# Compressibility (1/GPa) = 0.02037567
#
# Stress axis : x y z
#
# Youngs Moduli (GPa) = 117.61078 99.51820 96.05171
#
# Poissons Ratio (x) = 0.01195 0.36515
# Poissons Ratio (y) = 0.01412 0.03569
# Poissons Ratio (z) = 0.44711 0.03698
#
# Static dielectric constant tensor:
#      x y z
#    x 1.970700 0.000000 0.033720 
#    y 0.000000 1.912740 0.000000 
#    z 0.033720 0.000000 2.024610 
# 
# From -- ./inp_files/313359.got.cif
#   From: 2010.05.17/outbox.cif.g08.bks.cpg/sg12_157_cif.got.tgz:313359.got - 2010.06.03 13:09:07.
