data_PCOD9195284
_publ_section_title
;
Structure prediction by ZEFSAII (Michael W. Deem and Ramdas Pophale) SiO2 
 PCOD9195284
Probable space group: C 2/M
;
_chemical_formula_sum "Si O2"
_cell_formula_units_Z 36
_cell_length_a 13.268319
_cell_length_b 20.579325
_cell_length_c 6.907383
_cell_angle_alpha 90.000000
_cell_angle_beta 120.602483
_cell_angle_gamma 90.000000
_cell_volume 1623.388425
_symmetry_space_group_name_H-M "C 2/M"
_symmetry_group_IT_number 12
_symmetry_cell_setting 'monoclinic'
loop_
_space_group_symop_operation_xyz
x,y,z
-x,y,-z
-x,-y,-z
x,-y,z
1/2+x,1/2+y,z
1/2-x,1/2+y,-z
1/2-x,1/2-y,-z
1/2+x,1/2-y,z
loop_
_atom_site_type_symbol
_atom_site_label
_atom_site_fract_x
_atom_site_fract_y
_atom_site_fract_z
Si Si1 0.112559 0.277827 0.980304
Si Si2 0.310170 0.641291 0.069147
Si Si3 0.709675 0.076341 0.609044
Si Si4 0.500000 0.164018 0.500000
Si Si5 0.961743 0.924443 0.734387
O O1 0.158899 0.204488 0.031892
O O2 0.071219 0.292740 0.720940
O O3 0.215487 0.329032 0.122905
O O4 0.000000 0.285403 0.000000
O O5 0.432527 0.613779 0.263105
O O6 0.248612 0.588351 0.871398
O O7 0.592973 0.118958 0.476041
O O8 0.825686 0.096043 0.600786
O O9 0.688319 0.000000 0.555184
O O10 0.965541 0.000000 0.684341
O O11 0.000000 0.920404 0.000000
#
# Coordination Sequence:
#
# PCOD9195284 Si02
#       5
#     8   8   8   4   8
#     4  10  20  35  53  76 108 140 172 212 257 310
#     4   9  17  31  50  76 103 134 177 214 254 307
#     4   9  16  29  53  79 103 136 176 218 261 306
#     4  10  21  34  52  82 109 138 174 208 260 318
#     4   8  13  24  46  73  98 130 174 218 257 299
#
# _framework density 22.175839
#
# number of rings (size 3 to 8) (size 9 to 14) (size 15 to 20)
#    0.000    2.889    0.000    4.333    0.000    0.000 
#    0.000   17.778    0.000   24.000    0.000    6.222 
#    0.000    0.000    0.000    0.000    0.000    0.000 
#
# Total GULP energy -100430.815241 kJ/mol
# GULP energy per Si atom -5579.489736 kJ/mol
# Density = 2.212537 g / cm^3
# Si number density = 22.175839 Si / 1000 Ang^3
#
#
#
# Elastic Constant Matrix: (Units=GPa)
#
#
# Indices 1 2 3 4 5 6 
#
# 1 165.5219 31.3895 1.3959 0.0000 36.8252 0.0000
# 2 31.3895 55.3327 15.4948 0.0000 13.6793 0.0000
# 3 1.3959 15.4948 60.4017 0.0000 11.2848 0.0000
# 4 0.0000 0.0000 0.0000 15.2627 0.0000 15.5791
# 5 36.8252 13.6793 11.2848 0.0000 29.9671 0.0000
# 6 0.0000 0.0000 0.0000 15.5791 0.0000 38.7350
#
#
#
# Elastic Compliance Matrix: (Units=1/GPa)
#
#
# Indices 1 2 3 4 5 6 
#
# 1 0.008972 -0.003209 0.002584 0.000000 -0.010533 0.000000
# 2 -0.003209 0.022342 -0.004828 0.000000 -0.004437 0.000000
# 3 0.002584 -0.004828 0.019272 0.000000 -0.008228 0.000000
# 4 0.000000 0.000000 0.000000 0.111151 0.000000 -0.044704
# 5 -0.010533 -0.004437 -0.008228 0.000000 0.051437 0.000000
# 6 0.000000 0.000000 0.000000 -0.044704 0.000000 0.043796
#
#
# Mechanical properties :
#
#
# Convention : Reuss Voigt Hill
#
# Bulk Modulus (GPa) = 25.20263 41.97962 33.59113
# Shear Modulus (GPa) = 17.78706 32.32470 25.05588
#
# Velocity S-wave (km/s) = 2.83520 3.82207 3.36500
# Velocity P-wave (km/s) = 4.70185 6.20073 5.50256
#
# Compressibility (1/GPa) = 0.03967839
#
# Stress axis : x y z
#
# Youngs Moduli (GPa) = 111.46252 44.75902 51.88881
#
# Poissons Ratio (x) = 0.14363 -0.13407
# Poissons Ratio (y) = 0.35769 0.25053
# Poissons Ratio (z) = -0.28799 0.21611
#
# Static dielectric constant tensor:
#      x y z
#    x 1.881280 0.000000 -0.016600 
#    y 0.000000 1.768520 0.000000 
#    z -0.016600 0.000000 1.837750 
# 
# From -- ./inp_files/48977.got.cif
#   From: 2010.05.17/outbox.cif.g08.bks.cpg/sg12_25_cif.got.tgz:48977.got - 2010.06.03 13:09:07.
