data_PCOD9195388
_publ_section_title
;
Structure prediction by ZEFSAII (Michael W. Deem and Ramdas Pophale) SiO2 
 PCOD9195388
Probable space group: C 2/M
;
_chemical_formula_sum "Si O2"
_cell_formula_units_Z 48
_cell_length_a 20.953909
_cell_length_b 8.164161
_cell_length_c 16.227422
_cell_angle_alpha 90.000000
_cell_angle_beta 108.901200
_cell_angle_gamma 90.000000
_cell_volume 2626.354535
_symmetry_space_group_name_H-M "C 2/M"
_symmetry_group_IT_number 12
_symmetry_cell_setting 'monoclinic'
loop_
_space_group_symop_operation_xyz
x,y,z
-x,y,-z
-x,-y,-z
x,-y,z
1/2+x,1/2+y,z
1/2-x,1/2+y,-z
1/2-x,1/2-y,-z
1/2+x,1/2-y,z
loop_
_atom_site_type_symbol
_atom_site_label
_atom_site_fract_x
_atom_site_fract_y
_atom_site_fract_z
Si Si1 0.013485 0.697098 0.766459
Si Si2 0.153815 0.698006 0.900034
Si Si3 0.964741 0.804350 0.568583
Si Si4 0.869073 0.700242 0.765369
Si Si5 0.678998 0.804179 0.433578
Si Si6 0.296683 0.802209 0.900761
O O1 0.014538 0.500000 0.772650
O O2 0.083677 0.759058 0.832849
O O3 0.001354 0.740623 0.666170
O O4 0.946804 0.753328 0.787790
O O5 0.151950 0.500000 0.900430
O O6 0.218933 0.750376 0.875071
O O7 0.167239 0.754128 0.999626
O O8 0.886120 0.757313 0.543367
O O9 0.000000 0.742076 0.500000
O O10 0.969424 0.000000 0.571072
O O11 0.868726 0.500000 0.766580
O O12 0.831444 0.751586 0.665620
O O13 0.833251 0.757315 0.833523
O O14 0.750000 0.750000 0.500000
O O15 0.676190 0.000000 0.432282
O O16 0.299060 0.000000 0.901366
#
# Coordination Sequence:
#
# PCOD9195388 Si02
#       6
#     8   8   8   8   8   8
#     4   9  18  33  51  72  98 126 161 204 247 292
#     4   9  18  31  48  72  99 126 159 199 241 288
#     4  10  21  36  53  74 100 131 169 209 248 295
#     4   8  16  31  50  71  94 124 162 201 238 282
#     4  10  20  35  54  76 103 132 166 207 250 298
#     4   9  17  31  50  70  96 129 161 196 240 288
#
# _framework density 18.276284
#
# number of rings (size 3 to 8) (size 9 to 14) (size 15 to 20)
#    0.000    2.833    0.000    2.000    0.000    4.000 
#    0.000   12.500    0.000    0.000    0.000    9.333 
#    0.000    0.000    0.000    0.000    0.000    0.000 
#
# Total GULP energy -133820.193927 kJ/mol
# GULP energy per Si atom -5575.841414 kJ/mol
# Density = 1.823469 g / cm^3
# Si number density = 18.276284 Si / 1000 Ang^3
#
#
#
# Elastic Constant Matrix: (Units=GPa)
#
#
# Indices 1 2 3 4 5 6 
#
# 1 189.4457 7.6087 141.1838 0.0000 -1.3880 0.0000
# 2 7.6087 6.5704 4.8151 0.0000 -0.4355 0.0000
# 3 141.1838 4.8151 124.2955 0.0000 -1.8505 0.0000
# 4 0.0000 0.0000 0.0000 17.2340 0.0000 1.9438
# 5 -1.3880 -0.4355 -1.8505 0.0000 46.2394 0.0000
# 6 0.0000 0.0000 0.0000 1.9438 0.0000 27.7656
#
#
#
# Elastic Compliance Matrix: (Units=1/GPa)
#
#
# Indices 1 2 3 4 5 6 
#
# 1 0.035277 -0.011859 -0.039621 0.000000 -0.000638 0.000000
# 2 -0.011859 0.160701 0.007266 0.000000 0.001449 0.000000
# 3 -0.039621 0.007266 0.052783 0.000000 0.000991 0.000000
# 4 0.000000 0.000000 0.000000 0.058487 0.000000 -0.004094
# 5 -0.000638 0.001449 0.000991 0.000000 0.021661 0.000000
# 6 0.000000 0.000000 0.000000 -0.004094 0.000000 0.036302
#
#
# Mechanical properties :
#
#
# Convention : Reuss Voigt Hill
#
# Bulk Modulus (GPa) = 6.23696 69.72521 37.98109
# Shear Modulus (GPa) = 9.86033 29.36139 19.61086
#
# Velocity S-wave (km/s) = 2.32527 4.01250 3.27926
# Velocity P-wave (km/s) = 3.26024 7.72660 5.92999
#
# Compressibility (1/GPa) = 0.16033451
#
# Stress axis : x y z
#
# Youngs Moduli (GPa) = 28.34672 6.22274 18.94556
#
# Poissons Ratio (x) = 0.07379 0.75064
# Poissons Ratio (y) = 0.33616 -0.13766
# Poissons Ratio (z) = 1.12312 -0.04522
#
# Static dielectric constant tensor:
#      x y z
#    x 1.650800 0.000000 0.043210 
#    y 0.000000 1.650290 0.000000 
#    z 0.043210 0.000000 1.674960 
# 
# From -- ./inp_files/229889.got.cif
#   From: 2010.05.17/outbox.cif.g08.bks.cpg/sg12_115_cif.got.tgz:229889.got - 2010.06.03 13:09:07.
