data_PCOD9195832
_publ_section_title
;
Structure prediction by ZEFSAII (Michael W. Deem and Ramdas Pophale) SiO2 
 PCOD9195832
Probable space group: C 2/M
;
_chemical_formula_sum "Si O2"
_cell_formula_units_Z 56
_cell_length_a 31.048229
_cell_length_b 8.855064
_cell_length_c 18.641456
_cell_angle_alpha 90.000000
_cell_angle_beta 37.933095
_cell_angle_gamma 90.000000
_cell_volume 3150.652214
_symmetry_space_group_name_H-M "C 2/M"
_symmetry_group_IT_number 12
_symmetry_cell_setting 'monoclinic'
loop_
_space_group_symop_operation_xyz
x,y,z
-x,y,-z
-x,-y,-z
x,-y,z
1/2+x,1/2+y,z
1/2-x,1/2+y,-z
1/2-x,1/2-y,-z
1/2+x,1/2-y,z
loop_
_atom_site_type_symbol
_atom_site_label
_atom_site_fract_x
_atom_site_fract_y
_atom_site_fract_z
Si Si1 0.917965 0.819563 0.322496
Si Si2 0.044973 0.679179 0.228916
Si Si3 0.292153 0.819335 0.011791
Si Si4 0.808149 0.679521 0.745185
Si Si5 0.057255 0.176709 0.362469
Si Si6 0.697761 0.319211 0.402982
Si Si7 0.199756 0.818722 0.627189
O O1 0.863865 0.782614 0.458783
O O2 0.877681 0.783968 0.301133
O O3 0.989613 0.733633 0.242786
O O4 0.929372 0.000000 0.309970
O O5 0.039063 0.500000 0.247768
O O6 0.028562 0.765241 0.324548
O O7 0.125454 0.714209 0.103705
O O8 0.258856 0.749733 0.127017
O O9 0.283088 0.000000 0.023333
O O10 0.250000 0.750000 0.000000
O O11 0.802958 0.500000 0.748577
O O12 0.874849 0.727875 0.705152
O O13 0.817218 0.748721 0.654417
O O14 0.000000 0.193191 0.500000
O O15 0.076256 0.000000 0.332265
O O16 0.701794 0.500000 0.392893
O O17 0.770185 0.253070 0.339952
O O18 0.250000 0.750000 0.500000
O O19 0.207232 0.000000 0.619321
#
# Coordination Sequence:
#
# PCOD9195832 Si02
#       7
#     8   8   8   8   8   8   8
#     4   9  19  34  54  81 114 148 180 216 271 330
#     4  11  23  36  55  81 107 139 183 228 271 321
#     4  11  23  40  59  79 104 141 187 233 276 323
#     4  12  24  37  56  81 108 143 184 228 274 325
#     4  11  23  37  54  77 109 146 178 217 273 328
#     4  10  20  35  55  82 114 148 183 223 273 329
#     4   9  17  31  52  80 112 147 184 222 267 326
#
# _framework density 17.774099
#
# number of rings (size 3 to 8) (size 9 to 14) (size 15 to 20)
#    0.000    1.571    1.429    5.143    0.000    9.714 
#    0.000    0.000    0.000    0.857    0.000    6.000 
#    0.000    0.000    0.000    0.000    0.000    0.000 
#
# Total GULP energy -156376.078828 kJ/mol
# GULP energy per Si atom -5584.859958 kJ/mol
# Density = 1.773364 g / cm^3
# Si number density = 17.774099 Si / 1000 Ang^3
#
#
#
# Elastic Constant Matrix: (Units=GPa)
#
#
# Indices 1 2 3 4 5 6 
#
# 1 79.4781 23.9941 4.2402 0.0029 -25.7391 0.0002
# 2 23.9941 71.5033 28.0776 -0.0090 -19.4460 0.0047
# 3 4.2402 28.0776 38.1573 -0.0130 -15.7227 0.0057
# 4 0.0029 -0.0090 -0.0130 22.6750 0.0058 -0.2774
# 5 -25.7391 -19.4460 -15.7227 0.0058 22.9484 0.0019
# 6 0.0002 0.0047 0.0057 -0.2774 0.0019 36.6432
#
#
#
# Elastic Compliance Matrix: (Units=1/GPa)
#
#
# Indices 1 2 3 4 5 6 
#
# 1 0.023708 -0.004734 0.014146 -0.000005 0.032272 -0.000003
# 2 -0.004734 0.022188 -0.014270 0.000000 0.003715 -0.000001
# 3 0.014146 -0.014270 0.051124 0.000012 0.038801 -0.000008
# 4 -0.000005 0.000000 0.000012 0.044106 -0.000008 0.000334
# 5 0.032272 0.003715 0.038801 -0.000008 0.109504 -0.000012
# 6 -0.000003 -0.000001 -0.000008 0.000334 -0.000012 0.027293
#
#
# Mechanical properties :
#
#
# Convention : Reuss Voigt Hill
#
# Bulk Modulus (GPa) = 11.45415 33.52916 22.49165
# Shear Modulus (GPa) = 15.78596 25.30845 20.54720
#
# Velocity S-wave (km/s) = 2.98341 3.77755 3.40372
# Velocity P-wave (km/s) = 4.28088 6.15885 5.30365
#
# Compressibility (1/GPa) = 0.08730462
#
# Stress axis : x y z
#
# Youngs Moduli (GPa) = 42.18040 45.07030 19.56043
#
# Poissons Ratio (x) = 0.21336 -0.27671
# Poissons Ratio (y) = 0.19968 0.27912
# Poissons Ratio (z) = -0.59670 0.64314
#
# Static dielectric constant tensor:
#      x y z
#    x 1.543660 0.000000 -0.063730 
#    y 0.000000 1.593440 0.000000 
#    z -0.063730 0.000000 1.562510 
# 
# From -- ./inp_files/280959.got.cif
#   From: 2010.05.17/outbox.cif.g08.bks.cpg/sg12_141_cif.got.tgz:280959.got - 2010.06.03 13:09:07.
