data_PCOD9195094
_publ_section_title
;
Structure prediction by ZEFSAII (Michael W. Deem and Ramdas Pophale) SiO2 
 PCOD9195094
Probable space group: C 2/M
;
_chemical_formula_sum "Si O2"
_cell_formula_units_Z 56
_cell_length_a 8.795470
_cell_length_b 13.405074
_cell_length_c 29.119896
_cell_angle_alpha 90.000000
_cell_angle_beta 53.398572
_cell_angle_gamma 90.000000
_cell_volume 2756.302414
_symmetry_space_group_name_H-M "C 2/M"
_symmetry_group_IT_number 12
_symmetry_cell_setting 'monoclinic'
loop_
_space_group_symop_operation_xyz
x,y,z
-x,y,-z
-x,-y,-z
x,-y,z
1/2+x,1/2+y,z
1/2-x,1/2+y,-z
1/2-x,1/2-y,-z
1/2+x,1/2-y,z
loop_
_atom_site_type_symbol
_atom_site_label
_atom_site_fract_x
_atom_site_fract_y
_atom_site_fract_z
Si Si1 0.162945 0.815957 0.442326
Si Si2 0.492584 0.673469 0.630873
Si Si3 0.195610 0.500000 0.526156
Si Si4 0.267402 0.000000 0.590425
Si Si5 0.205386 0.751029 0.172346
Si Si6 0.283581 0.389800 0.021593
Si Si7 0.115142 0.809778 0.090740
Si Si8 0.677687 0.877247 0.760649
O O1 0.368867 0.768041 0.397128
O O2 0.078664 0.845250 0.408213
O O3 0.206005 0.905900 0.468690
O O4 0.000000 0.753308 0.500000
O O5 0.640520 0.594132 0.624442
O O6 0.310869 0.663951 0.695748
O O7 0.212915 0.500000 0.468358
O O8 0.971577 0.500000 0.576258
O O9 0.190926 0.815270 0.128344
O O10 0.390052 0.681567 0.133774
O O11 0.235421 0.827496 0.208833
O O12 0.025510 0.677505 0.208557
O O13 0.219995 0.500000 0.046305
O O14 0.292157 0.377291 0.965027
O O15 0.500000 0.375732 0.000000
O O16 0.159659 0.302892 0.065565
O O17 0.670719 0.000000 0.762243
#
# Coordination Sequence:
#
# PCOD9195094 Si02
#       8
#     8   8   4   4   8   8   8   8
#     4  12  24  40  64  97 129 168 209 263 332 418
#     4  12  24  42  66  90 128 167 213 272 336 389
#     4  11  24  39  60  99 130 167 212 251 327 417
#     4  11  23  40  63  90 133 166 205 266 324 398
#     4  10  23  42  67  93 129 174 224 276 328 382
#     4  10  20  34  61  97 131 174 214 251 327 399
#     4  10  20  39  61  94 137 167 207 275 318 379
#     4  11  25  47  70  94 126 174 228 281 332 387
#
# _framework density 20.317073000000001
#
# number of rings (size 3 to 8) (size 9 to 14) (size 15 to 20)
#    0.000    1.143    3.571    2.786    2.000    3.429 
#    0.000    2.857    0.000    0.000    0.000    0.000 
#    0.000    0.000    0.000    0.000    0.000    0.000 
#
# Total GULP energy -156289.270523 kJ/mol
# GULP energy per Si atom -5581.759662 kJ/mol
# Density = 2.027083 g / cm^3
# Si number density = 20.317073 Si / 1000 Ang^3
#
#
#
# Elastic Constant Matrix: (Units=GPa)
#
#
# Indices 1 2 3 4 5 6 
#
# 1 111.9026 17.5018 39.4761 0.0000 0.5305 0.0000
# 2 17.5018 88.4500 26.8086 0.0000 -10.2730 0.0000
# 3 39.4761 26.8086 112.7704 0.0000 8.5151 0.0000
# 4 0.0000 0.0000 0.0000 1.7067 0.0000 4.1195
# 5 0.5305 -10.2730 8.5151 0.0000 29.3736 0.0000
# 6 0.0000 0.0000 0.0000 4.1195 0.0000 16.9959
#
#
#
# Elastic Compliance Matrix: (Units=1/GPa)
#
#
# Indices 1 2 3 4 5 6 
#
# 1 0.010286 -0.000946 -0.003411 0.000000 0.000472 0.000000
# 2 -0.000946 0.013106 -0.003202 0.000000 0.005529 0.000000
# 3 -0.003411 -0.003202 0.011147 0.000000 -0.004289 0.000000
# 4 0.000000 0.000000 0.000000 1.412018 0.000000 -0.342244
# 5 0.000472 0.005529 -0.004289 0.000000 0.037213 0.000000
# 6 0.000000 0.000000 0.000000 -0.342244 0.000000 0.141791
#
#
# Mechanical properties :
#
#
# Convention : Reuss Voigt Hill
#
# Bulk Modulus (GPa) = 51.49560 53.41069 52.45315
# Shear Modulus (GPa) = 3.03554 24.90433 13.96994
#
# Velocity S-wave (km/s) = 1.22365 3.50492 2.62505
# Velocity P-wave (km/s) = 5.23426 6.53643 5.92125
#
# Compressibility (1/GPa) = 0.01941914
#
# Stress axis : x y z
#
# Youngs Moduli (GPa) = 97.22425 76.30290 89.71268
#
# Poissons Ratio (x) = 0.07222 0.30602
# Poissons Ratio (y) = 0.09202 0.28723
# Poissons Ratio (z) = 0.33165 0.24430
#
# Static dielectric constant tensor:
#      x y z
#    x 1.732640 0.000000 -0.013910 
#    y 0.000000 3.055010 0.000000 
#    z -0.013910 0.000000 1.737970 
# 
# From -- ./inp_files/372362.got.cif
#   From: 2010.05.17/outbox.cif.g08.bks.cpg/sg12_187_cif.got.tgz:372362.got - 2010.06.03 13:09:07.
