data_PCOD9195228
_publ_section_title
;
Structure prediction by ZEFSAII (Michael W. Deem and Ramdas Pophale) SiO2 
 PCOD9195228
Probable space group: C 2/M
;
_chemical_formula_sum "Si O2"
_cell_formula_units_Z 40
_cell_length_a 5.402725
_cell_length_b 20.393645
_cell_length_c 23.458965
_cell_angle_alpha 90.000000
_cell_angle_beta 134.042962
_cell_angle_gamma 90.000000
_cell_volume 1857.958229
_symmetry_space_group_name_H-M "C 2/M"
_symmetry_group_IT_number 12
_symmetry_cell_setting 'monoclinic'
loop_
_space_group_symop_operation_xyz
x,y,z
-x,y,-z
-x,-y,-z
x,-y,z
1/2+x,1/2+y,z
1/2-x,1/2+y,-z
1/2-x,1/2-y,-z
1/2+x,1/2-y,z
loop_
_atom_site_type_symbol
_atom_site_label
_atom_site_fract_x
_atom_site_fract_y
_atom_site_fract_z
Si Si1 0.012789 0.073442 0.262118
Si Si2 0.986909 0.357140 0.735500
Si Si3 0.092774 0.928517 0.947906
Si Si4 0.160363 0.784866 0.124821
Si Si5 0.259888 0.575219 0.407990
O O1 0.351912 0.073750 0.357163
O O2 0.689875 0.099009 0.244291
O O3 0.149416 0.117158 0.231861
O O4 0.956625 0.000000 0.232618
O O5 0.062152 0.289159 0.778586
O O6 0.445739 0.359742 0.902678
O O7 0.736166 0.370312 0.641247
O O8 0.967865 0.000000 0.904971
O O9 0.500000 0.926746 0.000000
O O10 0.000000 0.929259 0.000000
O O11 0.840640 0.744598 0.098263
O O12 0.500000 0.588089 0.500000
O O13 0.334198 0.500000 0.398722
#
# Coordination Sequence:
#
# PCOD9195228 Si02
#       5
#     8   8   8   8   8
#     4   9  17  30  51  81 115 152 196 251 312 369
#     4  10  20  35  52  80 119 159 203 251 305 362
#     4  10  23  44  69 101 135 165 202 253 311 368
#     4  12  26  43  66  94 127 171 215 256 302 365
#     4   8  16  30  52  84 119 154 200 260 319 373
#
# _framework density 21.529008999999999
#
# number of rings (size 3 to 8) (size 9 to 14) (size 15 to 20)
#    1.200    1.000    0.000    3.600    0.000    5.600 
#    0.000    5.000    0.000    1.200    0.000    0.000 
#    0.000    0.000    0.000    0.000    0.000    0.000 
#
# Total GULP energy -111336.704236 kJ/mol
# GULP energy per Si atom -5566.835212 kJ/mol
# Density = 2.148001 g / cm^3
# Si number density = 21.529009 Si / 1000 Ang^3
#
#
#
# Elastic Constant Matrix: (Units=GPa)
#
#
# Indices 1 2 3 4 5 6 
#
# 1 77.5537 10.3862 14.2026 0.0000 -12.2954 0.0000
# 2 10.3862 78.6471 22.5138 0.0000 7.6449 0.0000
# 3 14.2026 22.5138 47.9822 0.0000 5.6503 0.0000
# 4 0.0000 0.0000 0.0000 63.7499 0.0000 2.1437
# 5 -12.2954 7.6449 5.6503 0.0000 19.2857 0.0000
# 6 0.0000 0.0000 0.0000 2.1437 0.0000 40.1356
#
#
#
# Elastic Compliance Matrix: (Units=1/GPa)
#
#
# Indices 1 2 3 4 5 6 
#
# 1 0.016120 -0.001804 -0.005406 0.000000 0.012576 0.000000
# 2 -0.001804 0.015184 -0.005952 0.000000 -0.005425 0.000000
# 3 -0.005406 -0.005952 0.026268 0.000000 -0.008783 0.000000
# 4 0.000000 0.000000 0.000000 0.015715 0.000000 -0.000839
# 5 0.012576 -0.005425 -0.008783 0.000000 0.064593 0.000000
# 6 0.000000 0.000000 0.000000 -0.000839 0.000000 0.024960
#
#
# Mechanical properties :
#
#
# Convention : Reuss Voigt Hill
#
# Bulk Modulus (GPa) = 32.00094 33.15427 32.57761
# Shear Modulus (GPa) = 25.05261 35.10625 30.07943
#
# Velocity S-wave (km/s) = 3.41496 4.04251 3.74191
# Velocity P-wave (km/s) = 5.51776 6.10102 5.81670
#
# Compressibility (1/GPa) = 0.03124908
#
# Stress axis : x y z
#
# Youngs Moduli (GPa) = 62.03621 65.85705 38.06882
#
# Poissons Ratio (x) = 0.11878 0.20580
# Poissons Ratio (y) = 0.11189 0.22658
# Poissons Ratio (z) = 0.33537 0.39198
#
# Static dielectric constant tensor:
#      x y z
#    x 1.752250 0.000000 0.026470 
#    y 0.000000 1.786850 0.000000 
#    z 0.026470 0.000000 1.861440 
# 
# From -- ./inp_files/192007.got.cif
#   From: 2010.05.17/outbox.cif.g08.bks.cpg/sg12_97_cif.got.tgz:192007.got - 2010.06.03 13:09:07.
