data_PCOD9195572
_publ_section_title
;
Structure prediction by ZEFSAII (Michael W. Deem and Ramdas Pophale) SiO2 
 PCOD9195572
Probable space group: C 2/M
;
_chemical_formula_sum "Si O2"
_cell_formula_units_Z 56
_cell_length_a 9.640939
_cell_length_b 18.264825
_cell_length_c 19.943357
_cell_angle_alpha 90.000000
_cell_angle_beta 54.230169
_cell_angle_gamma 90.000000
_cell_volume 2849.397099
_symmetry_space_group_name_H-M "C 2/M"
_symmetry_group_IT_number 12
_symmetry_cell_setting 'monoclinic'
loop_
_space_group_symop_operation_xyz
x,y,z
-x,y,-z
-x,-y,-z
x,-y,z
1/2+x,1/2+y,z
1/2-x,1/2+y,-z
1/2-x,1/2-y,-z
1/2+x,1/2-y,z
loop_
_atom_site_type_symbol
_atom_site_label
_atom_site_fract_x
_atom_site_fract_y
_atom_site_fract_z
Si Si1 0.898376 0.079696 0.599515
Si Si2 0.338997 0.083891 0.667137
Si Si3 0.805979 0.645416 0.036054
Si Si4 0.928831 0.082744 0.148177
Si Si5 0.297769 0.349492 0.422276
Si Si6 0.302084 0.305001 0.076805
Si Si7 0.139381 0.316767 0.614149
O O1 0.767420 0.145723 0.630091
O O2 0.000000 0.077860 0.500000
O O3 0.041228 0.098018 0.612958
O O4 0.818150 0.000000 0.632006
O O5 0.154862 0.086262 0.754697
O O6 0.324565 0.112204 0.595756
O O7 0.462904 0.140650 0.668884
O O8 0.402730 0.000000 0.652310
O O9 0.632758 0.597635 0.091626
O O10 0.764007 0.718480 0.092248
O O11 0.805973 0.666882 0.956634
O O12 0.000000 0.620076 0.000000
O O13 0.818179 0.140043 0.134703
O O14 0.901599 0.000000 0.129599
O O15 0.211078 0.335024 0.518992
O O16 0.358712 0.270085 0.379547
O O17 0.500000 0.304033 0.000000
#
# Coordination Sequence:
#
# PCOD9195572 Si02
#       7
#     8   8   8   8   8   8   8
#     4   9  17  30  49  72  96 123 160 211 268 316
#     4  11  23  37  53  77 111 148 184 221 266 326
#     4   9  17  33  59  86 107 135 181 227 263 311
#     4  10  22  37  52  78 116 150 179 217 268 322
#     4  10  20  35  55  78 103 134 179 232 276 314
#     4   8  16  33  57  81 107 140 175 213 263 322
#     4  10  20  35  55  77 101 135 182 229 272 323
#
# _framework density 19.653279999999999
#
# number of rings (size 3 to 8) (size 9 to 14) (size 15 to 20)
#    0.000    2.429    0.000    3.000    0.000    8.571 
#    0.000    1.429    0.000    3.429    0.000    0.000 
#    0.000    0.000    0.000    0.000    0.000    0.000 
#
# Total GULP energy -155901.269648 kJ/mol
# GULP energy per Si atom -5567.902487 kJ/mol
# Density = 1.960855 g / cm^3
# Si number density = 19.653280 Si / 1000 Ang^3
#
#
#
# Elastic Constant Matrix: (Units=GPa)
#
#
# Indices 1 2 3 4 5 6 
#
# 1 89.3322 12.7983 3.9502 0.0000 -5.5229 0.0000
# 2 12.7983 95.8214 23.6021 0.0000 0.2952 0.0000
# 3 3.9502 23.6021 26.4914 0.0000 -6.4827 0.0000
# 4 0.0000 0.0000 0.0000 51.0144 0.0000 1.8005
# 5 -5.5229 0.2952 -6.4827 0.0000 19.1730 0.0000
# 6 0.0000 0.0000 0.0000 1.8005 0.0000 26.9578
#
#
#
# Elastic Compliance Matrix: (Units=1/GPa)
#
#
# Indices 1 2 3 4 5 6 
#
# 1 0.011636 -0.001737 0.000697 0.000000 0.003614 0.000000
# 2 -0.001737 0.014015 -0.013521 0.000000 -0.005288 0.000000
# 3 0.000697 -0.013521 0.054282 0.000000 0.018763 0.000000
# 4 0.000000 0.000000 0.000000 0.019649 0.000000 -0.001312
# 5 0.003614 -0.005288 0.018763 0.000000 0.059623 0.000000
# 6 0.000000 0.000000 0.000000 -0.001312 0.000000 0.037183
#
#
# Mechanical properties :
#
#
# Convention : Reuss Voigt Hill
#
# Bulk Modulus (GPa) = 19.68116 32.48289 26.08202
# Shear Modulus (GPa) = 20.62308 30.84866 25.73587
#
# Velocity S-wave (km/s) = 3.24287 3.96617 3.62262
# Velocity P-wave (km/s) = 4.90485 6.12682 5.54957
#
# Compressibility (1/GPa) = 0.05081002
#
# Stress axis : x y z
#
# Youngs Moduli (GPa) = 85.94288 71.35290 18.42222
#
# Poissons Ratio (x) = 0.12393 -0.01284
# Poissons Ratio (y) = 0.14927 0.24909
# Poissons Ratio (z) = -0.05989 0.96479
#
# Static dielectric constant tensor:
#      x y z
#    x 1.797800 0.000000 0.044120 
#    y 0.000000 1.717240 0.000000 
#    z 0.044120 0.000000 1.728460 
# 
# From -- ./inp_files/300688.got.cif
#   From: 2010.05.17/outbox.cif.g08.bks.cpg/sg12_151_cif.got.tgz:300688.got - 2010.06.03 13:09:07.
