data_PCOD9195417
_publ_section_title
;
Structure prediction by ZEFSAII (Michael W. Deem and Ramdas Pophale) SiO2 
 PCOD9195417
Probable space group: C 2/M
;
_chemical_formula_sum "Si O2"
_cell_formula_units_Z 64
_cell_length_a 21.075698
_cell_length_b 8.589413
_cell_length_c 20.175140
_cell_angle_alpha 90.000000
_cell_angle_beta 97.939469
_cell_angle_gamma 90.000000
_cell_volume 3617.254119
_symmetry_space_group_name_H-M "C 2/M"
_symmetry_group_IT_number 12
_symmetry_cell_setting 'monoclinic'
loop_
_space_group_symop_operation_xyz
x,y,z
-x,y,-z
-x,-y,-z
x,-y,z
1/2+x,1/2+y,z
1/2-x,1/2+y,-z
1/2-x,1/2-y,-z
1/2+x,1/2-y,z
loop_
_atom_site_type_symbol
_atom_site_label
_atom_site_fract_x
_atom_site_fract_y
_atom_site_fract_z
Si Si1 0.330582 0.811898 0.574803
Si Si2 0.816465 0.313224 0.036826
Si Si3 0.543734 0.811754 0.327729
Si Si4 0.567971 0.189531 0.040615
Si Si5 0.614155 0.313624 0.830101
Si Si6 0.693390 0.186377 0.580244
Si Si7 0.097288 0.813559 0.676437
Si Si8 0.972707 0.688027 0.824750
O O1 0.395526 0.760428 0.620361
O O2 0.328639 0.765154 0.497135
O O3 0.265859 0.747566 0.598437
O O4 0.328216 0.000000 0.577197
O O5 0.815968 0.500000 0.036755
O O6 0.833578 0.254562 0.112698
O O7 0.750000 0.250000 0.000000
O O8 0.873346 0.257709 0.995963
O O9 0.475279 0.748122 0.341850
O O10 0.551315 0.764852 0.251545
O O11 0.540923 0.000000 0.329818
O O12 0.568705 0.237155 0.117770
O O13 0.568728 0.000000 0.039160
O O14 0.500000 0.238797 0.000000
O O15 0.615201 0.500000 0.833587
O O16 0.620087 0.266434 0.753835
O O17 0.544534 0.252226 0.842650
O O18 0.645056 0.250255 0.628002
O O19 0.693556 0.000000 0.582685
O O20 0.096100 0.000000 0.673755
O O21 0.976505 0.500000 0.826143
#
# Coordination Sequence:
#
# PCOD9195417 Si02
#       8
#     8   8   8   8   8   8   8   8
#     4   9  19  36  55  79 110 142 177 221 269 318
#     4  11  22  37  55  76 109 142 177 221 265 317
#     4   9  18  33  55  80 107 138 176 219 265 319
#     4   9  16  30  54  79 100 132 175 214 252 305
#     4  10  20  35  54  77 105 139 175 217 269 315
#     4  10  20  35  56  78 106 144 183 220 264 322
#     4  10  21  36  55  79 108 139 178 224 268 320
#     4   9  16  31  55  79 101 134 176 214 260 315
#
# _framework density 17.692979000000001
#
# number of rings (size 3 to 8) (size 9 to 14) (size 15 to 20)
#    0.000    2.375    1.250    1.500    0.000    3.000 
#    2.250    4.375    0.000    0.000    0.000    0.000 
#    0.000    0.000    0.000    0.000    0.000    0.000 
#
# Total GULP energy -178502.687643 kJ/mol
# GULP energy per Si atom -5578.208989 kJ/mol
# Density = 1.765271 g / cm^3
# Si number density = 17.692979 Si / 1000 Ang^3
#
#
#
# Elastic Constant Matrix: (Units=GPa)
#
#
# Indices 1 2 3 4 5 6 
#
# 1 154.1112 28.9355 104.6640 0.0000 6.3829 0.0000
# 2 28.9355 18.7523 28.5791 0.0000 2.3806 0.0000
# 3 104.6640 28.5791 122.4888 0.0000 0.2304 0.0000
# 4 0.0000 0.0000 0.0000 20.6693 0.0000 1.0431
# 5 6.3829 2.3806 0.2304 0.0000 36.1334 0.0000
# 6 0.0000 0.0000 0.0000 1.0431 0.0000 28.4190
#
#
#
# Elastic Compliance Matrix: (Units=1/GPa)
#
#
# Indices 1 2 3 4 5 6 
#
# 1 0.016077 -0.005546 -0.012439 0.000000 -0.002395 0.000000
# 2 -0.005546 0.085705 -0.015249 0.000000 -0.004570 0.000000
# 3 -0.012439 -0.015249 0.022345 0.000000 0.003060 0.000000
# 4 0.000000 0.000000 0.000000 0.048471 0.000000 -0.001779
# 5 -0.002395 -0.004570 0.003060 0.000000 0.028380 0.000000
# 6 0.000000 0.000000 0.000000 -0.001779 0.000000 0.035253
#
#
# Mechanical properties :
#
#
# Convention : Reuss Voigt Hill
#
# Bulk Modulus (GPa) = 17.34346 68.85663 43.10004
# Shear Modulus (GPa) = 15.53183 25.92259 20.72721
#
# Velocity S-wave (km/s) = 2.96607 3.83186 3.42642
# Velocity P-wave (km/s) = 4.64261 7.65373 6.32982
#
# Compressibility (1/GPa) = 0.05765863
#
# Stress axis : x y z
#
# Youngs Moduli (GPa) = 62.19894 11.66795 44.75219
#
# Poissons Ratio (x) = 0.06471 0.55669
# Poissons Ratio (y) = 0.34496 0.68243
# Poissons Ratio (z) = 0.77371 0.17793
#
# Static dielectric constant tensor:
#      x y z
#    x 1.567090 0.000000 0.001980 
#    y 0.000000 1.600840 0.000000 
#    z 0.001980 0.000000 1.621240 
# 
# From -- ./inp_files/314161.got.cif
#   From: 2010.05.17/outbox.cif.g08.bks.cpg/sg12_158_cif.got.tgz:314161.got - 2010.06.03 13:09:07.
