data_PCOD9195720
_publ_section_title
;
Structure prediction by ZEFSAII (Michael W. Deem and Ramdas Pophale) SiO2 
 PCOD9195720
Probable space group: C 2/M
;
_chemical_formula_sum "Si O2"
_cell_formula_units_Z 50
_cell_length_a 19.716383
_cell_length_b 7.417837
_cell_length_c 23.055179
_cell_angle_alpha 90.000000
_cell_angle_beta 143.544830
_cell_angle_gamma 90.000000
_cell_volume 2003.553902
_symmetry_space_group_name_H-M "C 2/M"
_symmetry_group_IT_number 12
_symmetry_cell_setting 'monoclinic'
loop_
_space_group_symop_operation_xyz
x,y,z
-x,y,-z
-x,-y,-z
x,-y,z
1/2+x,1/2+y,z
1/2-x,1/2+y,-z
1/2-x,1/2-y,-z
1/2+x,1/2-y,z
loop_
_atom_site_type_symbol
_atom_site_label
_atom_site_fract_x
_atom_site_fract_y
_atom_site_fract_z
Si Si1 0.853457 0.791287 0.946169
Si Si2 0.745198 0.283335 0.245701
Si Si3 0.385078 0.281292 0.175680
Si Si4 0.270113 0.713668 0.446627
Si Si5 0.982125 0.788723 0.367649
Si Si6 0.078493 0.203914 0.227548
Si Si7 0.000000 0.500000 0.000000
O O1 0.796120 0.724811 0.846102
O O2 0.747476 0.773985 0.917124
O O3 0.959049 0.658342 0.019138
O O4 0.886206 0.000000 0.964742
O O5 0.742437 0.500000 0.245607
O O6 0.876956 0.230238 0.339265
O O7 0.658235 0.211362 0.233240
O O8 0.388233 0.500000 0.178338
O O9 0.441103 0.216978 0.275969
O O10 0.463756 0.217648 0.176570
O O11 0.262443 0.500000 0.428901
O O12 0.250000 0.750000 0.500000
O O13 0.399110 0.782077 0.525446
O O14 0.168913 0.805214 0.342244
O O15 0.002723 0.000000 0.371681
O O16 0.048408 0.000000 0.187421
#
# Coordination Sequence:
#
# PCOD9195720 Si02
#       7
#     8   8   8   8   8   8   2
#     4  10  21  38  63  94 120 145 188 232 278 350
#     4   9  20  36  55  83 111 148 189 234 285 340
#     4   9  16  33  56  81 110 150 191 232 282 338
#     4  11  21  33  48  75 108 149 199 250 293 329
#     4   9  18  32  51  70 107 149 190 242 289 330
#     4  10  20  35  55  79 112 152 195 236 289 339
#     4  12  22  40  68  98 116 150 178 228 300 334
#
# _framework density 24.955653999999999
#
# number of rings (size 3 to 8) (size 9 to 14) (size 15 to 20)
#    0.000    2.240    2.400    0.720    1.120    3.200 
#    0.000    3.200    0.000    0.960    0.000    0.000 
#    0.000    0.000    0.000    0.000    0.000    0.000 
#
# Total GULP energy -139451.053770 kJ/mol
# GULP energy per Si atom -5578.042151 kJ/mol
# Density = 2.489885 g / cm^3
# Si number density = 24.955654 Si / 1000 Ang^3
#
#
#
# Elastic Constant Matrix: (Units=GPa)
#
#
# Indices 1 2 3 4 5 6 
#
# 1 164.0946 2.4325 37.0071 -0.0006 54.7243 0.0002
# 2 2.4325 117.9775 -3.8643 -0.0011 13.1424 0.0004
# 3 37.0071 -3.8643 87.9679 -0.0002 32.7467 0.0001
# 4 -0.0006 -0.0011 -0.0002 -40.3619 -0.0002 11.9284
# 5 54.7243 13.1424 32.7467 -0.0002 47.3816 0.0000
# 6 0.0002 0.0004 0.0001 11.9284 0.0000 16.4616
#
#
#
# Elastic Compliance Matrix: (Units=1/GPa)
#
#
# Indices 1 2 3 4 5 6 
#
# 1 0.010061 0.001162 0.000356 0.000000 -0.012189 0.000000
# 2 0.001162 0.009081 0.001814 0.000000 -0.005115 0.000000
# 3 0.000356 0.001814 0.015669 0.000000 -0.011744 0.000000
# 4 0.000000 0.000000 0.000000 -0.020406 0.000000 0.014787
# 5 -0.012189 -0.005115 -0.011744 0.000000 0.044718 0.000000
# 6 0.000000 0.000000 0.000000 0.014787 0.000000 0.050033
#
#
# Mechanical properties :
#
#
# Convention : Reuss Voigt Hill
#
# Bulk Modulus (GPa) = 24.11029 49.02118 36.56573
# Shear Modulus (GPa) = 42.98514 26.99389 34.98952
#
# Velocity S-wave (km/s) = 4.15476 3.29245 3.74848
# Velocity P-wave (km/s) = 5.71824 5.84291 5.78091
#
# Compressibility (1/GPa) = 0.04147607
#
# Stress axis : x y z
#
# Youngs Moduli (GPa) = 99.38882 110.11471 63.81827
#
# Poissons Ratio (x) = -0.12795 -0.02270
# Poissons Ratio (y) = -0.11549 -0.11577
# Poissons Ratio (z) = -0.03535 -0.19976
#
# Static dielectric constant tensor:
#      x y z
#    x 2.006290 0.000000 -0.014440 
#    y 0.000000 2.036410 0.000000 
#    z -0.014440 0.000000 2.128120 
# 
# From -- ./inp_files/230068.got.cif
#   From: 2010.05.17/outbox.cif.g08.bks.cpg/sg12_116_cif.got.tgz:230068.got - 2010.06.03 13:09:07.
