data_PCOD9195515
_publ_section_title
;
Structure prediction by ZEFSAII (Michael W. Deem and Ramdas Pophale) SiO2 
 PCOD9195515
Probable space group: C 2/M
;
_chemical_formula_sum "Si O2"
_cell_formula_units_Z 64
_cell_length_a 25.177713
_cell_length_b 7.827910
_cell_length_c 15.414002
_cell_angle_alpha 90.000000
_cell_angle_beta 91.202817
_cell_angle_gamma 90.000000
_cell_volume 3037.258858
_symmetry_space_group_name_H-M "C 2/M"
_symmetry_group_IT_number 12
_symmetry_cell_setting 'monoclinic'
loop_
_space_group_symop_operation_xyz
x,y,z
-x,y,-z
-x,-y,-z
x,-y,z
1/2+x,1/2+y,z
1/2-x,1/2+y,-z
1/2-x,1/2-y,-z
1/2+x,1/2-y,z
loop_
_atom_site_type_symbol
_atom_site_label
_atom_site_fract_x
_atom_site_fract_y
_atom_site_fract_z
Si Si1 0.769261 0.795758 0.635267
Si Si2 0.556444 0.801583 0.748015
Si Si3 0.727728 0.292605 0.170239
Si Si4 0.373467 0.201222 0.944056
Si Si5 0.847710 0.709008 0.135863
Si Si6 0.514608 0.697873 0.096167
Si Si7 0.451634 0.300175 0.442573
Si Si8 0.667154 0.707017 0.530674
O O1 0.782190 0.732498 0.731645
O O2 0.708463 0.759188 0.606824
O O3 0.806582 0.730796 0.558736
O O4 0.775474 0.000000 0.637306
O O5 0.612415 0.733404 0.787388
O O6 0.515297 0.786338 0.825879
O O7 0.538163 0.712489 0.659643
O O8 0.563452 0.000000 0.726371
O O9 0.726936 0.500000 0.168762
O O10 0.682489 0.229495 0.104432
O O11 0.787005 0.237783 0.145795
O O12 0.421948 0.288431 0.895951
O O13 0.385027 0.000000 0.946912
O O14 0.369390 0.264773 0.042953
O O15 0.848652 0.500000 0.136303
O O16 0.498138 0.500000 0.097512
O O17 0.500000 0.768513 0.000000
O O18 0.500000 0.224475 0.500000
O O19 0.448210 0.500000 0.466781
O O20 0.392608 0.228745 0.458088
O O21 0.666640 0.500000 0.529630
#
# Coordination Sequence:
#
# PCOD9195515 Si02
#       8
#     8   8   8   8   8   8   8   8
#     4   9  18  33  55  81 110 146 187 235 288 342
#     4  11  22  39  64  90 116 151 197 246 298 351
#     4  10  20  35  54  81 116 152 192 233 285 349
#     4  11  22  37  56  81 115 154 193 239 292 339
#     4   9  19  35  56  81 114 152 189 237 295 345
#     4  11  23  40  62  87 115 150 195 241 289 351
#     4  10  22  39  57  82 119 157 195 241 294 350
#     4   9  18  34  56  80 107 144 188 235 287 341
#
# _framework density 21.071634
#
# number of rings (size 3 to 8) (size 9 to 14) (size 15 to 20)
#    0.000    2.000    1.250    2.250    0.000    3.750 
#    0.000    4.375    0.000    0.000    0.000    0.000 
#    0.000    0.000    0.000    0.000    0.000    0.000 
#
# Total GULP energy -178784.055608 kJ/mol
# GULP energy per Si atom -5587.001738 kJ/mol
# Density = 2.102367 g / cm^3
# Si number density = 21.071634 Si / 1000 Ang^3
#
#
#
# Elastic Constant Matrix: (Units=GPa)
#
#
# Indices 1 2 3 4 5 6 
#
# 1 95.8983 -7.2470 47.1902 0.0000 6.3394 0.0000
# 2 -7.2470 27.5455 -5.3277 0.0000 -0.1083 0.0000
# 3 47.1902 -5.3277 91.0024 0.0000 15.1655 0.0000
# 4 0.0000 0.0000 0.0000 3.5005 0.0000 2.4806
# 5 6.3394 -0.1083 15.1655 0.0000 31.4296 0.0000
# 6 0.0000 0.0000 0.0000 2.4806 0.0000 21.9958
#
#
#
# Elastic Compliance Matrix: (Units=1/GPa)
#
#
# Indices 1 2 3 4 5 6 
#
# 1 0.014160 0.002312 -0.007322 0.000000 0.000685 0.000000
# 2 0.002312 0.037125 0.001121 0.000000 -0.000879 0.000000
# 3 -0.007322 0.001121 0.015881 0.000000 -0.006182 0.000000
# 4 0.000000 0.000000 0.000000 0.310490 0.000000 -0.035016
# 5 0.000685 -0.000879 -0.006182 0.000000 0.034659 0.000000
# 6 0.000000 0.000000 0.000000 -0.035016 0.000000 0.049412
#
#
# Mechanical properties :
#
#
# Convention : Reuss Voigt Hill
#
# Bulk Modulus (GPa) = 16.83792 31.51966 24.17879
# Shear Modulus (GPa) = 10.21865 23.37389 16.79627
#
# Velocity S-wave (km/s) = 2.20454 3.33417 2.82636
# Velocity P-wave (km/s) = 3.80633 5.46013 4.70644
#
# Compressibility (1/GPa) = 0.05938975
#
# Stress axis : x y z
#
# Youngs Moduli (GPa) = 70.62144 26.93583 62.96706
#
# Poissons Ratio (x) = -0.06228 0.46102
# Poissons Ratio (y) = -0.16328 -0.07059
# Poissons Ratio (z) = 0.51706 -0.03020
#
# Static dielectric constant tensor:
#      x y z
#    x 1.750580 0.000000 -0.006230 
#    y 0.000000 1.766240 0.000000 
#    z -0.006230 0.000000 1.744460 
# 
# From -- ./inp_files/238775.got.cif
#   From: 2010.05.17/outbox.cif.g08.bks.cpg/sg12_120_cif.got.tgz:238775.got - 2010.06.03 13:09:07.
