data_PCOD9195658
_publ_section_title
;
Structure prediction by ZEFSAII (Michael W. Deem and Ramdas Pophale) SiO2 
 PCOD9195658
Probable space group: C 2/M
;
_chemical_formula_sum "Si O2"
_cell_formula_units_Z 48
_cell_length_a 8.336231
_cell_length_b 21.405196
_cell_length_c 23.020495
_cell_angle_alpha 90.000000
_cell_angle_beta 147.908101
_cell_angle_gamma 90.000000
_cell_volume 2182.358497
_symmetry_space_group_name_H-M "C 2/M"
_symmetry_group_IT_number 12
_symmetry_cell_setting 'monoclinic'
loop_
_space_group_symop_operation_xyz
x,y,z
-x,y,-z
-x,-y,-z
x,-y,z
1/2+x,1/2+y,z
1/2-x,1/2+y,-z
1/2-x,1/2-y,-z
1/2+x,1/2-y,z
loop_
_atom_site_type_symbol
_atom_site_label
_atom_site_fract_x
_atom_site_fract_y
_atom_site_fract_z
Si Si1 0.176077 0.812262 0.422232
Si Si2 0.313669 0.116950 0.577391
Si Si3 0.746108 0.708531 0.242116
Si Si4 0.981623 0.431959 0.924321
Si Si5 0.346521 0.566693 0.665021
Si Si6 0.386722 0.796876 0.901225
O O1 0.500000 0.787751 0.500000
O O2 0.208024 0.830157 0.498921
O O3 0.131540 0.876531 0.372944
O O4 0.911196 0.765583 0.325164
O O5 0.510643 0.152730 0.686974
O O6 0.553466 0.076194 0.615403
O O7 0.000000 0.086137 0.500000
O O8 0.621711 0.738791 0.144886
O O9 0.466880 0.686928 0.195956
O O10 0.126095 0.500000 0.951199
O O11 0.644119 0.435734 0.795879
O O12 0.061952 0.359495 0.933093
O O13 0.000000 0.430755 0.000000
O O14 0.327720 0.500000 0.628109
O O15 0.500000 0.779822 0.000000
#
# Coordination Sequence:
#
# PCOD9195658 Si02
#       6
#     8   8   8   8   8   8
#     4  10  20  35  55  79 103 146 189 226 257 316
#     4  11  22  34  52  79 112 147 180 217 271 327
#     4  12  20  37  52  79 111 150 178 223 263 327
#     4   9  17  34  59  83 104 135 183 229 268 316
#     4  10  20  38  59  82 107 139 184 234 271 310
#     4  11  22  35  56  85 113 140 177 225 279 323
#
# _framework density 21.994553
#
# number of rings (size 3 to 8) (size 9 to 14) (size 15 to 20)
#    0.000    1.500    3.333    3.500    0.000    3.333 
#    0.000    0.000    0.000    0.000    0.000    1.167 
#    0.000   13.333    0.000    0.000    0.000    0.000 
#
# Total GULP energy -133867.825223 kJ/mol
# GULP energy per Si atom -5577.826051 kJ/mol
# Density = 2.194449 g / cm^3
# Si number density = 21.994553 Si / 1000 Ang^3
#
#
#
# Elastic Constant Matrix: (Units=GPa)
#
#
# Indices 1 2 3 4 5 6 
#
# 1 24.8362 11.5484 10.1561 -0.0006 -3.7027 0.0078
# 2 11.5484 121.8049 27.4606 0.0023 -17.6112 0.0073
# 3 10.1561 27.4606 83.7225 0.0104 -17.6936 -0.0057
# 4 -0.0006 0.0023 0.0104 24.6620 0.0037 -15.6321
# 5 -3.7027 -17.6112 -17.6936 0.0037 28.0213 0.0047
# 6 0.0078 0.0073 -0.0057 -15.6321 0.0047 59.0556
#
#
#
# Elastic Compliance Matrix: (Units=1/GPa)
#
#
# Indices 1 2 3 4 5 6 
#
# 1 0.043507 -0.003032 -0.004006 -0.000001 0.001314 -0.000006
# 2 -0.003032 0.009552 -0.001825 -0.000002 0.004451 -0.000002
# 3 -0.004006 -0.001825 0.014626 -0.000008 0.007559 0.000000
# 4 -0.000001 -0.000002 -0.000008 0.048723 -0.000015 0.012897
# 5 0.001314 0.004451 0.007559 -0.000015 0.043431 -0.000007
# 6 -0.000006 -0.000002 0.000000 0.012897 -0.000007 0.020347
#
#
# Mechanical properties :
#
#
# Convention : Reuss Voigt Hill
#
# Bulk Modulus (GPa) = 20.01541 36.52152 28.26846
# Shear Modulus (GPa) = 23.30295 34.42769 28.86532
#
# Velocity S-wave (km/s) = 3.25851 3.96066 3.62662
# Velocity P-wave (km/s) = 4.82463 6.12834 5.51515
#
# Compressibility (1/GPa) = 0.04996150
#
# Stress axis : x y z
#
# Youngs Moduli (GPa) = 22.98457 104.68815 68.37060
#
# Poissons Ratio (x) = 0.31740 0.27386
# Poissons Ratio (y) = 0.06969 0.12476
# Poissons Ratio (z) = 0.09207 0.19102
#
# Static dielectric constant tensor:
#      x y z
#    x 1.809560 0.000000 0.020980 
#    y 0.000000 1.886120 0.000000 
#    z 0.020980 0.000000 1.843790 
# 
# From -- ./inp_files/197929.got.cif
#   From: 2010.05.17/outbox.cif.g08.bks.cpg/sg12_99_cif.got.tgz:197929.got - 2010.06.03 13:09:07.
