data_PCOD9195025
_publ_section_title
;
Structure prediction by ZEFSAII (Michael W. Deem and Ramdas Pophale) SiO2 
 PCOD9195025
Probable space group: C 2/M
;
_chemical_formula_sum "Si O2"
_cell_formula_units_Z 56
_cell_length_a 5.369828
_cell_length_b 30.410917
_cell_length_c 16.490409
_cell_angle_alpha 90.000000
_cell_angle_beta 52.249427
_cell_angle_gamma 90.000000
_cell_volume 2129.236819
_symmetry_space_group_name_H-M "C 2/M"
_symmetry_group_IT_number 12
_symmetry_cell_setting 'monoclinic'
loop_
_space_group_symop_operation_xyz
x,y,z
-x,y,-z
-x,-y,-z
x,-y,z
1/2+x,1/2+y,z
1/2-x,1/2+y,-z
1/2-x,1/2-y,-z
1/2+x,1/2-y,z
loop_
_atom_site_type_symbol
_atom_site_label
_atom_site_fract_x
_atom_site_fract_y
_atom_site_fract_z
Si Si1 0.860641 0.155224 0.443793
Si Si2 0.273781 0.757037 0.744114
Si Si3 0.688004 0.086170 0.646451
Si Si4 0.427591 0.095091 0.139409
Si Si5 0.334554 0.000000 0.713577
Si Si6 0.639581 0.351198 0.735302
Si Si7 0.431537 0.000000 0.148200
Si Si8 0.359219 0.808507 0.937975
O O1 0.500000 0.166445 0.500000
O O2 0.000379 0.162990 0.324815
O O3 0.000000 0.174378 0.500000
O O4 0.951086 0.102555 0.431721
O O5 0.140897 0.747424 0.682527
O O6 0.075703 0.723981 0.840551
O O7 0.184222 0.807651 0.778210
O O8 0.619241 0.085593 0.756209
O O9 0.533110 0.042132 0.643564
O O10 0.473654 0.125944 0.656323
O O11 0.516227 0.046846 0.089693
O O12 0.625575 0.139493 0.088459
O O13 0.085304 0.112848 0.178826
O O14 0.385783 0.000000 0.801390
O O15 0.959537 0.000000 0.766559
O O16 0.500000 0.806312 0.000000
O O17 0.000000 0.794206 0.000000
#
# Coordination Sequence:
#
# PCOD9195025 Si02
#       8
#     8   8   8   8   4   8   4   8
#     4  11  23  41  65  97 133 177 227 274 343 404
#     4  12  26  44  67 101 132 172 223 273 333 408
#     4  10  21  39  69  97 133 177 230 282 335 396
#     4  10  22  42  65 103 128 183 229 280 330 398
#     4  10  20  34  60 103 131 168 227 290 332 381
#     4  11  22  41  72  95 131 176 230 282 331 397
#     4  10  20  36  68  94 135 169 233 288 320 377
#     4  12  28  47  67  99 144 178 213 277 348 413
#
# _framework density 26.300501000000001
#
# number of rings (size 3 to 8) (size 9 to 14) (size 15 to 20)
#    0.000    1.143    4.286    1.714    4.000    1.714 
#    0.000    1.429    0.000    2.571    0.000    0.000 
#    0.000    0.000    0.000    0.000    0.000    0.000 
#
# Total GULP energy -156288.606496 kJ/mol
# GULP energy per Si atom -5581.735946 kJ/mol
# Density = 2.624064 g / cm^3
# Si number density = 26.300501 Si / 1000 Ang^3
#
#
#
# Elastic Constant Matrix: (Units=GPa)
#
#
# Indices 1 2 3 4 5 6 
#
# 1 157.8178 13.1093 8.4408 0.0000 2.3619 0.0000
# 2 13.1093 192.6132 23.2012 0.0000 3.5481 0.0000
# 3 8.4408 23.2012 50.6064 0.0000 8.0593 0.0000
# 4 0.0000 0.0000 0.0000 20.2045 0.0000 -2.0014
# 5 2.3619 3.5481 8.0593 0.0000 44.3001 0.0000
# 6 0.0000 0.0000 0.0000 -2.0014 0.0000 34.7559
#
#
#
# Elastic Compliance Matrix: (Units=1/GPa)
#
#
# Indices 1 2 3 4 5 6 
#
# 1 0.006414 -0.000326 -0.000896 0.000000 -0.000153 0.000000
# 2 -0.000326 0.005512 -0.002477 0.000000 0.000027 0.000000
# 3 -0.000896 -0.002477 0.021633 0.000000 -0.003689 0.000000
# 4 0.000000 0.000000 0.000000 0.049778 0.000000 0.002866
# 5 -0.000153 0.000027 -0.003689 0.000000 0.023251 0.000000
# 6 0.000000 0.000000 0.000000 0.002866 0.000000 0.028937
#
#
# Mechanical properties :
#
#
# Convention : Reuss Voigt Hill
#
# Bulk Modulus (GPa) = 38.22478 54.50444 46.36461
# Shear Modulus (GPa) = 32.97248 43.60451 38.28850
#
# Velocity S-wave (km/s) = 3.54458 4.07619 3.81965
# Velocity P-wave (km/s) = 5.59620 6.55153 6.09262
#
# Compressibility (1/GPa) = 0.02616104
#
# Stress axis : x y z
#
# Youngs Moduli (GPa) = 155.91635 181.42953 46.22587
#
# Poissons Ratio (x) = 0.05910 0.04142
# Poissons Ratio (y) = 0.05079 0.11449
# Poissons Ratio (z) = 0.13971 0.44937
#
# Static dielectric constant tensor:
#      x y z
#    x 2.138260 0.000000 0.007580 
#    y 0.000000 2.179080 0.000000 
#    z 0.007580 0.000000 2.222920 
# 
# From -- ./inp_files/253988.got.cif
#   From: 2010.05.17/outbox.cif.g08.bks.cpg/sg12_127_cif.got.tgz:253988.got - 2010.06.03 13:09:07.
