data_PCOD9195090
_publ_section_title
;
Structure prediction by ZEFSAII (Michael W. Deem and Ramdas Pophale) SiO2 
 PCOD9195090
Probable space group: C 2/M
;
_chemical_formula_sum "Si O2"
_cell_formula_units_Z 56
_cell_length_a 8.557008
_cell_length_b 13.328266
_cell_length_c 21.953323
_cell_angle_alpha 90.000000
_cell_angle_beta 93.630904
_cell_angle_gamma 90.000000
_cell_volume 2498.752423
_symmetry_space_group_name_H-M "C 2/M"
_symmetry_group_IT_number 12
_symmetry_cell_setting 'monoclinic'
loop_
_space_group_symop_operation_xyz
x,y,z
-x,y,-z
-x,-y,-z
x,-y,z
1/2+x,1/2+y,z
1/2-x,1/2+y,-z
1/2-x,1/2-y,-z
1/2+x,1/2-y,z
loop_
_atom_site_type_symbol
_atom_site_label
_atom_site_fract_x
_atom_site_fract_y
_atom_site_fract_z
Si Si1 0.784005 0.886373 0.878467
Si Si2 0.182102 0.890423 0.524384
Si Si3 0.211541 0.686289 0.595507
Si Si4 0.135578 0.188107 0.866969
Si Si5 0.514358 0.261524 0.317800
Si Si6 0.231007 0.383527 0.251724
Si Si7 0.823648 0.384689 0.986334
O O1 0.658537 0.805490 0.852199
O O2 0.957177 0.847634 0.866395
O O3 0.760942 0.000000 0.855549
O O4 0.762811 0.888082 0.951073
O O5 0.222245 0.799795 0.569480
O O6 0.280392 0.880192 0.464412
O O7 0.000000 0.878486 0.500000
O O8 0.202505 0.000000 0.552451
O O9 0.357954 0.672198 0.643523
O O10 0.060607 0.687100 0.633903
O O11 0.229558 0.126732 0.818499
O O12 0.221852 0.170805 0.933504
O O13 0.382772 0.334844 0.288432
O O14 0.594233 0.191832 0.269244
O O15 0.205320 0.500000 0.266828
O O16 0.842803 0.500000 0.965466
O O17 0.000000 0.343510 0.000000
#
# Coordination Sequence:
#
# PCOD9195090 Si02
#       7
#     8   8   8   8   8   8   8
#     4  11  24  41  65  96 128 167 211 259 327 404
#     4  10  20  34  61  96 127 169 210 248 319 385
#     4  10  20  39  61  91 132 165 204 265 310 372
#     4  12  23  42  67  92 129 169 214 273 328 382
#     4  10  23  42  64  90 127 170 217 269 318 372
#     4  11  25  45  68  93 123 168 223 274 323 376
#     4  10  21  38  63  97 133 171 211 259 329 405
#
# _framework density 22.411183999999999
#
# number of rings (size 3 to 8) (size 9 to 14) (size 15 to 20)
#    0.000    1.429    1.429    3.857    0.000    4.571 
#    0.000    7.857    0.000    0.000    0.000    0.000 
#    0.000    0.000    0.000    0.000    0.000    0.000 
#
# Total GULP energy -156626.727500 kJ/mol
# GULP energy per Si atom -5593.811696 kJ/mol
# Density = 2.236018 g / cm^3
# Si number density = 22.411184 Si / 1000 Ang^3
#
#
#
# Elastic Constant Matrix: (Units=GPa)
#
#
# Indices 1 2 3 4 5 6 
#
# 1 56.0677 2.7951 13.1434 0.0000 -17.9134 0.0000
# 2 2.7951 125.3357 0.2871 0.0000 11.4947 0.0000
# 3 13.1434 0.2871 58.2509 0.0000 -19.2471 0.0000
# 4 0.0000 0.0000 0.0000 -12.8568 0.0000 3.2150
# 5 -17.9134 11.4947 -19.2471 0.0000 37.4443 0.0000
# 6 0.0000 0.0000 0.0000 3.2150 0.0000 19.6231
#
#
#
# Elastic Compliance Matrix: (Units=1/GPa)
#
#
# Indices 1 2 3 4 5 6 
#
# 1 0.021424 -0.001379 -0.001567 0.000000 0.009867 0.000000
# 2 -0.001379 0.008352 -0.000958 0.000000 -0.003716 0.000000
# 3 -0.001567 -0.000958 0.020930 0.000000 0.010303 0.000000
# 4 0.000000 0.000000 0.000000 -0.074719 0.000000 0.012242
# 5 0.009867 -0.003716 0.010303 0.000000 0.037863 0.000000
# 6 0.000000 0.000000 0.000000 0.012242 0.000000 0.048955
#
#
# Mechanical properties :
#
#
# Convention : Reuss Voigt Hill
#
# Bulk Modulus (GPa) = 23.31097 30.23395 26.77246
# Shear Modulus (GPa) = 58.88401 23.73737 41.31069
#
# Velocity S-wave (km/s) = 5.13142 3.25803 4.29803
# Velocity P-wave (km/s) = 6.74779 5.26050 6.05002
#
# Compressibility (1/GPa) = 0.04289826
#
# Stress axis : x y z
#
# Youngs Moduli (GPa) = 46.67610 119.72692 47.77935
#
# Poissons Ratio (x) = 0.16512 0.07487
# Poissons Ratio (y) = 0.06437 0.04577
# Poissons Ratio (z) = 0.07314 0.11468
#
# Static dielectric constant tensor:
#      x y z
#    x 1.825720 0.000000 -0.016650 
#    y 0.000000 1.832980 0.000000 
#    z -0.016650 0.000000 1.822080 
# 
# From -- ./inp_files/300171.got.cif
#   From: 2010.05.17/outbox.cif.g08.bks.cpg/sg12_151_cif.got.tgz:300171.got - 2010.06.03 13:09:07.
