data_PCOD9195918
_publ_section_title
;
Structure prediction by ZEFSAII (Michael W. Deem and Ramdas Pophale) SiO2 
 PCOD9195918
Probable space group: C 2/M
;
_chemical_formula_sum "Si O2"
_cell_formula_units_Z 64
_cell_length_a 14.430111
_cell_length_b 13.672561
_cell_length_c 19.743158
_cell_angle_alpha 90.000000
_cell_angle_beta 45.714213
_cell_angle_gamma 90.000000
_cell_volume 2788.482198
_symmetry_space_group_name_H-M "C 2/M"
_symmetry_group_IT_number 12
_symmetry_cell_setting 'monoclinic'
loop_
_space_group_symop_operation_xyz
x,y,z
-x,y,-z
-x,-y,-z
x,-y,z
1/2+x,1/2+y,z
1/2-x,1/2+y,-z
1/2-x,1/2-y,-z
1/2+x,1/2-y,z
loop_
_atom_site_type_symbol
_atom_site_label
_atom_site_fract_x
_atom_site_fract_y
_atom_site_fract_z
Si Si1 0.576159 0.886469 0.390137
Si Si2 0.518107 0.107099 0.813102
Si Si3 0.424328 0.609214 0.603769
Si Si4 0.788805 0.241664 0.238306
Si Si5 0.658083 0.392564 0.586027
Si Si6 0.726224 0.389865 0.010063
Si Si7 0.612775 0.823828 0.624897
Si Si8 0.644573 0.758897 0.946573
O O1 0.500000 0.875388 0.500000
O O2 0.724602 0.851319 0.308205
O O3 0.497960 0.822600 0.375514
O O4 0.566079 0.000000 0.376903
O O5 0.574388 0.207115 0.815717
O O6 0.364584 0.108609 0.901065
O O7 0.561170 0.115693 0.713869
O O8 0.561243 0.000000 0.819283
O O9 0.500000 0.650750 0.500000
O O10 0.381888 0.500000 0.605337
O O11 0.304411 0.672137 0.687500
O O12 0.523432 0.601542 0.614941
O O13 0.788334 0.227014 0.157764
O O14 0.682881 0.500000 0.605990
O O15 0.651837 0.286974 0.625928
O O16 0.767079 0.375234 0.473184
O O17 0.680284 0.500000 0.044691
O O18 0.635739 0.328759 0.005750
O O19 0.764049 0.337109 0.061287
O O20 0.500000 0.794951 0.000000
#
# Coordination Sequence:
#
# PCOD9195918 Si02
#       8
#     8   8   8   8   8   8   8   8
#     4  11  25  43  62  91 131 180 231 275 331 411
#     4  11  23  40  66  98 128 171 229 280 341 414
#     4  10  20  35  55  87 128 162 206 266 328 393
#     4  12  23  39  66  98 129 175 221 281 345 408
#     4  10  21  34  54  85 118 165 213 265 333 389
#     4  10  24  46  74 102 137 181 226 282 352 425
#     4  11  22  38  60  85 126 172 222 281 332 402
#     4  11  24  46  71 104 143 175 226 292 349 415
#
# _framework density 22.951554999999999
#
# number of rings (size 3 to 8) (size 9 to 14) (size 15 to 20)
#    0.000    1.250    2.500    3.375    3.500    4.000 
#    0.000    0.000    0.000    0.000    0.000    0.000 
#    0.000    0.000    0.000    0.000    0.000    0.000 
#
# Total GULP energy -178724.989801 kJ/mol
# GULP energy per Si atom -5585.155931 kJ/mol
# Density = 2.289932 g / cm^3
# Si number density = 22.951555 Si / 1000 Ang^3
#
#
#
# Elastic Constant Matrix: (Units=GPa)
#
#
# Indices 1 2 3 4 5 6 
#
# 1 53.3389 7.8667 10.1660 0.0000 15.8197 0.0000
# 2 7.8667 145.2228 15.4110 0.0000 9.0829 0.0000
# 3 10.1660 15.4110 83.4228 0.0000 5.7895 0.0000
# 4 0.0000 0.0000 0.0000 15.4879 0.0000 0.3592
# 5 15.8197 9.0829 5.7895 0.0000 29.9951 0.0000
# 6 0.0000 0.0000 0.0000 0.3592 0.0000 -2.2679
#
#
#
# Elastic Compliance Matrix: (Units=1/GPa)
#
#
# Indices 1 2 3 4 5 6 
#
# 1 0.022545 -0.000305 -0.001898 0.000000 -0.011432 0.000000
# 2 -0.000305 0.007136 -0.001158 0.000000 -0.001777 0.000000
# 3 -0.001898 -0.001158 0.012506 0.000000 -0.001062 0.000000
# 4 0.000000 0.000000 0.000000 0.064330 0.000000 0.010189
# 5 -0.011432 -0.001777 -0.001062 0.000000 0.040111 0.000000
# 6 0.000000 0.000000 0.000000 0.010189 0.000000 -0.439332
#
#
# Mechanical properties :
#
#
# Convention : Reuss Voigt Hill
#
# Bulk Modulus (GPa) = 28.19539 38.76356 33.47948
# Shear Modulus (GPa) = -18.23754 25.21242 3.48744
#
# Velocity S-wave (km/s) = -2.82194 3.31797 1.23401
# Velocity P-wave (km/s) = 1.30139 5.62179 4.08033
#
# Compressibility (1/GPa) = 0.03546679
#
# Stress axis : x y z
#
# Youngs Moduli (GPa) = 44.35520 140.12492 79.96152
#
# Poissons Ratio (x) = 0.04272 0.15174
# Poissons Ratio (y) = 0.01352 0.09259
# Poissons Ratio (z) = 0.08417 0.16225
#
# Static dielectric constant tensor:
#      x y z
#    x 2.003940 0.000000 -0.054410 
#    y 0.000000 1.895520 0.000000 
#    z -0.054410 0.000000 1.851810 
# 
# From -- ./inp_files/270644.got.cif
#   From: 2010.05.17/outbox.cif.g08.bks.cpg/sg12_136_cif.got.tgz:270644.got - 2010.06.03 13:09:07.
