data_PCOD9195216
_publ_section_title
;
Structure prediction by ZEFSAII (Michael W. Deem and Ramdas Pophale) SiO2 
 PCOD9195216
Probable space group: C 2/M
;
_chemical_formula_sum "Si O2"
_cell_formula_units_Z 50
_cell_length_a 29.515884
_cell_length_b 17.125813
_cell_length_c 5.440341
_cell_angle_alpha 90.000000
_cell_angle_beta 64.399807
_cell_angle_gamma 90.000000
_cell_volume 2480.037847
_symmetry_space_group_name_H-M "C 2/M"
_symmetry_group_IT_number 12
_symmetry_cell_setting 'monoclinic'
loop_
_space_group_symop_operation_xyz
x,y,z
-x,y,-z
-x,-y,-z
x,-y,z
1/2+x,1/2+y,z
1/2-x,1/2+y,-z
1/2-x,1/2-y,-z
1/2+x,1/2-y,z
loop_
_atom_site_type_symbol
_atom_site_label
_atom_site_fract_x
_atom_site_fract_y
_atom_site_fract_z
Si Si1 0.360593 0.411725 0.915151
Si Si2 0.756517 0.910379 0.923778
Si Si3 0.481566 0.216100 0.787096
Si Si4 0.056865 0.859616 0.616647
Si Si5 0.875165 0.764478 0.195666
Si Si6 0.278623 0.170039 0.490800
Si Si7 0.500000 0.500000 0.000000
O O1 0.356705 0.500000 0.028609
O O2 0.417043 0.398576 0.681311
O O3 0.317286 0.406435 0.808657
O O4 0.350867 0.338768 0.115268
O O5 0.735078 0.861907 0.206788
O O6 0.742157 0.000000 0.997393
O O7 0.737208 0.884253 0.701896
O O8 0.500000 0.173457 0.500000
O O9 0.510254 0.300216 0.710224
O O10 0.500000 0.179962 0.000000
O O11 0.422435 0.231632 0.930718
O O12 0.099473 0.803372 0.626751
O O13 0.040075 0.931287 0.823221
O O14 0.836597 0.696170 0.342466
O O15 0.250000 0.250000 0.500000
#
# Coordination Sequence:
#
# PCOD9195216 Si02
#       7
#     8   8   8   8   8   8   2
#     4  11  23  34  56  82 120 170 214 257 307 370
#     4  11  26  46  64  95 127 169 214 275 326 391
#     4  10  20  35  52  75 117 154 192 254 281 350
#     4  11  22  36  51  83 122 170 218 249 296 365
#     4  11  23  35  57  85 118 161 221 255 308 366
#     4  12  24  42  69  91 129 164 217 271 332 377
#     4  12  20  36  54  80 130 192 204 256 302 364
#
# _framework density 20.160981
#
# number of rings (size 3 to 8) (size 9 to 14) (size 15 to 20)
#    0.000    0.960    6.400    1.920    3.360    0.000 
#    0.000    2.000    0.000    0.000    0.000    0.000 
#    0.000   53.760    0.000    0.000    0.000    0.000 
#
# Total GULP energy -139257.548490 kJ/mol
# GULP energy per Si atom -5570.301940 kJ/mol
# Density = 2.011509 g / cm^3
# Si number density = 20.160981 Si / 1000 Ang^3
#
#
#
# Elastic Constant Matrix: (Units=GPa)
#
#
# Indices 1 2 3 4 5 6 
#
# 1 60.5570 -0.0614 13.7779 0.0000 -14.9343 0.0000
# 2 -0.0614 33.5668 11.3662 0.0000 -11.4617 0.0000
# 3 13.7779 11.3662 87.9855 0.0000 -3.4541 0.0000
# 4 0.0000 0.0000 0.0000 23.6839 0.0000 -1.2011
# 5 -14.9343 -11.4617 -3.4541 0.0000 40.5047 0.0000
# 6 0.0000 0.0000 0.0000 -1.2011 0.0000 23.1092
#
#
#
# Elastic Compliance Matrix: (Units=1/GPa)
#
#
# Indices 1 2 3 4 5 6 
#
# 1 0.019185 0.003804 -0.003186 0.000000 0.007878 0.000000
# 2 0.003804 0.035127 -0.004704 0.000000 0.010942 0.000000
# 3 -0.003186 -0.004704 0.012415 0.000000 -0.001447 0.000000
# 4 0.000000 0.000000 0.000000 0.042334 0.000000 0.002200
# 5 0.007878 0.010942 -0.001447 0.000000 0.030566 0.000000
# 6 0.000000 0.000000 0.000000 0.002200 0.000000 0.043387
#
#
# Mechanical properties :
#
#
# Convention : Reuss Voigt Hill
#
# Bulk Modulus (GPa) = 17.07787 25.80829 21.44308
# Shear Modulus (GPa) = 23.72974 27.92800 25.82887
#
# Velocity S-wave (km/s) = 3.43448 3.72593 3.58317
# Velocity P-wave (km/s) = 4.92105 5.59812 5.27047
#
# Compressibility (1/GPa) = 0.05855532
#
# Stress axis : x y z
#
# Youngs Moduli (GPa) = 52.12369 28.46795 80.54552
#
# Poissons Ratio (x) = -0.10830 0.25665
# Poissons Ratio (y) = -0.19829 0.37889
# Poissons Ratio (z) = 0.16609 0.13391
#
# Static dielectric constant tensor:
#      x y z
#    x 1.810540 0.000000 0.041170 
#    y 0.000000 1.666030 0.000000 
#    z 0.041170 0.000000 1.827270 
# 
# From -- ./inp_files/31834.got.cif
#   From: 2010.05.17/outbox.cif.g08.bks.cpg/sg12_16_cif.got.tgz:31834.got - 2010.06.03 13:09:07.
