data_PCOD9195269
_publ_section_title
;
Structure prediction by ZEFSAII (Michael W. Deem and Ramdas Pophale) SiO2 
 PCOD9195269
Probable space group: C 2/M
;
_chemical_formula_sum "Si O2"
_cell_formula_units_Z 48
_cell_length_a 7.383491
_cell_length_b 25.884920
_cell_length_c 12.212434
_cell_angle_alpha 90.000000
_cell_angle_beta 106.087629
_cell_angle_gamma 90.000000
_cell_volume 2242.649650
_symmetry_space_group_name_H-M "C 2/M"
_symmetry_group_IT_number 12
_symmetry_cell_setting 'monoclinic'
loop_
_space_group_symop_operation_xyz
x,y,z
-x,y,-z
-x,-y,-z
x,-y,z
1/2+x,1/2+y,z
1/2-x,1/2+y,-z
1/2-x,1/2-y,-z
1/2+x,1/2-y,z
loop_
_atom_site_type_symbol
_atom_site_label
_atom_site_fract_x
_atom_site_fract_y
_atom_site_fract_z
Si Si1 0.706561 0.310518 0.484956
Si Si2 0.583952 0.057855 0.130938
Si Si3 0.382169 0.153937 0.725767
Si Si4 0.065598 0.731163 0.906299
Si Si5 0.462105 0.333498 0.768445
Si Si6 0.983631 0.056281 0.866313
O O1 0.500000 0.319897 0.500000
O O2 0.750000 0.250000 0.500000
O O3 0.846821 0.339694 0.590885
O O4 0.682796 0.324734 0.354843
O O5 0.551654 0.098389 0.221407
O O6 0.807167 0.054882 0.149058
O O7 0.512193 0.000000 0.141180
O O8 0.500000 0.074343 0.000000
O O9 0.530161 0.195806 0.796072
O O10 0.177784 0.165228 0.752800
O O11 0.966010 0.785077 0.852475
O O12 0.250000 0.750000 0.000000
O O13 0.000000 0.697178 0.000000
O O14 0.411260 0.388210 0.814308
O O15 0.895415 0.000000 0.822795
O O16 0.000000 0.058085 0.000000
#
# Coordination Sequence:
#
# PCOD9195269 Si02
#       6
#     8   8   8   8   8   8
#     4  10  20  36  53  71 102 142 177 213 254 304
#     4   9  18  33  54  77 104 137 170 209 262 313
#     4  10  20  35  53  75 106 136 173 218 256 307
#     4  12  22  32  50  77 107 136 166 215 268 310
#     4  10  20  35  53  76 105 137 174 213 261 308
#     4   9  18  34  54  78 105 134 170 214 260 308
#
# _framework density 21.403254
#
# number of rings (size 3 to 8) (size 9 to 14) (size 15 to 20)
#    0.000    2.000    3.333    1.000    2.333    0.000 
#    0.000    0.833    0.000    5.000    0.000    0.000 
#    0.000    6.667    0.000    0.000    0.000    0.000 
#
# Total GULP energy -133758.577346 kJ/mol
# GULP energy per Si atom -5573.274056 kJ/mol
# Density = 2.135454 g / cm^3
# Si number density = 21.403254 Si / 1000 Ang^3
#
#
#
# Elastic Constant Matrix: (Units=GPa)
#
#
# Indices 1 2 3 4 5 6 
#
# 1 51.5904 4.5329 18.6562 0.0000 7.9364 0.0000
# 2 4.5329 198.7454 109.8714 0.0000 13.0227 0.0000
# 3 18.6562 109.8714 199.4693 0.0000 25.9255 0.0000
# 4 0.0000 0.0000 0.0000 27.3951 0.0000 3.1531
# 5 7.9364 13.0227 25.9255 0.0000 28.9488 0.0000
# 6 0.0000 0.0000 0.0000 3.1531 0.0000 14.8702
#
#
#
# Elastic Compliance Matrix: (Units=1/GPa)
#
#
# Indices 1 2 3 4 5 6 
#
# 1 0.020644 0.000818 -0.001808 0.000000 -0.004408 0.000000
# 2 0.000818 0.007270 -0.004105 0.000000 0.000181 0.000000
# 3 -0.001808 -0.004105 0.008079 0.000000 -0.004893 0.000000
# 4 0.000000 0.000000 0.000000 0.037416 0.000000 -0.007934
# 5 -0.004408 0.000181 -0.004893 0.000000 0.040053 0.000000
# 6 0.000000 0.000000 0.000000 -0.007934 0.000000 0.068931
#
#
# Mechanical properties :
#
#
# Convention : Reuss Voigt Hill
#
# Bulk Modulus (GPa) = 38.75560 79.54734 59.15147
# Shear Modulus (GPa) = 24.85286 35.35912 30.10599
#
# Velocity S-wave (km/s) = 3.41129 4.06894 3.75455
# Velocity P-wave (km/s) = 5.80194 7.70206 6.81852
#
# Compressibility (1/GPa) = 0.02580273
#
# Stress axis : x y z
#
# Youngs Moduli (GPa) = 48.44113 137.54887 123.77321
#
# Poissons Ratio (x) = -0.11246 0.22381
# Poissons Ratio (y) = -0.03961 0.50803
# Poissons Ratio (z) = 0.08759 0.56458
#
# Static dielectric constant tensor:
#      x y z
#    x 2.055470 0.000000 -0.040780 
#    y 0.000000 1.779020 0.000000 
#    z -0.040780 0.000000 1.730570 
# 
# From -- ./inp_files/122579.got.cif
#   From: 2010.05.17/outbox.cif.g08.bks.cpg/sg12_62_cif.got.tgz:122579.got - 2010.06.03 13:09:07.
