data_PCOD9195122
_publ_section_title
;
Structure prediction by ZEFSAII (Michael W. Deem and Ramdas Pophale) SiO2 
 PCOD9195122
Probable space group: C 2/M
;
_chemical_formula_sum "Si O2"
_cell_formula_units_Z 60
_cell_length_a 23.691430
_cell_length_b 9.640370
_cell_length_c 12.054629
_cell_angle_alpha 90.000000
_cell_angle_beta 100.627911
_cell_angle_gamma 90.000000
_cell_volume 2705.977209
_symmetry_space_group_name_H-M "C 2/M"
_symmetry_group_IT_number 12
_symmetry_cell_setting 'monoclinic'
loop_
_space_group_symop_operation_xyz
x,y,z
-x,y,-z
-x,-y,-z
x,-y,z
1/2+x,1/2+y,z
1/2-x,1/2+y,-z
1/2-x,1/2-y,-z
1/2+x,1/2-y,z
loop_
_atom_site_type_symbol
_atom_site_label
_atom_site_fract_x
_atom_site_fract_y
_atom_site_fract_z
Si Si1 0.918447 0.334580 0.722594
Si Si2 0.626917 0.163215 0.528917
Si Si3 0.458049 0.163967 0.321099
Si Si4 0.269778 0.000000 0.032629
Si Si5 0.743219 0.781352 0.143652
Si Si6 0.435710 0.659899 0.939331
Si Si7 0.233367 0.165320 0.604418
Si Si8 0.375791 0.348209 0.151628
O O1 0.919929 0.500000 0.743792
O O2 0.876035 0.313675 0.603611
O O3 0.910259 0.251579 0.831983
O O4 0.980427 0.285325 0.697069
O O5 0.564642 0.184197 0.562169
O O6 0.670036 0.270266 0.600933
O O7 0.642617 0.000000 0.553817
O O8 0.408922 0.228812 0.227115
O O9 0.459435 0.000000 0.305094
O O10 0.292004 0.878069 0.952702
O O11 0.246118 0.877092 0.107928
O O12 0.732087 0.803400 0.269869
O O13 0.807876 0.841614 0.144567
O O14 0.442101 0.500000 0.904080
O O15 0.500000 0.707341 0.000000
O O16 0.394749 0.660669 0.030980
O O17 0.250000 0.250000 0.500000
O O18 0.233411 0.000000 0.585886
O O19 0.395657 0.500000 0.199805
#
# Coordination Sequence:
#
# PCOD9195122 Si02
#       8
#     8   8   8   4   8   8   8   8
#     4  10  21  39  58  90 129 165 210 262 303 368
#     4  10  22  41  63  92 125 166 212 261 317 370
#     4  10  20  34  63  91 122 162 206 255 307 364
#     4  10  24  44  72  98 126 162 204 276 328 382
#     4  11  23  46  68  98 129 161 215 266 328 393
#     4  10  21  37  56  83 123 166 202 245 311 370
#     4  12  26  45  69  97 131 172 216 268 328 396
#     4  11  21  37  61  89 121 159 203 254 306 372
#
# _framework density 22.173136
#
# number of rings (size 3 to 8) (size 9 to 14) (size 15 to 20)
#    0.000    1.467    4.000    0.800    2.800    2.933 
#    4.800    0.000    0.000    2.400    0.000    0.000 
#    0.000    0.000    0.000    0.000    0.000    0.000 
#
# Total GULP energy -167113.518752 kJ/mol
# GULP energy per Si atom -5570.450625 kJ/mol
# Density = 2.212267 g / cm^3
# Si number density = 22.173136 Si / 1000 Ang^3
#
#
#
# Elastic Constant Matrix: (Units=GPa)
#
#
# Indices 1 2 3 4 5 6 
#
# 1 43.4085 1.2110 -4.2226 0.0000 -11.1487 0.0000
# 2 1.2110 106.4397 50.6176 0.0000 -11.7684 0.0000
# 3 -4.2226 50.6176 114.8069 0.0000 -21.4487 0.0000
# 4 0.0000 0.0000 0.0000 3.9277 0.0000 -37.5968
# 5 -11.1487 -11.7684 -21.4487 0.0000 29.2674 0.0000
# 6 0.0000 0.0000 0.0000 -37.5968 0.0000 -14.1624
#
#
#
# Elastic Compliance Matrix: (Units=1/GPa)
#
#
# Indices 1 2 3 4 5 6 
#
# 1 0.026621 -0.000628 0.003596 0.000000 0.012523 0.000000
# 2 -0.000628 0.011932 -0.005135 0.000000 0.000795 0.000000
# 3 0.003596 -0.005135 0.012718 0.000000 0.008625 0.000000
# 4 0.000000 0.000000 0.000000 0.009640 0.000000 -0.025591
# 5 0.012523 0.000795 0.008625 0.000000 0.045579 0.000000
# 6 0.000000 0.000000 0.000000 -0.025591 0.000000 -0.002673
#
#
# Mechanical properties :
#
#
# Convention : Reuss Voigt Hill
#
# Bulk Modulus (GPa) = 21.30606 39.98525 30.64565
# Shear Modulus (GPa) = 40.38874 18.27648 29.33261
#
# Velocity S-wave (km/s) = 4.27255 2.87411 3.64110
# Velocity P-wave (km/s) = 5.82833 5.39318 5.61497
#
# Compressibility (1/GPa) = 0.04693501
#
# Stress axis : x y z
#
# Youngs Moduli (GPa) = 37.56490 83.80688 78.62828
#
# Poissons Ratio (x) = 0.05265 -0.28272
# Poissons Ratio (y) = 0.02360 0.40379
# Poissons Ratio (z) = -0.13507 0.43038
#
# Static dielectric constant tensor:
#      x y z
#    x 1.912940 0.000000 0.004270 
#    y 0.000000 1.760130 0.000000 
#    z 0.004270 0.000000 1.855450 
# 
# From -- ./inp_files/186778.got.cif
#   From: 2010.05.17/outbox.cif.g08.bks.cpg/sg12_94_cif.got.tgz:186778.got - 2010.06.03 13:09:07.
