data_PCOD9195136
_publ_section_title
;
Structure prediction by ZEFSAII (Michael W. Deem and Ramdas Pophale) SiO2 
 PCOD9195136
Probable space group: C 2/M
;
_chemical_formula_sum "Si O2"
_cell_formula_units_Z 38
_cell_length_a 26.805217
_cell_length_b 14.484250
_cell_length_c 14.994045
_cell_angle_alpha 90.000000
_cell_angle_beta 19.131660
_cell_angle_gamma 90.000000
_cell_volume 1907.935108
_symmetry_space_group_name_H-M "C 2/M"
_symmetry_group_IT_number 12
_symmetry_cell_setting 'monoclinic'
loop_
_space_group_symop_operation_xyz
x,y,z
-x,y,-z
-x,-y,-z
x,-y,z
1/2+x,1/2+y,z
1/2-x,1/2+y,-z
1/2-x,1/2-y,-z
1/2+x,1/2-y,z
loop_
_atom_site_type_symbol
_atom_site_label
_atom_site_fract_x
_atom_site_fract_y
_atom_site_fract_z
Si Si1 0.500000 0.000000 0.000000
Si Si2 0.682944 0.000000 0.507852
Si Si3 0.796069 0.000000 0.621152
Si Si4 0.121201 0.800963 0.484609
Si Si5 0.179160 0.201648 0.706806
Si Si6 0.900439 0.500000 0.863957
Si Si7 0.191453 0.699184 0.011390
O O1 0.566493 0.000000 0.786900
O O2 0.677003 0.000000 0.741488
O O3 0.778014 0.905811 0.355264
O O4 0.575571 0.000000 0.601151
O O5 0.891982 0.906354 0.460632
O O6 0.701327 0.000000 0.873857
O O7 0.249726 0.754075 0.328860
O O8 0.962712 0.748324 0.761779
O O9 0.182689 0.798736 0.279418
O O10 0.250000 0.250000 0.500000
O O11 0.000000 0.214547 0.000000
O O12 0.855263 0.593489 0.890767
O O13 0.250000 0.750000 0.000000
#
# Coordination Sequence:
#
# PCOD9195136 Si02
#       7
#     2   4   4   8   8   4   8
#     4  10  20  34  66  92 120 178 220 248 314 402
#     4  11  22  42  62  92 138 171 217 268 328 378
#     4   9  21  35  61  87 132 160 215 255 313 374
#     4  11  23  42  62  96 127 166 212 271 317 384
#     4  12  26  40  66  98 135 176 217 264 325 391
#     4   9  20  41  63  90 126 170 200 273 328 377
#     4  11  23  43  68  92 123 168 220 268 328 386
#
# _framework density 19.916820000000001
#
# number of rings (size 3 to 8) (size 9 to 14) (size 15 to 20)
#    0.000    1.263    2.105    3.474    8.842    0.842 
#    0.000   10.526    0.000    0.000    0.000    0.000 
#    0.000    0.000    0.000    0.000    0.000    0.000 
#
# Total GULP energy -105955.261568 kJ/mol
# GULP energy per Si atom -5576.592714 kJ/mol
# Density = 1.987149 g / cm^3
# Si number density = 19.916820 Si / 1000 Ang^3
#
#
#
# Elastic Constant Matrix: (Units=GPa)
#
#
# Indices 1 2 3 4 5 6 
#
# 1 100.1042 38.5184 -6.9416 0.0004 -2.8689 -0.0002
# 2 38.5184 166.1503 15.9695 0.0005 -9.6444 -0.0003
# 3 -6.9416 15.9695 58.6584 0.0006 -7.3862 -0.0003
# 4 0.0004 0.0005 0.0006 -1.7763 -0.0004 -1.2266
# 5 -2.8689 -9.6444 -7.3862 -0.0004 26.9169 0.0003
# 6 -0.0002 -0.0003 -0.0003 -1.2266 0.0003 22.3574
#
#
#
# Elastic Compliance Matrix: (Units=1/GPa)
#
#
# Indices 1 2 3 4 5 6 
#
# 1 0.011228 -0.002766 0.002183 0.000002 0.000805 0.000000
# 2 -0.002766 0.006949 -0.002012 0.000000 0.001643 0.000000
# 3 0.002183 -0.002012 0.018429 0.000005 0.004569 0.000000
# 4 0.000002 0.000000 0.000005 -0.542424 -0.000007 -0.029760
# 5 0.000805 0.001643 0.004569 -0.000007 0.039079 -0.000001
# 6 0.000000 0.000000 0.000000 -0.029760 -0.000001 0.043095
#
#
# Mechanical properties :
#
#
# Convention : Reuss Voigt Hill
#
# Bulk Modulus (GPa) = 31.83099 46.66728 39.24914
# Shear Modulus (GPa) = -12.25549 27.99073 7.86762
#
# Velocity S-wave (km/s) = -2.48328 3.75291 1.98968
# Velocity P-wave (km/s) = 2.79185 6.50085 5.00277
#
# Compressibility (1/GPa) = 0.03141592
#
# Stress axis : x y z
#
# Youngs Moduli (GPa) = 89.05969 143.91200 54.26131
#
# Poissons Ratio (x) = 0.39809 -0.11846
# Poissons Ratio (y) = 0.24636 0.10919
# Poissons Ratio (z) = -0.19443 0.28959
#
# Static dielectric constant tensor:
#      x y z
#    x 1.674220 0.000000 0.001870 
#    y 0.000000 1.727230 0.000000 
#    z 0.001870 0.000000 1.670190 
# 
# From -- ./inp_files/246502.got.cif
#   From: 2010.05.17/outbox.cif.g08.bks.cpg/sg12_124_cif.got.tgz:246502.got - 2010.06.03 13:09:07.
