data_PCOD9195070
_publ_section_title
;
Structure prediction by ZEFSAII (Michael W. Deem and Ramdas Pophale) SiO2 
 PCOD9195070
Probable space group: C 2/M
;
_chemical_formula_sum "Si O2"
_cell_formula_units_Z 44
_cell_length_a 13.613471
_cell_length_b 11.647578
_cell_length_c 25.481353
_cell_angle_alpha 90.000000
_cell_angle_beta 32.307522
_cell_angle_gamma 90.000000
_cell_volume 2159.458600
_symmetry_space_group_name_H-M "C 2/M"
_symmetry_group_IT_number 12
_symmetry_cell_setting 'monoclinic'
loop_
_space_group_symop_operation_xyz
x,y,z
-x,y,-z
-x,-y,-z
x,-y,z
1/2+x,1/2+y,z
1/2-x,1/2+y,-z
1/2-x,1/2-y,-z
1/2+x,1/2-y,z
loop_
_atom_site_type_symbol
_atom_site_label
_atom_site_fract_x
_atom_site_fract_y
_atom_site_fract_z
Si Si1 0.290851 0.366423 0.813550
Si Si2 0.832108 0.130744 0.405637
Si Si3 0.500000 0.710628 0.000000
Si Si4 0.508320 0.691796 0.553618
Si Si5 0.254580 0.870739 0.966644
Si Si6 0.846174 0.629298 0.243216
O O1 0.299127 0.500000 0.826345
O O2 0.497264 0.325209 0.706767
O O3 0.169253 0.291583 0.907035
O O4 0.187000 0.363163 0.804266
O O5 0.646685 0.201984 0.484380
O O6 0.906054 0.133012 0.432795
O O7 0.799703 0.000000 0.405523
O O8 0.570790 0.634364 0.015620
O O9 0.500000 0.634271 0.500000
O O10 0.296397 0.714188 0.665025
O O11 0.437067 0.860868 0.848141
O O12 0.268722 0.000000 0.985558
O O13 0.250000 0.750000 0.000000
O O14 0.789686 0.500000 0.285156
#
# Coordination Sequence:
#
# PCOD9195070 Si02
#       6
#     8   8   4   8   8   8
#     4   9  18  34  59  87 117 163 205 242 297 372
#     4   9  20  38  55  80 122 155 189 247 302 347
#     4  12  22  34  66  90 121 152 205 256 303 350
#     4  10  20  34  61  83 109 149 203 240 292 356
#     4  11  24  43  64  90 127 162 199 251 310 359
#     4   9  19  38  59  82 118 158 194 245 300 358
#
# _framework density 20.375477
#
# number of rings (size 3 to 8) (size 9 to 14) (size 15 to 20)
#    0.000    2.182    1.818    2.182    2.545    2.545 
#    0.000    0.909    0.000    0.000    0.000    0.000 
#    0.000    0.000    0.000    0.000    0.000    0.000 
#
# Total GULP energy -122494.605254 kJ/mol
# GULP energy per Si atom -5567.936602 kJ/mol
# Density = 2.032910 g / cm^3
# Si number density = 20.375477 Si / 1000 Ang^3
#
#
#
# Elastic Constant Matrix: (Units=GPa)
#
#
# Indices 1 2 3 4 5 6 
#
# 1 57.7508 23.4749 7.6520 0.0000 -6.1546 0.0000
# 2 23.4749 102.5223 66.7966 0.0000 -7.8273 0.0000
# 3 7.6520 66.7966 114.3010 -0.0001 -8.7932 0.0000
# 4 0.0000 0.0000 -0.0001 30.2133 0.0000 -7.1102
# 5 -6.1546 -7.8273 -8.7932 0.0000 31.8062 0.0000
# 6 0.0000 0.0000 0.0000 -7.1102 0.0000 11.4435
#
#
#
# Elastic Compliance Matrix: (Units=1/GPa)
#
#
# Indices 1 2 3 4 5 6 
#
# 1 0.019677 -0.005762 0.002282 0.000000 0.003021 0.000000
# 2 -0.005762 0.017496 -0.009802 0.000000 0.000481 0.000000
# 3 0.002282 -0.009802 0.014481 0.000000 0.002033 0.000000
# 4 0.000000 0.000000 0.000000 0.038766 0.000000 0.024087
# 5 0.003021 0.000481 0.002033 0.000000 0.032705 0.000000
# 6 0.000000 0.000000 0.000000 0.024087 0.000000 0.102352
#
#
# Mechanical properties :
#
#
# Convention : Reuss Voigt Hill
#
# Bulk Modulus (GPa) = 39.85481 52.26902 46.06191
# Shear Modulus (GPa) = 19.20086 26.46930 22.83508
#
# Velocity S-wave (km/s) = 3.07310 3.60818 3.35134
# Velocity P-wave (km/s) = 5.67403 6.56256 6.13440
#
# Compressibility (1/GPa) = 0.02509107
#
# Stress axis : x y z
#
# Youngs Moduli (GPa) = 50.81962 57.15471 69.05772
#
# Poissons Ratio (x) = 0.32932 -0.15761
# Poissons Ratio (y) = 0.29282 0.67690
# Poissons Ratio (z) = -0.11599 0.56023
#
# Static dielectric constant tensor:
#      x y z
#    x 1.780830 0.000000 -0.001200 
#    y 0.000000 1.737400 0.000000 
#    z -0.001200 0.000000 1.729710 
# 
# From -- ./inp_files/245730.got.cif
#   From: 2010.05.17/outbox.cif.g08.bks.cpg/sg12_123_cif.got.tgz:245730.got - 2010.06.03 13:09:07.
