data_PCOD9195322
_publ_section_title
;
Structure prediction by ZEFSAII (Michael W. Deem and Ramdas Pophale) SiO2 
 PCOD9195322
Probable space group: C 2/M
;
_chemical_formula_sum "Si O2"
_cell_formula_units_Z 56
_cell_length_a 24.110991
_cell_length_b 9.108067
_cell_length_c 32.485863
_cell_angle_alpha 90.000000
_cell_angle_beta 154.776933
_cell_angle_gamma 90.000000
_cell_volume 3040.126054
_symmetry_space_group_name_H-M "C 2/M"
_symmetry_group_IT_number 12
_symmetry_cell_setting 'monoclinic'
loop_
_space_group_symop_operation_xyz
x,y,z
-x,y,-z
-x,-y,-z
x,-y,z
1/2+x,1/2+y,z
1/2-x,1/2+y,-z
1/2-x,1/2-y,-z
1/2+x,1/2-y,z
loop_
_atom_site_type_symbol
_atom_site_label
_atom_site_fract_x
_atom_site_fract_y
_atom_site_fract_z
Si Si1 0.406076 0.675121 0.541618
Si Si2 0.485864 0.174958 0.922716
Si Si3 0.912136 0.326478 0.400349
Si Si4 0.114508 0.175058 0.223102
Si Si5 0.510198 0.824613 0.689181
Si Si6 0.375651 0.824334 0.684032
Si Si7 0.785352 0.675447 0.859429
O O1 0.411815 0.500000 0.550107
O O2 0.525468 0.732943 0.594251
O O3 0.415708 0.751495 0.592240
O O4 0.272253 0.713447 0.428460
O O5 0.474883 0.260192 0.872871
O O6 0.364863 0.214246 0.871436
O O7 0.479148 0.000000 0.910995
O O8 0.615569 0.203618 0.036298
O O9 0.917279 0.500000 0.393135
O O10 0.763954 0.286919 0.311293
O O11 0.000000 0.304766 0.500000
O O12 0.087447 0.243330 0.249419
O O13 0.104560 0.000000 0.218166
O O14 0.465471 0.787252 0.705331
O O15 0.653360 0.763378 0.776123
O O16 0.505789 0.000000 0.681787
O O17 0.380872 0.000000 0.693979
O O18 0.759614 0.500000 0.840901
#
# Coordination Sequence:
#
# PCOD9195322 Si02
#       7
#     8   8   8   8   8   8   8
#     4  11  22  36  57  82 108 147 193 230 270 328
#     4   9  19  37  61  86 115 144 175 223 278 331
#     4  10  20  35  53  79 115 146 176 223 278 323
#     4  11  22  35  56  84 113 148 186 225 275 329
#     4  11  23  38  57  81 111 146 184 232 282 324
#     4  10  23  40  55  76 110 151 191 229 272 323
#     4   9  19  38  62  87 111 142 182 224 274 329
#
# _framework density 18.420290000000001
#
# number of rings (size 3 to 8) (size 9 to 14) (size 15 to 20)
#    0.000    1.857    1.429    3.429    0.000    6.571 
#    0.000    2.143    0.000    0.000    0.000    0.000 
#    0.000    0.000    0.000    0.000    0.000    0.000 
#
# Total GULP energy -156465.130621 kJ/mol
# GULP energy per Si atom -5588.040379 kJ/mol
# Density = 1.837836 g / cm^3
# Si number density = 18.420290 Si / 1000 Ang^3
#
#
#
# Elastic Constant Matrix: (Units=GPa)
#
#
# Indices 1 2 3 4 5 6 
#
# 1 109.0922 50.7391 36.4220 -0.0002 -30.0789 0.0000
# 2 50.7391 40.6892 26.6516 0.0002 -16.4108 -0.0008
# 3 36.4220 26.6516 41.9667 -0.0014 -20.4804 -0.0004
# 4 -0.0002 0.0002 -0.0014 26.9421 -0.0005 -4.7488
# 5 -30.0789 -16.4108 -20.4804 -0.0005 30.9600 0.0000
# 6 0.0000 -0.0008 -0.0004 -4.7488 0.0000 33.1052
#
#
#
# Elastic Compliance Matrix: (Units=1/GPa)
#
#
# Indices 1 2 3 4 5 6 
#
# 1 0.023808 -0.026270 0.000758 0.000001 0.009707 0.000000
# 2 -0.026270 0.072069 -0.024783 -0.000002 -0.003715 0.000001
# 3 0.000758 -0.024783 0.048522 0.000003 0.019698 0.000000
# 4 0.000001 -0.000002 0.000003 0.038079 0.000002 0.005462
# 5 0.009707 -0.003715 0.019698 0.000002 0.052792 0.000001
# 6 0.000000 0.000001 0.000000 0.005462 0.000001 0.030990
#
#
# Mechanical properties :
#
#
# Convention : Reuss Voigt Hill
#
# Bulk Modulus (GPa) = 22.82571 46.59705 34.71138
# Shear Modulus (GPa) = 13.10774 23.39714 18.25244
#
# Velocity S-wave (km/s) = 2.67046 3.56783 3.15125
# Velocity P-wave (km/s) = 4.68263 6.50569 5.66794
#
# Compressibility (1/GPa) = 0.04381025
#
# Stress axis : x y z
#
# Youngs Moduli (GPa) = 42.00232 13.87556 20.60907
#
# Poissons Ratio (x) = 0.36451 -0.01561
# Poissons Ratio (y) = 1.10339 0.51075
# Poissons Ratio (z) = -0.03182 0.34387
#
# Static dielectric constant tensor:
#      x y z
#    x 1.618250 0.000000 -0.003020 
#    y 0.000000 1.606430 0.000000 
#    z -0.003020 0.000000 1.627050 
# 
# From -- ./inp_files/237401.got.cif
#   From: 2010.05.17/outbox.cif.g08.bks.cpg/sg12_119_cif.got.tgz:237401.got - 2010.06.03 13:09:07.
