data_PCOD9195396
_publ_section_title
;
Structure prediction by ZEFSAII (Michael W. Deem and Ramdas Pophale) SiO2 
 PCOD9195396
Probable space group: C 2/M
;
_chemical_formula_sum "Si O2"
_cell_formula_units_Z 48
_cell_length_a 27.953500
_cell_length_b 8.422716
_cell_length_c 12.259755
_cell_angle_alpha 90.000000
_cell_angle_beta 107.523438
_cell_angle_gamma 90.000000
_cell_volume 2752.539677
_symmetry_space_group_name_H-M "C 2/M"
_symmetry_group_IT_number 12
_symmetry_cell_setting 'monoclinic'
loop_
_space_group_symop_operation_xyz
x,y,z
-x,y,-z
-x,-y,-z
x,-y,z
1/2+x,1/2+y,z
1/2-x,1/2+y,-z
1/2-x,1/2-y,-z
1/2+x,1/2-y,z
loop_
_atom_site_type_symbol
_atom_site_label
_atom_site_fract_x
_atom_site_fract_y
_atom_site_fract_z
Si Si1 0.886642 0.192572 0.412686
Si Si2 0.556704 0.187969 0.007241
Si Si3 0.806334 0.809936 0.535086
Si Si4 0.071864 0.185234 0.778350
Si Si5 0.469354 0.184609 0.632294
Si Si6 0.393306 0.688476 0.754004
O O1 0.838389 0.242277 0.450768
O O2 0.888383 0.237540 0.286736
O O3 0.934610 0.264525 0.507875
O O4 0.890457 0.000000 0.420861
O O5 0.596343 0.272563 0.113781
O O6 0.558513 0.000000 0.028174
O O7 0.500000 0.242971 0.000000
O O8 0.568569 0.222984 0.889605
O O9 0.750000 0.750000 0.500000
O O10 0.839998 0.766392 0.663967
O O11 0.804634 0.000000 0.530326
O O12 0.018367 0.210321 0.682709
O O13 0.079446 0.000000 0.807853
O O14 0.434927 0.215846 0.714499
O O15 0.483308 0.000000 0.634209
O O16 0.400577 0.500000 0.739242
#
# Coordination Sequence:
#
# PCOD9195396 Si02
#       6
#     8   8   8   8   8   8
#     4   9  20  36  51  73 103 136 175 213 256 313
#     4  11  22  34  50  76 109 141 177 219 257 298
#     4   9  19  36  58  82 104 128 166 217 267 314
#     4  11  21  33  51  71 101 145 180 209 250 305
#     4  11  20  30  47  74 106 138 173 215 258 301
#     4  10  20  35  54  76 104 140 180 214 252 309
#
# _framework density 17.438441000000001
#
# number of rings (size 3 to 8) (size 9 to 14) (size 15 to 20)
#    0.000    1.833    1.667    4.500    0.000    7.333 
#    0.000    0.000    0.000    1.000    0.000    0.000 
#    0.000    0.000    0.000    0.000    0.000    0.000 
#
# Total GULP energy -133921.380579 kJ/mol
# GULP energy per Si atom -5580.057524 kJ/mol
# Density = 1.739875 g / cm^3
# Si number density = 17.438441 Si / 1000 Ang^3
#
#
#
# Elastic Constant Matrix: (Units=GPa)
#
#
# Indices 1 2 3 4 5 6 
#
# 1 84.8878 6.5334 59.0789 0.0000 6.2597 0.0000
# 2 6.5334 25.6388 13.1034 0.0000 -0.3193 0.0000
# 3 59.0789 13.1034 105.4920 0.0000 -16.6995 0.0000
# 4 0.0000 0.0000 0.0000 25.4895 0.0000 2.4060
# 5 6.2597 -0.3193 -16.6995 0.0000 19.9708 0.0000
# 6 0.0000 0.0000 0.0000 2.4060 0.0000 21.2301
#
#
#
# Elastic Compliance Matrix: (Units=1/GPa)
#
#
# Indices 1 2 3 4 5 6 
#
# 1 0.026669 0.002670 -0.019114 0.000000 -0.024300 0.000000
# 2 0.002670 0.042225 -0.007798 0.000000 -0.006683 0.000000
# 3 -0.019114 -0.007798 0.025450 0.000000 0.027148 0.000000
# 4 0.000000 0.000000 0.000000 0.039656 0.000000 -0.004494
# 5 -0.024300 -0.006683 0.027148 0.000000 0.080284 0.000000
# 6 0.000000 0.000000 0.000000 -0.004494 0.000000 0.047612
#
#
# Mechanical properties :
#
#
# Convention : Reuss Voigt Hill
#
# Bulk Modulus (GPa) = 21.80526 41.49444 31.64985
# Shear Modulus (GPa) = 15.35307 22.49160 18.92234
#
# Velocity S-wave (km/s) = 2.97040 3.59523 3.29765
# Velocity P-wave (km/s) = 4.92906 6.40943 5.71736
#
# Compressibility (1/GPa) = 0.04586050
#
# Stress axis : x y z
#
# Youngs Moduli (GPa) = 37.49621 23.68254 39.29269
#
# Poissons Ratio (x) = -0.06323 0.75104
# Poissons Ratio (y) = -0.10012 0.30641
# Poissons Ratio (z) = 0.71670 0.18468
#
# Static dielectric constant tensor:
#      x y z
#    x 1.593980 0.000000 -0.031580 
#    y 0.000000 1.587550 0.000000 
#    z -0.031580 0.000000 1.618670 
# 
# From -- ./inp_files/172078.got.cif
#   From: 2010.05.17/outbox.cif.g08.bks.cpg/sg12_87_cif.got.tgz:172078.got - 2010.06.03 13:09:07.
