data_PCOD9195128
_publ_section_title
;
Structure prediction by ZEFSAII (Michael W. Deem and Ramdas Pophale) SiO2 
 PCOD9195128
Probable space group: C 2/M
;
_chemical_formula_sum "Si O2"
_cell_formula_units_Z 56
_cell_length_a 9.104354
_cell_length_b 19.382080
_cell_length_c 16.836930
_cell_angle_alpha 90.000000
_cell_angle_beta 105.345671
_cell_angle_gamma 90.000000
_cell_volume 2865.138741
_symmetry_space_group_name_H-M "C 2/M"
_symmetry_group_IT_number 12
_symmetry_cell_setting 'monoclinic'
loop_
_space_group_symop_operation_xyz
x,y,z
-x,y,-z
-x,-y,-z
x,-y,z
1/2+x,1/2+y,z
1/2-x,1/2+y,-z
1/2-x,1/2-y,-z
1/2+x,1/2-y,z
loop_
_atom_site_type_symbol
_atom_site_label
_atom_site_fract_x
_atom_site_fract_y
_atom_site_fract_z
Si Si1 0.380475 0.080027 0.725311
Si Si2 0.122560 0.806951 0.221846
Si Si3 0.322687 0.162143 0.564422
Si Si4 0.720358 0.680396 0.825051
Si Si5 0.783043 0.581671 0.154803
Si Si6 0.321053 0.673233 0.002367
Si Si7 0.843867 0.289639 0.400780
O O1 0.340883 0.100194 0.628836
O O2 0.282452 0.127475 0.769519
O O3 0.556932 0.092386 0.775980
O O4 0.349256 0.000000 0.733923
O O5 0.172299 0.747836 0.166250
O O6 0.153260 0.881758 0.188873
O O7 0.232154 0.800004 0.312163
O O8 0.949436 0.795574 0.220292
O O9 0.188952 0.213517 0.570663
O O10 0.482003 0.202682 0.598385
O O11 0.312816 0.155546 0.467766
O O12 0.702376 0.648616 0.910097
O O13 0.761492 0.500000 0.139910
O O14 0.772679 0.624548 0.071265
O O15 0.500000 0.673681 0.000000
O O16 0.250000 0.750000 0.000000
#
# Coordination Sequence:
#
# PCOD9195128 Si02
#       7
#     8   8   8   8   8   8   8
#     4  11  25  44  63  90 130 172 213 260 317 380
#     4  12  21  40  65  95 126 162 212 262 311 376
#     4  10  20  37  60  97 127 158 207 261 319 367
#     4  12  24  39  67  94 123 167 214 265 315 374
#     4  11  25  43  64  90 128 169 209 261 318 376
#     4  12  25  42  65  97 125 163 211 269 315 373
#     4  10  20  34  64  96 123 159 206 263 309 369
#
# _framework density 19.545300999999998
#
# number of rings (size 3 to 8) (size 9 to 14) (size 15 to 20)
#    0.000    0.857    5.714    1.714    2.000    1.429 
#    0.000    3.571    0.000    0.857    0.000    0.000 
#    0.000    0.000    0.000    0.000    0.000    0.000 
#
# Total GULP energy -156289.366987 kJ/mol
# GULP energy per Si atom -5581.763107 kJ/mol
# Density = 1.950082 g / cm^3
# Si number density = 19.545301 Si / 1000 Ang^3
#
#
#
# Elastic Constant Matrix: (Units=GPa)
#
#
# Indices 1 2 3 4 5 6 
#
# 1 78.2242 37.0717 -20.5325 0.0000 -5.6020 0.0000
# 2 37.0717 99.0062 18.7948 0.0000 -8.1708 0.0000
# 3 -20.5325 18.7948 75.9216 0.0000 -5.6330 0.0000
# 4 0.0000 0.0000 0.0000 29.6719 0.0000 2.7697
# 5 -5.6020 -8.1708 -5.6330 0.0000 21.4536 0.0000
# 6 0.0000 0.0000 0.0000 2.7697 0.0000 22.2137
#
#
#
# Elastic Compliance Matrix: (Units=1/GPa)
#
#
# Indices 1 2 3 4 5 6 
#
# 1 0.018861 -0.008156 0.007399 0.000000 0.003761 0.000000
# 2 -0.008156 0.014377 -0.005626 0.000000 0.001868 0.000000
# 3 0.007399 -0.005626 0.016878 0.000000 0.004221 0.000000
# 4 0.000000 0.000000 0.000000 0.034099 0.000000 -0.004252
# 5 0.003761 0.001868 0.004221 0.000000 0.049414 0.000000
# 6 0.000000 0.000000 0.000000 -0.004252 0.000000 0.045547
#
#
# Mechanical properties :
#
#
# Convention : Reuss Voigt Hill
#
# Bulk Modulus (GPa) = 26.77481 35.98001 31.37741
# Shear Modulus (GPa) = 24.46271 29.18904 26.82587
#
# Velocity S-wave (km/s) = 3.54162 3.86865 3.70874
# Velocity P-wave (km/s) = 5.51840 6.19708 5.86756
#
# Compressibility (1/GPa) = 0.03734853
#
# Stress axis : x y z
#
# Youngs Moduli (GPa) = 53.02053 69.55716 59.24715
#
# Poissons Ratio (x) = 0.56733 -0.43837
# Poissons Ratio (y) = 0.43245 0.33334
# Poissons Ratio (z) = -0.39230 0.39134
#
# Static dielectric constant tensor:
#      x y z
#    x 1.674540 0.000000 -0.006700 
#    y 0.000000 1.662930 0.000000 
#    z -0.006700 0.000000 1.761470 
# 
# From -- ./inp_files/257200.got.cif
#   From: 2010.05.17/outbox.cif.g08.bks.cpg/sg12_129_cif.got.tgz:257200.got - 2010.06.03 13:09:07.
