data_PCOD9195806
_publ_section_title
;
Structure prediction by ZEFSAII (Michael W. Deem and Ramdas Pophale) SiO2 
 PCOD9195806
Probable space group: C 2/M
;
_chemical_formula_sum "Si O2"
_cell_formula_units_Z 64
_cell_length_a 21.990116
_cell_length_b 8.943197
_cell_length_c 19.473069
_cell_angle_alpha 90.000000
_cell_angle_beta 124.481618
_cell_angle_gamma 90.000000
_cell_volume 3156.778890
_symmetry_space_group_name_H-M "C 2/M"
_symmetry_group_IT_number 12
_symmetry_cell_setting 'monoclinic'
loop_
_space_group_symop_operation_xyz
x,y,z
-x,y,-z
-x,-y,-z
x,-y,z
1/2+x,1/2+y,z
1/2-x,1/2+y,-z
1/2-x,1/2-y,-z
1/2+x,1/2-y,z
loop_
_atom_site_type_symbol
_atom_site_label
_atom_site_fract_x
_atom_site_fract_y
_atom_site_fract_z
Si Si1 0.947712 0.175462 0.699393
Si Si2 0.816456 0.831151 0.841549
Si Si3 0.285422 0.819160 0.590621
Si Si4 0.298596 0.323357 0.324992
Si Si5 0.477093 0.665115 0.878622
Si Si6 0.309216 0.828547 0.088287
Si Si7 0.398225 0.318417 0.269238
Si Si8 0.888914 0.334539 0.003861
O O1 0.870483 0.263767 0.647384
O O2 0.974302 0.182571 0.795202
O O3 0.017742 0.224691 0.697531
O O4 0.932600 0.000000 0.673761
O O5 0.764670 0.715717 0.770091
O O6 0.894567 0.829450 0.853061
O O7 0.835318 0.778580 0.930091
O O8 0.786981 0.000000 0.818452
O O9 0.250000 0.750000 0.500000
O O10 0.235166 0.767199 0.624108
O O11 0.284600 0.000000 0.588838
O O12 0.307724 0.500000 0.340004
O O13 0.371458 0.271852 0.328921
O O14 0.508834 0.500000 0.914376
O O15 0.527558 0.784014 0.948070
O O16 0.340641 0.747510 0.176004
O O17 0.287952 0.000000 0.089340
O O18 0.250000 0.750000 0.000000
O O19 0.376124 0.833903 0.076835
O O20 0.394468 0.500000 0.262128
O O21 0.874302 0.500000 0.967311
#
# Coordination Sequence:
#
# PCOD9195806 Si02
#       8
#     8   8   8   8   8   8   8   8
#     4  10  20  39  66  93 123 159 200 247 303 364
#     4  11  22  35  54  81 116 157 202 252 303 355
#     4  11  24  43  70  99 128 157 192 240 296 366
#     4  10  22  40  62  91 122 155 198 246 299 355
#     4  10  20  35  55  81 112 152 201 249 300 356
#     4  11  23  36  51  75 111 158 211 260 303 351
#     4  10  21  39  63  88 119 160 204 251 302 357
#     4  11  23  35  49  75 113 155 204 257 303 349
#
# _framework density 20.27383
#
# number of rings (size 3 to 8) (size 9 to 14) (size 15 to 20)
#    0.000    1.500    2.500    2.625    0.000    9.000 
#    0.000    0.625    0.000    3.750    0.000    0.000 
#    0.000    0.000    0.000    0.000    0.000    0.000 
#
# Total GULP energy -178459.091238 kJ/mol
# GULP energy per Si atom -5576.846601 kJ/mol
# Density = 2.022769 g / cm^3
# Si number density = 20.273830 Si / 1000 Ang^3
#
#
#
# Elastic Constant Matrix: (Units=GPa)
#
#
# Indices 1 2 3 4 5 6 
#
# 1 170.3580 30.5248 53.4526 0.0000 -28.0048 0.0000
# 2 30.5248 40.9057 18.2102 0.0000 3.9945 0.0000
# 3 53.4526 18.2102 56.5225 0.0000 -14.3952 0.0000
# 4 0.0000 0.0000 0.0000 19.2409 0.0000 1.9882
# 5 -28.0048 3.9945 -14.3952 0.0000 23.7785 0.0000
# 6 0.0000 0.0000 0.0000 1.9882 0.0000 26.2564
#
#
#
# Elastic Compliance Matrix: (Units=1/GPa)
#
#
# Indices 1 2 3 4 5 6 
#
# 1 0.010267 -0.006383 -0.005084 0.000000 0.010086 0.000000
# 2 -0.006383 0.035883 -0.010610 0.000000 -0.019969 0.000000
# 3 -0.005084 -0.010610 0.029377 0.000000 0.013579 0.000000
# 4 0.000000 0.000000 0.000000 0.052383 0.000000 -0.003967
# 5 0.010086 -0.019969 0.013579 0.000000 0.065509 0.000000
# 6 0.000000 0.000000 0.000000 -0.003967 0.000000 0.038386
#
#
# Mechanical properties :
#
#
# Convention : Reuss Voigt Hill
#
# Bulk Modulus (GPa) = 31.87519 52.46236 42.16878
# Shear Modulus (GPa) = 17.45714 24.89504 21.17609
#
# Velocity S-wave (km/s) = 2.93758 3.50800 3.23538
# Velocity P-wave (km/s) = 5.22133 6.50701 5.89930
#
# Compressibility (1/GPa) = 0.03137237
#
# Stress axis : x y z
#
# Youngs Moduli (GPa) = 97.39950 27.86841 34.04071
#
# Poissons Ratio (x) = 0.17789 0.17307
# Poissons Ratio (y) = 0.62171 0.36117
# Poissons Ratio (z) = 0.49519 0.29568
#
# Static dielectric constant tensor:
#      x y z
#    x 1.853660 0.000000 -0.007200 
#    y 0.000000 1.732860 0.000000 
#    z -0.007200 0.000000 1.653160 
# 
# From -- ./inp_files/324219.got.cif
#   From: 2010.05.17/outbox.cif.g08.bks.cpg/sg12_163_cif.got.tgz:324219.got - 2010.06.03 13:09:07.
