data_PCOD9195691
_publ_section_title
;
Structure prediction by ZEFSAII (Michael W. Deem and Ramdas Pophale) SiO2 
 PCOD9195691
Probable space group: C 2/M
;
_chemical_formula_sum "Si O2"
_cell_formula_units_Z 48
_cell_length_a 20.941304
_cell_length_b 13.589558
_cell_length_c 12.175775
_cell_angle_alpha 90.000000
_cell_angle_beta 133.731741
_cell_angle_gamma 90.000000
_cell_volume 2503.768585
_symmetry_space_group_name_H-M "C 2/M"
_symmetry_group_IT_number 12
_symmetry_cell_setting 'monoclinic'
loop_
_space_group_symop_operation_xyz
x,y,z
-x,y,-z
-x,-y,-z
x,-y,z
1/2+x,1/2+y,z
1/2-x,1/2+y,-z
1/2-x,1/2-y,-z
1/2+x,1/2-y,z
loop_
_atom_site_type_symbol
_atom_site_label
_atom_site_fract_x
_atom_site_fract_y
_atom_site_fract_z
Si Si1 0.811378 0.616636 0.657785
Si Si2 0.449639 0.233687 0.251693
Si Si3 0.706984 0.611406 0.917228
Si Si4 0.379895 0.114993 0.976130
Si Si5 0.658500 0.112717 0.721893
Si Si6 0.647709 0.250788 0.502744
O O1 0.810618 0.500000 0.635723
O O2 0.871439 0.634327 0.837111
O O3 0.713817 0.658161 0.569557
O O4 0.842014 0.679560 0.590283
O O5 0.371802 0.311867 0.178316
O O6 0.426779 0.145738 0.308943
O O7 0.545006 0.278003 0.387097
O O8 0.440409 0.187022 0.119374
O O9 0.673949 0.500000 0.867109
O O10 0.782014 0.626539 0.913827
O O11 0.760602 0.619654 0.095446
O O12 0.405166 0.000000 0.022594
O O13 0.671388 0.186231 0.637114
O O14 0.650871 0.000000 0.676421
#
# Coordination Sequence:
#
# PCOD9195691 Si02
#       6
#     8   8   8   8   8   8
#     4  10  22  40  56  70 100 143 179 212 252 306
#     4  11  20  32  54  82 109 131 166 219 262 302
#     4   9  18  33  55  79 104 138 172 207 254 307
#     4   9  18  34  55  77 102 136 174 207 250 306
#     4  10  20  35  55  79 109 140 169 206 257 312
#     4  11  23  35  53  80 104 135 174 213 261 308
#
# _framework density 19.171101
#
# number of rings (size 3 to 8) (size 9 to 14) (size 15 to 20)
#    0.000    2.000    0.000    6.500    0.000    4.667 
#    0.000    1.667    0.000    5.000    0.000    9.333 
#    0.000    0.000    0.000    0.000    0.000    0.000 
#
# Total GULP energy -134095.217056 kJ/mol
# GULP energy per Si atom -5587.300711 kJ/mol
# Density = 1.912747 g / cm^3
# Si number density = 19.171101 Si / 1000 Ang^3
#
#
#
# Elastic Constant Matrix: (Units=GPa)
#
#
# Indices 1 2 3 4 5 6 
#
# 1 27.7508 -9.0415 6.3492 0.0000 -8.9577 0.0000
# 2 -9.0415 46.4742 8.7618 0.0000 -3.3082 0.0000
# 3 6.3492 8.7618 35.0376 0.0000 -10.0844 0.0000
# 4 0.0000 0.0000 0.0000 14.1965 0.0000 -11.6659
# 5 -8.9577 -3.3082 -10.0844 0.0000 38.3818 0.0000
# 6 0.0000 0.0000 0.0000 -11.6659 0.0000 17.0515
#
#
#
# Elastic Compliance Matrix: (Units=1/GPa)
#
#
# Indices 1 2 3 4 5 6 
#
# 1 0.044369 0.010812 -0.008108 0.000000 0.009156 0.000000
# 2 0.010812 0.025226 -0.007481 0.000000 0.002732 0.000000
# 3 -0.008108 -0.007481 0.033699 0.000000 0.006317 0.000000
# 4 0.000000 0.000000 0.000000 0.160895 0.000000 0.110078
# 5 0.009156 0.002732 0.006317 0.000000 0.030086 0.000000
# 6 0.000000 0.000000 0.000000 0.110078 0.000000 0.133956
#
#
# Mechanical properties :
#
#
# Convention : Reuss Voigt Hill
#
# Bulk Modulus (GPa) = 10.66795 13.48908 12.07852
# Shear Modulus (GPa) = 10.66026 20.80551 15.73288
#
# Velocity S-wave (km/s) = 2.36065 3.29789 2.86782
# Velocity P-wave (km/s) = 3.60651 4.64251 4.15691
#
# Compressibility (1/GPa) = 0.09373869
#
# Stress axis : x y z
#
# Youngs Moduli (GPa) = 22.53849 39.64207 29.67447
#
# Poissons Ratio (x) = -0.42862 0.24061
# Poissons Ratio (y) = -0.24369 0.22200
# Poissons Ratio (z) = 0.18275 0.29657
#
# Static dielectric constant tensor:
#      x y z
#    x 1.668180 0.000000 -0.006060 
#    y 0.000000 1.659750 0.000000 
#    z -0.006060 0.000000 1.675330 
# 
# From -- ./inp_files/143868.got.cif
#   From: 2010.05.17/outbox.cif.g08.bks.cpg/sg12_72_cif.got.tgz:143868.got - 2010.06.03 13:09:07.
