data_PCOD9195610
_publ_section_title
;
Structure prediction by ZEFSAII (Michael W. Deem and Ramdas Pophale) SiO2 
 PCOD9195610
Probable space group: C 2/M
;
_chemical_formula_sum "Si O2"
_cell_formula_units_Z 64
_cell_length_a 23.861526
_cell_length_b 8.724722
_cell_length_c 18.031577
_cell_angle_alpha 90.000000
_cell_angle_beta 70.701856
_cell_angle_gamma 90.000000
_cell_volume 3542.981300
_symmetry_space_group_name_H-M "C 2/M"
_symmetry_group_IT_number 12
_symmetry_cell_setting 'monoclinic'
loop_
_space_group_symop_operation_xyz
x,y,z
-x,y,-z
-x,-y,-z
x,-y,z
1/2+x,1/2+y,z
1/2-x,1/2+y,-z
1/2-x,1/2-y,-z
1/2+x,1/2-y,z
loop_
_atom_site_type_symbol
_atom_site_label
_atom_site_fract_x
_atom_site_fract_y
_atom_site_fract_z
Si Si1 0.850132 0.183128 0.471560
Si Si2 0.428016 0.677423 0.025990
Si Si3 0.488829 0.683177 0.419079
Si Si4 0.938715 0.814644 0.859965
Si Si5 0.182873 0.317677 0.666960
Si Si6 0.077384 0.813603 0.808588
Si Si7 0.305711 0.184109 0.646989
Si Si8 0.404652 0.817283 0.722107
O O1 0.920385 0.214393 0.430446
O O2 0.815974 0.258408 0.418111
O O3 0.830858 0.249733 0.558881
O O4 0.841303 0.000000 0.475056
O O5 0.408380 0.500000 0.033393
O O6 0.407458 0.741251 0.114051
O O7 0.500000 0.675514 0.000000
O O8 0.415202 0.743656 0.950281
O O9 0.500000 0.726290 0.500000
O O10 0.498441 0.500000 0.408403
O O11 0.535350 0.765532 0.345847
O O12 0.904712 0.754279 0.803588
O O13 0.008699 0.772903 0.822781
O O14 0.936879 0.000000 0.862479
O O15 0.184870 0.500000 0.667201
O O16 0.122969 0.256175 0.730898
O O17 0.239567 0.248121 0.684003
O O18 0.080909 0.000000 0.805020
O O19 0.349737 0.230829 0.694056
O O20 0.304531 0.000000 0.643536
O O21 0.403908 0.000000 0.728359
#
# Coordination Sequence:
#
# PCOD9195610 Si02
#       8
#     8   8   8   8   8   8   8   8
#     4  11  22  38  59  80 104 135 174 219 265 311
#     4   7  12  26  51  81 109 138 172 208 249 303
#     4  10  20  35  55  78 104 137 174 210 253 309
#     4   9  17  31  55  84 112 142 174 208 252 312
#     4  12  25  38  54  77 105 137 177 222 265 311
#     4   9  17  33  56  82 111 141 174 212 256 307
#     4  11  24  41  56  72  99 139 183 223 267 310
#     4  11  23  35  52  78 109 141 174 218 266 311
#
# _framework density 18.063884000000002
#
# number of rings (size 3 to 8) (size 9 to 14) (size 15 to 20)
#    0.000    2.000    1.250    4.875    0.000    6.250 
#    0.000    0.625    0.000    3.000    0.000    0.000 
#    0.000    0.000    0.000    0.000    0.000    0.000 
#
# Total GULP energy -178618.847964 kJ/mol
# GULP energy per Si atom -5581.838999 kJ/mol
# Density = 1.802277 g / cm^3
# Si number density = 18.063884 Si / 1000 Ang^3
#
#
#
# Elastic Constant Matrix: (Units=GPa)
#
#
# Indices 1 2 3 4 5 6 
#
# 1 63.7231 29.0748 32.9169 0.0000 16.0785 0.0000
# 2 29.0748 36.7681 20.1780 0.0000 6.5115 0.0000
# 3 32.9169 20.1780 107.9292 0.0000 29.1700 0.0000
# 4 0.0000 0.0000 0.0000 10.9251 0.0000 9.9527
# 5 16.0785 6.5115 29.1700 0.0000 21.3218 0.0000
# 6 0.0000 0.0000 0.0000 9.9527 0.0000 16.7530
#
#
#
# Elastic Compliance Matrix: (Units=1/GPa)
#
#
# Indices 1 2 3 4 5 6 
#
# 1 0.028851 -0.019597 -0.001385 0.000000 -0.013877 0.000000
# 2 -0.019597 0.043695 -0.004093 0.000000 0.007034 0.000000
# 3 -0.001385 -0.004093 0.015602 0.000000 -0.019050 0.000000
# 4 0.000000 0.000000 0.000000 0.199509 0.000000 -0.118525
# 5 -0.013877 0.007034 -0.019050 0.000000 0.081279 0.000000
# 6 0.000000 0.000000 0.000000 -0.118525 0.000000 0.130104
#
#
# Mechanical properties :
#
#
# Convention : Reuss Voigt Hill
#
# Bulk Modulus (GPa) = 26.31757 41.41776 33.86766
# Shear Modulus (GPa) = 8.89910 18.21668 13.55789
#
# Velocity S-wave (km/s) = 2.22197 3.17907 2.74259
# Velocity P-wave (km/s) = 4.60257 6.03768 5.36830
#
# Compressibility (1/GPa) = 0.03799743
#
# Stress axis : x y z
#
# Youngs Moduli (GPa) = 34.66075 22.88617 64.09609
#
# Poissons Ratio (x) = 0.44849 0.08877
# Poissons Ratio (y) = 0.67924 0.26236
# Poissons Ratio (z) = 0.04800 0.09368
#
# Static dielectric constant tensor:
#      x y z
#    x 1.611560 0.000000 0.018130 
#    y 0.000000 1.605680 0.000000 
#    z 0.018130 0.000000 1.634120 
# 
# From -- ./inp_files/287488.got.cif
#   From: 2010.05.17/outbox.cif.g08.bks.cpg/sg12_144_cif.got.tgz:287488.got - 2010.06.03 13:09:07.
