data_PCOD9195960
_publ_section_title
;
Structure prediction by ZEFSAII (Michael W. Deem and Ramdas Pophale) SiO2 
 PCOD9195960
Probable space group: C 2/M
;
_chemical_formula_sum "Si O2"
_cell_formula_units_Z 24
_cell_length_a 14.117986
_cell_length_b 18.227938
_cell_length_c 8.770500
_cell_angle_alpha 90.000000
_cell_angle_beta 153.342257
_cell_angle_gamma 90.000000
_cell_volume 1012.632796
_symmetry_space_group_name_H-M "C 2/M"
_symmetry_group_IT_number 12
_symmetry_cell_setting 'monoclinic'
loop_
_space_group_symop_operation_xyz
x,y,z
-x,y,-z
-x,-y,-z
x,-y,z
1/2+x,1/2+y,z
1/2-x,1/2+y,-z
1/2-x,1/2-y,-z
1/2+x,1/2-y,z
loop_
_atom_site_type_symbol
_atom_site_label
_atom_site_fract_x
_atom_site_fract_y
_atom_site_fract_z
Si Si1 0.506832 0.856317 0.842294
Si Si2 0.766944 0.293328 0.243254
Si Si3 0.844942 0.919219 0.133257
O O1 0.301525 0.824471 0.462698
O O2 0.500000 0.889967 0.000000
O O3 0.656577 0.784876 0.078032
O O4 0.613977 0.910826 0.876369
O O5 0.000000 0.286418 0.500000
O O6 0.639132 0.352775 0.961059
O O7 0.000000 0.911310 0.500000
O O8 0.874862 0.000000 0.108703
#
# Coordination Sequence:
#
# PCOD9195960 Si02
#       3
#     8   8   8
#     4  11  21  34  56  83 110 136 171 222 268 309
#     4  10  20  35  56  79 107 141 179 214 255 317
#     4  10  21  38  57  76 104 143 182 216 257 314
#
# _framework density 23.700595
#
# number of rings (size 3 to 8) (size 9 to 14) (size 15 to 20)
#    0.000    1.667    0.000    8.000    0.000    6.667 
#    0.000    0.000    0.000    5.000    0.000    0.000 
#    0.000    0.000    0.000    0.000    0.000    0.000 
#
# Total GULP energy -67146.814128 kJ/mol
# GULP energy per Si atom -5595.567844 kJ/mol
# Density = 2.364665 g / cm^3
# Si number density = 23.700595 Si / 1000 Ang^3
#
#
#
# Elastic Constant Matrix: (Units=GPa)
#
#
# Indices 1 2 3 4 5 6 
#
# 1 59.5626 -14.3965 -5.9318 0.0000 -11.8256 0.0000
# 2 -14.3965 62.9922 11.7426 0.0000 13.8768 0.0000
# 3 -5.9318 11.7426 69.1065 0.0000 -16.7997 0.0000
# 4 0.0000 0.0000 0.0000 15.6835 0.0000 -4.7714
# 5 -11.8256 13.8768 -16.7997 0.0000 28.0918 0.0000
# 6 0.0000 0.0000 0.0000 -4.7714 0.0000 12.3597
#
#
#
# Elastic Compliance Matrix: (Units=1/GPa)
#
#
# Indices 1 2 3 4 5 6 
#
# 1 0.019465 0.001634 0.003731 0.000000 0.009618 0.000000
# 2 0.001634 0.020406 -0.006565 0.000000 -0.013318 0.000000
# 3 0.003731 -0.006565 0.019981 0.000000 0.016763 0.000000
# 4 0.000000 0.000000 0.000000 0.072246 0.000000 0.027890
# 5 0.009618 -0.013318 0.016763 0.000000 0.056250 0.000000
# 6 0.000000 0.000000 0.000000 0.027890 0.000000 0.091675
#
#
# Mechanical properties :
#
#
# Convention : Reuss Voigt Hill
#
# Bulk Modulus (GPa) = 17.40516 19.38778 18.39647
# Shear Modulus (GPa) = 16.57967 24.57680 20.57824
#
# Velocity S-wave (km/s) = 2.64776 3.22370 2.94982
# Velocity P-wave (km/s) = 4.08745 4.69620 4.40236
#
# Compressibility (1/GPa) = 0.05745422
#
# Stress axis : x y z
#
# Youngs Moduli (GPa) = 51.37352 49.00481 50.04702
#
# Poissons Ratio (x) = -0.08009 -0.18674
# Poissons Ratio (y) = -0.08396 0.32855
# Poissons Ratio (z) = -0.19169 0.32171
#
# Static dielectric constant tensor:
#      x y z
#    x 1.984770 0.000000 0.022780 
#    y 0.000000 1.828640 0.000000 
#    z 0.022780 0.000000 1.978830 
# 
# From -- ./inp_files/35849.got.cif
#   From: 2010.05.17/outbox.cif.g08.bks.cpg/sg12_18_cif.got.tgz:35849.got - 2010.06.03 13:09:07.
