data_PCOD9195649
_publ_section_title
;
Structure prediction by ZEFSAII (Michael W. Deem and Ramdas Pophale) SiO2 
 PCOD9195649
Probable space group: C 2/M
;
_chemical_formula_sum "Si O2"
_cell_formula_units_Z 64
_cell_length_a 18.543741
_cell_length_b 8.549252
_cell_length_c 31.359457
_cell_angle_alpha 90.000000
_cell_angle_beta 137.557744
_cell_angle_gamma 90.000000
_cell_volume 3355.051656
_symmetry_space_group_name_H-M "C 2/M"
_symmetry_group_IT_number 12
_symmetry_cell_setting 'monoclinic'
loop_
_space_group_symop_operation_xyz
x,y,z
-x,y,-z
-x,-y,-z
x,-y,z
1/2+x,1/2+y,z
1/2-x,1/2+y,-z
1/2-x,1/2-y,-z
1/2+x,1/2-y,z
loop_
_atom_site_type_symbol
_atom_site_label
_atom_site_fract_x
_atom_site_fract_y
_atom_site_fract_z
Si Si1 0.927770 0.688557 0.808164
Si Si2 0.480700 0.687734 0.317318
Si Si3 0.670789 0.690130 0.070672
Si Si4 0.409908 0.810237 0.194785
Si Si5 0.995780 0.811155 0.928876
Si Si6 0.783301 0.686393 0.560717
Si Si7 0.877603 0.312390 0.437954
Si Si8 0.686841 0.689387 0.682833
O O1 0.927723 0.500000 0.808609
O O2 0.976224 0.746184 0.873673
O O3 0.805401 0.740660 0.748643
O O4 0.000664 0.739236 0.800242
O O5 0.486028 0.500000 0.319673
O O6 0.436134 0.745591 0.252725
O O7 0.598352 0.754693 0.376366
O O8 0.400663 0.737177 0.320291
O O9 0.671178 0.500000 0.070190
O O10 0.792450 0.741905 0.128167
O O11 0.600461 0.735936 0.081171
O O12 0.605037 0.740158 0.000087
O O13 0.410279 0.000000 0.196971
O O14 0.996159 0.000000 0.927216
O O15 0.782503 0.500000 0.559538
O O16 0.750000 0.750000 0.500000
O O17 0.700322 0.745020 0.560055
O O18 0.872720 0.500000 0.437441
O O19 0.841768 0.254946 0.375880
O O20 0.000000 0.263513 0.500000
O O21 0.686695 0.500000 0.680457
#
# Coordination Sequence:
#
# PCOD9195649 Si02
#       8
#     8   8   8   8   8   8   8   8
#     4  10  21  35  51  77 111 143 179 227 284 342
#     4  11  23  39  60  86 115 148 192 241 286 339
#     4   8  16  32  53  77 104 139 186 232 276 333
#     4  10  20  35  55  78 109 149 188 230 285 347
#     4   9  17  32  54  76 102 140 185 232 279 332
#     4  12  25  42  64  89 120 155 192 235 284 336
#     4  11  24  41  63  92 122 152 191 235 278 333
#     4  10  22  39  58  82 115 153 189 233 290 343
#
# _framework density 19.075710999999998
#
# number of rings (size 3 to 8) (size 9 to 14) (size 15 to 20)
#    0.000    1.875    0.000    4.875    0.000    6.500 
#    0.000    1.875    0.000    0.000    0.000    0.000 
#    0.000    0.000    0.000    0.000    0.000    0.000 
#
# Total GULP energy -178822.441240 kJ/mol
# GULP energy per Si atom -5588.201289 kJ/mol
# Density = 1.903229 g / cm^3
# Si number density = 19.075711 Si / 1000 Ang^3
#
#
#
# Elastic Constant Matrix: (Units=GPa)
#
#
# Indices 1 2 3 4 5 6 
#
# 1 194.4581 46.9895 125.1177 0.0000 0.2850 0.0000
# 2 46.9895 30.1831 38.4346 0.0000 1.8851 0.0001
# 3 125.1177 38.4346 188.7921 0.0000 0.7452 0.0000
# 4 0.0000 0.0000 0.0000 30.4791 0.0000 -14.4415
# 5 0.2850 1.8851 0.7452 0.0000 42.8455 0.0000
# 6 0.0000 0.0001 0.0000 -14.4415 0.0000 11.0625
#
#
#
# Elastic Compliance Matrix: (Units=1/GPa)
#
#
# Indices 1 2 3 4 5 6 
#
# 1 0.011020 -0.010643 -0.005138 0.000000 0.000484 0.000000
# 2 -0.010643 0.055145 -0.004164 0.000000 -0.002283 -0.000001
# 3 -0.005138 -0.004164 0.009550 0.000000 0.000051 0.000000
# 4 0.000000 0.000000 0.000000 0.086010 0.000000 0.112282
# 5 0.000484 -0.002283 0.000051 0.000000 0.023436 0.000000
# 6 0.000000 -0.000001 0.000000 0.112282 0.000000 0.236974
#
#
# Mechanical properties :
#
#
# Convention : Reuss Voigt Hill
#
# Bulk Modulus (GPa) = 27.91432 92.72411 60.31922
# Shear Modulus (GPa) = 10.54927 30.40353 20.47640
#
# Velocity S-wave (km/s) = 2.35419 3.99662 3.27988
# Velocity P-wave (km/s) = 4.69626 8.36727 6.78477
#
# Compressibility (1/GPa) = 0.03582390
#
# Stress axis : x y z
#
# Youngs Moduli (GPa) = 90.74802 18.13394 104.71606
#
# Poissons Ratio (x) = 0.19299 0.53805
# Poissons Ratio (y) = 0.96581 0.43607
# Poissons Ratio (z) = 0.46628 0.07552
#
# Static dielectric constant tensor:
#      x y z
#    x 1.638200 0.000000 0.019940 
#    y 0.000000 1.650700 0.000000 
#    z 0.019940 0.000000 1.635610 
# 
# From -- ./inp_files/378454.got.cif
#   From: 2010.05.17/outbox.cif.g08.bks.cpg/sg12_190_cif.got.tgz:378454.got - 2010.06.03 13:09:07.
