data_PCOD9195817
_publ_section_title
;
Structure prediction by ZEFSAII (Michael W. Deem and Ramdas Pophale) SiO2 
 PCOD9195817
Probable space group: C 2/M
;
_chemical_formula_sum "Si O2"
_cell_formula_units_Z 48
_cell_length_a 25.197445
_cell_length_b 7.955443
_cell_length_c 11.136608
_cell_angle_alpha 90.000000
_cell_angle_beta 71.582290
_cell_angle_gamma 90.000000
_cell_volume 2118.061647
_symmetry_space_group_name_H-M "C 2/M"
_symmetry_group_IT_number 12
_symmetry_cell_setting 'monoclinic'
loop_
_space_group_symop_operation_xyz
x,y,z
-x,y,-z
-x,-y,-z
x,-y,z
1/2+x,1/2+y,z
1/2-x,1/2+y,-z
1/2-x,1/2-y,-z
1/2+x,1/2-y,z
loop_
_atom_site_type_symbol
_atom_site_label
_atom_site_fract_x
_atom_site_fract_y
_atom_site_fract_z
Si Si1 0.237326 0.307052 0.694362
Si Si2 0.172255 0.805652 0.968510
Si Si3 0.061408 0.201593 0.925555
Si Si4 0.869966 0.300063 0.357236
Si Si5 0.935810 0.706383 0.543551
Si Si6 0.336829 0.195206 0.766886
O O1 0.249752 0.500000 0.655684
O O2 0.192003 0.233392 0.632957
O O3 0.294794 0.214820 0.684443
O O4 0.204419 0.300368 0.845701
O O5 0.186147 0.781368 0.097238
O O6 0.182464 0.000000 0.927789
O O7 0.106538 0.767039 0.997889
O O8 0.089590 0.271972 0.785379
O O9 0.057554 0.000000 0.912743
O O10 0.000000 0.267379 0.000000
O O11 0.862468 0.500000 0.377745
O O12 0.902540 0.234330 0.449484
O O13 0.935888 0.500000 0.542199
O O14 0.897532 0.759092 0.682986
O O15 0.000000 0.761252 0.500000
O O16 0.340862 0.000000 0.794017
#
# Coordination Sequence:
#
# PCOD9195817 Si02
#       6
#     8   8   8   8   8   8
#     4  10  20  36  57  83 113 142 181 230 277 324
#     4  10  20  35  55  81 115 147 180 224 274 327
#     4   9  19  34  53  79 111 146 178 219 277 328
#     4   9  19  36  58  81 106 141 186 229 266 317
#     4   9  20  38  57  80 111 145 182 228 274 320
#     4  11  22  35  56  83 111 147 186 223 273 328
#
# _framework density 22.662230000000001
#
# number of rings (size 3 to 8) (size 9 to 14) (size 15 to 20)
#    0.000    2.333    0.000    2.000    2.333    2.333 
#    0.000    1.667    0.000    2.500    0.000    0.000 
#    0.000    0.000    0.000    0.000    0.000    0.000 
#
# Total GULP energy -134048.451419 kJ/mol
# GULP energy per Si atom -5585.352142 kJ/mol
# Density = 2.261065 g / cm^3
# Si number density = 22.662230 Si / 1000 Ang^3
#
#
#
# Elastic Constant Matrix: (Units=GPa)
#
#
# Indices 1 2 3 4 5 6 
#
# 1 109.8951 3.6059 30.0909 0.0000 -5.1554 0.0000
# 2 3.6059 30.2767 -3.8115 0.0000 -0.3730 0.0000
# 3 30.0909 -3.8115 59.6900 0.0000 7.1184 0.0000
# 4 0.0000 0.0000 0.0000 6.9122 0.0000 1.7118
# 5 -5.1554 -0.3730 7.1184 0.0000 41.5848 0.0000
# 6 0.0000 0.0000 0.0000 1.7118 0.0000 16.4646
#
#
#
# Elastic Compliance Matrix: (Units=1/GPa)
#
#
# Indices 1 2 3 4 5 6 
#
# 1 0.010890 -0.002011 -0.005898 0.000000 0.002342 0.000000
# 2 -0.002011 0.033668 0.003223 0.000000 -0.000499 0.000000
# 3 -0.005898 0.003223 0.020433 0.000000 -0.004200 0.000000
# 4 0.000000 0.000000 0.000000 0.148495 0.000000 -0.015439
# 5 0.002342 -0.000499 -0.004200 0.000000 0.025052 0.000000
# 6 0.000000 0.000000 0.000000 -0.015439 0.000000 0.062342
#
#
# Mechanical properties :
#
#
# Convention : Reuss Voigt Hill
#
# Bulk Modulus (GPa) = 17.97901 28.84805 23.41353
# Shear Modulus (GPa) = 15.20723 24.32407 19.76565
#
# Velocity S-wave (km/s) = 2.59325 3.27973 2.95648
# Velocity P-wave (km/s) = 4.11306 5.20570 4.69130
#
# Compressibility (1/GPa) = 0.05562040
#
# Stress axis : x y z
#
# Youngs Moduli (GPa) = 91.82505 29.70198 48.94045
#
# Poissons Ratio (x) = 0.05972 0.28863
# Poissons Ratio (y) = 0.18462 -0.15773
# Poissons Ratio (z) = 0.54155 -0.09573
#
# Static dielectric constant tensor:
#      x y z
#    x 1.873700 0.000000 0.006320 
#    y 0.000000 1.798030 0.000000 
#    z 0.006320 0.000000 1.838780 
# 
# From -- ./inp_files/172944.got.cif
#   From: 2010.05.17/outbox.cif.g08.bks.cpg/sg12_87_cif.got.tgz:172944.got - 2010.06.03 13:09:07.
