data_PCOD9195467
_publ_section_title
;
Structure prediction by ZEFSAII (Michael W. Deem and Ramdas Pophale) SiO2 
 PCOD9195467
Probable space group: C 2/M
;
_chemical_formula_sum "Si O2"
_cell_formula_units_Z 50
_cell_length_a 13.924266
_cell_length_b 8.137282
_cell_length_c 25.438592
_cell_angle_alpha 90.000000
_cell_angle_beta 126.942026
_cell_angle_gamma 90.000000
_cell_volume 2303.690622
_symmetry_space_group_name_H-M "C 2/M"
_symmetry_group_IT_number 12
_symmetry_cell_setting 'monoclinic'
loop_
_space_group_symop_operation_xyz
x,y,z
-x,y,-z
-x,-y,-z
x,-y,z
1/2+x,1/2+y,z
1/2-x,1/2+y,-z
1/2-x,1/2-y,-z
1/2+x,1/2-y,z
loop_
_atom_site_type_symbol
_atom_site_label
_atom_site_fract_x
_atom_site_fract_y
_atom_site_fract_z
Si Si1 0.907666 0.313325 0.248757
Si Si2 0.622469 0.694791 0.391058
Si Si3 0.154597 0.319048 0.158833
Si Si4 0.668132 0.194390 0.036006
Si Si5 0.430463 0.311357 0.140528
Si Si6 0.500000 0.500000 0.000000
Si Si7 0.878627 0.801390 0.488184
O O1 0.869935 0.500000 0.243485
O O2 0.789179 0.209414 0.223581
O O3 0.939171 0.285334 0.198037
O O4 0.022451 0.273903 0.321683
O O5 0.603409 0.500000 0.383862
O O6 0.759534 0.734267 0.421239
O O7 0.614870 0.753988 0.449020
O O8 0.111961 0.500000 0.159014
O O9 0.165191 0.307218 0.099454
O O10 0.053084 0.202636 0.148727
O O11 0.808056 0.237759 0.069983
O O12 0.581792 0.351033 0.998190
O O13 0.639255 0.000000 0.011284
O O14 0.410092 0.500000 0.148929
O O15 0.000000 0.750394 0.500000
O O16 0.871052 0.000000 0.485524
#
# Coordination Sequence:
#
# PCOD9195467 Si02
#       7
#     8   8   8   8   8   2   8
#     4  11  22  36  57  85 115 152 195 239 292 347
#     4  10  20  35  54  78 113 143 188 242 286 343
#     4  10  21  38  62  86 118 152 191 239 294 351
#     4   9  22  40  60  89 121 155 198 246 290 351
#     4  10  21  38  62  86 117 150 191 241 295 351
#     4  12  22  36  72  82 120 162 202 236 300 346
#     4   9  19  36  56  76 104 150 190 231 290 344
#
# _framework density 21.704304
#
# number of rings (size 3 to 8) (size 9 to 14) (size 15 to 20)
#    0.000    2.080    0.000    4.080    6.720    2.240 
#    0.000    5.600    0.000    0.000    0.000    0.000 
#    0.000    0.000    0.000    0.000    0.000    0.000 
#
# Total GULP energy -139378.352390 kJ/mol
# GULP energy per Si atom -5575.134096 kJ/mol
# Density = 2.165490 g / cm^3
# Si number density = 21.704304 Si / 1000 Ang^3
#
#
#
# Elastic Constant Matrix: (Units=GPa)
#
#
# Indices 1 2 3 4 5 6 
#
# 1 110.0721 -0.6318 19.6526 0.0000 22.9229 0.0000
# 2 -0.6318 65.7707 15.1121 0.0000 2.3752 0.0000
# 3 19.6526 15.1121 103.1757 0.0000 18.5675 0.0000
# 4 0.0000 0.0000 0.0000 13.8676 0.0000 9.6165
# 5 22.9229 2.3752 18.5675 0.0000 18.6931 0.0000
# 6 0.0000 0.0000 0.0000 9.6165 0.0000 36.2304
#
#
#
# Elastic Compliance Matrix: (Units=1/GPa)
#
#
# Indices 1 2 3 4 5 6 
#
# 1 0.012240 0.000592 0.000361 0.000000 -0.015444 0.000000
# 2 0.000592 0.015764 -0.002351 0.000000 -0.000394 0.000000
# 3 0.000361 -0.002351 0.012169 0.000000 -0.012231 0.000000
# 4 0.000000 0.000000 0.000000 0.088377 0.000000 -0.023458
# 5 -0.015444 -0.000394 -0.012231 0.000000 0.084633 0.000000
# 6 0.000000 0.000000 0.000000 -0.023458 0.000000 0.033827
#
#
# Mechanical properties :
#
#
# Convention : Reuss Voigt Hill
#
# Bulk Modulus (GPa) = 26.75340 38.58713 32.67027
# Shear Modulus (GPa) = 19.06466 30.08394 24.57430
#
# Velocity S-wave (km/s) = 2.96697 3.72705 3.36852
# Velocity P-wave (km/s) = 4.90818 6.02813 5.49675
#
# Compressibility (1/GPa) = 0.03737843
#
# Stress axis : x y z
#
# Youngs Moduli (GPa) = 81.69879 63.43400 82.17668
#
# Poissons Ratio (x) = -0.03757 -0.02967
# Poissons Ratio (y) = -0.04839 0.19319
# Poissons Ratio (z) = -0.02950 0.14912
#
# Static dielectric constant tensor:
#      x y z
#    x 1.799520 0.000000 -0.010380 
#    y 0.000000 1.767770 0.000000 
#    z -0.010380 0.000000 1.786840 
# 
# From -- ./inp_files/360071.got.cif
#   From: 2010.05.17/outbox.cif.g08.bks.cpg/sg12_181_cif.got.tgz:360071.got - 2010.06.03 13:09:07.
