data_PCOD9195894
_publ_section_title
;
Structure prediction by ZEFSAII (Michael W. Deem and Ramdas Pophale) SiO2 
 PCOD9195894
Probable space group: C 2/M
;
_chemical_formula_sum "Si O2"
_cell_formula_units_Z 56
_cell_length_a 28.967308
_cell_length_b 12.080495
_cell_length_c 9.044817
_cell_angle_alpha 90.000000
_cell_angle_beta 118.635968
_cell_angle_gamma 90.000000
_cell_volume 2777.985605
_symmetry_space_group_name_H-M "C 2/M"
_symmetry_group_IT_number 12
_symmetry_cell_setting 'monoclinic'
loop_
_space_group_symop_operation_xyz
x,y,z
-x,y,-z
-x,-y,-z
x,-y,z
1/2+x,1/2+y,z
1/2-x,1/2+y,-z
1/2-x,1/2-y,-z
1/2+x,1/2-y,z
loop_
_atom_site_type_symbol
_atom_site_label
_atom_site_fract_x
_atom_site_fract_y
_atom_site_fract_z
Si Si1 0.932962 0.129802 0.571460
Si Si2 0.158419 0.765546 0.375360
Si Si3 0.701893 0.128186 0.700372
Si Si4 0.429427 0.878002 0.849078
Si Si5 0.016692 0.296289 0.794904
Si Si6 0.887537 0.272766 0.237060
Si Si7 0.320120 0.370339 0.904183
O O1 0.888978 0.163043 0.625635
O O2 0.911003 0.185642 0.389696
O O3 0.988785 0.184336 0.699485
O O4 0.937484 0.000000 0.564555
O O5 0.196205 0.720401 0.562056
O O6 0.129366 0.654087 0.276149
O O7 0.179424 0.830298 0.265985
O O8 0.654575 0.152591 0.741330
O O9 0.759361 0.140078 0.860980
O O10 0.698394 0.000000 0.642368
O O11 0.466068 0.870313 0.760043
O O12 0.434627 0.000000 0.921265
O O13 0.451757 0.791652 0.002224
O O14 0.060987 0.334023 0.748498
O O15 0.857678 0.206086 0.061258
O O16 0.335239 0.500000 0.936462
#
# Coordination Sequence:
#
# PCOD9195894 Si02
#       7
#     8   8   8   8   8   8   8
#     4  10  22  38  58  85 119 158 192 234 289 348
#     4  10  20  40  61  88 116 152 195 245 286 347
#     4  10  23  40  61  87 119 155 195 243 295 345
#     4  10  20  37  59  85 117 149 189 238 291 344
#     4  10  20  35  55  85 114 150 195 235 282 343
#     4  11  22  39  59  85 123 152 195 238 289 350
#     4  11  22  39  62  89 117 153 197 245 295 343
#
# _framework density 20.158491000000001
#
# number of rings (size 3 to 8) (size 9 to 14) (size 15 to 20)
#    0.000    1.714    1.429    3.429    0.000    2.857 
#    0.000    2.857    0.000   13.714    0.000    0.000 
#    0.000    0.000    0.000    0.000    0.000    0.000 
#
# Total GULP energy -156108.330058 kJ/mol
# GULP energy per Si atom -5575.297502 kJ/mol
# Density = 2.011261 g / cm^3
# Si number density = 20.158491 Si / 1000 Ang^3
#
#
#
# Elastic Constant Matrix: (Units=GPa)
#
#
# Indices 1 2 3 4 5 6 
#
# 1 89.1136 11.5368 16.2422 0.0000 -5.3971 0.0000
# 2 11.5368 51.5235 15.3351 0.0000 4.2285 0.0000
# 3 16.2422 15.3351 56.2574 0.0000 -1.7366 0.0000
# 4 0.0000 0.0000 0.0000 14.9142 0.0000 0.1712
# 5 -5.3971 4.2285 -1.7366 0.0000 30.7370 0.0000
# 6 0.0000 0.0000 0.0000 0.1712 0.0000 7.9826
#
#
#
# Elastic Compliance Matrix: (Units=1/GPa)
#
#
# Indices 1 2 3 4 5 6 
#
# 1 0.012148 -0.002048 -0.002880 0.000000 0.002252 0.000000
# 2 -0.002048 0.021794 -0.005463 0.000000 -0.003666 0.000000
# 3 -0.002880 -0.005463 0.020139 0.000000 0.001384 0.000000
# 4 0.000000 0.000000 0.000000 0.067067 0.000000 -0.001439
# 5 0.002252 -0.003666 0.001384 0.000000 0.033512 0.000000
# 6 0.000000 0.000000 0.000000 -0.001439 0.000000 0.125304
#
#
# Mechanical properties :
#
#
# Convention : Reuss Voigt Hill
#
# Bulk Modulus (GPa) = 30.02978 31.45809 30.74394
# Shear Modulus (GPa) = 16.03370 20.97878 18.50624
#
# Velocity S-wave (km/s) = 2.82331 3.22948 3.03320
# Velocity P-wave (km/s) = 5.05542 5.43556 5.24893
#
# Compressibility (1/GPa) = 0.03330027
#
# Stress axis : x y z
#
# Youngs Moduli (GPa) = 82.31811 45.88432 49.65588
#
# Poissons Ratio (x) = 0.09397 0.14299
# Poissons Ratio (y) = 0.16858 0.27126
# Poissons Ratio (z) = 0.23704 0.25065
#
# Static dielectric constant tensor:
#      x y z
#    x 1.749070 0.000000 -0.024990 
#    y 0.000000 1.691980 0.000000 
#    z -0.024990 0.000000 1.737390 
# 
# From -- ./inp_files/110082.got.cif
#   From: 2010.05.17/outbox.cif.g08.bks.cpg/sg12_56_cif.got.tgz:110082.got - 2010.06.03 13:09:07.
