data_PCOD9195295
_publ_section_title
;
Structure prediction by ZEFSAII (Michael W. Deem and Ramdas Pophale) SiO2 
 PCOD9195295
Probable space group: C 2/M
;
_chemical_formula_sum "Si O2"
_cell_formula_units_Z 56
_cell_length_a 9.454358
_cell_length_b 17.974220
_cell_length_c 21.577987
_cell_angle_alpha 90.000000
_cell_angle_beta 127.705430
_cell_angle_gamma 90.000000
_cell_volume 2901.084676
_symmetry_space_group_name_H-M "C 2/M"
_symmetry_group_IT_number 12
_symmetry_cell_setting 'monoclinic'
loop_
_space_group_symop_operation_xyz
x,y,z
-x,y,-z
-x,-y,-z
x,-y,z
1/2+x,1/2+y,z
1/2-x,1/2+y,-z
1/2-x,1/2-y,-z
1/2+x,1/2-y,z
loop_
_atom_site_type_symbol
_atom_site_label
_atom_site_fract_x
_atom_site_fract_y
_atom_site_fract_z
Si Si1 0.896640 0.344641 0.242413
Si Si2 0.800080 0.088700 0.927226
Si Si3 0.808015 0.590864 0.472522
Si Si4 0.781554 0.412934 0.603926
Si Si5 0.427619 0.410380 0.330376
Si Si6 0.415604 0.807290 0.044478
Si Si7 0.820591 0.714955 0.777453
O O1 0.764965 0.383200 0.157582
O O2 0.795312 0.288731 0.260493
O O3 0.023177 0.400158 0.314126
O O4 0.033541 0.296845 0.236786
O O5 0.662684 0.120867 0.941092
O O6 0.797346 0.000000 0.926483
O O7 0.000000 0.113954 0.000000
O O8 0.814261 0.500000 0.476502
O O9 0.774669 0.619647 0.533379
O O10 0.637117 0.607778 0.384136
O O11 0.000000 0.616618 0.500000
O O12 0.747562 0.500000 0.587444
O O13 0.640016 0.389531 0.618214
O O14 0.400874 0.500000 0.314450
O O15 0.304395 0.358516 0.254879
O O16 0.573594 0.777067 0.130107
O O17 0.500000 0.820626 0.000000
O O18 0.250000 0.750000 0.000000
#
# Coordination Sequence:
#
# PCOD9195295 Si02
#       7
#     8   8   8   8   8   8   8
#     4  10  20  35  53  77 107 138 177 223 268 323
#     4  10  21  37  57  81 110 144 183 228 275 323
#     4   9  17  30  50  77 106 136 171 215 268 321
#     4   9  17  31  53  76  99 135 177 216 261 314
#     4   9  18  34  54  76 103 135 176 222 265 316
#     4  11  21  36  58  82 111 149 187 224 269 328
#     4  10  21  34  54  78 104 140 178 217 267 321
#
# _framework density 19.303125000000001
#
# number of rings (size 3 to 8) (size 9 to 14) (size 15 to 20)
#    0.000    2.286    0.000    3.857    0.000    6.571 
#    0.000    0.714    0.000    4.286    0.000    0.000 
#    0.000    0.000    0.000    0.000    0.000    0.000 
#
# Total GULP energy -156122.815110 kJ/mol
# GULP energy per Si atom -5575.814825 kJ/mol
# Density = 1.925919 g / cm^3
# Si number density = 19.303125 Si / 1000 Ang^3
#
#
#
# Elastic Constant Matrix: (Units=GPa)
#
#
# Indices 1 2 3 4 5 6 
#
# 1 44.1823 17.7997 18.0886 0.0000 23.7882 0.0000
# 2 17.7997 35.4340 5.6871 0.0000 5.9884 0.0000
# 3 18.0886 5.6871 72.3577 0.0000 19.1651 0.0000
# 4 0.0000 0.0000 0.0000 8.6045 0.0000 6.9360
# 5 23.7882 5.9884 19.1651 0.0000 31.3136 0.0000
# 6 0.0000 0.0000 0.0000 6.9360 0.0000 23.5056
#
#
#
# Elastic Compliance Matrix: (Units=1/GPa)
#
#
# Indices 1 2 3 4 5 6 
#
# 1 0.047926 -0.018392 -0.002177 0.000000 -0.031559 0.000000
# 2 -0.018392 0.036279 -0.000139 0.000000 0.007119 0.000000
# 3 -0.002177 -0.000139 0.016625 0.000000 -0.008495 0.000000
# 4 0.000000 0.000000 0.000000 0.152489 0.000000 -0.044996
# 5 -0.031559 0.007119 -0.008495 0.000000 0.059747 0.000000
# 6 0.000000 0.000000 0.000000 -0.044996 0.000000 0.055820
#
#
# Mechanical properties :
#
#
# Convention : Reuss Voigt Hill
#
# Bulk Modulus (GPa) = 16.83070 26.12496 21.47783
# Shear Modulus (GPa) = 11.62500 20.04466 15.83483
#
# Velocity S-wave (km/s) = 2.45671 3.22594 2.86724
# Velocity P-wave (km/s) = 4.09699 5.23823 4.70236
#
# Compressibility (1/GPa) = 0.05941524
#
# Stress axis : x y z
#
# Youngs Moduli (GPa) = 20.86565 27.56380 60.14893
#
# Poissons Ratio (x) = 0.50695 0.13092
# Poissons Ratio (y) = 0.38376 0.00838
# Poissons Ratio (z) = 0.04542 0.00384
#
# Static dielectric constant tensor:
#      x y z
#    x 1.688990 0.000000 0.002220 
#    y 0.000000 1.666920 0.000000 
#    z 0.002220 0.000000 1.708360 
# 
# From -- ./inp_files/300876.got.cif
#   From: 2010.05.17/outbox.cif.g08.bks.cpg/sg12_151_cif.got.tgz:300876.got - 2010.06.03 13:09:07.
