data_PCOD9195552
_publ_section_title
;
Structure prediction by ZEFSAII (Michael W. Deem and Ramdas Pophale) SiO2 
 PCOD9195552
Probable space group: C 2/M
;
_chemical_formula_sum "Si O2"
_cell_formula_units_Z 64
_cell_length_a 15.051248
_cell_length_b 8.317482
_cell_length_c 28.882530
_cell_angle_alpha 90.000000
_cell_angle_beta 59.701368
_cell_angle_gamma 90.000000
_cell_volume 3121.874784
_symmetry_space_group_name_H-M "C 2/M"
_symmetry_group_IT_number 12
_symmetry_cell_setting 'monoclinic'
loop_
_space_group_symop_operation_xyz
x,y,z
-x,y,-z
-x,-y,-z
x,-y,z
1/2+x,1/2+y,z
1/2-x,1/2+y,-z
1/2-x,1/2-y,-z
1/2+x,1/2-y,z
loop_
_atom_site_type_symbol
_atom_site_label
_atom_site_fract_x
_atom_site_fract_y
_atom_site_fract_z
Si Si1 0.242363 0.697430 0.796741
Si Si2 0.943874 0.182307 0.379349
Si Si3 0.917708 0.679740 0.481075
Si Si4 0.308252 0.806694 0.293517
Si Si5 0.763399 0.181860 0.592526
Si Si6 0.582260 0.196000 0.916097
Si Si7 0.533338 0.311042 0.261905
Si Si8 0.145981 0.306079 0.002404
O O1 0.243765 0.500000 0.795910
O O2 0.221469 0.750623 0.749648
O O3 0.152683 0.749305 0.855039
O O4 0.355920 0.750482 0.783280
O O5 0.960317 0.210202 0.428913
O O6 0.856672 0.307322 0.387808
O O7 0.033185 0.200863 0.318312
O O8 0.903939 0.000000 0.383133
O O9 0.902633 0.500000 0.466907
O O10 0.816852 0.734794 0.534940
O O11 0.000000 0.677067 0.500000
O O12 0.237527 0.745354 0.355150
O O13 0.428317 0.767009 0.271433
O O14 0.297235 0.000000 0.297763
O O15 0.802464 0.000000 0.583927
O O16 0.462536 0.246849 0.945850
O O17 0.581367 0.000000 0.916159
O O18 0.632759 0.244130 0.952020
O O19 0.525810 0.500000 0.252573
O O20 0.147216 0.500000 0.002658
O O21 0.250000 0.250000 0.000000
#
# Coordination Sequence:
#
# PCOD9195552 Si02
#       8
#     8   8   8   8   8   8   8   8
#     4   9  17  32  54  77 103 140 178 217 254 302
#     4  10  20  35  55  74  97 127 162 206 254 311
#     4  11  24  37  50  73 101 127 160 205 256 311
#     4   9  19  34  54  77 102 132 172 214 259 311
#     4  10  20  35  55  74  97 127 162 206 254 311
#     4   8  16  31  50  74 107 143 181 213 254 311
#     4   9  19  34  54  77 102 132 172 214 259 311
#     4   9  17  31  52  78 106 143 181 217 258 304
#
# _framework density 20.500501
#
# number of rings (size 3 to 8) (size 9 to 14) (size 15 to 20)
#    0.000    2.625    0.000    2.250    1.750    3.000 
#    0.000    1.875    0.000    1.500    0.000    0.000 
#    0.000    0.000    0.000    0.000    0.000    0.000 
#
# Total GULP energy -178306.634919 kJ/mol
# GULP energy per Si atom -5572.082341 kJ/mol
# Density = 2.045384 g / cm^3
# Si number density = 20.500501 Si / 1000 Ang^3
#
#
#
# Elastic Constant Matrix: (Units=GPa)
#
#
# Indices 1 2 3 4 5 6 
#
# 1 77.3060 1.3241 20.4623 0.0000 -8.6319 0.0000
# 2 1.3241 16.4674 4.9375 0.0000 -1.1808 0.0000
# 3 20.4623 4.9375 52.3159 0.0000 -8.9327 0.0000
# 4 0.0000 0.0000 0.0000 26.4197 0.0000 -6.5330
# 5 -8.6319 -1.1808 -8.9327 0.0000 24.3699 0.0000
# 6 0.0000 0.0000 0.0000 -6.5330 0.0000 24.1177
#
#
#
# Elastic Compliance Matrix: (Units=1/GPa)
#
#
# Indices 1 2 3 4 5 6 
#
# 1 0.014680 0.000627 -0.005236 0.000000 0.003311 0.000000
# 2 0.000627 0.062541 -0.005966 0.000000 0.001066 0.000000
# 3 -0.005236 -0.005966 0.022786 0.000000 0.006208 0.000000
# 4 0.000000 0.000000 0.000000 0.040568 0.000000 0.010989
# 5 0.003311 0.001066 0.006208 0.000000 0.044534 0.000000
# 6 0.000000 0.000000 0.000000 0.010989 0.000000 0.044440
#
#
# Mechanical properties :
#
#
# Convention : Reuss Voigt Hill
#
# Bulk Modulus (GPa) = 12.68111 22.17080 17.42595
# Shear Modulus (GPa) = 18.05159 22.93917 20.49538
#
# Velocity S-wave (km/s) = 2.97062 3.34871 3.16531
# Velocity P-wave (km/s) = 4.23854 5.07839 4.67735
#
# Compressibility (1/GPa) = 0.07885747
#
# Stress axis : x y z
#
# Youngs Moduli (GPa) = 68.11783 15.98960 43.88739
#
# Poissons Ratio (x) = -0.01002 0.22978
# Poissons Ratio (y) = -0.04270 0.26182
# Poissons Ratio (z) = 0.35665 0.09539
#
# Static dielectric constant tensor:
#      x y z
#    x 1.498770 0.000000 0.469820 
#    y 0.000000 1.728120 0.000000 
#    z 0.469820 0.000000 0.895870 
# 
# From -- ./inp_files/375045.got.cif
#   From: 2010.05.17/outbox.cif.g08.bks.cpg/sg12_188_cif.got.tgz:375045.got - 2010.06.03 13:09:07.
