data_PCOD9195819
_publ_section_title
;
Structure prediction by ZEFSAII (Michael W. Deem and Ramdas Pophale) SiO2 
 PCOD9195819
Probable space group: C 2/M
;
_chemical_formula_sum "Si O2"
_cell_formula_units_Z 56
_cell_length_a 17.127660
_cell_length_b 14.686294
_cell_length_c 13.310509
_cell_angle_alpha 90.000000
_cell_angle_beta 56.215415
_cell_angle_gamma 90.000000
_cell_volume 2782.761710
_symmetry_space_group_name_H-M "C 2/M"
_symmetry_group_IT_number 12
_symmetry_cell_setting 'monoclinic'
loop_
_space_group_symop_operation_xyz
x,y,z
-x,y,-z
-x,-y,-z
x,-y,z
1/2+x,1/2+y,z
1/2-x,1/2+y,-z
1/2-x,1/2-y,-z
1/2+x,1/2-y,z
loop_
_atom_site_type_symbol
_atom_site_label
_atom_site_fract_x
_atom_site_fract_y
_atom_site_fract_z
Si Si1 0.721248 0.392153 0.449591
Si Si2 0.596888 0.843372 0.221798
Si Si3 0.103957 0.106460 0.731669
Si Si4 0.199059 0.899482 0.871194
Si Si5 0.051683 0.238708 0.065193
Si Si6 0.599981 0.103626 0.548759
Si Si7 0.602361 0.725807 0.399306
O O1 0.716200 0.500000 0.433903
O O2 0.686355 0.335429 0.379957
O O3 0.824396 0.372147 0.419233
O O4 0.650223 0.370102 0.592219
O O5 0.692969 0.894440 0.175916
O O6 0.582243 0.818828 0.116745
O O7 0.504010 0.891085 0.331120
O O8 0.605727 0.749903 0.280217
O O9 0.181898 0.113484 0.764250
O O10 0.021068 0.173299 0.823267
O O11 0.074532 0.000000 0.749714
O O12 0.160269 0.000000 0.922941
O O13 0.139813 0.822663 0.969565
O O14 0.000000 0.268816 0.000000
O O15 0.606406 0.178250 0.456892
O O16 0.620147 0.000000 0.500107
O O17 0.500000 0.684985 0.500000
#
# Coordination Sequence:
#
# PCOD9195819 Si02
#       7
#     8   8   8   8   8   8   8
#     4  10  20  35  55  81 116 152 181 212 259 328
#     4  11  22  35  54  79 110 142 176 220 275 324
#     4   9  17  32  55  79 103 136 178 221 265 310
#     4  10  20  35  56  80 103 132 177 232 277 311
#     4  10  21  37  56  77 101 135 179 227 273 323
#     4  10  21  36  56  83 113 148 187 220 257 316
#     4  10  21  34  53  82 115 146 179 223 271 321
#
# _framework density 20.123892999999999
#
# number of rings (size 3 to 8) (size 9 to 14) (size 15 to 20)
#    0.000    2.000    0.000    4.286    0.000    8.571 
#    0.000    1.429    0.000    3.429    0.000    0.000 
#    0.000    0.000    0.000    0.000    0.000    0.000 
#
# Total GULP energy -156504.996610 kJ/mol
# GULP energy per Si atom -5589.464165 kJ/mol
# Density = 2.007809 g / cm^3
# Si number density = 20.123893 Si / 1000 Ang^3
#
#
#
# Elastic Constant Matrix: (Units=GPa)
#
#
# Indices 1 2 3 4 5 6 
#
# 1 109.2134 19.8947 16.6738 0.0000 2.3793 0.0000
# 2 19.8947 33.6288 4.3345 0.0000 10.2175 0.0000
# 3 16.6738 4.3345 33.3899 0.0000 4.2501 0.0000
# 4 0.0000 0.0000 0.0000 2.8637 0.0000 -7.1618
# 5 2.3793 10.2175 4.2501 0.0000 28.0703 0.0000
# 6 0.0000 0.0000 0.0000 -7.1618 0.0000 18.9784
#
#
#
# Elastic Compliance Matrix: (Units=1/GPa)
#
#
# Indices 1 2 3 4 5 6 
#
# 1 0.011062 -0.006576 -0.004951 0.000000 0.002206 0.000000
# 2 -0.006576 0.037611 0.000075 0.000000 -0.013144 0.000000
# 3 -0.004951 0.000075 0.032998 0.000000 -0.004604 0.000000
# 4 0.000000 0.000000 0.000000 6.207239 0.000000 2.342404
# 5 0.002206 -0.013144 -0.004604 0.000000 0.040919 0.000000
# 6 0.000000 0.000000 0.000000 2.342404 0.000000 0.936636
#
#
# Mechanical properties :
#
#
# Convention : Reuss Voigt Hill
#
# Bulk Modulus (GPa) = 17.01686 28.67092 22.84389
# Shear Modulus (GPa) = 0.68409 19.00442 9.84425
#
# Velocity S-wave (km/s) = 0.58368 3.07640 2.21415
# Velocity P-wave (km/s) = 2.98808 5.18624 4.23236
#
# Compressibility (1/GPa) = 0.05876523
#
# Stress axis : x y z
#
# Youngs Moduli (GPa) = 90.39775 26.58796 30.30494
#
# Poissons Ratio (x) = 0.17485 0.15004
# Poissons Ratio (y) = 0.59449 -0.00226
# Poissons Ratio (z) = 0.44757 -0.00198
#
# Static dielectric constant tensor:
#      x y z
#    x 1.717380 0.000000 -0.009980 
#    y 0.000000 1.707750 0.000000 
#    z -0.009980 0.000000 1.699080 
# 
# From -- ./inp_files/223727.got.cif
#   From: 2010.05.17/outbox.cif.g08.bks.cpg/sg12_112_cif.got.tgz:223727.got - 2010.06.03 13:09:07.
