data_PCOD9195536
_publ_section_title
;
Structure prediction by ZEFSAII (Michael W. Deem and Ramdas Pophale) SiO2 
 PCOD9195536
Probable space group: C 2/M
;
_chemical_formula_sum "Si O2"
_cell_formula_units_Z 32
_cell_length_a 12.657532
_cell_length_b 17.160852
_cell_length_c 10.691494
_cell_angle_alpha 90.000000
_cell_angle_beta 141.070474
_cell_angle_gamma 90.000000
_cell_volume 1459.276498
_symmetry_space_group_name_H-M "C 2/M"
_symmetry_group_IT_number 12
_symmetry_cell_setting 'monoclinic'
loop_
_space_group_symop_operation_xyz
x,y,z
-x,y,-z
-x,-y,-z
x,-y,z
1/2+x,1/2+y,z
1/2-x,1/2+y,-z
1/2-x,1/2-y,-z
1/2+x,1/2-y,z
loop_
_atom_site_type_symbol
_atom_site_label
_atom_site_fract_x
_atom_site_fract_y
_atom_site_fract_z
Si Si1 0.306490 0.091594 0.320948
Si Si2 0.760732 0.843696 0.999329
Si Si3 0.570213 0.184542 0.201644
Si Si4 0.386193 0.650903 0.616550
O O1 0.500000 0.120520 0.500000
O O2 0.215461 0.133992 0.122835
O O3 0.212766 0.106809 0.364263
O O4 0.308880 0.000000 0.296715
O O5 0.575273 0.869736 0.872562
O O6 0.750000 0.750000 0.000000
O O7 0.921615 0.875458 0.222251
O O8 0.588903 0.261881 0.303746
O O9 0.759067 0.151096 0.382844
O O10 0.500000 0.202700 0.000000
#
# Coordination Sequence:
#
# PCOD9195536 Si02
#       4
#     8   8   8   8
#     4  11  22  38  62  90 124 159 196 249 307 356
#     4  10  20  36  57  86 118 153 197 247 298 352
#     4  10  20  35  54  83 119 153 194 242 293 352
#     4  10  20  35  56  83 115 154 195 245 297 347
#
# _framework density 21.928674000000001
#
# number of rings (size 3 to 8) (size 9 to 14) (size 15 to 20)
#    0.000    1.750    2.500    3.750    0.000    3.000 
#    0.000    0.000    0.000    3.000    0.000    3.500 
#    0.000    0.000    0.000    0.000    0.000    0.000 
#
# Total GULP energy -89224.255274 kJ/mol
# GULP energy per Si atom -5576.515955 kJ/mol
# Density = 2.187876 g / cm^3
# Si number density = 21.928674 Si / 1000 Ang^3
#
#
#
# Elastic Constant Matrix: (Units=GPa)
#
#
# Indices 1 2 3 4 5 6 
#
# 1 53.1790 6.1059 46.8349 0.0000 13.5535 0.0000
# 2 6.1059 22.3508 16.1345 0.0000 6.5198 0.0000
# 3 46.8349 16.1345 222.3917 0.0000 23.0459 0.0000
# 4 0.0000 0.0000 0.0000 8.6292 0.0000 8.2936
# 5 13.5535 6.5198 23.0459 0.0000 29.0625 0.0000
# 6 0.0000 0.0000 0.0000 8.2936 0.0000 6.9753
#
#
#
# Elastic Compliance Matrix: (Units=1/GPa)
#
#
# Indices 1 2 3 4 5 6 
#
# 1 0.024743 -0.001374 -0.004301 0.000000 -0.007821 0.000000
# 2 -0.001374 0.049339 -0.002407 0.000000 -0.008519 0.000000
# 3 -0.004301 -0.002407 0.005789 0.000000 -0.002045 0.000000
# 4 0.000000 0.000000 0.000000 -0.811765 0.000000 0.965185
# 5 -0.007821 -0.008519 -0.002045 0.000000 0.041588 0.000000
# 6 0.000000 0.000000 0.000000 0.965185 0.000000 -1.004238
#
#
# Mechanical properties :
#
#
# Convention : Reuss Voigt Hill
#
# Bulk Modulus (GPa) = 15.69673 48.45245 32.07459
# Shear Modulus (GPa) = -3.01724 24.18981 10.58628
#
# Velocity S-wave (km/s) = -1.17427 3.32492 2.19956
# Velocity P-wave (km/s) = 2.30978 6.07318 4.59449
#
# Compressibility (1/GPa) = 0.06370754
#
# Stress axis : x y z
#
# Youngs Moduli (GPa) = 40.41552 20.26782 172.74652
#
# Poissons Ratio (x) = 0.02784 0.74293
# Poissons Ratio (y) = 0.05551 0.41589
# Poissons Ratio (z) = 0.17381 0.04879
#
# Static dielectric constant tensor:
#      x y z
#    x 1.559840 0.000000 -0.055340 
#    y 0.000000 1.805820 0.000000 
#    z -0.055340 0.000000 1.858040 
# 
# From -- ./inp_files/48112.got.cif
#   From: 2010.05.17/outbox.cif.g08.bks.cpg/sg12_25_cif.got.tgz:48112.got - 2010.06.03 13:09:07.
