data_PCOD9195262
_publ_section_title
;
Structure prediction by ZEFSAII (Michael W. Deem and Ramdas Pophale) SiO2 
 PCOD9195262
Probable space group: C 2/M
;
_chemical_formula_sum "Si O2"
_cell_formula_units_Z 56
_cell_length_a 15.022840
_cell_length_b 7.624750
_cell_length_c 24.253405
_cell_angle_alpha 90.000000
_cell_angle_beta 116.074396
_cell_angle_gamma 90.000000
_cell_volume 2495.370662
_symmetry_space_group_name_H-M "C 2/M"
_symmetry_group_IT_number 12
_symmetry_cell_setting 'monoclinic'
loop_
_space_group_symop_operation_xyz
x,y,z
-x,y,-z
-x,-y,-z
x,-y,z
1/2+x,1/2+y,z
1/2-x,1/2+y,-z
1/2-x,1/2-y,-z
1/2+x,1/2-y,z
loop_
_atom_site_type_symbol
_atom_site_label
_atom_site_fract_x
_atom_site_fract_y
_atom_site_fract_z
Si Si1 0.846505 0.202306 0.950542
Si Si2 0.081114 0.797599 0.721679
Si Si3 0.293275 0.286530 0.818998
Si Si4 0.122654 0.785751 0.923044
Si Si5 0.961366 0.214245 0.787732
Si Si6 0.148956 0.289498 0.504106
Si Si7 0.063815 0.292946 0.593129
O O1 0.847867 0.277327 0.889416
O O2 0.729582 0.212580 0.934559
O O3 0.878164 0.000000 0.953982
O O4 0.899053 0.272923 0.019892
O O5 0.182096 0.779821 0.783717
O O6 0.095843 0.726808 0.664685
O O7 0.995732 0.719594 0.737559
O O8 0.057168 0.000000 0.707182
O O9 0.289820 0.500000 0.820412
O O10 0.355397 0.233151 0.782360
O O11 0.041398 0.735485 0.856134
O O12 0.129522 0.000000 0.925607
O O13 0.962726 0.000000 0.786405
O O14 0.145865 0.500000 0.503700
O O15 0.250000 0.250000 0.500000
O O16 0.135835 0.225901 0.564034
O O17 0.048334 0.224273 0.446618
O O18 0.057526 0.500000 0.581870
#
# Coordination Sequence:
#
# PCOD9195262 Si02
#       7
#     8   8   8   8   8   8   8
#     4   9  17  28  49  76  97 127 173 220 272 328
#     4  11  22  37  55  78 108 144 183 223 265 312
#     4  10  20  35  53  75 103 138 180 224 272 329
#     4   9  16  30  50  71  99 132 168 219 275 326
#     4   9  19  34  52  73 102 139 177 220 272 322
#     4   9  19  37  62  89 118 147 179 216 260 307
#     4   9  20  39  59  82 114 152 181 212 261 313
#
# _framework density 22.441557
#
# number of rings (size 3 to 8) (size 9 to 14) (size 15 to 20)
#    0.000    2.571    1.429    1.286    0.000    2.857 
#    0.000   10.714    0.000    0.000    0.000    5.000 
#    0.000    0.000    0.000    0.000    0.000    0.000 
#
# Total GULP energy -156205.333445 kJ/mol
# GULP energy per Si atom -5578.761909 kJ/mol
# Density = 2.239048 g / cm^3
# Si number density = 22.441557 Si / 1000 Ang^3
#
#
#
# Elastic Constant Matrix: (Units=GPa)
#
#
# Indices 1 2 3 4 5 6 
#
# 1 114.1352 0.7941 33.7901 0.0000 -36.4598 0.0000
# 2 0.7941 46.6398 3.1190 0.0000 -4.6104 0.0000
# 3 33.7901 3.1190 99.9848 0.0000 -35.6784 0.0000
# 4 0.0000 0.0000 0.0000 8.7951 0.0000 2.8070
# 5 -36.4598 -4.6104 -35.6784 0.0000 30.1684 0.0000
# 6 0.0000 0.0000 0.0000 2.8070 0.0000 16.1131
#
#
#
# Elastic Compliance Matrix: (Units=1/GPa)
#
#
# Indices 1 2 3 4 5 6 
#
# 1 0.014709 0.001654 0.002441 0.000000 0.020916 0.000000
# 2 0.001654 0.022000 0.001155 0.000000 0.006727 0.000000
# 3 0.002441 0.001155 0.017745 0.000000 0.024113 0.000000
# 4 0.000000 0.000000 0.000000 0.120393 0.000000 -0.020973
# 5 0.020916 0.006727 0.024113 0.000000 0.087970 0.000000
# 6 0.000000 0.000000 0.000000 -0.020973 0.000000 0.065715
#
#
# Mechanical properties :
#
#
# Convention : Reuss Voigt Hill
#
# Bulk Modulus (GPa) = 15.39528 37.35179 26.37354
# Shear Modulus (GPa) = 14.71960 25.88576 20.30268
#
# Velocity S-wave (km/s) = 2.56385 3.39997 3.01107
# Velocity P-wave (km/s) = 3.95468 5.66509 4.88532
#
# Compressibility (1/GPa) = 0.06495496
#
# Stress axis : x y z
#
# Youngs Moduli (GPa) = 67.98638 45.45355 56.35454
#
# Poissons Ratio (x) = -0.07518 -0.13757
# Poissons Ratio (y) = -0.11244 -0.06511
# Poissons Ratio (z) = -0.16597 -0.05251
#
# Static dielectric constant tensor:
#      x y z
#    x 1.839820 0.000000 -0.039780 
#    y 0.000000 1.898730 0.000000 
#    z -0.039780 0.000000 1.852130 
# 
# From -- ./inp_files/337879.got.cif
#   From: 2010.05.17/outbox.cif.g08.bks.cpg/sg12_169_cif.got.tgz:337879.got - 2010.06.03 13:09:07.
