data_PCOD9195639
_publ_section_title
;
Structure prediction by ZEFSAII (Michael W. Deem and Ramdas Pophale) SiO2 
 PCOD9195639
Probable space group: C 2/M
;
_chemical_formula_sum "Si O2"
_cell_formula_units_Z 56
_cell_length_a 29.852599
_cell_length_b 7.623921
_cell_length_c 11.421015
_cell_angle_alpha 90.000000
_cell_angle_beta 114.705607
_cell_angle_gamma 90.000000
_cell_volume 2361.427013
_symmetry_space_group_name_H-M "C 2/M"
_symmetry_group_IT_number 12
_symmetry_cell_setting 'monoclinic'
loop_
_space_group_symop_operation_xyz
x,y,z
-x,y,-z
-x,-y,-z
x,-y,z
1/2+x,1/2+y,z
1/2-x,1/2+y,-z
1/2-x,1/2-y,-z
1/2+x,1/2-y,z
loop_
_atom_site_type_symbol
_atom_site_label
_atom_site_fract_x
_atom_site_fract_y
_atom_site_fract_z
Si Si1 0.046674 0.787800 0.833053
Si Si2 0.279254 0.791434 0.914424
Si Si3 0.662057 0.302498 0.367429
Si Si4 0.561027 0.798208 0.360146
Si Si5 0.697478 0.285046 0.645657
Si Si6 0.406689 0.711129 0.358869
Si Si7 0.374490 0.702142 0.911032
O O1 0.073827 0.724141 0.744340
O O2 0.989622 0.741778 0.760062
O O3 0.050352 0.000000 0.838778
O O4 0.076051 0.721873 0.979030
O O5 0.245257 0.729942 0.769290
O O6 0.332810 0.706220 0.965409
O O7 0.285610 0.000000 0.913554
O O8 0.250000 0.750000 0.000000
O O9 0.681015 0.500000 0.367761
O O10 0.607372 0.310193 0.364471
O O11 0.694007 0.222318 0.507663
O O12 0.651394 0.214554 0.230948
O O13 0.557616 0.762081 0.495020
O O14 0.574083 0.000000 0.357052
O O15 0.696838 0.500000 0.641883
O O16 0.648109 0.229902 0.662135
O O17 0.405444 0.500000 0.351971
O O18 0.385017 0.500000 0.889685
#
# Coordination Sequence:
#
# PCOD9195639 Si02
#       7
#     8   8   8   8   8   8   8
#     4  10  20  35  55  78 107 145 184 221 269 327
#     4  11  22  37  58  84 115 146 178 218 267 322
#     4   9  19  39  61  78 103 142 186 223 262 321
#     4  11  22  34  52  80 112 141 177 227 274 318
#     4   8  16  33  57  81 106 141 180 219 264 315
#     4   9  17  33  56  78 105 142 182 220 263 321
#     4  10  22  39  59  82 107 139 183 229 267 315
#
# _framework density 23.714476000000001
#
# number of rings (size 3 to 8) (size 9 to 14) (size 15 to 20)
#    0.000    2.286    0.000    3.857    0.000    6.857 
#    0.000   11.429    0.000    0.000    0.000    0.000 
#    0.000    0.000    0.000    0.000    0.000    0.000 
#
# Total GULP energy -156470.376244 kJ/mol
# GULP energy per Si atom -5588.227723 kJ/mol
# Density = 2.366050 g / cm^3
# Si number density = 23.714476 Si / 1000 Ang^3
#
#
#
# Elastic Constant Matrix: (Units=GPa)
#
#
# Indices 1 2 3 4 5 6 
#
# 1 40.2877 -5.1842 17.5353 0.0000 8.4679 0.0000
# 2 -5.1842 71.6301 4.2486 0.0000 -1.3957 0.0000
# 3 17.5353 4.2486 133.9441 0.0000 15.7559 0.0000
# 4 0.0000 0.0000 0.0000 -1.9589 0.0000 3.4939
# 5 8.4679 -1.3957 15.7559 0.0000 40.6806 0.0000
# 6 0.0000 0.0000 0.0000 3.4939 0.0000 8.6630
#
#
#
# Elastic Compliance Matrix: (Units=1/GPa)
#
#
# Indices 1 2 3 4 5 6 
#
# 1 0.027380 0.002081 -0.003131 0.000000 -0.004415 0.000000
# 2 0.002081 0.014163 -0.000763 0.000000 0.000348 0.000000
# 3 -0.003131 -0.000763 0.008200 0.000000 -0.002550 0.000000
# 4 0.000000 0.000000 0.000000 -0.296913 0.000000 0.119749
# 5 -0.004415 0.000348 -0.002550 0.000000 0.026500 0.000000
# 6 0.000000 0.000000 0.000000 0.119749 0.000000 0.067137
#
#
# Mechanical properties :
#
#
# Convention : Reuss Voigt Hill
#
# Bulk Modulus (GPa) = 21.68335 31.00681 26.34508
# Shear Modulus (GPa) = -37.16504 24.76109 -6.20197
#
# Velocity S-wave (km/s) = -3.96307 3.23481 -1.61893
# Velocity P-wave (km/s) = 3.43189 5.20149 2.76384
#
# Compressibility (1/GPa) = 0.04611834
#
# Stress axis : x y z
#
# Youngs Moduli (GPa) = 36.52280 70.60516 121.95270
#
# Poissons Ratio (x) = -0.14695 0.38185
# Poissons Ratio (y) = -0.07602 0.09301
# Poissons Ratio (z) = 0.11436 0.05385
#
# Static dielectric constant tensor:
#      x y z
#    x 1.875240 0.000000 -0.028360 
#    y 0.000000 1.931740 0.000000 
#    z -0.028360 0.000000 1.942290 
# 
# From -- ./inp_files/187767.got.cif
#   From: 2010.05.17/outbox.cif.g08.bks.cpg/sg12_94_cif.got.tgz:187767.got - 2010.06.03 13:09:07.
