data_PCOD9195934
_publ_section_title
;
Structure prediction by ZEFSAII (Michael W. Deem and Ramdas Pophale) SiO2 
 PCOD9195934
Probable space group: C 2/M
;
_chemical_formula_sum "Si O2"
_cell_formula_units_Z 48
_cell_length_a 18.946957
_cell_length_b 7.490741
_cell_length_c 21.046935
_cell_angle_alpha 90.000000
_cell_angle_beta 132.031134
_cell_angle_gamma 90.000000
_cell_volume 2218.778580
_symmetry_space_group_name_H-M "C 2/M"
_symmetry_group_IT_number 12
_symmetry_cell_setting 'monoclinic'
loop_
_space_group_symop_operation_xyz
x,y,z
-x,y,-z
-x,-y,-z
x,-y,z
1/2+x,1/2+y,z
1/2-x,1/2+y,-z
1/2-x,1/2-y,-z
1/2+x,1/2-y,z
loop_
_atom_site_type_symbol
_atom_site_label
_atom_site_fract_x
_atom_site_fract_y
_atom_site_fract_z
Si Si1 0.225513 0.713787 0.912336
Si Si2 0.515506 0.782612 0.407754
Si Si3 0.486797 0.781123 0.247370
Si Si4 0.364345 0.206885 0.767881
Si Si5 0.346927 0.784105 0.398918
Si Si6 0.895431 0.204920 0.929140
O O1 0.221300 0.500000 0.900241
O O2 0.120424 0.779079 0.831459
O O3 0.309842 0.785449 0.918548
O O4 0.250000 0.750000 0.000000
O O5 0.517461 0.723691 0.336343
O O6 0.418483 0.729237 0.385364
O O7 0.602849 0.726573 0.505227
O O8 0.515838 0.000000 0.407962
O O9 0.559060 0.721816 0.236201
O O10 0.488381 0.000000 0.248161
O O11 0.259097 0.219612 0.675779
O O12 0.368463 0.295970 0.839054
O O13 0.387498 0.000000 0.793316
O O14 0.344364 0.000000 0.397099
O O15 0.904419 0.000000 0.957685
O O16 0.000000 0.287199 0.000000
#
# Coordination Sequence:
#
# PCOD9195934 Si02
#       6
#     8   8   8   8   8   8
#     4  10  20  35  56  78 102 133 167 207 253 301
#     4   8  15  31  55  77  97 130 176 216 252 302
#     4   9  18  32  49  72 103 137 171 205 248 305
#     4  11  22  33  49  75 107 140 169 204 254 308
#     4   9  17  32  56  79  98 129 174 218 256 299
#     4  10  21  37  57  79 102 131 171 217 257 295
#
# _framework density 21.633523
#
# number of rings (size 3 to 8) (size 9 to 14) (size 15 to 20)
#    0.000    2.500    0.000    3.500    0.000    4.333 
#    0.000    2.500    0.000    4.000    0.000    0.000 
#    0.000    0.000    0.000    0.000    0.000    0.000 
#
# Total GULP energy -134074.756271 kJ/mol
# GULP energy per Si atom -5586.448178 kJ/mol
# Density = 2.158428 g / cm^3
# Si number density = 21.633523 Si / 1000 Ang^3
#
#
#
# Elastic Constant Matrix: (Units=GPa)
#
#
# Indices 1 2 3 4 5 6 
#
# 1 200.0758 -1.1083 111.0077 0.0000 1.4622 0.0000
# 2 -1.1083 58.0444 -11.1725 0.0000 2.1127 0.0000
# 3 111.0077 -11.1725 144.1721 0.0000 3.3837 0.0000
# 4 0.0000 0.0000 0.0000 7.0379 0.0000 13.2415
# 5 1.4622 2.1127 3.3837 0.0000 44.1845 0.0000
# 6 0.0000 0.0000 0.0000 13.2415 0.0000 -13.5566
#
#
#
# Elastic Compliance Matrix: (Units=1/GPa)
#
#
# Indices 1 2 3 4 5 6 
#
# 1 0.008805 -0.001166 -0.006877 0.000000 0.000291 0.000000
# 2 -0.001166 0.017683 0.002291 0.000000 -0.000982 0.000000
# 3 -0.006877 0.002291 0.012428 0.000000 -0.000834 0.000000
# 4 0.000000 0.000000 0.000000 0.050071 0.000000 0.048907
# 5 0.000291 -0.000982 -0.000834 0.000000 0.022734 0.000000
# 6 0.000000 0.000000 0.000000 0.048907 0.000000 -0.025994
#
#
# Mechanical properties :
#
#
# Convention : Reuss Voigt Hill
#
# Bulk Modulus (GPa) = 36.47963 66.63847 51.55905
# Shear Modulus (GPa) = 47.00732 27.77085 37.38909
#
# Velocity S-wave (km/s) = 4.66649 3.58676 4.16179
# Velocity P-wave (km/s) = 6.77746 6.92989 6.85410
#
# Compressibility (1/GPa) = 0.02741256
#
# Stress axis : x y z
#
# Youngs Moduli (GPa) = 113.57323 56.55249 80.46289
#
# Poissons Ratio (x) = 0.06595 0.55332
# Poissons Ratio (y) = 0.13244 -0.18436
# Poissons Ratio (z) = 0.78101 -0.12957
#
# Static dielectric constant tensor:
#      x y z
#    x 1.760610 0.000000 0.009220 
#    y 0.000000 1.894460 0.000000 
#    z 0.009220 0.000000 1.739350 
# 
# From -- ./inp_files/250733.got.cif
#   From: 2010.05.17/outbox.cif.g08.bks.cpg/sg12_126_cif.got.tgz:250733.got - 2010.06.03 13:09:07.
