data_PCOD9195386
_publ_section_title
;
Structure prediction by ZEFSAII (Michael W. Deem and Ramdas Pophale) SiO2 
 PCOD9195386
Probable space group: C 2/M
;
_chemical_formula_sum "Si O2"
_cell_formula_units_Z 56
_cell_length_a 15.086593
_cell_length_b 27.859445
_cell_length_c 16.119402
_cell_angle_alpha 90.000000
_cell_angle_beta 150.885871
_cell_angle_gamma 90.000000
_cell_volume 3296.406667
_symmetry_space_group_name_H-M "C 2/M"
_symmetry_group_IT_number 12
_symmetry_cell_setting 'monoclinic'
loop_
_space_group_symop_operation_xyz
x,y,z
-x,y,-z
-x,-y,-z
x,-y,z
1/2+x,1/2+y,z
1/2-x,1/2+y,-z
1/2-x,1/2-y,-z
1/2+x,1/2-y,z
loop_
_atom_site_type_symbol
_atom_site_label
_atom_site_fract_x
_atom_site_fract_y
_atom_site_fract_z
Si Si1 0.695515 0.768200 0.823875
Si Si2 0.567563 0.555053 0.196103
Si Si3 0.865651 0.847247 0.649212
Si Si4 0.208721 0.446910 0.790959
Si Si5 0.022335 0.746155 0.188584
Si Si6 0.469330 0.146887 0.377302
Si Si7 0.083592 0.194793 0.484574
O O1 0.592530 0.774810 0.827881
O O2 0.700811 0.819610 0.784269
O O3 0.561195 0.735889 0.659381
O O4 0.889047 0.744318 0.000775
O O5 0.586772 0.500000 0.245164
O O6 0.594021 0.600504 0.278393
O O7 0.706536 0.559321 0.231953
O O8 0.370906 0.557608 0.990090
O O9 0.958695 0.802897 0.774073
O O10 0.653116 0.835141 0.486128
O O11 0.910718 0.840914 0.589179
O O12 0.130518 0.500000 0.732382
O O13 0.063733 0.405932 0.683137
O O14 0.217517 0.719959 0.341595
O O15 0.500000 0.146870 0.500000
O O16 0.000000 0.173162 0.500000
#
# Coordination Sequence:
#
# PCOD9195386 Si02
#       7
#     8   8   8   8   8   8   8
#     4  10  20  35  54  76 102 140 175 219 265 310
#     4   9  18  34  52  73 104 138 172 210 259 320
#     4  11  20  35  52  76 106 135 178 218 255 313
#     4   9  19  32  48  76 108 137 170 207 255 323
#     4  10  20  36  55  74 104 138 177 220 262 309
#     4  12  20  30  49  75 108 140 171 212 258 311
#     4  11  22  38  53  74 107 141 183 224 262 302
#
# _framework density 16.988195000000001
#
# number of rings (size 3 to 8) (size 9 to 14) (size 15 to 20)
#    0.000    1.714    4.286    3.000    0.000    1.429 
#    0.000    0.000    0.000    0.429    0.000    0.000 
#    0.000    2.286    0.000    0.000    0.000    0.000 
#
# Total GULP energy -156137.262290 kJ/mol
# GULP energy per Si atom -5576.330796 kJ/mol
# Density = 1.694953 g / cm^3
# Si number density = 16.988195 Si / 1000 Ang^3
#
#
#
# Elastic Constant Matrix: (Units=GPa)
#
#
# Indices 1 2 3 4 5 6 
#
# 1 41.1160 3.2612 12.4827 0.0000 -3.8898 0.0000
# 2 3.2612 82.4402 33.6972 0.0000 -10.6851 0.0000
# 3 12.4827 33.6972 83.9682 -0.0001 1.6614 0.0000
# 4 0.0000 0.0000 -0.0001 18.1954 0.0000 -4.6785
# 5 -3.8898 -10.6851 1.6614 0.0000 12.5125 0.0000
# 6 0.0000 0.0000 0.0000 -4.6785 0.0000 20.1135
#
#
#
# Elastic Compliance Matrix: (Units=1/GPa)
#
#
# Indices 1 2 3 4 5 6 
#
# 1 0.026759 0.002517 -0.005209 0.000000 0.011160 0.000000
# 2 0.002517 0.017304 -0.007646 0.000000 0.016575 0.000000
# 3 -0.005209 -0.007646 0.015955 0.000000 -0.010268 0.000000
# 4 0.000000 0.000000 0.000000 0.058455 0.000000 0.013597
# 5 0.011160 0.016575 -0.010268 0.000000 0.098907 0.000000
# 6 0.000000 0.000000 0.000000 0.013597 0.000000 0.052881
#
#
# Mechanical properties :
#
#
# Convention : Reuss Voigt Hill
#
# Bulk Modulus (GPa) = 25.41827 34.04520 29.73173
# Shear Modulus (GPa) = 16.44456 20.70315 18.57385
#
# Velocity S-wave (km/s) = 3.11464 3.49474 3.31015
# Velocity P-wave (km/s) = 5.28483 6.03062 5.67000
#
# Compressibility (1/GPa) = 0.03934178
#
# Stress axis : x y z
#
# Youngs Moduli (GPa) = 37.37064 57.78963 62.67483
#
# Poissons Ratio (x) = -0.14545 0.32647
# Poissons Ratio (y) = -0.09406 0.47924
# Poissons Ratio (z) = 0.19466 0.44189
#
# Static dielectric constant tensor:
#      x y z
#    x 1.587050 0.000000 0.003460 
#    y 0.000000 1.577080 0.000000 
#    z 0.003460 0.000000 1.630680 
# 
# From -- ./inp_files/219157.got.cif
#   From: 2010.05.17/outbox.cif.g08.bks.cpg/sg12_110_cif.got.tgz:219157.got - 2010.06.03 13:09:07.
