data_PCOD9195770
_publ_section_title
;
Structure prediction by ZEFSAII (Michael W. Deem and Ramdas Pophale) SiO2 
 PCOD9195770
Probable space group: C 2/M
;
_chemical_formula_sum "Si O2"
_cell_formula_units_Z 48
_cell_length_a 17.035756
_cell_length_b 7.640248
_cell_length_c 15.083826
_cell_angle_alpha 90.000000
_cell_angle_beta 89.948758
_cell_angle_gamma 90.000000
_cell_volume 1963.270800
_symmetry_space_group_name_H-M "C 2/M"
_symmetry_group_IT_number 12
_symmetry_cell_setting 'monoclinic'
loop_
_space_group_symop_operation_xyz
x,y,z
-x,y,-z
-x,-y,-z
x,-y,z
1/2+x,1/2+y,z
1/2-x,1/2+y,-z
1/2-x,1/2-y,-z
1/2+x,1/2-y,z
loop_
_atom_site_type_symbol
_atom_site_label
_atom_site_fract_x
_atom_site_fract_y
_atom_site_fract_z
Si Si1 0.917906 0.288578 0.957042
Si Si2 0.829086 0.285061 0.125808
Si Si3 0.077054 0.300163 0.709441
Si Si4 0.830640 0.794633 0.788296
Si Si5 0.667880 0.708409 0.547403
Si Si6 0.416818 0.294291 0.620431
O O1 0.918041 0.500000 0.952207
O O2 0.900294 0.221381 0.859471
O O3 0.850963 0.230605 0.026759
O O4 0.000000 0.234446 0.000000
O O5 0.828897 0.500000 0.125831
O O6 0.895518 0.228248 0.196158
O O7 0.746479 0.220918 0.164218
O O8 0.053720 0.500000 0.724555
O O9 0.151164 0.292141 0.642580
O O10 0.004251 0.217478 0.658108
O O11 0.858723 0.717413 0.695123
O O12 0.815245 0.000000 0.773778
O O13 0.662011 0.500000 0.561343
O O14 0.750000 0.750000 0.500000
O O15 0.602046 0.774103 0.477221
O O16 0.398731 0.500000 0.613079
#
# Coordination Sequence:
#
# PCOD9195770 Si02
#       6
#     8   8   8   8   8   8
#     4  10  20  35  55  80 111 145 182 228 281 334
#     4   9  19  36  56  79 111 149 184 225 283 341
#     4  11  22  38  61  86 113 148 190 233 280 337
#     4  10  20  36  57  79 107 145 187 229 276 333
#     4  11  23  40  61  85 116 152 189 231 281 335
#     4  10  22  39  57  80 114 152 187 231 288 340
#
# _framework density 24.448996000000001
#
# number of rings (size 3 to 8) (size 9 to 14) (size 15 to 20)
#    0.000    1.833    0.000    4.000    0.000    8.333 
#    0.000    5.000    0.000    0.000    0.000    0.000 
#    0.000    0.000    0.000    0.000    0.000    0.000 
#
# Total GULP energy -134248.928808 kJ/mol
# GULP energy per Si atom -5593.705367 kJ/mol
# Density = 2.439335 g / cm^3
# Si number density = 24.448996 Si / 1000 Ang^3
#
#
#
# Elastic Constant Matrix: (Units=GPa)
#
#
# Indices 1 2 3 4 5 6 
#
# 1 57.9594 -8.9563 -17.9680 0.0000 -2.9564 0.0000
# 2 -8.9563 52.6775 -5.0419 0.0000 0.5369 0.0000
# 3 -17.9680 -5.0419 92.3118 0.0000 -1.3243 0.0000
# 4 0.0000 0.0000 0.0000 11.1314 0.0000 -0.3950
# 5 -2.9564 0.5369 -1.3243 0.0000 42.2179 0.0000
# 6 0.0000 0.0000 0.0000 -0.3950 0.0000 5.7484
#
#
#
# Elastic Compliance Matrix: (Units=1/GPa)
#
#
# Indices 1 2 3 4 5 6 
#
# 1 0.019104 0.003610 0.003936 0.000000 0.001415 0.000000
# 2 0.003610 0.019767 0.001783 0.000000 0.000057 0.000000
# 3 0.003936 0.001783 0.011705 0.000000 0.000620 0.000000
# 4 0.000000 0.000000 0.000000 0.090056 0.000000 0.006188
# 5 0.001415 0.000057 0.000620 0.000000 0.023804 0.000000
# 6 0.000000 0.000000 0.000000 0.006188 0.000000 0.174388
#
#
# Mechanical properties :
#
#
# Convention : Reuss Voigt Hill
#
# Bulk Modulus (GPa) = 14.44348 15.44623 14.94485
# Shear Modulus (GPa) = 14.56692 27.48052 21.02372
#
# Velocity S-wave (km/s) = 2.44357 3.35624 2.93559
# Velocity P-wave (km/s) = 3.72583 4.62067 4.19716
#
# Compressibility (1/GPa) = 0.06923541
#
# Stress axis : x y z
#
# Youngs Moduli (GPa) = 52.34577 50.58842 85.43172
#
# Poissons Ratio (x) = -0.18264 -0.33625
# Poissons Ratio (y) = -0.18899 -0.15234
# Poissons Ratio (z) = -0.20603 -0.09021
#
# Static dielectric constant tensor:
#      x y z
#    x 1.976530 0.000000 -0.006900 
#    y 0.000000 1.915970 0.000000 
#    z -0.006900 0.000000 1.913080 
# 
# From -- ./inp_files/221592.got.cif
#   From: 2010.05.17/outbox.cif.g08.bks.cpg/sg12_111_cif.got.tgz:221592.got - 2010.06.03 13:09:07.
