data_PCOD9195909
_publ_section_title
;
Structure prediction by ZEFSAII (Michael W. Deem and Ramdas Pophale) SiO2 
 PCOD9195909
Probable space group: C 2/M
;
_chemical_formula_sum "Si O2"
_cell_formula_units_Z 58
_cell_length_a 23.834195
_cell_length_b 7.550782
_cell_length_c 12.603524
_cell_angle_alpha 90.000000
_cell_angle_beta 106.593742
_cell_angle_gamma 90.000000
_cell_volume 2173.753376
_symmetry_space_group_name_H-M "C 2/M"
_symmetry_group_IT_number 12
_symmetry_cell_setting 'monoclinic'
loop_
_space_group_symop_operation_xyz
x,y,z
-x,y,-z
-x,-y,-z
x,-y,z
1/2+x,1/2+y,z
1/2-x,1/2+y,-z
1/2-x,1/2-y,-z
1/2+x,1/2-y,z
loop_
_atom_site_type_symbol
_atom_site_label
_atom_site_fract_x
_atom_site_fract_y
_atom_site_fract_z
Si Si1 0.500000 0.500000 0.000000
Si Si2 0.047752 0.213524 0.617235
Si Si3 0.863714 0.701890 0.498630
Si Si4 0.760609 0.706230 0.326921
Si Si5 0.544797 0.701537 0.277916
Si Si6 0.407989 0.781614 0.047988
Si Si7 0.201246 0.288024 0.883575
Si Si8 0.144088 0.695781 0.194635
O O1 0.463127 0.658944 0.047797
O O2 0.106368 0.294776 0.602540
O O3 0.000000 0.257347 0.500000
O O4 0.016141 0.272183 0.708769
O O5 0.052513 0.000000 0.625223
O O6 0.861568 0.500000 0.539216
O O7 0.800307 0.783890 0.441931
O O8 0.909413 0.799526 0.598846
O O9 0.776975 0.500000 0.338111
O O10 0.777290 0.778450 0.219500
O O11 0.690744 0.712299 0.295029
O O12 0.540145 0.500000 0.237458
O O13 0.579524 0.804472 0.208237
O O14 0.363944 0.732388 0.926258
O O15 0.417682 0.000000 0.050152
O O16 0.365279 0.732272 0.123009
O O17 0.198643 0.500000 0.876703
O O18 0.250000 0.250000 0.000000
O O19 0.166900 0.500000 0.198532
#
# Coordination Sequence:
#
# PCOD9195909 Si02
#       8
#     2   8   8   8   8   8   8   8
#     4  12  26  44  76  94 136 190 214 266 346 390
#     4   8  16  33  54  77 107 148 196 248 299 358
#     4  10  20  35  55  86 120 154 199 257 313 366
#     4  10  22  38  60  88 122 160 204 256 319 387
#     4  10  21  37  59  82 116 163 211 250 304 379
#     4  10  24  45  67 101 137 170 223 273 322 399
#     4  10  20  38  66  93 124 162 210 271 324 388
#     4  11  23  39  61  90 122 161 206 262 314 374
#
# _framework density 26.681958999999999
#
# number of rings (size 3 to 8) (size 9 to 14) (size 15 to 20)
#    0.000    2.069    1.379    2.276    2.897    4.690 
#    2.483    0.000    0.000    0.000    0.000    0.000 
#    0.000    0.000    0.000    0.000    0.000    0.000 
#
# Total GULP energy -161849.724082 kJ/mol
# GULP energy per Si atom -5581.024968 kJ/mol
# Density = 2.662123 g / cm^3
# Si number density = 26.681959 Si / 1000 Ang^3
#
#
#
# Elastic Constant Matrix: (Units=GPa)
#
#
# Indices 1 2 3 4 5 6 
#
# 1 154.4192 26.0541 27.0610 0.0000 -3.5304 0.0000
# 2 26.0541 95.5206 0.2010 0.0000 9.5790 0.0000
# 3 27.0610 0.2010 50.9193 0.0000 13.6868 0.0000
# 4 0.0000 0.0000 0.0000 21.5530 0.0000 -2.3047
# 5 -3.5304 9.5790 13.6868 0.0000 59.9875 0.0000
# 6 0.0000 0.0000 0.0000 -2.3047 0.0000 34.0538
#
#
#
# Elastic Compliance Matrix: (Units=1/GPa)
#
#
# Indices 1 2 3 4 5 6 
#
# 1 0.007707 -0.002280 -0.004588 0.000000 0.001864 0.000000
# 2 -0.002280 0.011323 0.001799 0.000000 -0.002353 0.000000
# 3 -0.004588 0.001799 0.023672 0.000000 -0.005958 0.000000
# 4 0.000000 0.000000 0.000000 0.046735 0.000000 0.003163
# 5 0.001864 -0.002353 -0.005958 0.000000 0.018515 0.000000
# 6 0.000000 0.000000 0.000000 0.003163 0.000000 0.029579
#
#
# Mechanical properties :
#
#
# Convention : Reuss Voigt Hill
#
# Bulk Modulus (GPa) = 30.70801 45.27680 37.99241
# Shear Modulus (GPa) = 31.54110 39.62174 35.58142
#
# Velocity S-wave (km/s) = 3.44192 3.85770 3.65573
# Velocity P-wave (km/s) = 5.22777 6.07029 5.66472
#
# Compressibility (1/GPa) = 0.03256479
#
# Stress axis : x y z
#
# Youngs Moduli (GPa) = 129.74978 88.31699 42.24452
#
# Poissons Ratio (x) = 0.20132 0.19382
# Poissons Ratio (y) = 0.29577 -0.07600
# Poissons Ratio (z) = 0.59530 -0.15889
#
# Static dielectric constant tensor:
#      x y z
#    x 2.148310 0.000000 0.029140 
#    y 0.000000 1.998800 0.000000 
#    z 0.029140 0.000000 2.219900 
# 
# From -- ./inp_files/237717.got.cif
#   From: 2010.05.17/outbox.cif.g08.bks.cpg/sg12_119_cif.got.tgz:237717.got - 2010.06.03 13:09:07.
