data_PCOD9195164
_publ_section_title
;
Structure prediction by ZEFSAII (Michael W. Deem and Ramdas Pophale) SiO2 
 PCOD9195164
Probable space group: C 2/M
;
_chemical_formula_sum "Si O2"
_cell_formula_units_Z 56
_cell_length_a 20.199809
_cell_length_b 7.479699
_cell_length_c 19.287269
_cell_angle_alpha 90.000000
_cell_angle_beta 64.146055
_cell_angle_gamma 90.000000
_cell_volume 2622.409572
_symmetry_space_group_name_H-M "C 2/M"
_symmetry_group_IT_number 12
_symmetry_cell_setting 'monoclinic'
loop_
_space_group_symop_operation_xyz
x,y,z
-x,y,-z
-x,-y,-z
x,-y,z
1/2+x,1/2+y,z
1/2-x,1/2+y,-z
1/2-x,1/2-y,-z
1/2+x,1/2-y,z
loop_
_atom_site_type_symbol
_atom_site_label
_atom_site_fract_x
_atom_site_fract_y
_atom_site_fract_z
Si Si1 0.141711 0.707010 0.236953
Si Si2 0.519734 0.780799 0.189899
Si Si3 0.367133 0.215256 0.316400
Si Si4 0.664861 0.786538 0.520427
Si Si5 0.431923 0.218440 0.984225
Si Si6 0.801910 0.714055 0.642897
Si Si7 0.731463 0.787363 0.928105
O O1 0.123331 0.500000 0.259005
O O2 0.071400 0.783059 0.228916
O O3 0.167281 0.785656 0.298644
O O4 0.208796 0.710862 0.151682
O O5 0.435637 0.724114 0.239173
O O6 0.553764 0.724864 0.101225
O O7 0.521188 0.000000 0.188871
O O8 0.375953 0.281021 0.392082
O O9 0.285870 0.257816 0.325428
O O10 0.370329 0.000000 0.317388
O O11 0.750000 0.750000 0.500000
O O12 0.657688 0.716709 0.445308
O O13 0.652774 0.000000 0.523197
O O14 0.430846 0.000000 0.985379
O O15 0.500000 0.275948 0.000000
O O16 0.351802 0.277079 0.046295
O O17 0.811219 0.500000 0.638673
O O18 0.733237 0.000000 0.917364
O O19 0.750000 0.750000 0.000000
#
# Coordination Sequence:
#
# PCOD9195164 Si02
#       7
#     8   8   8   8   8   8   8
#     4  10  20  35  51  70  99 134 165 197 242 294
#     4   9  17  31  48  68  97 130 161 199 245 287
#     4   9  17  29  51  75  96 124 167 210 239 282
#     4   8  14  27  45  70  97 125 159 198 243 289
#     4   9  18  31  49  72  96 124 158 196 240 287
#     4   9  18  31  49  71 101 132 159 197 250 298
#     4  11  21  35  56  76  97 129 165 201 241 289
#
# _framework density 21.354406000000001
#
# number of rings (size 3 to 8) (size 9 to 14) (size 15 to 20)
#    0.000    2.714    1.429    0.429    2.000    0.571 
#    0.000    1.429    0.000    6.000    0.000    0.000 
#    0.000   12.571    0.000    0.000    0.000    0.000 
#
# Total GULP energy -156169.234609 kJ/mol
# GULP energy per Si atom -5577.472665 kJ/mol
# Density = 2.130580 g / cm^3
# Si number density = 21.354406 Si / 1000 Ang^3
#
#
#
# Elastic Constant Matrix: (Units=GPa)
#
#
# Indices 1 2 3 4 5 6 
#
# 1 89.2236 -0.3912 -3.5208 0.0002 23.0359 0.0007
# 2 -0.3912 63.2410 -3.6919 0.0007 1.2226 0.0022
# 3 -3.5208 -3.6919 26.6908 0.0000 20.4865 -0.0002
# 4 0.0002 0.0007 0.0000 8.3768 0.0000 -1.8251
# 5 23.0359 1.2226 20.4865 0.0000 40.7729 0.0002
# 6 0.0007 0.0022 -0.0002 -1.8251 0.0002 7.0838
#
#
#
# Elastic Compliance Matrix: (Units=1/GPa)
#
#
# Indices 1 2 3 4 5 6 
#
# 1 0.016155 0.001313 0.015217 -0.000001 -0.016812 -0.000001
# 2 0.001313 0.016217 0.005468 -0.000003 -0.003976 -0.000006
# 3 0.015217 0.005468 0.076430 -0.000001 -0.047163 0.000000
# 4 -0.000001 -0.000003 -0.000001 0.126477 0.000001 0.032585
# 5 -0.016812 -0.003976 -0.047163 0.000001 0.057841 0.000000
# 6 -0.000001 -0.000006 0.000000 0.032585 0.000000 0.149562
#
#
# Mechanical properties :
#
#
# Convention : Reuss Voigt Hill
#
# Bulk Modulus (GPa) = 6.54466 18.21641 12.38053
# Shear Modulus (GPa) = 11.12055 23.69733 17.40894
#
# Velocity S-wave (km/s) = 2.28450 3.33485 2.85834
# Velocity P-wave (km/s) = 3.16702 4.83501 4.08701
#
# Compressibility (1/GPa) = 0.15279643
#
# Stress axis : x y z
#
# Youngs Moduli (GPa) = 61.90200 61.66484 13.08389
#
# Poissons Ratio (x) = -0.08098 -0.19909
# Poissons Ratio (y) = -0.08129 -0.07154
# Poissons Ratio (z) = -0.94194 -0.33717
#
# Static dielectric constant tensor:
#      x y z
#    x 1.746070 0.000000 0.036700 
#    y 0.000000 1.935850 0.000010 
#    z 0.036700 0.000010 1.725340 
# 
# From -- ./inp_files/313715.got.cif
#   From: 2010.05.17/outbox.cif.g08.bks.cpg/sg12_157_cif.got.tgz:313715.got - 2010.06.03 13:09:07.
