data_PCOD9195261
_publ_section_title
;
Structure prediction by ZEFSAII (Michael W. Deem and Ramdas Pophale) SiO2 
 PCOD9195261
Probable space group: C 2/M
;
_chemical_formula_sum "Si O2"
_cell_formula_units_Z 64
_cell_length_a 14.848759
_cell_length_b 7.769871
_cell_length_c 26.377225
_cell_angle_alpha 90.000000
_cell_angle_beta 114.752836
_cell_angle_gamma 90.000000
_cell_volume 2763.614630
_symmetry_space_group_name_H-M "C 2/M"
_symmetry_group_IT_number 12
_symmetry_cell_setting 'monoclinic'
loop_
_space_group_symop_operation_xyz
x,y,z
-x,y,-z
-x,-y,-z
x,-y,z
1/2+x,1/2+y,z
1/2-x,1/2+y,-z
1/2-x,1/2-y,-z
1/2+x,1/2-y,z
loop_
_atom_site_type_symbol
_atom_site_label
_atom_site_fract_x
_atom_site_fract_y
_atom_site_fract_z
Si Si1 0.038669 0.298963 0.250264
Si Si2 0.752881 0.300974 0.302021
Si Si3 0.816339 0.791710 0.094767
Si Si4 0.139828 0.706206 0.492101
Si Si5 0.329986 0.697585 0.215797
Si Si6 0.469477 0.200936 0.864803
Si Si7 0.897058 0.289050 0.951793
Si Si8 0.429894 0.789505 0.411842
O O1 0.011807 0.500000 0.242010
O O2 0.150436 0.283442 0.295522
O O3 0.946954 0.211353 0.256391
O O4 0.040480 0.222442 0.193387
O O5 0.744118 0.500000 0.313764
O O6 0.768291 0.285869 0.245338
O O7 0.851871 0.228944 0.351575
O O8 0.821311 0.739903 0.155717
O O9 0.914710 0.716828 0.092782
O O10 0.708236 0.735545 0.050119
O O11 0.823317 0.000000 0.094081
O O12 0.134695 0.500000 0.490886
O O13 0.250000 0.750000 0.500000
O O14 0.115165 0.759922 0.543973
O O15 0.044684 0.768356 0.436878
O O16 0.297966 0.500000 0.207769
O O17 0.403366 0.268662 0.894663
O O18 0.445013 0.000000 0.853861
O O19 0.897943 0.500000 0.952628
O O20 0.000000 0.230069 0.000000
O O21 0.432142 0.000000 0.409763
#
# Coordination Sequence:
#
# PCOD9195261 Si02
#       8
#     8   8   8   8   8   8   8   8
#     4  10  20  35  53  75 103 137 175 212 253 304
#     4  11  21  34  53  79 109 139 170 210 257 302
#     4   9  18  33  52  72  96 128 166 205 246 296
#     4   9  17  35  58  76  98 133 171 207 248 294
#     4  10  20  35  53  75 103 137 175 212 253 304
#     4   9  18  33  52  72  96 128 166 205 246 296
#     4   9  17  30  49  72  97 127 161 198 247 304
#     4   8  18  35  53  74 104 137 167 201 249 304
#
# _framework density 23.158079000000001
#
# number of rings (size 3 to 8) (size 9 to 14) (size 15 to 20)
#    0.000    2.625    0.000    2.625    0.000    4.500 
#    0.000    6.875    0.000    0.750    0.000    0.000 
#    0.000    0.000    0.000    0.000    0.000    0.000 
#
# Total GULP energy -178628.227847 kJ/mol
# GULP energy per Si atom -5582.132120 kJ/mol
# Density = 2.310537 g / cm^3
# Si number density = 23.158079 Si / 1000 Ang^3
#
#
#
# Elastic Constant Matrix: (Units=GPa)
#
#
# Indices 1 2 3 4 5 6 
#
# 1 153.7377 -0.7352 23.4830 0.0000 38.6346 0.0000
# 2 -0.7352 36.6085 -1.3390 0.0000 1.7859 0.0000
# 3 23.4830 -1.3390 47.5872 0.0000 24.2612 0.0000
# 4 0.0000 0.0000 0.0000 10.3233 0.0000 6.1185
# 5 38.6346 1.7859 24.2612 0.0000 31.5212 0.0000
# 6 0.0000 0.0000 0.0000 6.1185 0.0000 25.0697
#
#
#
# Elastic Compliance Matrix: (Units=1/GPa)
#
#
# Indices 1 2 3 4 5 6 
#
# 1 0.009552 0.000925 0.002153 0.000000 -0.013417 0.000000
# 2 0.000925 0.027674 0.002797 0.000000 -0.004855 0.000000
# 3 0.002153 0.002797 0.035314 0.000000 -0.029977 0.000000
# 4 0.000000 0.000000 0.000000 0.113250 0.000000 -0.027640
# 5 -0.013417 -0.004855 -0.029977 0.000000 0.071517 0.000000
# 6 0.000000 0.000000 0.000000 -0.027640 0.000000 0.046634
#
#
# Mechanical properties :
#
#
# Convention : Reuss Voigt Hill
#
# Bulk Modulus (GPa) = 11.86395 31.19455 21.52925
# Shear Modulus (GPa) = 15.61099 27.81781 21.71440
#
# Velocity S-wave (km/s) = 2.59917 3.46961 3.06545
# Velocity P-wave (km/s) = 3.76055 5.43603 4.67398
#
# Compressibility (1/GPa) = 0.08428898
#
# Stress axis : x y z
#
# Youngs Moduli (GPa) = 104.69217 36.13526 28.31771
#
# Poissons Ratio (x) = -0.03343 -0.06096
# Poissons Ratio (y) = -0.09685 -0.07921
# Poissons Ratio (z) = -0.22536 -0.10108
#
# Static dielectric constant tensor:
#      x y z
#    x 1.855140 0.000000 0.045800 
#    y 0.000000 1.836290 0.000000 
#    z 0.045800 0.000000 1.940490 
# 
# From -- ./inp_files/375120.got.cif
#   From: 2010.05.17/outbox.cif.g08.bks.cpg/sg12_188_cif.got.tgz:375120.got - 2010.06.03 13:09:07.
