data_PCOD9195106
_publ_section_title
;
Structure prediction by ZEFSAII (Michael W. Deem and Ramdas Pophale) SiO2 
 PCOD9195106
Probable space group: C 2/M
;
_chemical_formula_sum "Si O2"
_cell_formula_units_Z 40
_cell_length_a 16.219999
_cell_length_b 10.713641
_cell_length_c 10.157498
_cell_angle_alpha 90.000000
_cell_angle_beta 118.935667
_cell_angle_gamma 90.000000
_cell_volume 1544.770119
_symmetry_space_group_name_H-M "C 2/M"
_symmetry_group_IT_number 12
_symmetry_cell_setting 'monoclinic'
loop_
_space_group_symop_operation_xyz
x,y,z
-x,y,-z
-x,-y,-z
x,-y,z
1/2+x,1/2+y,z
1/2-x,1/2+y,-z
1/2-x,1/2-y,-z
1/2+x,1/2-y,z
loop_
_atom_site_type_symbol
_atom_site_label
_atom_site_fract_x
_atom_site_fract_y
_atom_site_fract_z
Si Si1 0.838458 0.000000 0.103282
Si Si2 0.183700 0.227363 0.317538
Si Si3 0.810905 0.500000 0.342214
Si Si4 0.000000 0.782325 0.500000
Si Si5 0.465798 0.740314 0.181858
Si Si6 0.865074 0.000000 0.434979
Si Si7 0.383844 0.000000 0.117643
Si Si8 0.322957 0.000000 0.640481
O O1 0.894160 0.125465 0.102220
O O2 0.841155 0.000000 0.263769
O O3 0.728639 0.000000 0.989407
O O4 0.250000 0.250000 0.500000
O O5 0.245315 0.125305 0.287056
O O6 0.170623 0.374744 0.270709
O O7 0.072224 0.194797 0.231991
O O8 0.881117 0.500000 0.275352
O O9 0.866931 0.500000 0.528256
O O10 0.964613 0.727668 0.337677
O O11 0.921392 0.874999 0.494136
O O12 0.432588 0.873865 0.100086
O O13 0.787148 0.000000 0.484723
#
# Coordination Sequence:
#
# PCOD9195106 Si02
#       8
#     4   8   4   4   8   4   4   4
#     4  10  24  46  69  84 126 187 235 256 300 401
#     4  10  21  38  60  93 134 168 200 262 340 406
#     4  10  23  38  62  94 137 168 206 267 341 392
#     4   9  18  31  60  94 118 150 208 270 328 372
#     4  11  23  40  67  95 132 167 224 270 327 396
#     4   9  18  35  63  91 116 166 219 264 299 390
#     4  12  27  42  65 101 135 174 220 283 327 367
#     4  10  20  34  62  89 128 162 206 253 337 390
#
# _framework density 25.893820999999999
#
# number of rings (size 3 to 8) (size 9 to 14) (size 15 to 20)
#    0.000    1.800    0.000    4.800   11.200    0.400 
#    0.000    2.000    0.000    1.200    0.000    0.000 
#    0.000    0.000    0.000    0.000    0.000    0.000 
#
# Total GULP energy -111462.592166 kJ/mol
# GULP energy per Si atom -5573.129608 kJ/mol
# Density = 2.583489 g / cm^3
# Si number density = 25.893821 Si / 1000 Ang^3
#
#
#
# Elastic Constant Matrix: (Units=GPa)
#
#
# Indices 1 2 3 4 5 6 
#
# 1 93.4198 22.0238 7.3330 0.0000 28.9295 0.0000
# 2 22.0238 151.7119 35.2697 0.0000 9.6674 0.0000
# 3 7.3330 35.2697 41.5520 0.0000 10.6246 0.0000
# 4 0.0000 0.0000 0.0000 3.6630 0.0000 17.0214
# 5 28.9295 9.6674 10.6246 0.0000 35.3146 0.0000
# 6 0.0000 0.0000 0.0000 17.0214 0.0000 36.0545
#
#
#
# Elastic Compliance Matrix: (Units=1/GPa)
#
#
# Indices 1 2 3 4 5 6 
#
# 1 0.014758 -0.001850 0.002088 0.000000 -0.012212 0.000000
# 2 -0.001850 0.008445 -0.007191 0.000000 0.001367 0.000000
# 3 0.002088 -0.007191 0.032214 0.000000 -0.009434 0.000000
# 4 0.000000 0.000000 0.000000 -0.228688 0.000000 0.107964
# 5 -0.012212 0.001367 -0.009434 0.000000 0.040785 0.000000
# 6 0.000000 0.000000 0.000000 0.107964 0.000000 -0.023234
#
#
# Mechanical properties :
#
#
# Convention : Reuss Voigt Hill
#
# Bulk Modulus (GPa) = 24.08997 46.21518 35.15257
# Shear Modulus (GPa) = -39.06896 29.81024 -4.62936
#
# Velocity S-wave (km/s) = -3.88856 3.39669 -1.33855
# Velocity P-wave (km/s) = 3.29206 5.76802 3.34906
#
# Compressibility (1/GPa) = 0.04151106
#
# Stress axis : x y z
#
# Youngs Moduli (GPa) = 67.75929 118.41912 31.04282
#
# Poissons Ratio (x) = 0.21904 -0.06482
# Poissons Ratio (y) = 0.12533 0.22323
# Poissons Ratio (z) = -0.14148 0.85154
#
# Static dielectric constant tensor:
#      x y z
#    x 2.071950 0.000000 -0.003920 
#    y 0.000000 2.489270 0.000000 
#    z -0.003920 0.000000 2.206630 
# 
# From -- ./inp_files/153933.got.cif
#   From: 2010.05.17/outbox.cif.g08.bks.cpg/sg12_77_cif.got.tgz:153933.got - 2010.06.03 13:09:07.
