data_PCOD9195170
_publ_section_title
;
Structure prediction by ZEFSAII (Michael W. Deem and Ramdas Pophale) SiO2 
 PCOD9195170
Probable space group: C 2/M
;
_chemical_formula_sum "Si O2"
_cell_formula_units_Z 36
_cell_length_a 13.741590
_cell_length_b 28.721720
_cell_length_c 4.962150
_cell_angle_alpha 90.000000
_cell_angle_beta 98.776693
_cell_angle_gamma 90.000000
_cell_volume 1935.539121
_symmetry_space_group_name_H-M "C 2/M"
_symmetry_group_IT_number 12
_symmetry_cell_setting 'monoclinic'
loop_
_space_group_symop_operation_xyz
x,y,z
-x,y,-z
-x,-y,-z
x,-y,z
1/2+x,1/2+y,z
1/2-x,1/2+y,-z
1/2-x,1/2-y,-z
1/2+x,1/2-y,z
loop_
_atom_site_type_symbol
_atom_site_label
_atom_site_fract_x
_atom_site_fract_y
_atom_site_fract_z
Si Si1 0.396772 0.192288 0.384667
Si Si2 0.926000 0.000000 0.221616
Si Si3 0.616473 0.401788 0.609721
Si Si4 0.194569 0.148327 0.150520
Si Si5 0.856025 0.750975 0.894339
O O1 0.500000 0.168322 0.500000
O O2 0.309946 0.160252 0.232357
O O3 0.357137 0.217862 0.635675
O O4 0.421762 0.230888 0.165802
O O5 0.868200 0.048012 0.242038
O O6 0.000000 0.000000 0.500000
O O7 0.000000 0.000000 0.000000
O O8 0.500000 0.396100 0.500000
O O9 0.667221 0.392388 0.345941
O O10 0.661046 0.365078 0.838041
O O11 0.133949 0.195671 0.192368
O O12 0.750000 0.750000 0.000000
#
# Coordination Sequence:
#
# PCOD9195170 Si02
#       5
#     8   4   8   8   8
#     4  11  22  36  54  76 109 153 188 221 268 312
#     4  10  20  38  56  78 109 138 169 212 276 350
#     4  11  22  35  55  80 107 137 169 216 274 329
#     4  11  21  35  53  80 107 137 184 225 256 314
#     4  10  20  35  51  72 108 145 182 228 265 302
#
# _framework density 18.599468999999999
#
# number of rings (size 3 to 8) (size 9 to 14) (size 15 to 20)
#    0.000    1.333    0.000   10.667    0.000    5.333 
#    0.000    0.000    0.000    0.000    0.000    4.667 
#    0.000    0.000    0.000    0.000    0.000    0.000 
#
# Total GULP energy -100391.961475 kJ/mol
# GULP energy per Si atom -5577.331193 kJ/mol
# Density = 1.855714 g / cm^3
# Si number density = 18.599469 Si / 1000 Ang^3
#
#
#
# Elastic Constant Matrix: (Units=GPa)
#
#
# Indices 1 2 3 4 5 6 
#
# 1 74.6852 19.2206 30.0753 0.0000 13.0358 0.0000
# 2 19.2206 54.9254 12.4479 0.0000 6.7552 0.0000
# 3 30.0753 12.4479 118.3620 0.0000 -2.0787 0.0000
# 4 0.0000 0.0000 0.0000 28.3370 0.0000 -2.7650
# 5 13.0358 6.7552 -2.0787 0.0000 45.9668 0.0000
# 6 0.0000 0.0000 0.0000 -2.7650 0.0000 14.6498
#
#
#
# Elastic Compliance Matrix: (Units=1/GPa)
#
#
# Indices 1 2 3 4 5 6 
#
# 1 0.016861 -0.004491 -0.003887 0.000000 -0.004297 0.000000
# 2 -0.004491 0.020223 -0.001016 0.000000 -0.001744 0.000000
# 3 -0.003887 -0.001016 0.009573 0.000000 0.001685 0.000000
# 4 0.000000 0.000000 0.000000 0.035952 0.000000 0.006785
# 5 -0.004297 -0.001744 0.001685 0.000000 0.023306 0.000000
# 6 0.000000 0.000000 0.000000 0.006785 0.000000 0.069541
#
#
# Mechanical properties :
#
#
# Convention : Reuss Voigt Hill
#
# Bulk Modulus (GPa) = 35.88406 41.27336 38.57871
# Shear Modulus (GPa) = 24.56601 30.20598 27.38600
#
# Velocity S-wave (km/s) = 3.63821 4.03429 3.84136
# Velocity P-wave (km/s) = 6.08142 6.62868 6.36094
#
# Compressibility (1/GPa) = 0.02786752
#
# Stress axis : x y z
#
# Youngs Moduli (GPa) = 59.30920 49.44901 104.46126
#
# Poissons Ratio (x) = 0.22206 0.40609
# Poissons Ratio (y) = 0.26634 0.10617
# Poissons Ratio (z) = 0.23056 0.05026
#
# Static dielectric constant tensor:
#      x y z
#    x 1.693230 0.000000 0.024190 
#    y 0.000000 1.760870 0.000000 
#    z 0.024190 0.000000 1.670970 
# 
# From -- ./inp_files/11436.got.cif
#   From: 2010.05.17/outbox.cif.g08.bks.cpg/sg12_6_cif.got.tgz:11436.got - 2010.06.03 13:09:07.
