data_PCOD9195478
_publ_section_title
;
Structure prediction by ZEFSAII (Michael W. Deem and Ramdas Pophale) SiO2 
 PCOD9195478
Probable space group: C 2/M
;
_chemical_formula_sum "Si O2"
_cell_formula_units_Z 56
_cell_length_a 23.976391
_cell_length_b 7.843163
_cell_length_c 18.759662
_cell_angle_alpha 90.000000
_cell_angle_beta 136.719170
_cell_angle_gamma 90.000000
_cell_volume 2418.549155
_symmetry_space_group_name_H-M "C 2/M"
_symmetry_group_IT_number 12
_symmetry_cell_setting 'monoclinic'
loop_
_space_group_symop_operation_xyz
x,y,z
-x,y,-z
-x,-y,-z
x,-y,z
1/2+x,1/2+y,z
1/2-x,1/2+y,-z
1/2-x,1/2-y,-z
1/2+x,1/2-y,z
loop_
_atom_site_type_symbol
_atom_site_label
_atom_site_fract_x
_atom_site_fract_y
_atom_site_fract_z
Si Si1 0.113968 0.192232 0.178834
Si Si2 0.927238 0.298331 0.487860
Si Si3 0.538233 0.303783 0.322702
Si Si4 0.950792 0.794720 0.102566
Si Si5 0.272933 0.790392 0.252427
Si Si6 0.729891 0.294693 0.062644
Si Si7 0.312856 0.814009 0.615645
O O1 0.181723 0.268403 0.189361
O O2 0.167123 0.191190 0.300841
O O3 0.027085 0.268594 0.124702
O O4 0.096908 0.000000 0.137430
O O5 0.915409 0.500000 0.490747
O O6 0.958885 0.217868 0.590588
O O7 0.843569 0.234064 0.373019
O O8 0.000000 0.278668 0.500000
O O9 0.561773 0.500000 0.329455
O O10 0.463996 0.268086 0.200050
O O11 0.605453 0.180839 0.353497
O O12 0.952199 0.000000 0.093633
O O13 0.861098 0.730503 0.003972
O O14 0.286624 0.741217 0.182217
O O15 0.272738 0.000000 0.255747
O O16 0.727886 0.500000 0.063062
O O17 0.750000 0.250000 0.000000
O O18 0.250000 0.750000 0.500000
O O19 0.290310 0.000000 0.622716
#
# Coordination Sequence:
#
# PCOD9195478 Si02
#       7
#     8   8   8   8   8   8   8
#     4   9  17  33  55  79 109 143 182 231 282 332
#     4  10  21  35  52  78 113 151 191 235 281 333
#     4  10  20  35  54  79 109 144 186 231 279 331
#     4   8  17  33  55  83 111 139 180 232 281 330
#     4   9  19  35  56  81 109 144 187 231 278 333
#     4  10  21  38  58  81 109 143 185 231 279 335
#     4  11  20  31  50  78 111 148 185 224 272 330
#
# _framework density 23.154377
#
# number of rings (size 3 to 8) (size 9 to 14) (size 15 to 20)
#    0.000    2.429    0.000    3.429    2.000    2.000 
#    0.000    7.143    0.000    0.000    0.000    5.000 
#    0.000    0.000    0.000    0.000    0.000    0.000 
#
# Total GULP energy -155999.873502 kJ/mol
# GULP energy per Si atom -5571.424054 kJ/mol
# Density = 2.310168 g / cm^3
# Si number density = 23.154377 Si / 1000 Ang^3
#
#
#
# Elastic Constant Matrix: (Units=GPa)
#
#
# Indices 1 2 3 4 5 6 
#
# 1 37.6038 14.7791 31.3829 0.0000 -10.9914 0.0000
# 2 14.7791 42.0131 15.6268 0.0000 -3.2025 0.0000
# 3 31.3829 15.6268 112.7184 0.0000 -12.9382 0.0000
# 4 0.0000 0.0000 0.0000 8.2324 0.0000 -2.4560
# 5 -10.9914 -3.2025 -12.9382 0.0000 40.4063 0.0000
# 6 0.0000 0.0000 0.0000 -2.4560 0.0000 3.1490
#
#
#
# Elastic Compliance Matrix: (Units=1/GPa)
#
#
# Indices 1 2 3 4 5 6 
#
# 1 0.040211 -0.010267 -0.008938 0.000000 0.007262 0.000000
# 2 -0.010267 0.027750 -0.001097 0.000000 -0.000945 0.000000
# 3 -0.008938 -0.001097 0.011652 0.000000 0.001212 0.000000
# 4 0.000000 0.000000 0.000000 0.158305 0.000000 0.123465
# 5 0.007262 -0.000945 0.001212 0.000000 0.027037 0.000000
# 6 0.000000 0.000000 0.000000 0.123465 0.000000 0.413852
#
#
# Mechanical properties :
#
#
# Convention : Reuss Voigt Hill
#
# Bulk Modulus (GPa) = 25.63624 35.10145 30.36885
# Shear Modulus (GPa) = 6.82675 19.06063 12.94369
#
# Velocity S-wave (km/s) = 1.71894 2.87225 2.36692
# Velocity P-wave (km/s) = 3.87758 5.11786 4.54027
#
# Compressibility (1/GPa) = 0.03900727
#
# Stress axis : x y z
#
# Youngs Moduli (GPa) = 24.86911 36.03637 85.82538
#
# Poissons Ratio (x) = 0.36998 0.76715
# Poissons Ratio (y) = 0.25532 0.09416
# Poissons Ratio (z) = 0.22229 0.03954
#
# Static dielectric constant tensor:
#      x y z
#    x 1.899840 0.000000 -0.050760 
#    y 0.000000 1.895720 0.000000 
#    z -0.050760 0.000000 1.829130 
# 
# From -- ./inp_files/288458.got.cif
#   From: 2010.05.17/outbox.cif.g08.bks.cpg/sg12_145_cif.got.tgz:288458.got - 2010.06.03 13:09:07.
