data_PCOD9195975
_publ_section_title
;
Structure prediction by ZEFSAII (Michael W. Deem and Ramdas Pophale) SiO2 
 PCOD9195975
Probable space group: C 2/M
;
_chemical_formula_sum "Si O2"
_cell_formula_units_Z 56
_cell_length_a 28.254051
_cell_length_b 15.371659
_cell_length_c 11.158536
_cell_angle_alpha 90.000000
_cell_angle_beta 37.307640
_cell_angle_gamma 90.000000
_cell_volume 2937.304725
_symmetry_space_group_name_H-M "C 2/M"
_symmetry_group_IT_number 12
_symmetry_cell_setting 'monoclinic'
loop_
_space_group_symop_operation_xyz
x,y,z
-x,y,-z
-x,-y,-z
x,-y,z
1/2+x,1/2+y,z
1/2-x,1/2+y,-z
1/2-x,1/2-y,-z
1/2+x,1/2-y,z
loop_
_atom_site_type_symbol
_atom_site_label
_atom_site_fract_x
_atom_site_fract_y
_atom_site_fract_z
Si Si1 0.879521 0.597221 0.818617
Si Si2 0.857336 0.903722 0.373682
Si Si3 0.575172 0.266057 0.418212
Si Si4 0.803512 0.097668 0.758527
Si Si5 0.567526 0.101031 0.015392
Si Si6 0.425077 0.227422 0.303857
Si Si7 0.709625 0.842665 0.560416
O O1 0.895684 0.500000 0.738555
O O2 0.906083 0.673305 0.678284
O O3 0.919124 0.605518 0.868806
O O4 0.787394 0.605072 0.029729
O O5 0.818415 0.893401 0.585109
O O6 0.911647 0.817592 0.256675
O O7 0.786006 0.902085 0.422092
O O8 0.894768 0.000000 0.294264
O O9 0.500000 0.301660 0.500000
O O10 0.647634 0.331558 0.267711
O O11 0.561020 0.254152 0.587411
O O12 0.829470 0.000000 0.737672
O O13 0.496779 0.165164 0.128470
O O14 0.552146 0.000000 0.015916
O O15 0.646036 0.130738 0.788736
O O16 0.344999 0.171702 0.445923
O O17 0.750000 0.750000 0.500000
#
# Coordination Sequence:
#
# PCOD9195975 Si02
#       7
#     8   8   8   8   8   8   8
#     4  10  20  35  56  79 109 151 192 227 272 333
#     4   9  17  34  59  81 108 145 185 230 279 330
#     4  11  21  35  54  82 117 153 182 228 281 327
#     4   9  18  34  56  81 105 143 195 233 269 324
#     4  11  21  36  59  83 110 148 188 229 278 336
#     4  10  22  35  52  87 119 146 186 228 281 332
#     4  10  20  35  57  83 109 137 182 237 279 327
#
# _framework density 19.065097000000002
#
# number of rings (size 3 to 8) (size 9 to 14) (size 15 to 20)
#    0.000    2.000    2.857    1.286    0.000    2.857 
#    0.000    0.000    0.000    7.714    0.000    0.000 
#    0.000    0.000    0.000    0.000    0.000    0.000 
#
# Total GULP energy -156055.728129 kJ/mol
# GULP energy per Si atom -5573.418862 kJ/mol
# Density = 1.902170 g / cm^3
# Si number density = 19.065097 Si / 1000 Ang^3
#
#
#
# Elastic Constant Matrix: (Units=GPa)
#
#
# Indices 1 2 3 4 5 6 
#
# 1 117.2979 42.5476 15.6050 0.0000 -21.3032 0.0000
# 2 42.5476 140.7523 38.2469 0.0000 -27.6315 0.0000
# 3 15.6050 38.2469 38.1529 0.0000 -22.1491 0.0000
# 4 0.0000 0.0000 0.0000 19.5916 0.0000 4.4034
# 5 -21.3032 -27.6315 -22.1491 0.0000 25.6639 0.0000
# 6 0.0000 0.0000 0.0000 4.4034 0.0000 18.8740
#
#
#
# Elastic Compliance Matrix: (Units=1/GPa)
#
#
# Indices 1 2 3 4 5 6 
#
# 1 0.010582 -0.002295 0.003282 0.000000 0.009145 0.000000
# 2 -0.002295 0.010487 -0.008267 0.000000 0.002250 0.000000
# 3 0.003282 -0.008267 0.059262 0.000000 0.044968 0.000000
# 4 0.000000 0.000000 0.000000 0.053867 0.000000 -0.012567
# 5 0.009145 0.002250 0.044968 0.000000 0.087789 0.000000
# 6 0.000000 0.000000 0.000000 -0.012567 0.000000 0.055915
#
#
# Mechanical properties :
#
#
# Convention : Reuss Voigt Hill
#
# Bulk Modulus (GPa) = 15.20480 54.33358 34.76919
# Shear Modulus (GPa) = 15.90400 26.14615 21.02507
#
# Velocity S-wave (km/s) = 2.89138 3.70728 3.32445
# Velocity P-wave (km/s) = 4.37484 6.84734 5.74566
#
# Compressibility (1/GPa) = 0.06576870
#
# Stress axis : x y z
#
# Youngs Moduli (GPa) = 94.49830 95.35776 16.87435
#
# Poissons Ratio (x) = 0.21888 -0.05538
# Poissons Ratio (y) = 0.21690 0.13951
# Poissons Ratio (z) = -0.31013 0.78837
#
# Static dielectric constant tensor:
#      x y z
#    x 1.675910 0.000000 -0.008930 
#    y 0.000000 1.690950 0.000000 
#    z -0.008930 0.000000 1.672200 
# 
# From -- ./inp_files/183476.got.cif
#   From: 2010.05.17/outbox.cif.g08.bks.cpg/sg12_92_cif.got.tgz:183476.got - 2010.06.03 13:09:07.
