data_PCOD9195097
_publ_section_title
;
Structure prediction by ZEFSAII (Michael W. Deem and Ramdas Pophale) SiO2 
 PCOD9195097
Probable space group: C 2/M
;
_chemical_formula_sum "Si O2"
_cell_formula_units_Z 48
_cell_length_a 14.160113
_cell_length_b 19.816511
_cell_length_c 19.415901
_cell_angle_alpha 90.000000
_cell_angle_beta 152.999387
_cell_angle_gamma 90.000000
_cell_volume 2473.473972
_symmetry_space_group_name_H-M "C 2/M"
_symmetry_group_IT_number 12
_symmetry_cell_setting 'monoclinic'
loop_
_space_group_symop_operation_xyz
x,y,z
-x,y,-z
-x,-y,-z
x,-y,z
1/2+x,1/2+y,z
1/2-x,1/2+y,-z
1/2-x,1/2-y,-z
1/2+x,1/2-y,z
loop_
_atom_site_type_symbol
_atom_site_label
_atom_site_fract_x
_atom_site_fract_y
_atom_site_fract_z
Si Si1 0.174750 0.369526 0.894684
Si Si2 0.781878 0.500000 0.322905
Si Si3 0.746848 0.500000 0.144251
Si Si4 0.031620 0.231670 0.743615
Si Si5 0.370615 0.647922 0.761111
Si Si6 0.884637 0.236911 0.354496
Si Si7 0.035758 0.653562 0.948975
O O1 0.189278 0.433806 0.855720
O O2 0.040213 0.308304 0.776311
O O3 0.094741 0.387897 0.919263
O O4 0.409705 0.342109 0.057951
O O5 0.836177 0.500000 0.277982
O O6 0.661770 0.568277 0.263989
O O7 0.000000 0.500000 0.500000
O O8 0.500000 0.500000 0.000000
O O9 0.990652 0.227951 0.635539
O O10 0.887586 0.185908 0.698871
O O11 0.265256 0.202006 0.908328
O O12 0.188805 0.685395 0.684526
O O13 0.670362 0.195372 0.204970
O O14 0.000000 0.217044 0.500000
O O15 0.000000 0.618854 0.000000
#
# Coordination Sequence:
#
# PCOD9195097 Si02
#       7
#     8   4   4   8   8   8   8
#     4  11  19  37  60  88 112 148 206 244 285 343
#     4  12  26  42  56  86 129 162 186 227 298 366
#     4  12  24  38  63  86 118 153 190 242 294 347
#     4  10  20  34  62  82 112 155 198 245 293 326
#     4  11  20  38  58  86 117 154 195 242 287 351
#     4  11  21  33  51  86 120 146 191 242 290 346
#     4   9  18  35  57  80 112 147 190 245 293 331
#
# _framework density 19.405905000000001
#
# number of rings (size 3 to 8) (size 9 to 14) (size 15 to 20)
#    0.000    1.333    5.000    2.500    0.000    0.667 
#    3.000    0.417    0.000    3.000    0.000    1.167 
#    0.000    0.000    0.000    0.000    0.000    0.000 
#
# Total GULP energy -133987.406605 kJ/mol
# GULP energy per Si atom -5582.808609 kJ/mol
# Density = 1.936174 g / cm^3
# Si number density = 19.405905 Si / 1000 Ang^3
#
#
#
# Elastic Constant Matrix: (Units=GPa)
#
#
# Indices 1 2 3 4 5 6 
#
# 1 139.5889 72.4487 32.2697 0.0026 -41.6215 0.0013
# 2 72.4487 101.4224 14.0186 0.0015 -25.6329 -0.0002
# 3 32.2697 14.0186 74.9551 0.0017 -34.1729 -0.0005
# 4 0.0026 0.0015 0.0017 4.3130 0.0013 -4.6060
# 5 -41.6215 -25.6329 -34.1729 0.0013 39.2820 0.0004
# 6 0.0013 -0.0002 -0.0005 -4.6060 0.0004 32.7271
#
#
#
# Elastic Compliance Matrix: (Units=1/GPa)
#
#
# Indices 1 2 3 4 5 6 
#
# 1 0.014032 -0.007518 -0.000155 -0.000011 0.009827 -0.000002
# 2 -0.007518 0.016050 0.002284 -0.000003 0.004494 0.000000
# 3 -0.000155 0.002284 0.022515 -0.000018 0.020914 -0.000002
# 4 -0.000011 -0.000003 -0.000018 0.272870 -0.000040 0.038404
# 5 0.009827 0.004494 0.020914 -0.000040 0.056996 -0.000006
# 6 -0.000002 0.000000 -0.000002 0.038404 -0.000006 0.035961
#
#
# Mechanical properties :
#
#
# Convention : Reuss Voigt Hill
#
# Bulk Modulus (GPa) = 23.91211 61.49338 42.70275
# Shear Modulus (GPa) = 11.28307 28.41305 19.84806
#
# Velocity S-wave (km/s) = 2.41389 3.83057 3.20157
# Velocity P-wave (km/s) = 4.48531 7.16387 5.97658
#
# Compressibility (1/GPa) = 0.04181981
#
# Stress axis : x y z
#
# Youngs Moduli (GPa) = 71.26577 62.30346 44.41391
#
# Poissons Ratio (x) = 0.46842 0.00687
# Poissons Ratio (y) = 0.53580 -0.10144
# Poissons Ratio (z) = 0.01102 -0.14229
#
# Static dielectric constant tensor:
#      x y z
#    x 1.718440 0.000000 0.006980 
#    y 0.000000 1.640170 0.000000 
#    z 0.006980 0.000000 1.703370 
# 
# From -- ./inp_files/61760.got.cif
#   From: 2010.05.17/outbox.cif.g08.bks.cpg/sg12_31_cif.got.tgz:61760.got - 2010.06.03 13:09:07.
