data_PCOD9195085
_publ_section_title
;
Structure prediction by ZEFSAII (Michael W. Deem and Ramdas Pophale) SiO2 
 PCOD9195085
Probable space group: C 2/M
;
_chemical_formula_sum "Si O2"
_cell_formula_units_Z 64
_cell_length_a 5.481498
_cell_length_b 31.537151
_cell_length_c 16.016473
_cell_angle_alpha 90.000000
_cell_angle_beta 98.105824
_cell_angle_gamma 90.000000
_cell_volume 2741.119007
_symmetry_space_group_name_H-M "C 2/M"
_symmetry_group_IT_number 12
_symmetry_cell_setting 'monoclinic'
loop_
_space_group_symop_operation_xyz
x,y,z
-x,y,-z
-x,-y,-z
x,-y,z
1/2+x,1/2+y,z
1/2-x,1/2+y,-z
1/2-x,1/2-y,-z
1/2+x,1/2-y,z
loop_
_atom_site_type_symbol
_atom_site_label
_atom_site_fract_x
_atom_site_fract_y
_atom_site_fract_z
Si Si1 0.040034 0.630665 0.099898
Si Si2 0.442898 0.346290 0.814238
Si Si3 0.099366 0.952605 0.613602
Si Si4 0.802617 0.244861 0.804775
Si Si5 0.592750 0.046729 0.198939
Si Si6 0.652022 0.867543 0.422441
Si Si7 0.752470 0.588426 0.302371
Si Si8 0.701691 0.274589 0.616841
O O1 0.777013 0.639867 0.132562
O O2 0.124167 0.583730 0.133812
O O3 0.281391 0.658532 0.136238
O O4 0.000000 0.633106 0.000000
O O5 0.334711 0.302872 0.774475
O O6 0.457489 0.380655 0.741639
O O7 0.226471 0.952953 0.711879
O O8 0.200714 0.912055 0.569314
O O9 0.819828 0.940539 0.623335
O O10 0.136261 0.000000 0.581855
O O11 0.069511 0.255162 0.853447
O O12 0.758135 0.272335 0.719462
O O13 0.335850 0.057717 0.232577
O O14 0.598145 0.000000 0.162305
O O15 0.500000 0.861881 0.500000
O O16 0.463069 0.878325 0.338398
O O17 0.793910 0.823653 0.411378
O O18 0.937992 0.248706 0.591040
#
# Coordination Sequence:
#
# PCOD9195085 Si02
#       8
#     8   8   8   8   8   8   8   8
#     4  11  23  40  63  96 134 174 212 261 332 397
#     4  11  22  39  66  94 126 173 219 266 314 390
#     4  10  21  39  66  93 126 172 232 285 330 392
#     4  10  20  34  61  94 120 153 212 270 313 372
#     4   9  19  36  59  92 127 163 216 275 326 385
#     4  11  26  42  62  95 137 178 220 280 350 410
#     4  10  20  37  64  90 123 174 225 277 323 388
#     4  10  23  41  65  96 133 170 215 275 335 405
#
# _framework density 23.348130000000001
#
# number of rings (size 3 to 8) (size 9 to 14) (size 15 to 20)
#    0.000    1.750    1.250    3.000    5.250    2.000 
#    0.000    0.625    0.000    9.750    0.000    0.000 
#    0.000    0.000    0.000    0.000    0.000    0.000 
#
# Total GULP energy -178555.535897 kJ/mol
# GULP energy per Si atom -5579.860497 kJ/mol
# Density = 2.329499 g / cm^3
# Si number density = 23.348130 Si / 1000 Ang^3
#
#
#
# Elastic Constant Matrix: (Units=GPa)
#
#
# Indices 1 2 3 4 5 6 
#
# 1 137.7571 37.7526 16.2635 0.0000 -3.2899 0.0000
# 2 37.7526 151.9673 18.6585 0.0000 -14.3986 0.0000
# 3 16.2635 18.6585 61.5565 0.0000 1.5146 0.0000
# 4 0.0000 0.0000 0.0000 8.9065 0.0000 10.8592
# 5 -3.2899 -14.3986 1.5146 0.0000 32.0643 0.0000
# 6 0.0000 0.0000 0.0000 10.8592 0.0000 55.5207
#
#
#
# Elastic Compliance Matrix: (Units=1/GPa)
#
#
# Indices 1 2 3 4 5 6 
#
# 1 0.007931 -0.001770 -0.001561 0.000000 0.000093 0.000000
# 2 -0.001770 0.007568 -0.001908 0.000000 0.003307 0.000000
# 3 -0.001561 -0.001908 0.017281 0.000000 -0.001833 0.000000
# 4 0.000000 0.000000 0.000000 0.147436 0.000000 -0.028837
# 5 0.000093 0.003307 -0.001833 0.000000 0.032768 0.000000
# 6 0.000000 0.000000 0.000000 -0.028837 0.000000 0.023651
#
#
# Mechanical properties :
#
#
# Convention : Reuss Voigt Hill
#
# Bulk Modulus (GPa) = 44.83854 55.18110 50.00982
# Shear Modulus (GPa) = 19.64278 37.87205 28.75742
#
# Velocity S-wave (km/s) = 2.90366 4.03185 3.51334
# Velocity P-wave (km/s) = 5.52157 6.73497 6.15823
#
# Compressibility (1/GPa) = 0.02230224
#
# Stress axis : x y z
#
# Youngs Moduli (GPa) = 126.09269 132.14354 57.86690
#
# Poissons Ratio (x) = 0.23386 0.09034
# Poissons Ratio (y) = 0.22315 0.11039
# Poissons Ratio (z) = 0.19685 0.25208
#
# Static dielectric constant tensor:
#      x y z
#    x 2.049440 0.000000 -0.006300 
#    y 0.000000 1.891590 0.000000 
#    z -0.006300 0.000000 1.842690 
# 
# From -- ./inp_files/254018.got.cif
#   From: 2010.05.17/outbox.cif.g08.bks.cpg/sg12_128_cif.got.tgz:254018.got - 2010.06.03 13:09:07.
