data_PCOD9195405
_publ_section_title
;
Structure prediction by ZEFSAII (Michael W. Deem and Ramdas Pophale) SiO2 
 PCOD9195405
Probable space group: C 2/M
;
_chemical_formula_sum "Si O2"
_cell_formula_units_Z 56
_cell_length_a 21.927761
_cell_length_b 13.319308
_cell_length_c 10.873643
_cell_angle_alpha 90.000000
_cell_angle_beta 80.537311
_cell_angle_gamma 90.000000
_cell_volume 3132.571166
_symmetry_space_group_name_H-M "C 2/M"
_symmetry_group_IT_number 12
_symmetry_cell_setting 'monoclinic'
loop_
_space_group_symop_operation_xyz
x,y,z
-x,y,-z
-x,-y,-z
x,-y,z
1/2+x,1/2+y,z
1/2-x,1/2+y,-z
1/2-x,1/2-y,-z
1/2+x,1/2-y,z
loop_
_atom_site_type_symbol
_atom_site_label
_atom_site_fract_x
_atom_site_fract_y
_atom_site_fract_z
Si Si1 0.090587 0.384756 0.060786
Si Si2 0.406664 0.616003 0.361493
Si Si3 0.827507 0.616397 0.723394
Si Si4 0.282712 0.723799 0.360197
Si Si5 0.994555 0.746866 0.218576
Si Si6 0.936659 0.278482 0.562251
Si Si7 0.621924 0.884533 0.766302
O O1 0.065612 0.500000 0.081183
O O2 0.141153 0.373356 0.152444
O O3 0.037807 0.301634 0.100451
O O4 0.117848 0.375446 0.915751
O O5 0.417812 0.500000 0.384228
O O6 0.335075 0.638260 0.357334
O O7 0.450462 0.655441 0.234850
O O8 0.422185 0.689502 0.471576
O O9 0.811270 0.500000 0.711372
O O10 0.769063 0.686632 0.717578
O O11 0.879461 0.649750 0.606969
O O12 0.250000 0.750000 0.500000
O O13 0.321615 0.819462 0.302225
O O14 0.942679 0.661192 0.260863
O O15 0.042723 0.765352 0.313025
O O16 0.000000 0.332206 0.500000
O O17 0.627816 0.000000 0.730457
#
# Coordination Sequence:
#
# PCOD9195405 Si02
#       7
#     8   8   8   8   8   8   8
#     4   9  18  35  59  85 110 141 178 224 281 327
#     4  10  20  35  54  76 109 151 188 222 266 323
#     4  10  20  35  55  78 110 146 179 224 278 325
#     4  11  22  38  53  79 112 147 187 226 271 322
#     4   9  18  31  54  82 112 136 175 224 277 324
#     4   9  18  33  49  78 108 138 180 220 268 327
#     4  10  21  36  58  84 110 142 183 227 271 324
#
# _framework density 17.876688000000001
#
# number of rings (size 3 to 8) (size 9 to 14) (size 15 to 20)
#    0.000    2.286    1.429    1.286    0.000    6.286 
#    0.000    2.143    0.000    7.714    0.000    0.000 
#    0.000    0.000    0.000    0.000    0.000    0.000 
#
# Total GULP energy -155925.527143 kJ/mol
# GULP energy per Si atom -5568.768827 kJ/mol
# Density = 1.783600 g / cm^3
# Si number density = 17.876688 Si / 1000 Ang^3
#
#
#
# Elastic Constant Matrix: (Units=GPa)
#
#
# Indices 1 2 3 4 5 6 
#
# 1 91.3337 32.9008 25.6581 0.0000 1.5305 0.0000
# 2 32.9008 96.1229 41.3899 0.0000 0.2478 0.0000
# 3 25.6581 41.3899 65.5144 0.0000 1.0226 0.0000
# 4 0.0000 0.0000 0.0000 25.7559 0.0000 -0.4570
# 5 1.5305 0.2478 1.0226 0.0000 28.3154 0.0000
# 6 0.0000 0.0000 0.0000 -0.4570 0.0000 11.4841
#
#
#
# Elastic Compliance Matrix: (Units=1/GPa)
#
#
# Indices 1 2 3 4 5 6 
#
# 1 0.012945 -0.003091 -0.003108 0.000000 -0.000560 0.000000
# 2 -0.003091 0.015030 -0.008290 0.000000 0.000335 0.000000
# 3 -0.003108 -0.008290 0.021727 0.000000 -0.000544 0.000000
# 4 0.000000 0.000000 0.000000 0.038854 0.000000 0.001546
# 5 -0.000560 0.000335 -0.000544 0.000000 0.035363 0.000000
# 6 0.000000 0.000000 0.000000 0.001546 0.000000 0.087139
#
#
# Mechanical properties :
#
#
# Convention : Reuss Voigt Hill
#
# Bulk Modulus (GPa) = 48.25480 50.31872 49.28676
# Shear Modulus (GPa) = 20.24745 23.31255 21.78000
#
# Velocity S-wave (km/s) = 3.36909 3.61512 3.49427
# Velocity P-wave (km/s) = 6.49508 6.75531 6.62647
#
# Compressibility (1/GPa) = 0.02072333
#
# Stress axis : x y z
#
# Youngs Moduli (GPa) = 77.25064 66.53282 46.02531
#
# Poissons Ratio (x) = 0.20565 0.14306
# Poissons Ratio (y) = 0.23878 0.38156
# Poissons Ratio (z) = 0.24011 0.55158
#
# Static dielectric constant tensor:
#      x y z
#    x 1.619830 0.000000 0.007710 
#    y 0.000000 1.593100 0.000000 
#    z 0.007710 0.000000 1.662580 
# 
# From -- ./inp_files/164844.got.cif
#   From: 2010.05.17/outbox.cif.g08.bks.cpg/sg12_83_cif.got.tgz:164844.got - 2010.06.03 13:09:07.
