data_PCOD9195816
_publ_section_title
;
Structure prediction by ZEFSAII (Michael W. Deem and Ramdas Pophale) SiO2 
 PCOD9195816
Probable space group: C 2/M
;
_chemical_formula_sum "Si O2"
_cell_formula_units_Z 64
_cell_length_a 24.294993
_cell_length_b 8.443305
_cell_length_c 13.029545
_cell_angle_alpha 90.000000
_cell_angle_beta 89.886982
_cell_angle_gamma 90.000000
_cell_volume 2672.745834
_symmetry_space_group_name_H-M "C 2/M"
_symmetry_group_IT_number 12
_symmetry_cell_setting 'monoclinic'
loop_
_space_group_symop_operation_xyz
x,y,z
-x,y,-z
-x,-y,-z
x,-y,z
1/2+x,1/2+y,z
1/2-x,1/2+y,-z
1/2-x,1/2-y,-z
1/2+x,1/2-y,z
loop_
_atom_site_type_symbol
_atom_site_label
_atom_site_fract_x
_atom_site_fract_y
_atom_site_fract_z
Si Si1 0.688594 0.310234 0.021479
Si Si2 0.942140 0.814209 0.595607
Si Si3 0.834704 0.688219 0.525271
Si Si4 0.742969 0.809898 0.662508
Si Si5 0.154732 0.187947 0.801027
Si Si6 0.121100 0.679723 0.205868
Si Si7 0.449378 0.189998 0.310433
Si Si8 0.493977 0.180593 0.893814
O O1 0.688371 0.500000 0.021672
O O2 0.652244 0.259682 0.920793
O O3 0.750000 0.250000 0.000000
O O4 0.667143 0.253898 0.132680
O O5 0.898447 0.737636 0.516137
O O6 0.908677 0.771543 0.700622
O O7 0.004844 0.755308 0.609531
O O8 0.942966 0.000000 0.578311
O O9 0.832443 0.500000 0.526846
O O10 0.803152 0.755000 0.625952
O O11 0.797236 0.743140 0.430740
O O12 0.715887 0.731115 0.761230
O O13 0.742356 0.000000 0.671889
O O14 0.113321 0.267671 0.718741
O O15 0.146145 0.000000 0.796222
O O16 0.134966 0.500000 0.239678
O O17 0.069776 0.666949 0.128627
O O18 0.476536 0.252215 0.203621
O O19 0.453045 0.000000 0.320306
O O20 0.517048 0.000000 0.901986
O O21 0.500000 0.268438 0.000000
#
# Coordination Sequence:
#
# PCOD9195816 Si02
#       8
#     8   8   8   8   8   8   8   8
#     4  11  25  41  57  82 118 161 206 251 300 358
#     4  11  22  37  61  91 125 162 201 249 304 362
#     4  10  21  40  65  93 124 154 198 253 303 358
#     4  10  22  40  65  94 121 158 201 247 304 364
#     4  11  24  41  61  87 124 163 201 249 304 363
#     4  10  20  35  55  81 114 152 197 247 295 345
#     4  10  20  36  58  86 119 158 203 249 300 359
#     4   8  14  26  48  76 103 137 184 235 286 336
#
# _framework density 23.945411
#
# number of rings (size 3 to 8) (size 9 to 14) (size 15 to 20)
#    0.000    1.875    0.000    4.875    1.750    4.500 
#    0.000    0.625    0.000    9.750    0.000    0.000 
#    0.000    0.000    0.000    0.000    0.000    0.000 
#
# Total GULP energy -178681.514956 kJ/mol
# GULP energy per Si atom -5583.797342 kJ/mol
# Density = 2.389091 g / cm^3
# Si number density = 23.945411 Si / 1000 Ang^3
#
#
#
# Elastic Constant Matrix: (Units=GPa)
#
#
# Indices 1 2 3 4 5 6 
#
# 1 129.1942 -8.0491 18.3257 0.0000 -0.0868 0.0000
# 2 -8.0491 39.7132 -10.8120 0.0000 4.6885 0.0000
# 3 18.3257 -10.8120 62.8592 0.0000 7.6338 0.0000
# 4 0.0000 0.0000 0.0000 14.7884 0.0000 2.8365
# 5 -0.0868 4.6885 7.6338 0.0000 49.8021 0.0000
# 6 0.0000 0.0000 0.0000 2.8365 0.0000 36.7459
#
#
#
# Elastic Compliance Matrix: (Units=1/GPa)
#
#
# Indices 1 2 3 4 5 6 
#
# 1 0.008119 0.001009 -0.002225 0.000000 0.000260 0.000000
# 2 0.001009 0.027068 0.004759 0.000000 -0.003276 0.000000
# 3 -0.002225 0.004759 0.017761 0.000000 -0.003174 0.000000
# 4 0.000000 0.000000 0.000000 0.068637 0.000000 -0.005298
# 5 0.000260 -0.003276 -0.003174 0.000000 0.020875 0.000000
# 6 0.000000 0.000000 0.000000 -0.005298 0.000000 0.027623
#
#
# Mechanical properties :
#
#
# Convention : Reuss Voigt Hill
#
# Bulk Modulus (GPa) = 16.65699 25.63285 21.14492
# Shear Modulus (GPa) = 27.32133 35.75409 31.53771
#
# Velocity S-wave (km/s) = 3.38151 3.86832 3.63308
# Velocity P-wave (km/s) = 4.71354 5.53894 5.14283
#
# Compressibility (1/GPa) = 0.06003485
#
# Stress axis : x y z
#
# Youngs Moduli (GPa) = 123.16890 36.94453 56.30195
#
# Poissons Ratio (x) = -0.03728 0.12527
# Poissons Ratio (y) = -0.12429 -0.26796
# Poissons Ratio (z) = 0.27405 -0.17583
#
# Static dielectric constant tensor:
#      x y z
#    x 1.935800 0.000000 0.028650 
#    y 0.000000 1.832760 0.000000 
#    z 0.028650 0.000000 2.053340 
# 
# From -- ./inp_files/238656.got.cif
#   From: 2010.05.17/outbox.cif.g08.bks.cpg/sg12_120_cif.got.tgz:238656.got - 2010.06.03 13:09:07.
