data_PCOD9195893
_publ_section_title
;
Structure prediction by ZEFSAII (Michael W. Deem and Ramdas Pophale) SiO2 
 PCOD9195893
Probable space group: C 2/M
;
_chemical_formula_sum "Si O2"
_cell_formula_units_Z 64
_cell_length_a 9.331052
_cell_length_b 13.871748
_cell_length_c 27.984574
_cell_angle_alpha 90.000000
_cell_angle_beta 121.009795
_cell_angle_gamma 90.000000
_cell_volume 3104.570141
_symmetry_space_group_name_H-M "C 2/M"
_symmetry_group_IT_number 12
_symmetry_cell_setting 'monoclinic'
loop_
_space_group_symop_operation_xyz
x,y,z
-x,y,-z
-x,-y,-z
x,-y,z
1/2+x,1/2+y,z
1/2-x,1/2+y,-z
1/2-x,1/2-y,-z
1/2+x,1/2-y,z
loop_
_atom_site_type_symbol
_atom_site_label
_atom_site_fract_x
_atom_site_fract_y
_atom_site_fract_z
Si Si1 0.219128 0.600804 0.298566
Si Si2 0.840474 0.303617 0.086721
Si Si3 0.206102 0.235127 0.161359
Si Si4 0.696315 0.108397 0.020399
Si Si5 0.009622 0.608403 0.350374
Si Si6 0.060104 0.179332 0.337504
Si Si7 0.894536 0.613280 0.436314
Si Si8 0.924011 0.796971 0.764020
O O1 0.153003 0.500000 0.268221
O O2 0.178705 0.604746 0.348009
O O3 0.415530 0.607572 0.326628
O O4 0.128818 0.686254 0.255102
O O5 0.745061 0.323796 0.119783
O O6 0.791209 0.193682 0.063942
O O7 0.040827 0.300475 0.126813
O O8 0.789034 0.369601 0.033554
O O9 0.165744 0.174283 0.202365
O O10 0.375226 0.296979 0.197024
O O11 0.752174 0.000000 0.041402
O O12 0.500000 0.116486 0.000000
O O13 0.933758 0.500000 0.327519
O O14 0.964026 0.716824 0.324223
O O15 0.003080 0.617830 0.406203
O O16 0.224421 0.172062 0.397792
O O17 0.118477 0.154353 0.293653
O O18 0.850562 0.500000 0.435704
O O19 0.000000 0.645850 0.500000
#
# Coordination Sequence:
#
# PCOD9195893 Si02
#       8
#     8   8   8   8   8   8   8   8
#     4  10  20  35  55  85 112 143 191 235 280 345
#     4  10  20  38  61  90 116 162 192 249 286 347
#     4  10  20  36  59  82 121 156 198 233 296 334
#     4  10  20  37  63  90 118 158 202 240 293 350
#     4   9  19  35  56  81 110 141 182 233 281 338
#     4  11  20  36  62  83 110 152 194 233 291 354
#     4  10  22  39  58  82 113 148 189 240 293 349
#     4  10  20  36  58  84 108 160 192 239 282 350
#
# _framework density 20.614771000000001
#
# number of rings (size 3 to 8) (size 9 to 14) (size 15 to 20)
#    0.000    2.000    2.500    1.875    1.750    0.500 
#    0.000    5.625    0.000    4.875    0.000    0.000 
#    0.000    0.000    0.000    0.000    0.000    0.000 
#
# Total GULP energy -178142.460909 kJ/mol
# GULP energy per Si atom -5566.951903 kJ/mol
# Density = 2.056785 g / cm^3
# Si number density = 20.614771 Si / 1000 Ang^3
#
#
#
# Elastic Constant Matrix: (Units=GPa)
#
#
# Indices 1 2 3 4 5 6 
#
# 1 115.5531 23.2456 37.2696 0.0000 -12.3577 0.0000
# 2 23.2456 78.6807 13.4498 0.0000 -1.3491 0.0000
# 3 37.2696 13.4498 86.1636 0.0000 -0.9667 0.0000
# 4 0.0000 0.0000 0.0000 6.1359 0.0000 0.3207
# 5 -12.3577 -1.3491 -0.9667 0.0000 32.8349 0.0000
# 6 0.0000 0.0000 0.0000 0.3207 0.0000 13.7839
#
#
#
# Elastic Compliance Matrix: (Units=1/GPa)
#
#
# Indices 1 2 3 4 5 6 
#
# 1 0.010951 -0.002431 -0.004314 0.000000 0.003895 0.000000
# 2 -0.002431 0.013605 -0.001076 0.000000 -0.000388 0.000000
# 3 -0.004314 -0.001076 0.013625 0.000000 -0.001267 0.000000
# 4 0.000000 0.000000 0.000000 0.163173 0.000000 -0.003796
# 5 0.003895 -0.000388 -0.001267 0.000000 0.031868 0.000000
# 6 0.000000 0.000000 0.000000 -0.003796 0.000000 0.072637
#
#
# Mechanical properties :
#
#
# Convention : Reuss Voigt Hill
#
# Bulk Modulus (GPa) = 44.36727 47.59191 45.97959
# Shear Modulus (GPa) = 15.19686 24.31310 19.75498
#
# Velocity S-wave (km/s) = 2.71806 3.43797 3.09899
# Velocity P-wave (km/s) = 5.60529 6.23666 5.92938
#
# Compressibility (1/GPa) = 0.02253914
#
# Stress axis : x y z
#
# Youngs Moduli (GPa) = 91.31694 73.50109 73.39208
#
# Poissons Ratio (x) = 0.17870 0.31658
# Poissons Ratio (y) = 0.22201 0.07900
# Poissons Ratio (z) = 0.39390 0.07912
#
# Static dielectric constant tensor:
#      x y z
#    x 1.761630 0.000000 -0.016430 
#    y 0.000000 1.774680 0.000000 
#    z -0.016430 0.000000 1.756300 
# 
# From -- ./inp_files/356135.got.cif
#   From: 2010.05.17/outbox.cif.g08.bks.cpg/sg12_179_cif.got.tgz:356135.got - 2010.06.03 13:09:07.
