data_PCOD9195728
_publ_section_title
;
Structure prediction by ZEFSAII (Michael W. Deem and Ramdas Pophale) SiO2 
 PCOD9195728
Probable space group: C 2/M
;
_chemical_formula_sum "Si O2"
_cell_formula_units_Z 64
_cell_length_a 29.165627
_cell_length_b 7.922436
_cell_length_c 13.285508
_cell_angle_alpha 90.000000
_cell_angle_beta 87.111894
_cell_angle_gamma 90.000000
_cell_volume 3065.887729
_symmetry_space_group_name_H-M "C 2/M"
_symmetry_group_IT_number 12
_symmetry_cell_setting 'monoclinic'
loop_
_space_group_symop_operation_xyz
x,y,z
-x,y,-z
-x,-y,-z
x,-y,z
1/2+x,1/2+y,z
1/2-x,1/2+y,-z
1/2-x,1/2-y,-z
1/2+x,1/2-y,z
loop_
_atom_site_type_symbol
_atom_site_label
_atom_site_fract_x
_atom_site_fract_y
_atom_site_fract_z
Si Si1 0.544591 0.696872 0.718260
Si Si2 0.199177 0.793530 0.805903
Si Si3 0.467661 0.198495 0.592083
Si Si4 0.453525 0.198531 0.056477
Si Si5 0.304419 0.795928 0.796367
Si Si6 0.135966 0.297115 0.398055
Si Si7 0.359878 0.703842 0.378867
Si Si8 0.142013 0.798522 0.007889
O O1 0.539833 0.500000 0.695179
O O2 0.497468 0.782461 0.689524
O O3 0.554514 0.716511 0.834863
O O4 0.588514 0.765904 0.652339
O O5 0.251791 0.736392 0.804622
O O6 0.173816 0.739281 0.706430
O O7 0.199076 0.000000 0.806514
O O8 0.170683 0.738450 0.907068
O O9 0.500000 0.271807 0.500000
O O10 0.416412 0.269998 0.603957
O O11 0.462126 0.000000 0.570671
O O12 0.459551 0.000000 0.075223
O O13 0.500000 0.263693 0.000000
O O14 0.409074 0.225164 0.992649
O O15 0.331724 0.733529 0.695013
O O16 0.331370 0.746834 0.893878
O O17 0.302966 0.000000 0.792382
O O18 0.134333 0.500000 0.387593
O O19 0.153460 0.256935 0.507851
O O20 0.361220 0.500000 0.374882
O O21 0.138021 0.000000 0.001322
#
# Coordination Sequence:
#
# PCOD9195728 Si02
#       8
#     8   8   8   8   8   8   8   8
#     4  11  22  37  59  87 117 151 193 242 294 349
#     4   9  19  39  63  86 116 155 195 247 305 354
#     4  10  20  35  55  79 114 155 195 237 281 342
#     4  11  25  42  61  87 120 157 194 234 290 355
#     4  10  22  40  61  85 119 160 200 244 301 358
#     4  10  22  38  56  84 119 156 200 247 292 348
#     4  10  20  37  60  85 118 155 195 244 297 350
#     4  11  22  40  64  90 121 153 197 248 296 352
#
# _framework density 20.874867999999999
#
# number of rings (size 3 to 8) (size 9 to 14) (size 15 to 20)
#    0.000    1.750    2.500    1.500    1.750    3.250 
#    0.000    1.250    0.000    0.000    0.000    0.000 
#    0.000    0.000    0.000    0.000    0.000    0.000 
#
# Total GULP energy -178825.818366 kJ/mol
# GULP energy per Si atom -5588.306824 kJ/mol
# Density = 2.082736 g / cm^3
# Si number density = 20.874868 Si / 1000 Ang^3
#
#
#
# Elastic Constant Matrix: (Units=GPa)
#
#
# Indices 1 2 3 4 5 6 
#
# 1 151.7950 4.9497 82.5486 0.0000 -6.4755 0.0000
# 2 4.9497 20.4766 -4.3028 0.0000 -8.2287 0.0000
# 3 82.5486 -4.3028 137.4946 0.0000 7.9422 0.0000
# 4 0.0000 0.0000 0.0000 26.8275 0.0000 9.6723
# 5 -6.4755 -8.2287 7.9422 0.0000 29.0113 0.0000
# 6 0.0000 0.0000 0.0000 9.6723 0.0000 9.8369
#
#
#
# Elastic Compliance Matrix: (Units=1/GPa)
#
#
# Indices 1 2 3 4 5 6 
#
# 1 0.010337 -0.002506 -0.006479 0.000000 0.003370 0.000000
# 2 -0.002506 0.055821 0.002407 0.000000 0.014615 0.000000
# 3 -0.006479 0.002407 0.011464 0.000000 -0.003902 0.000000
# 4 0.000000 0.000000 0.000000 0.057746 0.000000 -0.056780
# 5 0.003370 0.014615 -0.003902 0.000000 0.040435 0.000000
# 6 0.000000 0.000000 0.000000 -0.056780 0.000000 0.157487
#
#
# Mechanical properties :
#
#
# Convention : Reuss Voigt Hill
#
# Bulk Modulus (GPa) = 15.51212 52.90633 34.20922
# Shear Modulus (GPa) = 13.58941 28.23985 20.91463
#
# Velocity S-wave (km/s) = 2.55423 3.68205 3.16872
# Velocity P-wave (km/s) = 4.01820 6.59365 5.45995
#
# Compressibility (1/GPa) = 0.06446574
#
# Stress axis : x y z
#
# Youngs Moduli (GPa) = 96.74260 17.91446 87.23283
#
# Poissons Ratio (x) = 0.04489 0.56518
# Poissons Ratio (y) = 0.24241 -0.20998
# Poissons Ratio (z) = 0.62680 -0.04312
#
# Static dielectric constant tensor:
#      x y z
#    x 1.744650 0.000000 -0.011650 
#    y 0.000000 1.753810 0.000000 
#    z -0.011650 0.000000 1.725490 
# 
# From -- ./inp_files/187479.got.cif
#   From: 2010.05.17/outbox.cif.g08.bks.cpg/sg12_94_cif.got.tgz:187479.got - 2010.06.03 13:09:07.
