data_PCOD9195394
_publ_section_title
;
Structure prediction by ZEFSAII (Michael W. Deem and Ramdas Pophale) SiO2 
 PCOD9195394
Probable space group: C 2/M
;
_chemical_formula_sum "Si O2"
_cell_formula_units_Z 64
_cell_length_a 15.113488
_cell_length_b 7.562560
_cell_length_c 30.899370
_cell_angle_alpha 90.000000
_cell_angle_beta 124.717277
_cell_angle_gamma 90.000000
_cell_volume 2902.955433
_symmetry_space_group_name_H-M "C 2/M"
_symmetry_group_IT_number 12
_symmetry_cell_setting 'monoclinic'
loop_
_space_group_symop_operation_xyz
x,y,z
-x,y,-z
-x,-y,-z
x,-y,z
1/2+x,1/2+y,z
1/2-x,1/2+y,-z
1/2-x,1/2-y,-z
1/2+x,1/2-y,z
loop_
_atom_site_type_symbol
_atom_site_label
_atom_site_fract_x
_atom_site_fract_y
_atom_site_fract_z
Si Si1 0.533428 0.207613 0.638435
Si Si2 0.409388 0.298060 0.181783
Si Si3 0.914434 0.784231 0.044579
Si Si4 0.294410 0.212456 0.560211
Si Si5 0.263814 0.704246 0.932134
Si Si6 0.082064 0.783507 0.158186
Si Si7 0.404945 0.714309 0.440999
Si Si8 0.319205 0.203389 0.245294
O O1 0.413142 0.284248 0.602296
O O2 0.578513 0.221771 0.602761
O O3 0.614110 0.284861 0.696581
O O4 0.521711 0.000000 0.646350
O O5 0.437762 0.500000 0.199018
O O6 0.295785 0.292864 0.124453
O O7 0.500251 0.228502 0.173959
O O8 0.391462 0.205582 0.222312
O O9 0.826023 0.717715 0.054723
O O10 0.028097 0.731437 0.097232
O O11 0.909197 0.000000 0.042919
O O12 0.871995 0.727517 0.985599
O O13 0.250000 0.250000 0.500000
O O14 0.206917 0.275730 0.570031
O O15 0.299227 0.000000 0.564658
O O16 0.281097 0.500000 0.924669
O O17 0.202259 0.719347 0.200891
O O18 0.081542 0.000000 0.157320
O O19 0.500000 0.771173 0.500000
O O20 0.406955 0.500000 0.440741
O O21 0.295965 0.000000 0.250856
#
# Coordination Sequence:
#
# PCOD9195394 Si02
#       8
#     8   8   8   8   8   8   8   8
#     4  10  22  37  55  81 110 139 174 220 265 305
#     4  10  20  35  54  76 103 139 179 219 265 316
#     4   8  14  26  46  73 102 134 173 216 264 319
#     4  10  20  35  55  81 112 142 172 209 255 306
#     4   9  15  25  46  75 103 133 171 217 269 319
#     4   8  16  33  55  74 100 138 176 215 260 317
#     4  10  20  35  56  81 109 142 175 207 252 311
#     4  10  21  38  56  76 104 138 179 221 262 309
#
# _framework density 22.046499000000001
#
# number of rings (size 3 to 8) (size 9 to 14) (size 15 to 20)
#    0.000    2.625    1.250    1.500    0.000    2.750 
#    0.000    3.750    0.000    3.750    0.000    0.000 
#    0.000    0.000    0.000    0.000    0.000    0.000 
#
# Total GULP energy -178569.190146 kJ/mol
# GULP energy per Si atom -5580.287192 kJ/mol
# Density = 2.199632 g / cm^3
# Si number density = 22.046499 Si / 1000 Ang^3
#
#
#
# Elastic Constant Matrix: (Units=GPa)
#
#
# Indices 1 2 3 4 5 6 
#
# 1 96.4505 -3.5126 58.3173 0.0000 15.2556 0.0000
# 2 -3.5126 50.4971 3.2456 0.0000 6.6907 0.0000
# 3 58.3173 3.2456 156.7877 0.0000 10.3936 0.0000
# 4 0.0000 0.0000 0.0000 12.2535 0.0000 -9.1827
# 5 15.2556 6.6907 10.3936 0.0000 31.7611 0.0000
# 6 0.0000 0.0000 0.0000 -9.1827 0.0000 11.9307
#
#
#
# Elastic Compliance Matrix: (Units=1/GPa)
#
#
# Indices 1 2 3 4 5 6 
#
# 1 0.014376 0.002078 -0.005012 0.000000 -0.005703 0.000000
# 2 0.002078 0.020675 -0.000865 0.000000 -0.005070 0.000000
# 3 -0.005012 -0.000865 0.008268 0.000000 -0.000116 0.000000
# 4 0.000000 0.000000 0.000000 0.192833 0.000000 0.148418
# 5 -0.005703 -0.005070 -0.000116 0.000000 0.035330 0.000000
# 6 0.000000 0.000000 0.000000 0.148418 0.000000 0.198051
#
#
# Mechanical properties :
#
#
# Convention : Reuss Voigt Hill
#
# Bulk Modulus (GPa) = 27.99481 46.64843 37.32162
# Shear Modulus (GPa) = 10.22412 27.56804 18.89608
#
# Velocity S-wave (km/s) = 2.15583 3.54001 2.93081
# Velocity P-wave (km/s) = 4.34999 6.15743 5.33087
#
# Compressibility (1/GPa) = 0.03572090
#
# Stress axis : x y z
#
# Youngs Moduli (GPa) = 69.55910 48.36753 120.94903
#
# Poissons Ratio (x) = -0.10050 0.60623
# Poissons Ratio (y) = -0.14453 0.10458
# Poissons Ratio (z) = 0.34865 0.04182
#
# Static dielectric constant tensor:
#      x y z
#    x 1.798760 0.000000 0.035500 
#    y 0.000000 2.376380 0.000000 
#    z 0.035500 0.000000 1.811750 
# 
# From -- ./inp_files/375685.got.cif
#   From: 2010.05.17/outbox.cif.g08.bks.cpg/sg12_188_cif.got.tgz:375685.got - 2010.06.03 13:09:07.
