data_PCOD9195317
_publ_section_title
;
Structure prediction by ZEFSAII (Michael W. Deem and Ramdas Pophale) SiO2 
 PCOD9195317
Probable space group: C 2/M
;
_chemical_formula_sum "Si O2"
_cell_formula_units_Z 56
_cell_length_a 26.148371
_cell_length_b 8.689812
_cell_length_c 16.361021
_cell_angle_alpha 90.000000
_cell_angle_beta 55.361336
_cell_angle_gamma 90.000000
_cell_volume 3058.685973
_symmetry_space_group_name_H-M "C 2/M"
_symmetry_group_IT_number 12
_symmetry_cell_setting 'monoclinic'
loop_
_space_group_symop_operation_xyz
x,y,z
-x,y,-z
-x,-y,-z
x,-y,z
1/2+x,1/2+y,z
1/2-x,1/2+y,-z
1/2-x,1/2-y,-z
1/2+x,1/2-y,z
loop_
_atom_site_type_symbol
_atom_site_label
_atom_site_fract_x
_atom_site_fract_y
_atom_site_fract_z
Si Si1 0.149561 0.815929 0.590766
Si Si2 0.837013 0.814709 0.006961
Si Si3 0.219890 0.314191 0.215281
Si Si4 0.111780 0.815768 0.215697
Si Si5 0.248425 0.685668 0.374264
Si Si6 0.486654 0.183873 0.268868
Si Si7 0.961334 0.685378 0.956281
O O1 0.193092 0.758062 0.477644
O O2 0.187120 0.770971 0.639428
O O3 0.081426 0.744795 0.649071
O O4 0.145022 0.000000 0.592647
O O5 0.854086 0.762981 0.899735
O O6 0.893118 0.757356 0.012843
O O7 0.836694 0.000000 0.007163
O O8 0.771480 0.761307 0.102573
O O9 0.216546 0.500000 0.215373
O O10 0.153456 0.246538 0.251309
O O11 0.242302 0.269528 0.285443
O O12 0.041904 0.752757 0.273694
O O13 0.110440 0.000000 0.217823
O O14 0.243485 0.500000 0.383553
O O15 0.503814 0.227607 0.159619
O O16 0.488046 0.000000 0.273609
O O17 0.955700 0.500000 0.963490
O O18 0.000000 0.735613 0.000000
#
# Coordination Sequence:
#
# PCOD9195317 Si02
#       7
#     8   8   8   8   8   8   8
#     4  10  20  36  58  82 108 137 175 221 268 318
#     4   9  19  33  51  76 107 144 180 215 260 312
#     4  10  20  35  55  79 108 142 181 220 264 316
#     4  10  20  35  53  79 110 142 182 222 261 310
#     4   9  20  37  56  80 109 140 175 217 267 322
#     4  10  20  35  56  77 105 145 179 214 267 320
#     4   9  19  33  48  74 109 141 177 218 258 309
#
# _framework density 18.308516000000001
#
# number of rings (size 3 to 8) (size 9 to 14) (size 15 to 20)
#    0.000    2.429    0.000    1.714    2.000    3.143 
#    0.000    0.714    0.000    4.286    0.000    0.000 
#    0.000    0.000    0.000    0.000    0.000    0.000 
#
# Total GULP energy -156257.708900 kJ/mol
# GULP energy per Si atom -5580.632461 kJ/mol
# Density = 1.826684 g / cm^3
# Si number density = 18.308516 Si / 1000 Ang^3
#
#
#
# Elastic Constant Matrix: (Units=GPa)
#
#
# Indices 1 2 3 4 5 6 
#
# 1 124.3624 24.3091 48.5322 0.0000 -17.3501 0.0000
# 2 24.3091 15.7515 18.6195 0.0000 -4.5772 0.0001
# 3 48.5322 18.6195 46.1369 0.0000 -14.0514 0.0000
# 4 0.0000 0.0000 0.0000 20.5115 0.0000 -2.7863
# 5 -17.3501 -4.5772 -14.0514 0.0000 29.8661 0.0000
# 6 0.0000 0.0001 0.0000 -2.7863 0.0000 32.0588
#
#
#
# Elastic Compliance Matrix: (Units=1/GPa)
#
#
# Indices 1 2 3 4 5 6 
#
# 1 0.014245 -0.008405 -0.011047 0.000000 0.001790 0.000000
# 2 -0.008405 0.127053 -0.044344 0.000000 -0.006274 0.000000
# 3 -0.011047 -0.044344 0.055056 0.000000 0.012689 0.000000
# 4 0.000000 0.000000 0.000000 0.049336 0.000000 0.004288
# 5 0.001790 -0.006274 0.012689 0.000000 0.039531 0.000000
# 6 0.000000 0.000000 0.000000 0.004288 0.000000 0.031565
#
#
# Mechanical properties :
#
#
# Convention : Reuss Voigt Hill
#
# Bulk Modulus (GPa) = 14.54322 41.01917 27.78120
# Shear Modulus (GPa) = 10.69980 22.80660 16.75320
#
# Velocity S-wave (km/s) = 2.42009 3.53325 3.02826
# Velocity P-wave (km/s) = 3.97112 6.25286 5.23775
#
# Compressibility (1/GPa) = 0.06876056
#
# Stress axis : x y z
#
# Youngs Moduli (GPa) = 70.20096 7.87075 18.16335
#
# Poissons Ratio (x) = 0.06615 0.20066
# Poissons Ratio (y) = 0.59005 0.80544
# Poissons Ratio (z) = 0.77553 0.34902
#
# Static dielectric constant tensor:
#      x y z
#    x 1.616850 0.000000 0.012030 
#    y 0.000000 1.608490 0.000000 
#    z 0.012030 0.000000 1.621960 
# 
# From -- ./inp_files/238337.got.cif
#   From: 2010.05.17/outbox.cif.g08.bks.cpg/sg12_120_cif.got.tgz:238337.got - 2010.06.03 13:09:07.
