data_PCOD9195769
_publ_section_title
;
Structure prediction by ZEFSAII (Michael W. Deem and Ramdas Pophale) SiO2 
 PCOD9195769
Probable space group: C 2/M
;
_chemical_formula_sum "Si O2"
_cell_formula_units_Z 56
_cell_length_a 27.240313
_cell_length_b 8.838163
_cell_length_c 17.848598
_cell_angle_alpha 90.000000
_cell_angle_beta 44.367212
_cell_angle_gamma 90.000000
_cell_volume 3004.784935
_symmetry_space_group_name_H-M "C 2/M"
_symmetry_group_IT_number 12
_symmetry_cell_setting 'monoclinic'
loop_
_space_group_symop_operation_xyz
x,y,z
-x,y,-z
-x,-y,-z
x,-y,z
1/2+x,1/2+y,z
1/2-x,1/2+y,-z
1/2-x,1/2-y,-z
1/2+x,1/2-y,z
loop_
_atom_site_type_symbol
_atom_site_label
_atom_site_fract_x
_atom_site_fract_y
_atom_site_fract_z
Si Si1 0.345163 0.681805 0.555655
Si Si2 0.155212 0.319089 0.880756
Si Si3 0.087321 0.182039 0.667398
Si Si4 0.062290 0.181675 0.106894
Si Si5 0.686040 0.179684 0.680279
Si Si6 0.192550 0.680278 0.249567
Si Si7 0.177330 0.180552 0.109048
O O1 0.349175 0.500000 0.562999
O O2 0.400182 0.730001 0.432118
O O3 0.267845 0.713654 0.605512
O O4 0.347881 0.763082 0.632411
O O5 0.163270 0.500000 0.878406
O O6 0.148081 0.282440 0.800505
O O7 0.227627 0.242722 0.829562
O O8 0.092079 0.260831 0.000494
O O9 0.150959 0.235250 0.650053
O O10 0.014454 0.233758 0.783408
O O11 0.086608 0.000000 0.667013
O O12 0.117031 0.212091 0.114267
O O13 0.060893 0.000000 0.096528
O O14 0.680078 0.000000 0.674292
O O15 0.194446 0.500000 0.244029
O O16 0.162024 0.748561 0.206590
O O17 0.184867 0.000000 0.107859
O O18 0.250000 0.250000 0.000000
#
# Coordination Sequence:
#
# PCOD9195769 Si02
#       7
#     8   8   8   8   8   8   8
#     4   9  19  37  58  80 109 144 185 226 268 321
#     4  10  20  35  55  80 111 145 181 223 273 325
#     4  10  21  37  56  79 109 147 185 225 271 320
#     4  10  22  37  54  80 112 144 182 224 270 327
#     4   9  19  34  54  81 108 140 184 229 272 320
#     4  11  21  34  56  85 111 138 179 229 277 322
#     4  11  21  35  57  83 111 142 181 224 273 327
#
# _framework density 18.636941
#
# number of rings (size 3 to 8) (size 9 to 14) (size 15 to 20)
#    0.000    2.000    1.429    3.429    0.000    5.143 
#    0.000    3.571    0.000    4.286    0.000    0.000 
#    0.000    0.000    0.000    0.000    0.000    0.000 
#
# Total GULP energy -156361.435837 kJ/mol
# GULP energy per Si atom -5584.336994 kJ/mol
# Density = 1.859452 g / cm^3
# Si number density = 18.636941 Si / 1000 Ang^3
#
#
#
# Elastic Constant Matrix: (Units=GPa)
#
#
# Indices 1 2 3 4 5 6 
#
# 1 22.9859 15.3182 4.9644 0.0012 18.8946 0.0008
# 2 15.3182 37.9711 24.9333 -0.0023 10.5153 0.0026
# 3 4.9644 24.9333 107.7662 0.0027 27.0268 0.0026
# 4 0.0012 -0.0023 0.0027 27.1887 -0.0002 7.5771
# 5 18.8946 10.5153 27.0268 -0.0002 24.7697 -0.0005
# 6 0.0008 0.0026 0.0026 7.5771 -0.0005 25.3444
#
#
#
# Elastic Compliance Matrix: (Units=1/GPa)
#
#
# Indices 1 2 3 4 5 6 
#
# 1 0.445495 -0.142654 0.113609 -0.000044 -0.403231 -0.000005
# 2 -0.142654 0.077739 -0.041892 0.000019 0.121526 -0.000003
# 3 0.113609 -0.041892 0.042696 -0.000013 -0.115465 -0.000002
# 4 -0.000044 0.000019 -0.000013 0.040123 0.000040 -0.011995
# 5 -0.403231 0.121526 -0.115465 0.000040 0.422357 0.000008
# 6 -0.000005 -0.000003 -0.000002 -0.011995 0.000008 0.043043
#
#
# Mechanical properties :
#
#
# Convention : Reuss Voigt Hill
#
# Bulk Modulus (GPa) = 2.35818 28.79500 15.57659
# Shear Modulus (GPa) = 3.69092 23.69437 13.69264
#
# Velocity S-wave (km/s) = 1.40880 3.56949 2.71348
# Velocity P-wave (km/s) = 1.97848 5.69845 4.26537
#
# Compressibility (1/GPa) = 0.42405597
#
# Stress axis : x y z
#
# Youngs Moduli (GPa) = 2.24469 12.86360 23.42165
#
# Poissons Ratio (x) = 1.83504 -2.66092
# Poissons Ratio (y) = 0.32021 0.98118
# Poissons Ratio (z) = -0.25502 0.53888
#
# Static dielectric constant tensor:
#      x y z
#    x 1.616420 0.000000 0.008710 
#    y 0.000000 1.624130 0.000000 
#    z 0.008710 0.000000 1.663690 
# 
# From -- ./inp_files/288198.got.cif
#   From: 2010.05.17/outbox.cif.g08.bks.cpg/sg12_145_cif.got.tgz:288198.got - 2010.06.03 13:09:07.
