data_PCOD9195193
_publ_section_title
;
Structure prediction by ZEFSAII (Michael W. Deem and Ramdas Pophale) SiO2 
 PCOD9195193
Probable space group: C 2/M
;
_chemical_formula_sum "Si O2"
_cell_formula_units_Z 56
_cell_length_a 25.877519
_cell_length_b 12.150964
_cell_length_c 6.912256
_cell_angle_alpha 90.000000
_cell_angle_beta 98.279226
_cell_angle_gamma 90.000000
_cell_volume 2150.815929
_symmetry_space_group_name_H-M "C 2/M"
_symmetry_group_IT_number 12
_symmetry_cell_setting 'monoclinic'
loop_
_space_group_symop_operation_xyz
x,y,z
-x,y,-z
-x,-y,-z
x,-y,z
1/2+x,1/2+y,z
1/2-x,1/2+y,-z
1/2-x,1/2-y,-z
1/2+x,1/2-y,z
loop_
_atom_site_type_symbol
_atom_site_label
_atom_site_fract_x
_atom_site_fract_y
_atom_site_fract_z
Si Si1 0.515620 0.165265 0.798596
Si Si2 0.126827 0.613391 0.903057
Si Si3 0.577570 0.618574 0.886669
Si Si4 0.599076 0.872438 0.348595
Si Si5 0.816106 0.801110 0.948119
Si Si6 0.636258 0.626692 0.506173
Si Si7 0.752550 0.879863 0.248589
O O1 0.532637 0.291147 0.846859
O O2 0.463305 0.144238 0.654837
O O3 0.500000 0.118726 0.000000
O O4 0.571644 0.118888 0.766883
O O5 0.153562 0.500000 0.878498
O O6 0.111782 0.623792 0.122711
O O7 0.166042 0.709878 0.883370
O O8 0.556350 0.500000 0.922909
O O9 0.604486 0.617219 0.690741
O O10 0.627108 0.644531 0.055837
O O11 0.621534 0.752167 0.427340
O O12 0.612978 0.000000 0.419215
O O13 0.785421 0.725835 0.777645
O O14 0.777857 0.878613 0.045867
O O15 0.627057 0.500000 0.414863
O O16 0.698364 0.627991 0.582351
O O17 0.727192 0.000000 0.268934
#
# Coordination Sequence:
#
# PCOD9195193 Si02
#       7
#     8   8   8   8   8   8   8
#     4   9  18  32  51  75  99 128 165 207 255 304
#     4   9  17  31  51  73  98 128 162 205 258 307
#     4   9  18  33  51  73 104 135 164 205 253 304
#     4  10  20  35  52  72 101 134 173 218 255 292
#     4   9  16  29  51  76  95 121 163 204 250 301
#     4   9  19  36  52  69 100 140 174 202 248 308
#     4   9  17  31  51  73 100 131 163 206 255 303
#
# _framework density 26.036629000000001
#
# number of rings (size 3 to 8) (size 9 to 14) (size 15 to 20)
#    0.000    2.857    0.000    2.143    0.000    3.143 
#    0.000   23.571    0.000    0.000    0.000    0.000 
#    0.000    0.000    0.000    0.000    0.000    0.000 
#
# Total GULP energy -155896.183314 kJ/mol
# GULP energy per Si atom -5567.720833 kJ/mol
# Density = 2.597737 g / cm^3
# Si number density = 26.036629 Si / 1000 Ang^3
#
#
#
# Elastic Constant Matrix: (Units=GPa)
#
#
# Indices 1 2 3 4 5 6 
#
# 1 79.9466 35.3538 35.3741 0.0000 14.3473 0.0000
# 2 35.3538 269.4283 57.5503 0.0000 15.7595 0.0000
# 3 35.3741 57.5503 84.1447 0.0000 12.1533 0.0000
# 4 0.0000 0.0000 0.0000 28.1704 0.0000 -0.2561
# 5 14.3473 15.7595 12.1533 0.0000 34.7090 0.0000
# 6 0.0000 0.0000 0.0000 -0.2561 0.0000 4.6106
#
#
#
# Elastic Compliance Matrix: (Units=1/GPa)
#
#
# Indices 1 2 3 4 5 6 
#
# 1 0.016096 -0.000639 -0.005699 0.000000 -0.004368 0.000000
# 2 -0.000639 0.004404 -0.002625 0.000000 -0.000816 0.000000
# 3 -0.005699 -0.002625 0.016392 0.000000 -0.002192 0.000000
# 4 0.000000 0.000000 0.000000 0.035516 0.000000 0.001973
# 5 -0.004368 -0.000816 -0.002192 0.000000 0.031755 0.000000
# 6 0.000000 0.000000 0.000000 0.001973 0.000000 0.217003
#
#
# Mechanical properties :
#
#
# Convention : Reuss Voigt Hill
#
# Bulk Modulus (GPa) = 52.72683 76.67511 64.70097
# Shear Modulus (GPa) = 14.47531 33.84742 24.16136
#
# Velocity S-wave (km/s) = 2.36044 3.60945 3.04957
# Velocity P-wave (km/s) = 5.26535 6.84717 6.10768
#
# Compressibility (1/GPa) = 0.01896568
#
# Stress axis : x y z
#
# Youngs Moduli (GPa) = 62.12533 227.06692 61.00447
#
# Poissons Ratio (x) = 0.14519 0.34765
# Poissons Ratio (y) = 0.03972 0.16016
# Poissons Ratio (z) = 0.35403 0.59615
#
# Static dielectric constant tensor:
#      x y z
#    x 2.031640 0.000000 0.005160 
#    y 0.000000 2.079860 0.000000 
#    z 0.005160 0.000000 2.162100 
# 
# From -- ./inp_files/110556.got.cif
#   From: 2010.05.17/outbox.cif.g08.bks.cpg/sg12_56_cif.got.tgz:110556.got - 2010.06.03 13:09:07.
