data_PCOD9195859
_publ_section_title
;
Structure prediction by ZEFSAII (Michael W. Deem and Ramdas Pophale) SiO2 
 PCOD9195859
Probable space group: C 2/M
;
_chemical_formula_sum "Si O2"
_cell_formula_units_Z 64
_cell_length_a 27.957586
_cell_length_b 14.396021
_cell_length_c 8.979609
_cell_angle_alpha 90.000000
_cell_angle_beta 78.921014
_cell_angle_gamma 90.000000
_cell_volume 3546.739890
_symmetry_space_group_name_H-M "C 2/M"
_symmetry_group_IT_number 12
_symmetry_cell_setting 'monoclinic'
loop_
_space_group_symop_operation_xyz
x,y,z
-x,y,-z
-x,-y,-z
x,-y,z
1/2+x,1/2+y,z
1/2-x,1/2+y,-z
1/2-x,1/2-y,-z
1/2+x,1/2-y,z
loop_
_atom_site_type_symbol
_atom_site_label
_atom_site_fract_x
_atom_site_fract_y
_atom_site_fract_z
Si Si1 0.233188 0.650822 0.571685
Si Si2 0.223396 0.610890 0.926319
Si Si3 0.632814 0.786853 0.137382
Si Si4 0.168389 0.101653 0.622222
Si Si5 0.636799 0.793513 0.493597
Si Si6 0.326607 0.391237 0.025198
Si Si7 0.464472 0.105868 0.901865
Si Si8 0.037738 0.605029 0.587988
O O1 0.250000 0.750000 0.500000
O O2 0.229670 0.644704 0.751963
O O3 0.277915 0.592763 0.481732
O O4 0.180107 0.640873 0.530719
O O5 0.215624 0.500000 0.926637
O O6 0.178023 0.659753 0.033142
O O7 0.272928 0.628428 0.989305
O O8 0.637881 0.790182 0.313376
O O9 0.582915 0.837104 0.117300
O O10 0.637329 0.681553 0.074523
O O11 0.143895 0.190083 0.556814
O O12 0.173185 0.121295 0.796161
O O13 0.144110 0.000000 0.618723
O O14 0.586262 0.837339 0.576630
O O15 0.337442 0.500000 0.988347
O O16 0.503379 0.094831 0.748466
O O17 0.449855 0.000000 0.958611
O O18 0.500000 0.153074 0.000000
O O19 0.050451 0.500000 0.525070
O O20 0.000000 0.653619 0.500000
#
# Coordination Sequence:
#
# PCOD9195859 Si02
#       8
#     8   8   8   8   8   8   8   8
#     4  10  20  35  55  83 115 150 190 230 275 331
#     4  11  23  37  56  85 120 155 192 235 283 340
#     4  12  22  37  60  85 116 152 190 234 284 343
#     4  10  21  39  59  82 115 151 190 236 283 335
#     4  11  23  36  59  87 114 151 192 233 283 339
#     4  10  22  39  59  83 115 153 192 236 285 336
#     4  10  23  40  60  86 115 148 185 231 285 339
#     4  10  21  40  60  83 115 148 185 229 281 338
#
# _framework density 18.044740999999998
#
# number of rings (size 3 to 8) (size 9 to 14) (size 15 to 20)
#    0.000    1.500    1.250    4.875    3.500    3.000 
#    0.000    0.000    0.000    1.500    0.000    0.000 
#    0.000    0.000    0.000    0.000    0.000    0.000 
#
# Total GULP energy -178381.202322 kJ/mol
# GULP energy per Si atom -5574.412573 kJ/mol
# Density = 1.800367 g / cm^3
# Si number density = 18.044741 Si / 1000 Ang^3
#
#
#
# Elastic Constant Matrix: (Units=GPa)
#
#
# Indices 1 2 3 4 5 6 
#
# 1 136.2425 65.1978 43.5123 0.0000 3.2253 0.0000
# 2 65.1978 113.5817 38.7068 0.0000 -3.0996 0.0000
# 3 43.5123 38.7068 96.1078 0.0000 11.8710 0.0000
# 4 0.0000 0.0000 0.0000 18.3313 0.0000 -8.9881
# 5 3.2253 -3.0996 11.8710 0.0000 32.2423 0.0000
# 6 0.0000 0.0000 0.0000 -8.9881 0.0000 22.4427
#
#
#
# Elastic Compliance Matrix: (Units=1/GPa)
#
#
# Indices 1 2 3 4 5 6 
#
# 1 0.010723 -0.005265 -0.002660 0.000000 -0.000599 0.000000
# 2 -0.005265 0.013005 -0.003220 0.000000 0.002962 0.000000
# 3 -0.002660 -0.003220 0.013527 0.000000 -0.005024 0.000000
# 4 0.000000 0.000000 0.000000 0.067881 0.000000 0.027186
# 5 -0.000599 0.002962 -0.005024 0.000000 0.033209 0.000000
# 6 0.000000 0.000000 0.000000 0.027186 0.000000 0.055446
#
#
# Mechanical properties :
#
#
# Convention : Reuss Voigt Hill
#
# Bulk Modulus (GPa) = 66.82610 71.19621 69.01115
# Shear Modulus (GPa) = 22.61736 27.83759 25.22748
#
# Velocity S-wave (km/s) = 3.54419 3.93198 3.74311
# Velocity P-wave (km/s) = 7.33909 7.75597 7.55041
#
# Compressibility (1/GPa) = 0.01496421
#
# Stress axis : x y z
#
# Youngs Moduli (GPa) = 93.25515 76.89643 73.92804
#
# Poissons Ratio (x) = 0.40486 0.19668
# Poissons Ratio (y) = 0.49099 0.23802
# Poissons Ratio (z) = 0.24810 0.24758
#
# Static dielectric constant tensor:
#      x y z
#    x 1.438200 0.000000 0.001320 
#    y 0.000000 1.652150 0.000000 
#    z 0.001320 0.000000 1.562490 
# 
# From -- ./inp_files/104490.got.cif
#   From: 2010.05.17/outbox.cif.g08.bks.cpg/sg12_53_cif.got.tgz:104490.got - 2010.06.03 13:09:07.
