data_PCOD9195263
_publ_section_title
;
Structure prediction by ZEFSAII (Michael W. Deem and Ramdas Pophale) SiO2 
 PCOD9195263
Probable space group: C 2/M
;
_chemical_formula_sum "Si O2"
_cell_formula_units_Z 64
_cell_length_a 19.453157
_cell_length_b 7.613219
_cell_length_c 16.301633
_cell_angle_alpha 90.000000
_cell_angle_beta 89.839570
_cell_angle_gamma 90.000000
_cell_volume 2414.281040
_symmetry_space_group_name_H-M "C 2/M"
_symmetry_group_IT_number 12
_symmetry_cell_setting 'monoclinic'
loop_
_space_group_symop_operation_xyz
x,y,z
-x,y,-z
-x,-y,-z
x,-y,z
1/2+x,1/2+y,z
1/2-x,1/2+y,-z
1/2-x,1/2-y,-z
1/2+x,1/2-y,z
loop_
_atom_site_type_symbol
_atom_site_label
_atom_site_fract_x
_atom_site_fract_y
_atom_site_fract_z
Si Si1 0.642567 0.707208 0.029045
Si Si2 0.515648 0.294211 0.624639
Si Si3 0.225800 0.712544 0.374165
Si Si4 0.895116 0.298207 0.728291
Si Si5 0.730798 0.712890 0.873423
Si Si6 0.642905 0.207065 0.532697
Si Si7 0.106542 0.784704 0.777411
Si Si8 0.016143 0.202032 0.118338
O O1 0.633856 0.500000 0.014054
O O2 0.692664 0.726993 0.107391
O O3 0.567757 0.781397 0.051199
O O4 0.685769 0.776017 0.952214
O O5 0.502419 0.500000 0.635136
O O6 0.443607 0.204066 0.646280
O O7 0.565854 0.274771 0.546749
O O8 0.567205 0.226267 0.696443
O O9 0.222896 0.500000 0.371275
O O10 0.179361 0.771682 0.297864
O O11 0.304716 0.756116 0.391993
O O12 0.183740 0.779792 0.454112
O O13 0.888103 0.500000 0.755467
O O14 0.938397 0.202734 0.798089
O O15 0.733248 0.500000 0.872859
O O16 0.684288 0.767916 0.796653
O O17 0.637610 0.000000 0.523348
O O18 0.056873 0.725791 0.852508
O O19 0.105980 0.000000 0.775216
O O20 0.003384 0.000000 0.095655
#
# Coordination Sequence:
#
# PCOD9195263 Si02
#       8
#     8   8   8   8   8   8   8   8
#     4   9  18  31  48  71  98 126 158 200 245 289
#     4  10  20  35  53  75 105 134 164 206 252 296
#     4   9  20  37  54  74 102 133 166 208 251 292
#     4  10  20  35  54  75 100 132 170 207 246 295
#     4   9  17  31  50  70  94 127 164 198 238 290
#     4  10  20  35  55  77 101 131 168 207 248 297
#     4   8  16  31  50  70  93 125 163 201 238 282
#     4   9  18  33  50  71  99 127 160 204 250 291
#
# _framework density 26.508927
#
# number of rings (size 3 to 8) (size 9 to 14) (size 15 to 20)
#    0.000    2.750    0.000    1.875    0.000    4.000 
#    0.000   11.875    0.000    0.000    0.000    7.000 
#    0.000    0.000    0.000    0.000    0.000    0.000 
#
# Total GULP energy -178877.150663 kJ/mol
# GULP energy per Si atom -5589.910958 kJ/mol
# Density = 2.644859 g / cm^3
# Si number density = 26.508927 Si / 1000 Ang^3
#
#
#
# Elastic Constant Matrix: (Units=GPa)
#
#
# Indices 1 2 3 4 5 6 
#
# 1 189.6854 -2.2294 16.4230 0.0000 7.0974 0.0000
# 2 -2.2294 69.8965 -3.4954 0.0000 5.4440 0.0000
# 3 16.4230 -3.4954 57.1023 0.0000 6.3972 0.0000
# 4 0.0000 0.0000 0.0000 2.6863 0.0000 1.4311
# 5 7.0974 5.4440 6.3972 0.0000 56.5498 0.0000
# 6 0.0000 0.0000 0.0000 1.4311 0.0000 15.4081
#
#
#
# Elastic Compliance Matrix: (Units=1/GPa)
#
#
# Indices 1 2 3 4 5 6 
#
# 1 0.005422 0.000139 -0.001492 0.000000 -0.000525 0.000000
# 2 0.000139 0.014481 0.001017 0.000000 -0.001527 0.000000
# 3 -0.001492 0.001017 0.018225 0.000000 -0.001972 0.000000
# 4 0.000000 0.000000 0.000000 0.391642 0.000000 -0.036377
# 5 -0.000525 -0.001527 -0.001972 0.000000 0.018120 0.000000
# 6 0.000000 0.000000 0.000000 -0.036377 0.000000 0.068280
#
#
# Mechanical properties :
#
#
# Convention : Reuss Voigt Hill
#
# Bulk Modulus (GPa) = 26.69710 37.56450 32.13080
# Shear Modulus (GPa) = 9.44597 35.32791 22.38694
#
# Velocity S-wave (km/s) = 1.88972 3.65455 2.90919
# Velocity P-wave (km/s) = 3.85412 5.65764 4.84062
#
# Compressibility (1/GPa) = 0.03745725
#
# Stress axis : x y z
#
# Youngs Moduli (GPa) = 184.42138 69.05555 54.87026
#
# Poissons Ratio (x) = -0.00962 0.08187
# Poissons Ratio (y) = -0.02568 -0.05583
# Poissons Ratio (z) = 0.27518 -0.07026
#
# Static dielectric constant tensor:
#      x y z
#    x 2.045180 0.000000 -0.035500 
#    y 0.000000 2.009120 0.000000 
#    z -0.035500 0.000000 2.227620 
# 
# From -- ./inp_files/314194.got.cif
#   From: 2010.05.17/outbox.cif.g08.bks.cpg/sg12_158_cif.got.tgz:314194.got - 2010.06.03 13:09:07.
