data_PCOD9195157
_publ_section_title
;
Structure prediction by ZEFSAII (Michael W. Deem and Ramdas Pophale) SiO2 
 PCOD9195157
Probable space group: C 2/M
;
_chemical_formula_sum "Si O2"
_cell_formula_units_Z 36
_cell_length_a 26.352668
_cell_length_b 11.843212
_cell_length_c 5.424706
_cell_angle_alpha 90.000000
_cell_angle_beta 108.947451
_cell_angle_gamma 90.000000
_cell_volume 1601.316991
_symmetry_space_group_name_H-M "C 2/M"
_symmetry_group_IT_number 12
_symmetry_cell_setting 'monoclinic'
loop_
_space_group_symop_operation_xyz
x,y,z
-x,y,-z
-x,-y,-z
x,-y,z
1/2+x,1/2+y,z
1/2-x,1/2+y,-z
1/2-x,1/2-y,-z
1/2+x,1/2-y,z
loop_
_atom_site_type_symbol
_atom_site_label
_atom_site_fract_x
_atom_site_fract_y
_atom_site_fract_z
Si Si1 0.911199 0.870827 0.569900
Si Si2 0.533662 0.000000 0.803047
Si Si3 0.911116 0.259226 0.054799
Si Si4 0.795198 0.789117 0.383622
Si Si5 0.307618 0.870985 0.010692
O O1 0.920956 0.816537 0.314740
O O2 0.846514 0.866020 0.508511
O O3 0.929845 0.000000 0.607424
O O4 0.931891 0.797874 0.835801
O O5 0.500000 0.000000 0.500000
O O6 0.565724 0.882846 0.859660
O O7 0.500000 0.000000 0.000000
O O8 0.847081 0.286167 0.926621
O O9 0.750000 0.750000 0.500000
O O10 0.817720 0.672607 0.303080
O O11 0.755805 0.854740 0.131255
O O12 0.321310 0.000000 0.987212
#
# Coordination Sequence:
#
# PCOD9195157 Si02
#       5
#     8   4   8   8   8
#     4  11  23  40  65  95 137 182 224 266 318 390
#     4  12  26  48  78 106 132 162 212 288 352 418
#     4  11  23  43  67  97 129 170 216 267 345 399
#     4  10  20  35  50  85 125 178 226 263 307 364
#     4  10  20  35  54  81 124 170 217 269 318 378
#
# _framework density 22.481497000000001
#
# number of rings (size 3 to 8) (size 9 to 14) (size 15 to 20)
#    0.000    1.333    3.333    2.667    0.000    1.778 
#    2.000    0.000    0.000   13.333    0.000    0.000 
#    0.000    0.000    0.000    0.000    0.000    0.000 
#
# Total GULP energy -100365.690010 kJ/mol
# GULP energy per Si atom -5575.871667 kJ/mol
# Density = 2.243033 g / cm^3
# Si number density = 22.481497 Si / 1000 Ang^3
#
#
#
# Elastic Constant Matrix: (Units=GPa)
#
#
# Indices 1 2 3 4 5 6 
#
# 1 27.4725 3.2313 15.3105 0.0000 3.1928 0.0000
# 2 3.2313 155.8870 51.3643 0.0000 -1.3105 0.0000
# 3 15.3105 51.3643 109.1717 0.0000 -4.7318 0.0000
# 4 0.0000 0.0000 0.0000 24.4694 0.0000 -4.4902
# 5 3.1928 -1.3105 -4.7318 0.0000 30.6958 0.0000
# 6 0.0000 0.0000 0.0000 -4.4902 0.0000 19.6654
#
#
#
# Elastic Compliance Matrix: (Units=1/GPa)
#
#
# Indices 1 2 3 4 5 6 
#
# 1 0.040468 0.001256 -0.006490 0.000000 -0.005156 0.000000
# 2 0.001256 0.007632 -0.003784 0.000000 -0.000388 0.000000
# 3 -0.006490 -0.003784 0.011952 0.000000 0.002356 0.000000
# 4 0.000000 0.000000 0.000000 0.042655 0.000000 0.009739
# 5 -0.005156 -0.000388 0.002356 0.000000 0.033461 0.000000
# 6 0.000000 0.000000 0.000000 0.009739 0.000000 0.053075
#
#
# Mechanical properties :
#
#
# Convention : Reuss Voigt Hill
#
# Bulk Modulus (GPa) = 23.79938 48.03816 35.91877
# Shear Modulus (GPa) = 22.59536 29.80779 26.20158
#
# Velocity S-wave (km/s) = 3.17372 3.64522 3.41761
# Velocity P-wave (km/s) = 4.90297 6.25548 5.62006
#
# Compressibility (1/GPa) = 0.04201791
#
# Stress axis : x y z
#
# Youngs Moduli (GPa) = 24.71069 131.02024 83.66466
#
# Poissons Ratio (x) = -0.16459 0.54297
# Poissons Ratio (y) = -0.03104 0.31658
# Poissons Ratio (z) = 0.16037 0.49578
#
# Static dielectric constant tensor:
#      x y z
#    x 1.923670 0.000000 0.005010 
#    y 0.000000 1.864020 0.000000 
#    z 0.005010 0.000000 1.961690 
# 
# From -- ./inp_files/27554.got.cif
#   From: 2010.05.17/outbox.cif.g08.bks.cpg/sg12_14_cif.got.tgz:27554.got - 2010.06.03 13:09:07.
