data_PCOD9195582
_publ_section_title
;
Structure prediction by ZEFSAII (Michael W. Deem and Ramdas Pophale) SiO2 
 PCOD9195582
Probable space group: C 2/M
;
_chemical_formula_sum "Si O2"
_cell_formula_units_Z 64
_cell_length_a 19.417316
_cell_length_b 8.656701
_cell_length_c 21.306872
_cell_angle_alpha 90.000000
_cell_angle_beta 90.396024
_cell_angle_gamma 90.000000
_cell_volume 3581.384408
_symmetry_space_group_name_H-M "C 2/M"
_symmetry_group_IT_number 12
_symmetry_cell_setting 'monoclinic'
loop_
_space_group_symop_operation_xyz
x,y,z
-x,y,-z
-x,-y,-z
x,-y,z
1/2+x,1/2+y,z
1/2-x,1/2+y,-z
1/2-x,1/2-y,-z
1/2+x,1/2-y,z
loop_
_atom_site_type_symbol
_atom_site_label
_atom_site_fract_x
_atom_site_fract_y
_atom_site_fract_z
Si Si1 0.331646 0.314106 0.636617
Si Si2 0.673043 0.814517 0.003522
Si Si3 0.420281 0.184393 0.749989
Si Si4 0.330259 0.186302 0.367916
Si Si5 0.419891 0.316084 0.886398
Si Si6 0.926652 0.312973 0.110783
Si Si7 0.172268 0.184948 0.501518
Si Si8 0.920727 0.312875 0.252137
O O1 0.336471 0.500000 0.642979
O O2 0.372728 0.235447 0.692599
O O3 0.250510 0.272725 0.638968
O O4 0.358244 0.271845 0.566753
O O5 0.627440 0.767255 0.942712
O O6 0.675370 0.000000 0.004901
O O7 0.750000 0.750000 0.000000
O O8 0.633163 0.753740 0.064261
O O9 0.401428 0.263298 0.815743
O O10 0.499617 0.228432 0.736417
O O11 0.417944 0.000000 0.758521
O O12 0.358318 0.250722 0.434141
O O13 0.372154 0.243018 0.307690
O O14 0.333702 0.000000 0.370869
O O15 0.419701 0.500000 0.890552
O O16 0.497118 0.253588 0.900161
O O17 0.932589 0.500000 0.110395
O O18 0.903639 0.264449 0.180804
O O19 0.250000 0.250000 0.500000
O O20 0.174834 0.000000 0.504367
O O21 0.916261 0.500000 0.252792
#
# Coordination Sequence:
#
# PCOD9195582 Si02
#       8
#     8   8   8   8   8   8   8   8
#     4   9  18  31  49  74 102 133 170 215 265 312
#     4  11  23  38  57  83 114 144 177 221 269 315
#     4  10  20  35  55  77 103 136 174 216 260 313
#     4   9  17  31  52  75 101 134 172 214 257 308
#     4  11  22  37  58  80 106 142 181 221 265 317
#     4   9  19  37  59  80 106 143 182 218 259 313
#     4   9  17  30  48  71 100 134 172 212 255 307
#     4   8  16  33  54  75  99 131 172 212 254 303
#
# _framework density 17.870184999999999
#
# number of rings (size 3 to 8) (size 9 to 14) (size 15 to 20)
#    0.000    2.500    0.000    4.125    0.000    6.000 
#    0.000    6.250    0.000    3.750    0.000    0.000 
#    0.000    0.000    0.000    0.000    0.000    0.000 
#
# Total GULP energy -178456.572884 kJ/mol
# GULP energy per Si atom -5576.767903 kJ/mol
# Density = 1.782951 g / cm^3
# Si number density = 17.870185 Si / 1000 Ang^3
#
#
#
# Elastic Constant Matrix: (Units=GPa)
#
#
# Indices 1 2 3 4 5 6 
#
# 1 89.4046 33.6073 111.0470 0.0000 -9.7437 0.0000
# 2 33.6073 39.4973 49.1137 0.0000 0.9036 0.0000
# 3 111.0470 49.1137 197.6875 0.0000 -13.7812 0.0000
# 4 0.0000 0.0000 0.0000 29.7283 0.0000 2.9468
# 5 -9.7437 0.9036 -13.7812 0.0000 40.6379 0.0000
# 6 0.0000 0.0000 0.0000 2.9468 0.0000 24.9533
#
#
#
# Elastic Compliance Matrix: (Units=1/GPa)
#
#
# Indices 1 2 3 4 5 6 
#
# 1 0.039254 -0.009127 -0.019575 0.000000 0.002976 0.000000
# 2 -0.009127 0.039403 -0.004994 0.000000 -0.004758 0.000000
# 3 -0.019575 -0.004994 0.017387 0.000000 0.001314 0.000000
# 4 0.000000 0.000000 0.000000 0.034036 0.000000 -0.004019
# 5 0.002976 -0.004758 0.001314 0.000000 0.025873 0.000000
# 6 0.000000 0.000000 0.000000 -0.004019 0.000000 0.040549
#
#
# Mechanical properties :
#
#
# Convention : Reuss Voigt Hill
#
# Bulk Modulus (GPa) = 34.90269 79.34727 57.12498
# Shear Modulus (GPa) = 18.28515 27.91866 23.10190
#
# Velocity S-wave (km/s) = 3.20225 3.95689 3.59940
# Velocity P-wave (km/s) = 5.76595 8.08544 7.02213
#
# Compressibility (1/GPa) = 0.02865108
#
# Stress axis : x y z
#
# Youngs Moduli (GPa) = 25.47491 25.37874 57.51514
#
# Poissons Ratio (x) = 0.23164 1.12587
# Poissons Ratio (y) = 0.23252 0.28722
# Poissons Ratio (z) = 0.49868 0.12674
#
# Static dielectric constant tensor:
#      x y z
#    x 1.590870 0.000000 -0.008080 
#    y 0.000000 1.606880 0.000000 
#    z -0.008080 0.000000 1.629470 
# 
# From -- ./inp_files/314038.got.cif
#   From: 2010.05.17/outbox.cif.g08.bks.cpg/sg12_158_cif.got.tgz:314038.got - 2010.06.03 13:09:07.
