data_PCOD9195363
_publ_section_title
;
Structure prediction by ZEFSAII (Michael W. Deem and Ramdas Pophale) SiO2 
 PCOD9195363
Probable space group: C 2/M
;
_chemical_formula_sum "Si O2"
_cell_formula_units_Z 56
_cell_length_a 20.048298
_cell_length_b 7.784818
_cell_length_c 31.397142
_cell_angle_alpha 90.000000
_cell_angle_beta 143.136573
_cell_angle_gamma 90.000000
_cell_volume 2939.692722
_symmetry_space_group_name_H-M "C 2/M"
_symmetry_group_IT_number 12
_symmetry_cell_setting 'monoclinic'
loop_
_space_group_symop_operation_xyz
x,y,z
-x,y,-z
-x,-y,-z
x,-y,z
1/2+x,1/2+y,z
1/2-x,1/2+y,-z
1/2-x,1/2-y,-z
1/2+x,1/2-y,z
loop_
_atom_site_type_symbol
_atom_site_label
_atom_site_fract_x
_atom_site_fract_y
_atom_site_fract_z
Si Si1 0.229426 0.203086 0.224149
Si Si2 0.378125 0.295087 0.060067
Si Si3 0.363733 0.706615 0.654373
Si Si4 0.927657 0.789477 0.780437
Si Si5 0.521047 0.791919 0.655311
Si Si6 0.965316 0.298916 0.936484
Si Si7 0.171109 0.706294 0.499712
O O1 0.165157 0.269938 0.233052
O O2 0.352836 0.273596 0.280154
O O3 0.145228 0.224566 0.141770
O O4 0.242454 0.000000 0.237780
O O5 0.388823 0.500000 0.062582
O O6 0.454162 0.237770 0.138875
O O7 0.435339 0.222624 0.046756
O O8 0.250000 0.250000 0.000000
O O9 0.355651 0.500000 0.653278
O O10 0.402392 0.771542 0.720034
O O11 0.453209 0.744460 0.663174
O O12 0.242565 0.771031 0.576379
O O13 0.926528 0.000000 0.779231
O O14 0.449434 0.731624 0.577563
O O15 0.522434 0.000000 0.654843
O O16 0.942802 0.500000 0.930781
O O17 0.000000 0.225160 0.000000
O O18 0.163536 0.500000 0.500037
O O19 0.250000 0.750000 0.500000
#
# Coordination Sequence:
#
# PCOD9195363 Si02
#       7
#     8   8   8   8   8   8   8
#     4   9  18  33  50  67  93 127 156 188 235 286
#     4  10  20  35  54  74  99 129 160 197 241 288
#     4   9  16  28  47  68  90 120 157 191 228 275
#     4   8  16  31  48  66  91 122 153 188 230 274
#     4   9  17  29  45  68  95 120 152 193 233 272
#     4  10  21  36  53  73  97 125 160 202 243 284
#     4   8  14  25  42  64  90 119 150 187 229 272
#
# _framework density 19.049610999999999
#
# number of rings (size 3 to 8) (size 9 to 14) (size 15 to 20)
#    0.000    3.000    0.000    1.714    0.000    2.857 
#    0.000    8.571    0.000    4.286    0.000    0.000 
#    0.000   16.000    0.000    0.000    0.000    0.000 
#
# Total GULP energy -155959.861331 kJ/mol
# GULP energy per Si atom -5569.995048 kJ/mol
# Density = 1.900625 g / cm^3
# Si number density = 19.049611 Si / 1000 Ang^3
#
#
#
# Elastic Constant Matrix: (Units=GPa)
#
#
# Indices 1 2 3 4 5 6 
#
# 1 81.3908 -4.1776 110.8290 0.0002 -3.9428 -0.0003
# 2 -4.1776 21.3680 -4.4445 0.0005 -2.7946 -0.0011
# 3 110.8290 -4.4445 202.8842 0.0000 -6.0066 0.0002
# 4 0.0002 0.0005 0.0000 10.9759 -0.0001 1.8829
# 5 -3.9428 -2.7946 -6.0066 -0.0001 36.7341 0.0002
# 6 -0.0003 -0.0011 0.0002 1.8829 0.0002 17.5553
#
#
#
# Elastic Compliance Matrix: (Units=1/GPa)
#
#
# Indices 1 2 3 4 5 6 
#
# 1 0.048351 0.004143 -0.026286 -0.000001 0.001207 0.000002
# 2 0.004143 0.047892 -0.001099 -0.000003 0.003909 0.000003
# 3 -0.026286 -0.001099 0.019271 0.000001 0.000246 -0.000001
# 4 -0.000001 -0.000003 0.000001 0.092816 0.000000 -0.009955
# 5 0.001207 0.003909 0.000246 0.000000 0.027690 0.000000
# 6 0.000002 0.000003 -0.000001 -0.009955 0.000000 0.058031
#
#
# Mechanical properties :
#
#
# Convention : Reuss Voigt Hill
#
# Bulk Modulus (GPa) = 14.48610 56.67297 35.57954
# Shear Modulus (GPa) = 13.75352 26.61548 20.18450
#
# Velocity S-wave (km/s) = 2.68989 3.74192 3.25864
# Velocity P-wave (km/s) = 4.15551 6.96305 5.73378
#
# Compressibility (1/GPa) = 0.06903169
#
# Stress axis : x y z
#
# Youngs Moduli (GPa) = 20.68212 20.88044 51.89054
#
# Poissons Ratio (x) = -0.08652 1.36400
# Poissons Ratio (y) = -0.08570 0.05701
# Poissons Ratio (z) = 0.54365 0.02294
#
# Static dielectric constant tensor:
#      x y z
#    x 1.647330 0.000000 0.027120 
#    y 0.000000 1.716930 0.000000 
#    z 0.027120 0.000000 1.756380 
# 
# From -- ./inp_files/345468.got.cif
#   From: 2010.05.17/outbox.cif.g08.bks.cpg/sg12_173_cif.got.tgz:345468.got - 2010.06.03 13:09:07.
