data_PCOD9195260
_publ_section_title
;
Structure prediction by ZEFSAII (Michael W. Deem and Ramdas Pophale) SiO2 
 PCOD9195260
Probable space group: C 2/M
;
_chemical_formula_sum "Si O2"
_cell_formula_units_Z 64
_cell_length_a 8.804311
_cell_length_b 23.285361
_cell_length_c 21.684131
_cell_angle_alpha 90.000000
_cell_angle_beta 45.402211
_cell_angle_gamma 90.000000
_cell_volume 3165.430475
_symmetry_space_group_name_H-M "C 2/M"
_symmetry_group_IT_number 12
_symmetry_cell_setting 'monoclinic'
loop_
_space_group_symop_operation_xyz
x,y,z
-x,y,-z
-x,-y,-z
x,-y,z
1/2+x,1/2+y,z
1/2-x,1/2+y,-z
1/2-x,1/2-y,-z
1/2+x,1/2-y,z
loop_
_atom_site_type_symbol
_atom_site_label
_atom_site_fract_x
_atom_site_fract_y
_atom_site_fract_z
Si Si1 0.414847 0.723688 0.618616
Si Si2 0.320133 0.821988 0.428364
Si Si3 0.856481 0.126915 0.721900
Si Si4 0.225841 0.565681 0.016996
Si Si5 0.534291 0.935256 0.334414
Si Si6 0.408089 0.069038 0.817756
Si Si7 0.285306 0.567365 0.865482
Si Si8 0.721543 0.065548 0.412322
O O1 0.467123 0.790776 0.608256
O O2 0.237197 0.710088 0.618920
O O3 0.628487 0.693899 0.529037
O O4 0.359554 0.692184 0.698026
O O5 0.357644 0.888010 0.401714
O O6 0.641053 0.096863 0.759446
O O7 0.868364 0.111201 0.790539
O O8 0.062846 0.097069 0.633205
O O9 0.304520 0.500000 0.997348
O O10 0.237594 0.589930 0.083286
O O11 0.970538 0.564773 0.075410
O O12 0.321710 0.587982 0.925370
O O13 0.648728 0.920632 0.237245
O O14 0.692179 0.935926 0.347144
O O15 0.446024 0.000000 0.353368
O O16 0.424339 0.000000 0.821346
O O17 0.357221 0.500000 0.837746
O O18 0.500000 0.091894 0.500000
O O19 0.730818 0.000000 0.433079
#
# Coordination Sequence:
#
# PCOD9195260 Si02
#       8
#     8   8   8   8   8   8   8   8
#     4  10  22  35  56  72  97 132 171 221 255 304
#     4  10  21  40  52  75  97 132 178 213 261 306
#     4  11  18  30  49  76  95 128 176 219 251 290
#     4   7  11  21  39  68 103 136 159 193 259 312
#     4  10  20  35  53  74 106 136 167 216 268 313
#     4   9  16  28  49  76 107 133 163 214 263 312
#     4   8  13  22  41  70 106 133 159 208 254 306
#     4  10  21  33  44  64 101 145 174 202 255 314
#
# _framework density 20.218419999999998
#
# number of rings (size 3 to 8) (size 9 to 14) (size 15 to 20)
#    0.000    2.625    1.250    3.375    1.750    0.000 
#    0.000    2.500    0.000    0.750    0.000    5.250 
#    0.000    0.000    0.000    0.000    0.000    0.000 
#
# Total GULP energy -178308.737258 kJ/mol
# GULP energy per Si atom -5572.148039 kJ/mol
# Density = 2.017240 g / cm^3
# Si number density = 20.218420 Si / 1000 Ang^3
#
#
#
# Elastic Constant Matrix: (Units=GPa)
#
#
# Indices 1 2 3 4 5 6 
#
# 1 31.2637 12.3286 24.4493 0.0000 10.1376 0.0000
# 2 12.3286 52.3024 23.5802 0.0000 9.3888 0.0000
# 3 24.4493 23.5802 99.2907 0.0000 31.0649 0.0000
# 4 0.0000 0.0000 0.0000 14.3653 0.0000 6.9327
# 5 10.1376 9.3888 31.0649 0.0000 40.8867 0.0000
# 6 0.0000 0.0000 0.0000 6.9327 0.0000 11.9652
#
#
#
# Elastic Compliance Matrix: (Units=1/GPa)
#
#
# Indices 1 2 3 4 5 6 
#
# 1 0.041364 -0.005650 -0.007925 0.000000 -0.002938 0.000000
# 2 -0.005650 0.022244 -0.003583 0.000000 -0.000984 0.000000
# 3 -0.007925 -0.003583 0.015744 0.000000 -0.009174 0.000000
# 4 0.000000 0.000000 0.000000 0.096633 0.000000 -0.055990
# 5 -0.002938 -0.000984 -0.009174 0.000000 0.032383 0.000000
# 6 0.000000 0.000000 0.000000 -0.055990 0.000000 0.116016
#
#
# Mechanical properties :
#
#
# Convention : Reuss Voigt Hill
#
# Bulk Modulus (GPa) = 22.20460 33.73033 27.96747
# Shear Modulus (GPa) = 13.37929 21.61001 17.49465
#
# Velocity S-wave (km/s) = 2.57522 3.27284 2.94476
# Velocity P-wave (km/s) = 4.45517 5.56787 5.04231
#
# Compressibility (1/GPa) = 0.04503570
#
# Stress axis : x y z
#
# Youngs Moduli (GPa) = 24.17564 44.95668 63.51570
#
# Poissons Ratio (x) = 0.25401 0.50333
# Poissons Ratio (y) = 0.13660 0.22760
# Poissons Ratio (z) = 0.19158 0.16109
#
# Static dielectric constant tensor:
#      x y z
#    x 1.785910 0.000000 0.020090 
#    y 0.000000 1.697660 0.000000 
#    z 0.020090 0.000000 1.793570 
# 
# From -- ./inp_files/302318.got.cif
#   From: 2010.05.17/outbox.cif.g08.bks.cpg/sg12_152_cif.got.tgz:302318.got - 2010.06.03 13:09:07.
