data_PCOD9195685
_publ_section_title
;
Structure prediction by ZEFSAII (Michael W. Deem and Ramdas Pophale) SiO2 
 PCOD9195685
Probable space group: C 2/M
;
_chemical_formula_sum "Si O2"
_cell_formula_units_Z 56
_cell_length_a 19.547637
_cell_length_b 8.837545
_cell_length_c 30.721483
_cell_angle_alpha 90.000000
_cell_angle_beta 37.292101
_cell_angle_gamma 90.000000
_cell_volume 3215.539026
_symmetry_space_group_name_H-M "C 2/M"
_symmetry_group_IT_number 12
_symmetry_cell_setting 'monoclinic'
loop_
_space_group_symop_operation_xyz
x,y,z
-x,y,-z
-x,-y,-z
x,-y,z
1/2+x,1/2+y,z
1/2-x,1/2+y,-z
1/2-x,1/2-y,-z
1/2+x,1/2-y,z
loop_
_atom_site_type_symbol
_atom_site_label
_atom_site_fract_x
_atom_site_fract_y
_atom_site_fract_z
Si Si1 0.021288 0.318793 0.347122
Si Si2 0.331805 0.318514 0.495475
Si Si3 0.126721 0.819231 0.062339
Si Si4 0.230382 0.680653 0.778420
Si Si5 0.917842 0.818549 0.223911
Si Si6 0.361812 0.181019 0.344818
Si Si7 0.459818 0.682123 0.068488
O O1 0.026831 0.500000 0.347725
O O2 0.144634 0.248139 0.281796
O O3 0.952388 0.252416 0.423214
O O4 0.948477 0.282485 0.340380
O O5 0.336534 0.500000 0.488860
O O6 0.250000 0.250000 0.500000
O O7 0.264805 0.283256 0.573839
O O8 0.043678 0.774085 0.143942
O O9 0.057497 0.779476 0.053741
O O10 0.137758 0.000000 0.057924
O O11 0.250000 0.750000 0.000000
O O12 0.233740 0.500000 0.775543
O O13 0.168815 0.743934 0.766312
O O14 0.153134 0.737715 0.857576
O O15 0.893052 0.765542 0.285057
O O16 0.908695 0.000000 0.224694
O O17 0.367781 0.000000 0.334885
O O18 0.442414 0.500000 0.079044
O O19 0.500000 0.722988 0.000000
#
# Coordination Sequence:
#
# PCOD9195685 Si02
#       7
#     8   8   8   8   8   8   8
#     4  10  20  35  55  79 108 141 178 219 264 314
#     4   9  17  31  51  77 108 139 174 217 264 312
#     4   9  19  34  52  75 101 132 168 208 255 304
#     4  11  22  36  55  78 107 141 177 219 265 314
#     4  10  21  37  55  76 106 141 176 215 262 316
#     4   9  19  34  54  80 107 137 173 215 262 310
#     4   9  19  37  57  76 102 137 175 215 261 311
#
# _framework density 17.415431000000002
#
# number of rings (size 3 to 8) (size 9 to 14) (size 15 to 20)
#    0.000    2.429    0.000    4.286    0.000    7.714 
#    0.000    5.000    0.000    4.286    0.000    0.000 
#    0.000    0.000    0.000    0.000    0.000    0.000 
#
# Total GULP energy -156156.338663 kJ/mol
# GULP energy per Si atom -5577.012095 kJ/mol
# Density = 1.737579 g / cm^3
# Si number density = 17.415431 Si / 1000 Ang^3
#
#
#
# Elastic Constant Matrix: (Units=GPa)
#
#
# Indices 1 2 3 4 5 6 
#
# 1 58.0665 45.8511 91.1822 0.0001 -0.6424 -0.0008
# 2 45.8511 73.1309 82.7937 0.0003 0.2292 -0.0005
# 3 91.1822 82.7937 207.9827 0.0000 -3.6677 0.0000
# 4 0.0001 0.0003 0.0000 38.2735 0.0000 -0.9484
# 5 -0.6424 0.2292 -3.6677 0.0000 34.2970 0.0001
# 6 -0.0008 -0.0005 0.0000 -0.9484 0.0001 28.2272
#
#
#
# Elastic Compliance Matrix: (Units=1/GPa)
#
#
# Indices 1 2 3 4 5 6 
#
# 1 0.063251 -0.014998 -0.021778 0.000000 -0.001044 0.000001
# 2 -0.014998 0.028501 -0.004788 0.000000 -0.000983 0.000000
# 3 -0.021778 -0.004788 0.016286 0.000000 0.001366 -0.000001
# 4 0.000000 0.000000 0.000000 0.026150 0.000000 0.000879
# 5 -0.001044 -0.000983 0.001366 0.000000 0.029290 0.000000
# 6 0.000001 0.000000 -0.000001 0.000879 0.000000 0.035456
#
#
# Mechanical properties :
#
#
# Convention : Reuss Voigt Hill
#
# Bulk Modulus (GPa) = 40.14376 86.53713 63.34045
# Shear Modulus (GPa) = 17.21970 28.11640 22.66805
#
# Velocity S-wave (km/s) = 3.14787 4.02239 3.61169
# Velocity P-wave (km/s) = 6.02601 8.44811 7.33769
#
# Compressibility (1/GPa) = 0.02491047
#
# Stress axis : x y z
#
# Youngs Moduli (GPa) = 15.80992 35.08691 61.40279
#
# Poissons Ratio (x) = 0.52623 1.33725
# Poissons Ratio (y) = 0.23711 0.29397
# Poissons Ratio (z) = 0.34431 0.16798
#
# Static dielectric constant tensor:
#      x y z
#    x 1.594400 0.000000 -0.013490 
#    y 0.000000 1.582100 0.000000 
#    z -0.013490 0.000000 1.612240 
# 
# From -- ./inp_files/377675.got.cif
#   From: 2010.05.17/outbox.cif.g08.bks.cpg/sg12_189_cif.got.tgz:377675.got - 2010.06.03 13:09:07.
