data_PCOD9195332
_publ_section_title
;
Structure prediction by ZEFSAII (Michael W. Deem and Ramdas Pophale) SiO2 
 PCOD9195332
Probable space group: C 2/M
;
_chemical_formula_sum "Si O2"
_cell_formula_units_Z 56
_cell_length_a 25.739321
_cell_length_b 8.524939
_cell_length_c 18.595034
_cell_angle_alpha 90.000000
_cell_angle_beta 135.281134
_cell_angle_gamma 90.000000
_cell_volume 2870.971597
_symmetry_space_group_name_H-M "C 2/M"
_symmetry_group_IT_number 12
_symmetry_cell_setting 'monoclinic'
loop_
_space_group_symop_operation_xyz
x,y,z
-x,y,-z
-x,-y,-z
x,-y,z
1/2+x,1/2+y,z
1/2-x,1/2+y,-z
1/2-x,1/2-y,-z
1/2+x,1/2-y,z
loop_
_atom_site_type_symbol
_atom_site_label
_atom_site_fract_x
_atom_site_fract_y
_atom_site_fract_z
Si Si1 0.695725 0.187173 0.882502
Si Si2 0.532728 0.682988 0.190489
Si Si3 0.070655 0.328528 0.017513
Si Si4 0.528196 0.314627 0.714532
Si Si5 0.334371 0.320410 0.778648
Si Si6 0.797316 0.815348 0.270953
Si Si7 0.435387 0.323177 0.493058
O O1 0.609748 0.242342 0.805559
O O2 0.717779 0.241551 0.822670
O O3 0.698723 0.000000 0.888557
O O4 0.750000 0.250000 0.000000
O O5 0.524828 0.500000 0.160727
O O6 0.464501 0.779482 0.091482
O O7 0.522479 0.693627 0.264726
O O8 0.610138 0.733678 0.230271
O O9 0.107692 0.500000 0.051347
O O10 0.118694 0.195570 0.101614
O O11 0.000000 0.341216 0.000000
O O12 0.541389 0.500000 0.710916
O O13 0.476873 0.245456 0.601003
O O14 0.312629 0.500000 0.744116
O O15 0.266009 0.213399 0.732256
O O16 0.869432 0.748259 0.382475
O O17 0.808742 0.000000 0.269209
O O18 0.500000 0.341917 0.500000
O O19 0.409975 0.500000 0.491078
#
# Coordination Sequence:
#
# PCOD9195332 Si02
#       7
#     8   8   8   8   8   8   8
#     4  12  26  42  60  88 123 158 191 237 297 353
#     4   9  19  34  55  81 114 154 194 237 287 348
#     4   9  17  30  50  75 106 147 193 237 280 335
#     4  10  20  39  64  88 116 154 199 243 289 348
#     4  10  20  35  53  80 117 155 194 236 290 350
#     4  11  22  39  63  88 115 153 199 245 290 345
#     4   9  17  35  63  88 110 146 198 247 290 343
#
# _framework density 19.505593000000001
#
# number of rings (size 3 to 8) (size 9 to 14) (size 15 to 20)
#    0.000    2.000    1.429    2.571    2.000    2.857 
#    0.000    2.857    0.000    0.000    0.000    0.000 
#    0.000    0.000    0.000    0.000    0.000    0.000 
#
# Total GULP energy -155880.657934 kJ/mol
# GULP energy per Si atom -5567.166355 kJ/mol
# Density = 1.946120 g / cm^3
# Si number density = 19.505593 Si / 1000 Ang^3
#
#
#
# Elastic Constant Matrix: (Units=GPa)
#
#
# Indices 1 2 3 4 5 6 
#
# 1 89.9222 17.4288 32.4825 0.0000 -0.0856 0.0000
# 2 17.4288 57.4878 27.7883 0.0000 -5.8096 0.0000
# 3 32.4825 27.7883 124.4212 0.0000 -5.0102 0.0000
# 4 0.0000 0.0000 0.0000 5.3225 0.0000 -5.1373
# 5 -0.0856 -5.8096 -5.0102 0.0000 24.1803 0.0000
# 6 0.0000 0.0000 0.0000 -5.1373 0.0000 15.6286
#
#
#
# Elastic Compliance Matrix: (Units=1/GPa)
#
#
# Indices 1 2 3 4 5 6 
#
# 1 0.012622 -0.002610 -0.002759 0.000000 -0.001154 0.000000
# 2 -0.002610 0.020395 -0.003708 0.000000 0.004123 0.000000
# 3 -0.002759 -0.003708 0.009630 0.000000 0.001095 0.000000
# 4 0.000000 0.000000 0.000000 0.275192 0.000000 0.090459
# 5 -0.001154 0.004123 0.001095 0.000000 0.042569 0.000000
# 6 0.000000 0.000000 0.000000 0.090459 0.000000 0.093720
#
#
# Mechanical properties :
#
#
# Convention : Reuss Voigt Hill
#
# Bulk Modulus (GPa) = 40.82606 47.47004 44.14805
# Shear Modulus (GPa) = 10.40700 21.96839 16.18770
#
# Velocity S-wave (km/s) = 2.31235 3.35962 2.88392
# Velocity P-wave (km/s) = 5.30143 6.28004 5.81137
#
# Compressibility (1/GPa) = 0.02449416
#
# Stress axis : x y z
#
# Youngs Moduli (GPa) = 79.22663 49.03149 103.84628
#
# Poissons Ratio (x) = 0.12796 0.28649
# Poissons Ratio (y) = 0.20676 0.38503
# Poissons Ratio (z) = 0.21857 0.18179
#
# Static dielectric constant tensor:
#      x y z
#    x 1.693580 0.000000 0.019290 
#    y 0.000000 1.710120 0.000000 
#    z 0.019290 0.000000 1.738740 
# 
# From -- ./inp_files/292514.got.cif
#   From: 2010.05.17/outbox.cif.g08.bks.cpg/sg12_147_cif.got.tgz:292514.got - 2010.06.03 13:09:07.
