data_PCOD9195519
_publ_section_title
;
Structure prediction by ZEFSAII (Michael W. Deem and Ramdas Pophale) SiO2 
 PCOD9195519
Probable space group: C 2/M
;
_chemical_formula_sum "Si O2"
_cell_formula_units_Z 48
_cell_length_a 12.466585
_cell_length_b 23.783724
_cell_length_c 8.642661
_cell_angle_alpha 90.000000
_cell_angle_beta 63.226897
_cell_angle_gamma 90.000000
_cell_volume 2287.851042
_symmetry_space_group_name_H-M "C 2/M"
_symmetry_group_IT_number 12
_symmetry_cell_setting 'monoclinic'
loop_
_space_group_symop_operation_xyz
x,y,z
-x,y,-z
-x,-y,-z
x,-y,z
1/2+x,1/2+y,z
1/2-x,1/2+y,-z
1/2-x,1/2-y,-z
1/2+x,1/2-y,z
loop_
_atom_site_type_symbol
_atom_site_label
_atom_site_fract_x
_atom_site_fract_y
_atom_site_fract_z
Si Si1 0.747149 0.818729 0.999918
Si Si2 0.624547 0.403978 0.864138
Si Si3 0.978969 0.715547 0.694514
Si Si4 0.137460 0.435287 0.471133
Si Si5 0.296706 0.161677 0.324925
Si Si6 0.448557 0.334645 0.381638
O O1 0.842989 0.855062 0.033274
O O2 0.625215 0.824268 0.178991
O O3 0.750000 0.750000 0.000000
O O4 0.728892 0.844082 0.840447
O O5 0.753412 0.430731 0.727797
O O6 0.579950 0.374750 0.737280
O O7 0.500000 0.434394 0.000000
O O8 0.000000 0.705023 0.500000
O O9 0.092387 0.702869 0.726728
O O10 0.964533 0.783036 0.715089
O O11 0.138092 0.500000 0.524903
O O12 0.170273 0.392735 0.591166
O O13 0.000000 0.424324 0.500000
O O14 0.179613 0.189123 0.479194
O O15 0.500000 0.364891 0.500000
#
# Coordination Sequence:
#
# PCOD9195519 Si02
#       6
#     8   8   8   8   8   8
#     4  12  23  35  55  89 130 165 199 241 296 368
#     4  11  22  38  61  90 125 160 201 253 309 367
#     4  11  20  33  53  81 118 161 205 244 294 362
#     4  10  23  45  69  89 115 157 210 267 322 369
#     4  11  21  36  58  83 116 157 205 254 305 364
#     4  10  20  35  54  81 120 163 201 240 292 360
#
# _framework density 20.980388000000001
#
# number of rings (size 3 to 8) (size 9 to 14) (size 15 to 20)
#    0.000    1.167    0.000    9.500    0.000    0.333 
#    0.000    0.833    0.000   21.000    0.000    0.000 
#    0.000    0.000    0.000    0.000    0.000    0.000 
#
# Total GULP energy -133738.375310 kJ/mol
# GULP energy per Si atom -5572.432305 kJ/mol
# Density = 2.093264 g / cm^3
# Si number density = 20.980388 Si / 1000 Ang^3
#
#
#
# Elastic Constant Matrix: (Units=GPa)
#
#
# Indices 1 2 3 4 5 6 
#
# 1 129.0646 32.9615 40.7944 0.0000 2.8277 0.0000
# 2 32.9615 93.3914 27.5417 0.0000 17.2741 0.0000
# 3 40.7944 27.5417 102.3385 0.0000 1.1416 0.0000
# 4 0.0000 0.0000 0.0000 16.0948 0.0000 -1.5729
# 5 2.8277 17.2741 1.1416 0.0000 57.2639 0.0000
# 6 0.0000 0.0000 0.0000 -1.5729 0.0000 17.9323
#
#
#
# Elastic Compliance Matrix: (Units=1/GPa)
#
#
# Indices 1 2 3 4 5 6 
#
# 1 0.009336 -0.002454 -0.003065 0.000000 0.000340 0.000000
# 2 -0.002454 0.012998 -0.002478 0.000000 -0.003750 0.000000
# 3 -0.003065 -0.002478 0.011653 0.000000 0.000667 0.000000
# 4 0.000000 0.000000 0.000000 0.062669 0.000000 0.005497
# 5 0.000340 -0.003750 0.000667 0.000000 0.018564 0.000000
# 6 0.000000 0.000000 0.000000 0.005497 0.000000 0.056247
#
#
# Mechanical properties :
#
#
# Convention : Reuss Voigt Hill
#
# Bulk Modulus (GPa) = 55.57753 58.59885 57.08819
# Shear Modulus (GPa) = 25.84518 33.15799 29.50158
#
# Velocity S-wave (km/s) = 3.51361 3.97977 3.75394
# Velocity P-wave (km/s) = 6.55808 7.00779 6.78666
#
# Compressibility (1/GPa) = 0.01799288
#
# Stress axis : x y z
#
# Youngs Moduli (GPa) = 107.11097 76.93315 85.81714
#
# Poissons Ratio (x) = 0.18881 0.26302
# Poissons Ratio (y) = 0.26287 0.21266
# Poissons Ratio (z) = 0.32828 0.19064
#
# Static dielectric constant tensor:
#      x y z
#    x 1.807650 0.000000 -0.102600 
#    y 0.000000 1.754440 0.000000 
#    z -0.102600 0.000000 1.858700 
# 
# From -- ./inp_files/51335.got.cif
#   From: 2010.05.17/outbox.cif.g08.bks.cpg/sg12_26_cif.got.tgz:51335.got - 2010.06.03 13:09:07.
