data_PCOD9195781
_publ_section_title
;
Structure prediction by ZEFSAII (Michael W. Deem and Ramdas Pophale) SiO2 
 PCOD9195781
Probable space group: C 2/M
;
_chemical_formula_sum "Si O2"
_cell_formula_units_Z 48
_cell_length_a 31.768486
_cell_length_b 8.685717
_cell_length_c 16.863524
_cell_angle_alpha 90.000000
_cell_angle_beta 145.189764
_cell_angle_gamma 90.000000
_cell_volume 2656.319668
_symmetry_space_group_name_H-M "C 2/M"
_symmetry_group_IT_number 12
_symmetry_cell_setting 'monoclinic'
loop_
_space_group_symop_operation_xyz
x,y,z
-x,y,-z
-x,-y,-z
x,-y,z
1/2+x,1/2+y,z
1/2-x,1/2+y,-z
1/2-x,1/2-y,-z
1/2+x,1/2-y,z
loop_
_atom_site_type_symbol
_atom_site_label
_atom_site_fract_x
_atom_site_fract_y
_atom_site_fract_z
Si Si1 0.650381 0.684284 0.162261
Si Si2 0.332810 0.684623 0.631928
Si Si3 0.268181 0.316262 0.942167
Si Si4 0.414923 0.815918 0.092050
Si Si5 0.201091 0.183632 0.683459
Si Si6 0.918065 0.315996 0.613148
O O1 0.650645 0.500000 0.152311
O O2 0.636245 0.718879 0.232360
O O3 0.594790 0.758804 0.013425
O O4 0.731185 0.747768 0.263529
O O5 0.330552 0.500000 0.618460
O O6 0.250000 0.750000 0.500000
O O7 0.380482 0.758538 0.636132
O O8 0.263859 0.500000 0.935396
O O9 0.349376 0.263012 0.039712
O O10 0.213597 0.248503 0.790830
O O11 0.250000 0.250000 0.000000
O O12 0.404527 0.000000 0.078169
O O13 0.495496 0.778286 0.249568
O O14 0.125983 0.237752 0.526583
O O15 0.206784 0.000000 0.692533
O O16 0.909769 0.500000 0.594535
#
# Coordination Sequence:
#
# PCOD9195781 Si02
#       6
#     8   8   8   8   8   8
#     4  10  20  35  55  80 112 151 196 242 286 334
#     4  11  22  34  54  81 113 153 199 246 285 334
#     4  11  22  40  66  91 117 146 184 231 279 342
#     4  10  22  39  59  84 116 152 190 235 289 342
#     4  11  21  35  59  86 114 150 192 234 283 341
#     4  11  23  38  56  82 118 155 193 239 289 336
#
# _framework density 18.070114
#
# number of rings (size 3 to 8) (size 9 to 14) (size 15 to 20)
#    0.000    1.333    1.667    7.000    0.000    5.333 
#    0.000    4.167    0.000    5.000    0.000    0.000 
#    0.000    0.000    0.000    0.000    0.000    0.000 
#
# Total GULP energy -134151.601239 kJ/mol
# GULP energy per Si atom -5589.650052 kJ/mol
# Density = 1.802899 g / cm^3
# Si number density = 18.070114 Si / 1000 Ang^3
#
#
#
# Elastic Constant Matrix: (Units=GPa)
#
#
# Indices 1 2 3 4 5 6 
#
# 1 107.6178 39.1756 58.4611 0.0000 -26.2225 0.0000
# 2 39.1756 83.1541 53.6416 0.0000 -12.2959 0.0000
# 3 58.4611 53.6416 141.0562 0.0000 -18.0837 0.0000
# 4 0.0000 0.0000 0.0000 32.2313 0.0000 -3.5911
# 5 -26.2225 -12.2959 -18.0837 0.0000 21.5014 0.0000
# 6 0.0000 0.0000 0.0000 -3.5911 0.0000 31.5452
#
#
#
# Elastic Compliance Matrix: (Units=1/GPa)
#
#
# Indices 1 2 3 4 5 6 
#
# 1 0.015901 -0.003027 -0.003559 0.000000 0.014669 0.000000
# 2 -0.003027 0.016909 -0.004942 0.000000 0.001822 0.000000
# 3 -0.003559 -0.004942 0.010676 0.000000 0.001813 0.000000
# 4 0.000000 0.000000 0.000000 0.031424 0.000000 0.003577
# 5 0.014669 0.001822 0.001813 0.000000 0.066965 0.000000
# 6 0.000000 0.000000 0.000000 0.003577 0.000000 0.032108
#
#
# Mechanical properties :
#
#
# Convention : Reuss Voigt Hill
#
# Bulk Modulus (GPa) = 48.94440 70.48721 59.71580
# Shear Modulus (GPa) = 24.52777 29.09223 26.81000
#
# Velocity S-wave (km/s) = 3.68824 4.01679 3.85602
# Velocity P-wave (km/s) = 6.72920 7.78493 7.27624
#
# Compressibility (1/GPa) = 0.02043135
#
# Stress axis : x y z
#
# Youngs Moduli (GPa) = 62.88731 59.13837 93.66588
#
# Poissons Ratio (x) = 0.17899 0.33334
# Poissons Ratio (y) = 0.19034 0.46294
# Poissons Ratio (z) = 0.22380 0.29229
#
# Static dielectric constant tensor:
#      x y z
#    x 1.594660 0.000000 -0.014370 
#    y 0.000000 1.601500 0.000000 
#    z -0.014370 0.000000 1.618520 
# 
# From -- ./inp_files/295897.got.cif
#   From: 2010.05.17/outbox.cif.g08.bks.cpg/sg12_148_cif.got.tgz:295897.got - 2010.06.03 13:09:07.
