data_PCOD9195455
_publ_section_title
;
Structure prediction by ZEFSAII (Michael W. Deem and Ramdas Pophale) SiO2 
 PCOD9195455
Probable space group: C 2/M
;
_chemical_formula_sum "Si O2"
_cell_formula_units_Z 50
_cell_length_a 9.066235
_cell_length_b 19.130339
_cell_length_c 20.219017
_cell_angle_alpha 90.000000
_cell_angle_beta 129.508745
_cell_angle_gamma 90.000000
_cell_volume 2705.584364
_symmetry_space_group_name_H-M "C 2/M"
_symmetry_group_IT_number 12
_symmetry_cell_setting 'monoclinic'
loop_
_space_group_symop_operation_xyz
x,y,z
-x,y,-z
-x,-y,-z
x,-y,z
1/2+x,1/2+y,z
1/2-x,1/2+y,-z
1/2-x,1/2-y,-z
1/2+x,1/2-y,z
loop_
_atom_site_type_symbol
_atom_site_label
_atom_site_fract_x
_atom_site_fract_y
_atom_site_fract_z
Si Si1 0.971209 0.768551 0.061065
Si Si2 0.545970 0.581527 0.588709
Si Si3 0.253472 0.811330 0.251257
Si Si4 0.996574 0.170280 0.696738
Si Si5 0.008730 0.581845 0.246168
Si Si6 0.629045 0.121175 0.137778
Si Si7 0.500000 0.000000 0.000000
O O1 0.063700 0.804817 0.151054
O O2 0.085700 0.695508 0.092448
O O3 0.750000 0.750000 0.000000
O O4 0.000000 0.808240 0.000000
O O5 0.500000 0.599212 0.500000
O O6 0.492561 0.500000 0.584623
O O7 0.450178 0.632955 0.614438
O O8 0.773701 0.587296 0.665815
O O9 0.385901 0.742352 0.281145
O O10 0.372160 0.875731 0.255846
O O11 0.180045 0.817714 0.304988
O O12 0.149608 0.120066 0.777548
O O13 0.959086 0.500000 0.227332
O O14 0.011599 0.615096 0.173388
O O15 0.570878 0.060530 0.072511
#
# Coordination Sequence:
#
# PCOD9195455 Si02
#       7
#     8   8   8   8   8   8   2
#     4  11  20  33  53  74 102 143 197 240 273 321
#     4   9  19  38  66  91 114 146 186 226 277 349
#     4  11  22  38  57  82 114 153 192 234 289 342
#     4  10  21  38  58  82 113 149 186 232 287 339
#     4  10  20  38  57  80 117 152 185 233 294 342
#     4  10  20  35  54  78 107 150 190 237 284 337
#     4  12  20  32  56  78 114 140 206 230 284 340
#
# _framework density 18.480297
#
# number of rings (size 3 to 8) (size 9 to 14) (size 15 to 20)
#    0.000    1.760    1.600    5.760    1.120    0.640 
#    0.000    4.000    0.000    5.280    0.000    0.000 
#    0.000    0.000    0.000    0.000    0.000    0.000 
#
# Total GULP energy -139238.626974 kJ/mol
# GULP energy per Si atom -5569.545079 kJ/mol
# Density = 1.843823 g / cm^3
# Si number density = 18.480297 Si / 1000 Ang^3
#
#
#
# Elastic Constant Matrix: (Units=GPa)
#
#
# Indices 1 2 3 4 5 6 
#
# 1 97.0418 30.4288 15.6831 0.0000 -29.0909 0.0000
# 2 30.4288 57.4827 29.2807 0.0000 -20.6952 0.0000
# 3 15.6831 29.2807 84.6464 0.0000 -29.3230 0.0000
# 4 0.0000 0.0000 0.0000 30.8135 0.0000 -11.3620
# 5 -29.0909 -20.6952 -29.3230 0.0000 25.8383 0.0000
# 6 0.0000 0.0000 0.0000 -11.3620 0.0000 21.4001
#
#
#
# Elastic Compliance Matrix: (Units=1/GPa)
#
#
# Indices 1 2 3 4 5 6 
#
# 1 0.017733 -0.004002 0.006434 0.000000 0.024062 0.000000
# 2 -0.004002 0.025746 -0.004254 0.000000 0.011288 0.000000
# 3 0.006434 -0.004254 0.022118 0.000000 0.028938 0.000000
# 4 0.000000 0.000000 0.000000 0.040353 0.000000 0.021425
# 5 0.024062 0.011288 0.028938 0.000000 0.107675 0.000000
# 6 0.000000 0.000000 0.000000 0.021425 0.000000 0.058104
#
#
# Mechanical properties :
#
#
# Convention : Reuss Voigt Hill
#
# Bulk Modulus (GPa) = 16.14112 43.32845 29.73479
# Shear Modulus (GPa) = 16.89059 26.52893 21.70976
#
# Velocity S-wave (km/s) = 3.02649 3.79294 3.43118
# Velocity P-wave (km/s) = 4.57887 6.53288 5.64112
#
# Compressibility (1/GPa) = 0.06195356
#
# Stress axis : x y z
#
# Youngs Moduli (GPa) = 56.39187 38.84149 45.21245
#
# Poissons Ratio (x) = 0.15543 -0.29091
# Poissons Ratio (y) = 0.22566 0.19234
# Poissons Ratio (z) = -0.36284 0.16524
#
# Static dielectric constant tensor:
#      x y z
#    x 1.651100 0.000000 -0.014920 
#    y 0.000000 1.635270 0.000000 
#    z -0.014920 0.000000 1.650610 
# 
# From -- ./inp_files/256532.got.cif
#   From: 2010.05.17/outbox.cif.g08.bks.cpg/sg12_129_cif.got.tgz:256532.got - 2010.06.03 13:09:07.
