data_PCOD9195777
_publ_section_title
;
Structure prediction by ZEFSAII (Michael W. Deem and Ramdas Pophale) SiO2 
 PCOD9195777
Probable space group: C 2/M
;
_chemical_formula_sum "Si O2"
_cell_formula_units_Z 56
_cell_length_a 30.016863
_cell_length_b 8.709825
_cell_length_c 11.156873
_cell_angle_alpha 90.000000
_cell_angle_beta 81.650560
_cell_angle_gamma 90.000000
_cell_volume 2885.954661
_symmetry_space_group_name_H-M "C 2/M"
_symmetry_group_IT_number 12
_symmetry_cell_setting 'monoclinic'
loop_
_space_group_symop_operation_xyz
x,y,z
-x,y,-z
-x,-y,-z
x,-y,z
1/2+x,1/2+y,z
1/2-x,1/2+y,-z
1/2-x,1/2-y,-z
1/2+x,1/2-y,z
loop_
_atom_site_type_symbol
_atom_site_label
_atom_site_fract_x
_atom_site_fract_y
_atom_site_fract_z
Si Si1 0.255268 0.684649 0.864688
Si Si2 0.558771 0.683734 0.193849
Si Si3 0.880971 0.185001 0.441333
Si Si4 0.665567 0.315998 0.790801
Si Si5 0.468690 0.182708 0.302430
Si Si6 0.650575 0.313233 0.286863
Si Si7 0.077843 0.316674 0.934032
O O1 0.255210 0.500000 0.869348
O O2 0.213079 0.742383 0.803998
O O3 0.302524 0.737681 0.788767
O O4 0.250000 0.750000 0.000000
O O5 0.557681 0.500000 0.188757
O O6 0.517556 0.742159 0.290422
O O7 0.606836 0.733941 0.228422
O O8 0.555236 0.751774 0.061939
O O9 0.852082 0.227112 0.334970
O O10 0.930719 0.253961 0.406256
O O11 0.857223 0.235086 0.572944
O O12 0.884990 0.000000 0.440781
O O13 0.668406 0.500000 0.797698
O O14 0.627113 0.256822 0.896634
O O15 0.449758 0.219891 0.176082
O O16 0.472120 0.000000 0.312252
O O17 0.651263 0.500000 0.285839
O O18 0.081488 0.500000 0.941028
#
# Coordination Sequence:
#
# PCOD9195777 Si02
#       7
#     8   8   8   8   8   8   8
#     4  11  22  38  60  85 115 147 181 224 275 329
#     4  11  21  34  55  81 110 146 188 231 276 327
#     4   9  19  39  61  79 105 144 188 227 268 325
#     4  10  20  35  58  85 111 142 182 227 274 328
#     4  10  21  36  54  80 113 145 181 228 280 331
#     4   9  21  39  57  79 108 144 185 228 271 322
#     4  10  20  35  55  80 112 147 183 227 278 330
#
# _framework density 19.404326000000001
#
# number of rings (size 3 to 8) (size 9 to 14) (size 15 to 20)
#    0.000    2.000    0.000    3.429    0.000    6.286 
#    0.000    7.857    0.000    0.000    0.000    0.000 
#    0.000    0.000    0.000    0.000    0.000    0.000 
#
# Total GULP energy -156460.428184 kJ/mol
# GULP energy per Si atom -5587.872435 kJ/mol
# Density = 1.936016 g / cm^3
# Si number density = 19.404326 Si / 1000 Ang^3
#
#
#
# Elastic Constant Matrix: (Units=GPa)
#
#
# Indices 1 2 3 4 5 6 
#
# 1 123.7922 33.8050 42.9352 0.0000 -39.2967 0.0000
# 2 33.8050 31.7905 20.9260 0.0000 -7.1267 0.0000
# 3 42.9352 20.9260 113.8146 0.0000 -32.9060 0.0000
# 4 0.0000 0.0000 0.0000 20.2923 0.0000 -3.5414
# 5 -39.2967 -7.1267 -32.9060 0.0000 28.1630 0.0000
# 6 0.0000 0.0000 0.0000 -3.5414 0.0000 31.9135
#
#
#
# Elastic Compliance Matrix: (Units=1/GPa)
#
#
# Indices 1 2 3 4 5 6 
#
# 1 0.021026 -0.018370 0.003902 0.000000 0.029249 0.000000
# 2 -0.018370 0.051916 -0.009405 0.000000 -0.023484 0.000000
# 3 0.003902 -0.009405 0.014995 0.000000 0.020585 0.000000
# 4 0.000000 0.000000 0.000000 0.050253 0.000000 0.005576
# 5 0.029249 -0.023484 0.020585 0.000000 0.094429 0.000000
# 6 0.000000 0.000000 0.000000 0.005576 0.000000 0.031954
#
#
# Mechanical properties :
#
#
# Convention : Reuss Voigt Hill
#
# Bulk Modulus (GPa) = 24.88093 51.63663 38.25878
# Shear Modulus (GPa) = 15.35084 27.52250 21.43667
#
# Velocity S-wave (km/s) = 2.81571 3.77021 3.32736
# Velocity P-wave (km/s) = 4.83954 6.75435 5.87548
#
# Compressibility (1/GPa) = 0.04019142
#
# Stress axis : x y z
#
# Youngs Moduli (GPa) = 47.56043 19.26180 66.68920
#
# Poissons Ratio (x) = 0.35384 -0.26023
# Poissons Ratio (y) = 0.87368 0.62722
# Poissons Ratio (z) = -0.18559 0.18116
#
# Static dielectric constant tensor:
#      x y z
#    x 1.672600 0.000000 0.011920 
#    y 0.000000 1.650290 0.000000 
#    z 0.011920 0.000000 1.673270 
# 
# From -- ./inp_files/180716.got.cif
#   From: 2010.05.17/outbox.cif.g08.bks.cpg/sg12_91_cif.got.tgz:180716.got - 2010.06.03 13:09:07.
