data_PCOD9195003
_publ_section_title
;
Structure prediction by ZEFSAII (Michael W. Deem and Ramdas Pophale) SiO2 
 PCOD9195003
Probable space group: C 2/M
;
_chemical_formula_sum "Si O2"
_cell_formula_units_Z 58
_cell_length_a 19.025336
_cell_length_b 7.530297
_cell_length_c 18.812935
_cell_angle_alpha 90.000000
_cell_angle_beta 80.469434
_cell_angle_gamma 90.000000
_cell_volume 2658.060455
_symmetry_space_group_name_H-M "C 2/M"
_symmetry_group_IT_number 12
_symmetry_cell_setting 'monoclinic'
loop_
_space_group_symop_operation_xyz
x,y,z
-x,y,-z
-x,-y,-z
x,-y,z
1/2+x,1/2+y,z
1/2-x,1/2+y,-z
1/2-x,1/2-y,-z
1/2+x,1/2-y,z
loop_
_atom_site_type_symbol
_atom_site_label
_atom_site_fract_x
_atom_site_fract_y
_atom_site_fract_z
Si Si1 0.308254 0.211025 0.430052
Si Si2 0.101999 0.785760 0.971169
Si Si3 0.601170 0.300725 0.132144
Si Si4 0.424421 0.282148 0.710456
Si Si5 0.500000 0.000000 0.000000
Si Si6 0.028112 0.208819 0.570251
Si Si7 0.762760 0.785718 0.702786
Si Si8 0.257325 0.294392 0.138324
O O1 0.250000 0.250000 0.500000
O O2 0.387088 0.276552 0.435971
O O3 0.277118 0.280398 0.360583
O O4 0.314648 0.000000 0.422677
O O5 0.043034 0.658803 0.948472
O O6 0.177919 0.746790 0.923372
O O7 0.090418 0.000000 0.968074
O O8 0.100965 0.720740 0.053632
O O9 0.571764 0.500000 0.128928
O O10 0.567771 0.219403 0.209099
O O11 0.685099 0.310336 0.136620
O O12 0.424594 0.500000 0.714378
O O13 0.484901 0.221081 0.645764
O O14 0.345838 0.229561 0.695075
O O15 0.000000 0.284367 0.500000
O O16 0.009978 0.000000 0.572003
O O17 0.724737 0.728769 0.781856
O O18 0.763631 0.000000 0.700299
O O19 0.239901 0.500000 0.128086
#
# Coordination Sequence:
#
# PCOD9195003 Si02
#       8
#     8   8   8   8   2   8   8   8
#     4  11  23  39  59  86 116 152 195 244 293 352
#     4  10  23  41  58  88 120 159 209 252 303 365
#     4   9  18  35  60  85 118 152 195 253 298 350
#     4   8  15  32  57  82 108 150 193 235 292 348
#     4  12  26  40  64  78 120 172 204 246 310 370
#     4  10  20  36  58  84 115 152 192 235 289 351
#     4   9  19  37  59  83 115 153 196 241 294 354
#     4  10  20  34  59  90 120 148 194 251 297 350
#
# _framework density 21.820421
#
# number of rings (size 3 to 8) (size 9 to 14) (size 15 to 20)
#    0.000    2.345    0.000    3.103    2.897    3.586 
#    2.483    2.759    0.000    0.000    0.000    0.000 
#    0.000    0.000    0.000    0.000    0.000    0.000 
#
# Total GULP energy -161555.274749 kJ/mol
# GULP energy per Si atom -5570.871543 kJ/mol
# Density = 2.177076 g / cm^3
# Si number density = 21.820421 Si / 1000 Ang^3
#
#
#
# Elastic Constant Matrix: (Units=GPa)
#
#
# Indices 1 2 3 4 5 6 
#
# 1 88.9401 -6.4325 79.6867 0.0000 -22.8389 0.0000
# 2 -6.4325 62.4122 -5.0787 0.0000 -10.7253 0.0000
# 3 79.6867 -5.0787 186.5730 0.0000 -19.1200 0.0000
# 4 0.0000 0.0000 0.0000 13.9515 0.0000 -32.4012
# 5 -22.8389 -10.7253 -19.1200 0.0000 36.8430 0.0000
# 6 0.0000 0.0000 0.0000 -32.4012 0.0000 95.4459
#
#
#
# Elastic Compliance Matrix: (Units=1/GPa)
#
#
# Indices 1 2 3 4 5 6 
#
# 1 0.021117 0.003238 -0.007914 0.000000 0.009926 0.000000
# 2 0.003238 0.017547 -0.000186 0.000000 0.007019 0.000000
# 3 -0.007914 -0.000186 0.008689 0.000000 -0.000451 0.000000
# 4 0.000000 0.000000 0.000000 0.338728 0.000000 0.114989
# 5 0.009926 0.007019 -0.000451 0.000000 0.035105 0.000000
# 6 0.000000 0.000000 0.000000 0.114989 0.000000 0.049513
#
#
# Mechanical properties :
#
#
# Convention : Reuss Voigt Hill
#
# Bulk Modulus (GPa) = 26.57490 52.69738 39.63614
# Shear Modulus (GPa) = 10.14269 47.23140 28.68705
#
# Velocity S-wave (km/s) = 2.15832 4.65752 3.62980
# Velocity P-wave (km/s) = 4.29144 7.28878 5.98092
#
# Compressibility (1/GPa) = 0.03762950
#
# Stress axis : x y z
#
# Youngs Moduli (GPa) = 47.35469 56.98887 115.09259
#
# Poissons Ratio (x) = -0.18454 0.91084
# Poissons Ratio (y) = -0.15335 0.02142
# Poissons Ratio (z) = 0.37476 0.01061
#
# Static dielectric constant tensor:
#      x y z
#    x 1.794860 0.000000 0.055100 
#    y 0.000000 1.778080 0.000000 
#    z 0.055100 0.000000 1.840770 
# 
# From -- ./inp_files/275429.got.cif
#   From: 2010.05.17/outbox.cif.g08.bks.cpg/sg12_138_cif.got.tgz:275429.got - 2010.06.03 13:09:07.
