data_PCOD9195018
_publ_section_title
;
Structure prediction by ZEFSAII (Michael W. Deem and Ramdas Pophale) SiO2 
 PCOD9195018
Probable space group: C 2/M
;
_chemical_formula_sum "Si O2"
_cell_formula_units_Z 32
_cell_length_a 21.960967
_cell_length_b 11.156914
_cell_length_c 7.547786
_cell_angle_alpha 90.000000
_cell_angle_beta 58.577187
_cell_angle_gamma 90.000000
_cell_volume 1578.115908
_symmetry_space_group_name_H-M "C 2/M"
_symmetry_group_IT_number 12
_symmetry_cell_setting 'monoclinic'
loop_
_space_group_symop_operation_xyz
x,y,z
-x,y,-z
-x,-y,-z
x,-y,z
1/2+x,1/2+y,z
1/2-x,1/2+y,-z
1/2-x,1/2-y,-z
1/2+x,1/2-y,z
loop_
_atom_site_type_symbol
_atom_site_label
_atom_site_fract_x
_atom_site_fract_y
_atom_site_fract_z
Si Si1 0.897419 0.267978 0.042993
Si Si2 0.455522 0.859842 0.302562
Si Si3 0.846167 0.639066 0.763718
Si Si4 0.226972 0.864868 0.652669
O O1 0.906146 0.352617 0.202028
O O2 0.857051 0.151701 0.177837
O O3 0.847909 0.307842 0.955636
O O4 0.976669 0.276132 0.840116
O O5 0.409919 0.816731 0.538805
O O6 0.477181 0.000000 0.292012
O O7 0.861982 0.500000 0.764495
O O8 0.774477 0.646190 0.758294
O O9 0.250000 0.750000 0.500000
O O10 0.240227 0.000000 0.560730
#
# Coordination Sequence:
#
# PCOD9195018 Si02
#       4
#     8   8   8   8
#     4  11  20  35  59  88 123 155 196 246 309 350
#     4  10  20  34  59  94 124 157 201 248 297 358
#     4  10  20  36  61  92 122 156 204 252 296 358
#     4  11  24  42  63  89 123 162 206 252 302 360
#
# _framework density 20.277345
#
# number of rings (size 3 to 8) (size 9 to 14) (size 15 to 20)
#    0.000    1.500    2.500    4.500    0.000    4.000 
#    0.000    3.750    0.000    1.500    0.000    0.000 
#    0.000    0.000    0.000    0.000    0.000    0.000 
#
# Total GULP energy -89097.084107 kJ/mol
# GULP energy per Si atom -5568.567757 kJ/mol
# Density = 2.023119 g / cm^3
# Si number density = 20.277345 Si / 1000 Ang^3
#
#
#
# Elastic Constant Matrix: (Units=GPa)
#
#
# Indices 1 2 3 4 5 6 
#
# 1 59.3629 44.2461 22.0266 0.0000 1.1187 0.0000
# 2 44.2461 90.3538 40.2461 0.0000 -5.2400 0.0000
# 3 22.0266 40.2461 69.2125 0.0000 -1.7478 0.0000
# 4 0.0000 0.0000 0.0000 27.8189 0.0000 -1.7910
# 5 1.1187 -5.2400 -1.7478 0.0000 51.9799 0.0000
# 6 0.0000 0.0000 0.0000 -1.7910 0.0000 17.4232
#
#
#
# Elastic Compliance Matrix: (Units=1/GPa)
#
#
# Indices 1 2 3 4 5 6 
#
# 1 0.026787 -0.012698 -0.001189 0.000000 -0.001897 0.000000
# 2 -0.012698 0.021032 -0.008136 0.000000 0.002120 0.000000
# 3 -0.001189 -0.008136 0.019554 0.000000 -0.000137 0.000000
# 4 0.000000 0.000000 0.000000 0.036186 0.000000 0.003720
# 5 -0.001897 0.002120 -0.000137 0.000000 0.019488 0.000000
# 6 0.000000 0.000000 0.000000 0.003720 0.000000 0.057777
#
#
# Mechanical properties :
#
#
# Convention : Reuss Voigt Hill
#
# Bulk Modulus (GPa) = 42.86629 47.99630 45.43129
# Shear Modulus (GPa) = 21.49193 26.93842 24.21517
#
# Velocity S-wave (km/s) = 3.25914 3.64881 3.45947
# Velocity P-wave (km/s) = 5.94546 6.43996 6.19765
#
# Compressibility (1/GPa) = 0.02332835
#
# Stress axis : x y z
#
# Youngs Moduli (GPa) = 37.33183 47.54559 51.14064
#
# Poissons Ratio (x) = 0.60372 0.06081
# Poissons Ratio (y) = 0.47403 0.41606
# Poissons Ratio (z) = 0.04439 0.38681
#
# Static dielectric constant tensor:
#      x y z
#    x 1.786790 0.000000 -0.021270 
#    y 0.000000 1.695880 0.000000 
#    z -0.021270 0.000000 1.806540 
# 
# From -- ./inp_files/92319.got.cif
#   From: 2010.05.17/outbox.cif.g08.bks.cpg/sg12_47_cif.got.tgz:92319.got - 2010.06.03 13:09:07.
