data_PCOD9195929
_publ_section_title
;
Structure prediction by ZEFSAII (Michael W. Deem and Ramdas Pophale) SiO2 
 PCOD9195929
Probable space group: C 2/M
;
_chemical_formula_sum "Si O2"
_cell_formula_units_Z 48
_cell_length_a 15.344478
_cell_length_b 8.388657
_cell_length_c 15.255743
_cell_angle_alpha 90.000000
_cell_angle_beta 91.066647
_cell_angle_gamma 90.000000
_cell_volume 1963.372293
_symmetry_space_group_name_H-M "C 2/M"
_symmetry_group_IT_number 12
_symmetry_cell_setting 'monoclinic'
loop_
_space_group_symop_operation_xyz
x,y,z
-x,y,-z
-x,-y,-z
x,-y,z
1/2+x,1/2+y,z
1/2-x,1/2+y,-z
1/2-x,1/2-y,-z
1/2+x,1/2-y,z
loop_
_atom_site_type_symbol
_atom_site_label
_atom_site_fract_x
_atom_site_fract_y
_atom_site_fract_z
Si Si1 0.572710 0.309359 0.199333
Si Si2 0.403336 0.827299 0.462298
Si Si3 0.927647 0.194557 0.071250
Si Si4 0.330697 0.684535 0.626067
Si Si5 0.752850 0.311033 0.886413
Si Si6 0.338598 0.678892 0.303067
O O1 0.567008 0.500000 0.196357
O O2 0.480079 0.251170 0.159777
O O3 0.599280 0.263879 0.298422
O O4 0.654147 0.263932 0.137285
O O5 0.500000 0.836050 0.500000
O O6 0.360255 0.701918 0.527272
O O7 0.403108 0.786786 0.359880
O O8 0.360338 0.000000 0.473862
O O9 0.827494 0.251752 0.053079
O O10 0.920451 0.000000 0.071844
O O11 0.000000 0.236050 0.000000
O O12 0.309082 0.500000 0.645912
O O13 0.248484 0.796159 0.641049
O O14 0.766184 0.500000 0.901464
O O15 0.697628 0.290743 0.794190
O O16 0.373024 0.500000 0.305170
#
# Coordination Sequence:
#
# PCOD9195929 Si02
#       6
#     8   8   8   8   8   8
#     4   9  19  35  57  83 111 145 185 227 272 326
#     4  11  24  37  50  75 109 141 178 223 272 319
#     4   9  18  34  57  84 113 146 182 223 273 329
#     4  10  20  35  56  77 104 140 182 225 268 320
#     4   9  19  35  57  83 111 145 185 227 272 326
#     4  10  20  35  56  77 104 140 182 225 268 320
#
# _framework density 24.447732999999999
#
# number of rings (size 3 to 8) (size 9 to 14) (size 15 to 20)
#    0.000    2.333    0.000    2.000    2.333    3.333 
#    0.000    0.833    0.000    1.000    0.000    0.000 
#    0.000    0.000    0.000    0.000    0.000    0.000 
#
# Total GULP energy -133877.125466 kJ/mol
# GULP energy per Si atom -5578.213561 kJ/mol
# Density = 2.439209 g / cm^3
# Si number density = 24.447733 Si / 1000 Ang^3
#
#
#
# Elastic Constant Matrix: (Units=GPa)
#
#
# Indices 1 2 3 4 5 6 
#
# 1 139.2240 0.1754 -24.4504 0.0000 3.2488 0.0000
# 2 0.1754 12.8399 -4.6615 0.0000 -4.4581 0.0000
# 3 -24.4504 -4.6615 9.6711 0.0000 -11.5908 0.0000
# 4 0.0000 0.0000 0.0000 12.4358 0.0000 0.4703
# 5 3.2488 -4.4581 -11.5908 0.0000 39.1904 0.0000
# 6 0.0000 0.0000 0.0000 0.4703 0.0000 15.4018
#
#
#
# Elastic Compliance Matrix: (Units=1/GPa)
#
#
# Indices 1 2 3 4 5 6 
#
# 1 -0.044636 -0.148373 -0.310063 0.000000 -0.104881 0.000000
# 2 -0.148373 -0.341797 -0.885645 0.000000 -0.288516 0.000000
# 3 -0.310063 -0.885645 -1.854753 0.000000 -0.623597 0.000000
# 4 0.000000 0.000000 0.000000 0.080506 0.000000 -0.002459
# 5 -0.104881 -0.288516 -0.623597 0.000000 -0.183042 0.000000
# 6 0.000000 0.000000 0.000000 -0.002459 0.000000 0.065002
#
#
# Mechanical properties :
#
#
# Convention : Reuss Voigt Hill
#
# Bulk Modulus (GPa) = -0.20287 11.54023 5.66868
# Shear Modulus (GPa) = -4.05293 26.11705 11.03206
#
# Velocity S-wave (km/s) = -1.28895 3.27200 2.12657
# Velocity P-wave (km/s) = 1.51603 4.35950 2.89024
#
# Compressibility (1/GPa) = -4.92934562
#
# Stress axis : x y z
#
# Youngs Moduli (GPa) = -22.40348 -2.92572 -0.53916
#
# Poissons Ratio (x) = -0.43410 -0.16717
# Poissons Ratio (y) = -3.32407 -0.47750
# Poissons Ratio (z) = -6.94648 -2.59115
#
# Static dielectric constant tensor:
#      x y z
#    x 2.003310 0.000000 0.027260 
#    y 0.000000 1.854280 0.000000 
#    z 0.027260 0.000000 2.101750 
# 
# From -- ./inp_files/267727.got.cif
#   From: 2010.05.17/outbox.cif.g08.bks.cpg/sg12_134_cif.got.tgz:267727.got - 2010.06.03 13:09:07.
