data_PCOD9195356
_publ_section_title
;
Structure prediction by ZEFSAII (Michael W. Deem and Ramdas Pophale) SiO2 
 PCOD9195356
Probable space group: C 2/M
;
_chemical_formula_sum "Si O2"
_cell_formula_units_Z 40
_cell_length_a 15.815812
_cell_length_b 7.910119
_cell_length_c 12.083060
_cell_angle_alpha 90.000000
_cell_angle_beta 81.893329
_cell_angle_gamma 90.000000
_cell_volume 1496.545124
_symmetry_space_group_name_H-M "C 2/M"
_symmetry_group_IT_number 12
_symmetry_cell_setting 'monoclinic'
loop_
_space_group_symop_operation_xyz
x,y,z
-x,y,-z
-x,-y,-z
x,-y,z
1/2+x,1/2+y,z
1/2-x,1/2+y,-z
1/2-x,1/2-y,-z
1/2+x,1/2-y,z
loop_
_atom_site_type_symbol
_atom_site_label
_atom_site_fract_x
_atom_site_fract_y
_atom_site_fract_z
Si Si1 0.492211 0.688711 0.739778
Si Si2 0.608897 0.196946 0.533726
Si Si3 0.091944 0.699365 0.921324
Si Si4 0.260989 0.792655 0.667383
Si Si5 0.824220 0.694652 0.878899
O O1 0.458775 0.500000 0.755883
O O2 0.529227 0.722108 0.611454
O O3 0.572107 0.708404 0.810309
O O4 0.416755 0.805576 0.798909
O O5 0.652152 0.260393 0.412820
O O6 0.685984 0.218477 0.607624
O O7 0.590650 0.000000 0.523238
O O8 0.107284 0.500000 0.898896
O O9 0.157273 0.768967 0.002886
O O10 0.000000 0.711093 0.000000
O O11 0.264149 0.732240 0.793682
O O12 0.256564 0.000000 0.666132
O O13 0.801582 0.500000 0.900352
#
# Coordination Sequence:
#
# PCOD9195356 Si02
#       5
#     8   8   8   8   8
#     4  11  21  32  50  76 105 134 169 209 244 289
#     4  10  20  35  54  74 101 135 168 204 250 301
#     4   8  15  30  51  73  99 131 164 201 250 301
#     4   9  19  36  56  76  99 130 167 207 252 301
#     4   9  18  34  55  77 102 131 164 205 253 301
#
# _framework density 26.728228000000001
#
# number of rings (size 3 to 8) (size 9 to 14) (size 15 to 20)
#    0.000    2.600    0.000    3.600    0.000    6.000 
#    0.000    5.000    0.000    0.000    0.000    0.000 
#    0.000    0.000    0.000    0.000    0.000    0.000 
#
# Total GULP energy -111909.965174 kJ/mol
# GULP energy per Si atom -5595.498259 kJ/mol
# Density = 2.666739 g / cm^3
# Si number density = 26.728228 Si / 1000 Ang^3
#
#
#
# Elastic Constant Matrix: (Units=GPa)
#
#
# Indices 1 2 3 4 5 6 
#
# 1 99.9414 4.0867 14.3651 0.0000 10.5508 0.0000
# 2 4.0867 74.0334 9.8378 0.0000 -10.5381 0.0000
# 3 14.3651 9.8378 193.3086 0.0000 3.7524 0.0000
# 4 0.0000 0.0000 0.0000 20.3288 0.0000 -2.0133
# 5 10.5508 -10.5381 3.7524 0.0000 54.3232 0.0000
# 6 0.0000 0.0000 0.0000 -2.0133 0.0000 26.7846
#
#
#
# Elastic Compliance Matrix: (Units=1/GPa)
#
#
# Indices 1 2 3 4 5 6 
#
# 1 0.010360 -0.000782 -0.000689 0.000000 -0.002116 0.000000
# 2 -0.000782 0.014062 -0.000714 0.000000 0.002929 0.000000
# 3 -0.000689 -0.000714 0.005268 0.000000 -0.000369 0.000000
# 4 0.000000 0.000000 0.000000 0.049560 0.000000 0.003725
# 5 -0.002116 0.002929 -0.000369 0.000000 0.019413 0.000000
# 6 0.000000 0.000000 0.000000 0.003725 0.000000 0.037615
#
#
# Mechanical properties :
#
#
# Convention : Reuss Voigt Hill
#
# Bulk Modulus (GPa) = 39.49381 47.09583 43.29482
# Shear Modulus (GPa) = 33.53705 42.88691 38.21198
#
# Velocity S-wave (km/s) = 3.54608 4.01004 3.78517
# Velocity P-wave (km/s) = 5.61911 6.25292 5.94447
#
# Compressibility (1/GPa) = 0.02532042
#
# Stress axis : x y z
#
# Youngs Moduli (GPa) = 96.52258 71.11143 189.83278
#
# Poissons Ratio (x) = 0.05558 0.13080
# Poissons Ratio (y) = 0.07544 0.13562
# Poissons Ratio (z) = 0.06651 0.05080
#
# Static dielectric constant tensor:
#      x y z
#    x 2.254200 0.000000 0.006100 
#    y 0.000000 1.911700 0.000000 
#    z 0.006100 0.000000 2.109870 
# 
# From -- ./inp_files/151867.got.cif
#   From: 2010.05.17/outbox.cif.g08.bks.cpg/sg12_76_cif.got.tgz:151867.got - 2010.06.03 13:09:07.
