data_PCOD9195608
_publ_section_title
;
Structure prediction by ZEFSAII (Michael W. Deem and Ramdas Pophale) SiO2 
 PCOD9195608
Probable space group: C 2/M
;
_chemical_formula_sum "Si O2"
_cell_formula_units_Z 48
_cell_length_a 9.952453
_cell_length_b 10.459985
_cell_length_c 23.652947
_cell_angle_alpha 90.000000
_cell_angle_beta 100.753829
_cell_angle_gamma 90.000000
_cell_volume 2419.087499
_symmetry_space_group_name_H-M "C 2/M"
_symmetry_group_IT_number 12
_symmetry_cell_setting 'monoclinic'
loop_
_space_group_symop_operation_xyz
x,y,z
-x,y,-z
-x,-y,-z
x,-y,z
1/2+x,1/2+y,z
1/2-x,1/2+y,-z
1/2-x,1/2-y,-z
1/2+x,1/2-y,z
loop_
_atom_site_type_symbol
_atom_site_label
_atom_site_fract_x
_atom_site_fract_y
_atom_site_fract_z
Si Si1 0.774293 0.147868 0.384093
Si Si2 0.002208 0.352199 0.432406
Si Si3 0.629227 0.147736 0.250945
Si Si4 0.424719 0.720209 0.079641
Si Si5 0.097831 0.145029 0.794976
Si Si6 0.175624 0.137149 0.048545
O O1 0.895307 0.249663 0.399899
O O2 0.654123 0.171732 0.420262
O O3 0.702420 0.158420 0.317438
O O4 0.821871 0.000000 0.394426
O O5 0.967097 0.500000 0.414020
O O6 0.000000 0.342834 0.500000
O O7 0.748797 0.172432 0.214534
O O8 0.507705 0.249172 0.235920
O O9 0.581930 0.000000 0.240644
O O10 0.412051 0.652041 0.138105
O O11 0.332707 0.845982 0.075212
O O12 0.580556 0.738600 0.073005
O O13 0.354063 0.649648 0.020429
O O14 0.064375 0.000000 0.773223
O O15 0.124886 0.000000 0.064408
#
# Coordination Sequence:
#
# PCOD9195608 Si02
#       6
#     8   8   8   8   8   8
#     4  10  21  38  57  80 113 148 183 224 269 318
#     4  10  21  36  57  86 115 144 182 225 268 318
#     4  10  23  39  56  81 111 144 184 227 268 317
#     4  10  20  35  55  78 104 136 174 218 266 322
#     4  11  22  37  57  81 108 141 183 226 271 321
#     4  10  20  36  54  75 105 137 170 213 270 325
#
# _framework density 19.842193000000002
#
# number of rings (size 3 to 8) (size 9 to 14) (size 15 to 20)
#    0.000    1.833    0.000    4.500    0.000    3.000 
#    0.000    8.333    0.000    0.000    0.000    0.000 
#    0.000    0.000    0.000    0.000    0.000    0.000 
#
# Total GULP energy -133909.195386 kJ/mol
# GULP energy per Si atom -5579.549808 kJ/mol
# Density = 1.979703 g / cm^3
# Si number density = 19.842193 Si / 1000 Ang^3
#
#
#
# Elastic Constant Matrix: (Units=GPa)
#
#
# Indices 1 2 3 4 5 6 
#
# 1 46.1925 34.3400 -10.9974 0.0000 5.9374 0.0000
# 2 34.3400 100.0366 -2.9237 0.0000 32.8039 0.0000
# 3 -10.9974 -2.9237 27.8218 0.0000 -5.2228 0.0000
# 4 0.0000 0.0000 0.0000 18.6585 0.0000 5.1242
# 5 5.9374 32.8039 -5.2228 0.0000 31.9976 0.0000
# 6 0.0000 0.0000 0.0000 5.1242 0.0000 30.8215
#
#
#
# Elastic Compliance Matrix: (Units=1/GPa)
#
#
# Indices 1 2 3 4 5 6 
#
# 1 0.035066 -0.015447 0.014431 0.000000 0.011686 0.000000
# 2 -0.015447 0.021914 -0.007719 0.000000 -0.020859 0.000000
# 3 0.014431 -0.007719 0.043141 0.000000 0.012277 0.000000
# 4 0.000000 0.000000 0.000000 0.056159 0.000000 -0.009337
# 5 0.011686 -0.020859 0.012277 0.000000 0.052473 0.000000
# 6 0.000000 0.000000 0.000000 -0.009337 0.000000 0.033997
#
#
# Mechanical properties :
#
#
# Convention : Reuss Voigt Hill
#
# Bulk Modulus (GPa) = 12.09915 23.87652 17.98783
# Shear Modulus (GPa) = 17.37496 26.53766 21.95631
#
# Velocity S-wave (km/s) = 2.96236 3.66106 3.33009
# Velocity P-wave (km/s) = 4.22039 5.47088 4.88581
#
# Compressibility (1/GPa) = 0.08265041
#
# Stress axis : x y z
#
# Youngs Moduli (GPa) = 28.51758 45.63363 23.17979
#
# Poissons Ratio (x) = 0.70492 -0.33451
# Poissons Ratio (y) = 0.44052 0.17893
# Poissons Ratio (z) = -0.41154 0.35225
#
# Static dielectric constant tensor:
#      x y z
#    x 1.689010 0.000000 -0.015940 
#    y 0.000000 1.707130 0.000000 
#    z -0.015940 0.000000 1.684920 
# 
# From -- ./inp_files/332224.got.cif
#   From: 2010.05.17/outbox.cif.g08.bks.cpg/sg12_167_cif.got.tgz:332224.got - 2010.06.03 13:09:07.
