data_PCOD9195731
_publ_section_title
;
Structure prediction by ZEFSAII (Michael W. Deem and Ramdas Pophale) SiO2 
 PCOD9195731
Probable space group: C 2/M
;
_chemical_formula_sum "Si O2"
_cell_formula_units_Z 58
_cell_length_a 21.989087
_cell_length_b 7.688274
_cell_length_c 21.555242
_cell_angle_alpha 90.000000
_cell_angle_beta 138.862641
_cell_angle_gamma 90.000000
_cell_volume 2397.323800
_symmetry_space_group_name_H-M "C 2/M"
_symmetry_group_IT_number 12
_symmetry_cell_setting 'monoclinic'
loop_
_space_group_symop_operation_xyz
x,y,z
-x,y,-z
-x,-y,-z
x,-y,z
1/2+x,1/2+y,z
1/2-x,1/2+y,-z
1/2-x,1/2-y,-z
1/2+x,1/2-y,z
loop_
_atom_site_type_symbol
_atom_site_label
_atom_site_fract_x
_atom_site_fract_y
_atom_site_fract_z
Si Si1 0.689617 0.201668 0.101195
Si Si2 0.136809 0.288446 0.591143
Si Si3 0.113244 0.291367 0.717546
Si Si4 0.643036 0.704505 0.931357
Si Si5 0.500000 0.500000 0.500000
Si Si6 0.658940 0.295984 0.292607
Si Si7 0.562988 0.303081 0.101739
Si Si8 0.480249 0.199185 0.715075
O O1 0.797427 0.237244 0.174179
O O2 0.658765 0.309957 0.137030
O O3 0.678087 0.000000 0.106007
O O4 0.632855 0.250387 0.996252
O O5 0.120124 0.500000 0.571561
O O6 0.134866 0.240270 0.663499
O O7 0.058726 0.156614 0.508633
O O8 0.235579 0.241281 0.636719
O O9 0.107053 0.500000 0.712808
O O10 0.024085 0.223277 0.686068
O O11 0.630346 0.500000 0.912707
O O12 0.566009 0.793630 0.829788
O O13 0.750000 0.750000 0.000000
O O14 0.661078 0.500000 0.278797
O O15 0.590130 0.217772 0.187380
O O16 0.609136 0.276915 0.320045
O O17 0.526970 0.500000 0.083950
O O18 0.500000 0.216979 0.000000
O O19 0.456169 0.000000 0.683940
#
# Coordination Sequence:
#
# PCOD9195731 Si02
#       8
#     8   8   8   8   2   8   8   8
#     4  12  23  33  54  82 116 161 218 281 326 363
#     4  10  23  45  73 106 139 168 214 267 331 410
#     4  10  21  40  63  90 126 169 211 261 318 383
#     4  12  23  36  51  75 119 172 231 283 325 372
#     4  12  26  44  80 114 130 164 210 270 350 402
#     4  10  21  38  61  93 133 177 216 264 328 391
#     4  10  20  35  55  79 117 171 221 265 316 370
#     4  11  23  37  60  91 127 174 223 269 323 379
#
# _framework density 24.193645
#
# number of rings (size 3 to 8) (size 9 to 14) (size 15 to 20)
#    0.000    1.241    2.759    3.931    1.931    2.483 
#    0.000    0.000    0.000    0.828    0.000    0.000 
#    0.000    0.000    0.000    0.000    0.000    0.000 
#
# Total GULP energy -161732.567995 kJ/mol
# GULP energy per Si atom -5576.985103 kJ/mol
# Density = 2.413858 g / cm^3
# Si number density = 24.193645 Si / 1000 Ang^3
#
#
#
# Elastic Constant Matrix: (Units=GPa)
#
#
# Indices 1 2 3 4 5 6 
#
# 1 151.8022 33.9378 36.4257 0.0000 30.3766 0.0000
# 2 33.9378 46.8590 -1.1832 0.0000 5.4800 -0.0001
# 3 36.4257 -1.1832 58.7714 0.0000 19.0142 0.0000
# 4 0.0000 0.0000 0.0000 4.8304 0.0000 12.3818
# 5 30.3766 5.4800 19.0142 0.0000 41.6659 0.0000
# 6 0.0000 -0.0001 0.0000 12.3818 0.0000 27.4989
#
#
#
# Elastic Compliance Matrix: (Units=1/GPa)
#
#
# Indices 1 2 3 4 5 6 
#
# 1 0.010233 -0.007051 -0.005128 0.000000 -0.004193 0.000000
# 2 -0.007051 0.026660 0.005136 0.000001 -0.000710 0.000000
# 3 -0.005128 0.005136 0.022650 0.000000 -0.007273 0.000000
# 4 0.000000 0.000001 0.000000 -1.342794 0.000000 0.604613
# 5 -0.004193 -0.000710 -0.007273 0.000000 0.030470 0.000000
# 6 0.000000 0.000000 0.000000 0.604613 0.000000 -0.235871
#
#
# Mechanical properties :
#
#
# Convention : Reuss Voigt Hill
#
# Bulk Modulus (GPa) = 21.99797 43.97702 32.98749
# Shear Modulus (GPa) = -3.42603 27.34919 11.96158
#
# Velocity S-wave (km/s) = -1.19129 3.36583 2.22595
# Velocity P-wave (km/s) = 2.68700 5.77249 4.50231
#
# Compressibility (1/GPa) = 0.04545874
#
# Stress axis : x y z
#
# Youngs Moduli (GPa) = 97.71990 37.50966 44.15061
#
# Poissons Ratio (x) = 0.26447 0.22640
# Poissons Ratio (y) = 0.68899 -0.22677
# Poissons Ratio (z) = 0.50109 -0.19266
#
# Static dielectric constant tensor:
#      x y z
#    x 2.006110 0.000000 0.022980 
#    y 0.000000 1.911580 0.000000 
#    z 0.022980 0.000000 2.122190 
# 
# From -- ./inp_files/346518.got.cif
#   From: 2010.05.17/outbox.cif.g08.bks.cpg/sg12_174_cif.got.tgz:346518.got - 2010.06.03 13:09:07.
