data_PCOD9195251
_publ_section_title
;
Structure prediction by ZEFSAII (Michael W. Deem and Ramdas Pophale) SiO2 
 PCOD9195251
Probable space group: C 2/M
;
_chemical_formula_sum "Si O2"
_cell_formula_units_Z 56
_cell_length_a 15.067009
_cell_length_b 7.530118
_cell_length_c 27.949651
_cell_angle_alpha 90.000000
_cell_angle_beta 128.053600
_cell_angle_gamma 90.000000
_cell_volume 2497.006284
_symmetry_space_group_name_H-M "C 2/M"
_symmetry_group_IT_number 12
_symmetry_cell_setting 'monoclinic'
loop_
_space_group_symop_operation_xyz
x,y,z
-x,y,-z
-x,-y,-z
x,-y,z
1/2+x,1/2+y,z
1/2-x,1/2+y,-z
1/2-x,1/2-y,-z
1/2+x,1/2-y,z
loop_
_atom_site_type_symbol
_atom_site_label
_atom_site_fract_x
_atom_site_fract_y
_atom_site_fract_z
Si Si1 0.358454 0.715024 0.092982
Si Si2 0.078609 0.791780 0.420172
Si Si3 0.813377 0.285711 0.450883
Si Si4 0.706686 0.707730 0.322159
Si Si5 0.542974 0.717507 0.773843
Si Si6 0.398994 0.209733 0.999666
Si Si7 0.139379 0.214539 0.708729
O O1 0.356080 0.500000 0.092271
O O2 0.421289 0.775491 0.161694
O O3 0.228272 0.780176 0.050884
O O4 0.416310 0.768914 0.062362
O O5 0.088304 0.771963 0.480506
O O6 0.195433 0.723178 0.436225
O O7 0.968670 0.718655 0.357654
O O8 0.079382 0.000000 0.409410
O O9 0.820966 0.500000 0.454337
O O10 0.796960 0.222307 0.390953
O O11 0.695920 0.500000 0.330308
O O12 0.581020 0.781213 0.282739
O O13 0.752229 0.725854 0.284083
O O14 0.540339 0.500000 0.773874
O O15 0.627247 0.770067 0.759466
O O16 0.392691 0.000000 0.986929
O O17 0.500000 0.282138 0.000000
O O18 0.138838 0.000000 0.707483
#
# Coordination Sequence:
#
# PCOD9195251 Si02
#       7
#     8   8   8   8   8   8   8
#     4   9  18  33  55  79 102 139 179 205 242 298
#     4   9  17  31  51  72  95 127 166 208 256 308
#     4   9  17  31  51  71  94 128 166 207 258 308
#     4  10  20  35  53  73  99 132 170 213 258 304
#     4   9  18  36  56  72 101 141 175 205 247 306
#     4   9  18  33  53  80 113 139 164 207 255 293
#     4  10  20  35  54  75 100 133 171 211 257 309
#
# _framework density 22.426856000000001
#
# number of rings (size 3 to 8) (size 9 to 14) (size 15 to 20)
#    0.000    2.714    1.429    0.000    0.000    3.143 
#    0.000    6.429    0.000    0.000    0.000    0.000 
#    0.000    0.000    0.000    0.000    0.000    0.000 
#
# Total GULP energy -156233.068466 kJ/mol
# GULP energy per Si atom -5579.752445 kJ/mol
# Density = 2.237581 g / cm^3
# Si number density = 22.426856 Si / 1000 Ang^3
#
#
#
# Elastic Constant Matrix: (Units=GPa)
#
#
# Indices 1 2 3 4 5 6 
#
# 1 104.2446 -7.2409 31.1803 0.0000 -29.7590 0.0000
# 2 -7.2409 50.8808 -7.7415 0.0000 5.9596 0.0000
# 3 31.1803 -7.7415 101.6529 0.0000 -27.1680 0.0000
# 4 0.0000 0.0000 0.0000 15.7378 0.0000 -6.5838
# 5 -29.7590 5.9596 -27.1680 0.0000 23.5520 0.0000
# 6 0.0000 0.0000 0.0000 -6.5838 0.0000 9.0430
#
#
#
# Elastic Compliance Matrix: (Units=1/GPa)
#
#
# Indices 1 2 3 4 5 6 
#
# 1 0.015037 -0.000076 0.000672 0.000000 0.019795 0.000000
# 2 -0.000076 0.020259 0.000246 0.000000 -0.004938 0.000000
# 3 0.000672 0.000246 0.014255 0.000000 0.017231 0.000000
# 4 0.000000 0.000000 0.000000 0.091371 0.000000 0.066523
# 5 0.019795 -0.004938 0.017231 0.000000 0.088597 0.000000
# 6 0.000000 0.000000 0.000000 0.066523 0.000000 0.159016
#
#
# Mechanical properties :
#
#
# Convention : Reuss Voigt Hill
#
# Bulk Modulus (GPa) = 19.51753 32.13045 25.82399
# Shear Modulus (GPa) = 12.37842 25.70527 19.04184
#
# Velocity S-wave (km/s) = 2.35190 3.38920 2.91703
# Velocity P-wave (km/s) = 4.01209 5.44734 4.78385
#
# Compressibility (1/GPa) = 0.05123599
#
# Stress axis : x y z
#
# Youngs Moduli (GPa) = 66.50068 49.36116 70.15038
#
# Poissons Ratio (x) = 0.00377 -0.04716
# Poissons Ratio (y) = 0.00507 -0.01728
# Poissons Ratio (z) = -0.04470 -0.01216
#
# Static dielectric constant tensor:
#      x y z
#    x 1.830450 0.000000 -0.002750 
#    y 0.000000 1.865460 0.000000 
#    z -0.002750 0.000000 1.832930 
# 
# From -- ./inp_files/359645.got.cif
#   From: 2010.05.17/outbox.cif.g08.bks.cpg/sg12_180_cif.got.tgz:359645.got - 2010.06.03 13:09:07.
