data_PCOD9195815
_publ_section_title
;
Structure prediction by ZEFSAII (Michael W. Deem and Ramdas Pophale) SiO2 
 PCOD9195815
Probable space group: C 2/M
;
_chemical_formula_sum "Si O2"
_cell_formula_units_Z 64
_cell_length_a 32.098032
_cell_length_b 8.473549
_cell_length_c 18.293667
_cell_angle_alpha 90.000000
_cell_angle_beta 41.256871
_cell_angle_gamma 90.000000
_cell_volume 3281.082530
_symmetry_space_group_name_H-M "C 2/M"
_symmetry_group_IT_number 12
_symmetry_cell_setting 'monoclinic'
loop_
_space_group_symop_operation_xyz
x,y,z
-x,y,-z
-x,-y,-z
x,-y,z
1/2+x,1/2+y,z
1/2-x,1/2+y,-z
1/2-x,1/2-y,-z
1/2+x,1/2-y,z
loop_
_atom_site_type_symbol
_atom_site_label
_atom_site_fract_x
_atom_site_fract_y
_atom_site_fract_z
Si Si1 0.554827 0.309947 0.167868
Si Si2 0.213000 0.813215 0.478095
Si Si3 0.571762 0.810217 0.886181
Si Si4 0.848796 0.189283 0.083846
Si Si5 0.418225 0.810594 0.296551
Si Si6 0.915863 0.184658 0.557225
Si Si7 0.453879 0.185876 0.662033
Si Si8 0.281269 0.811612 0.687363
O O1 0.551628 0.500000 0.170682
O O2 0.486770 0.242504 0.233820
O O3 0.568966 0.251570 0.230668
O O4 0.607955 0.254174 0.040185
O O5 0.250000 0.750000 0.500000
O O6 0.139154 0.771829 0.585960
O O7 0.235390 0.731063 0.374159
O O8 0.222240 0.000000 0.459891
O O9 0.617220 0.735712 0.885792
O O10 0.586746 0.768728 0.782855
O O11 0.575703 0.000000 0.887105
O O12 0.500000 0.763144 0.000000
O O13 0.776407 0.243356 0.185150
O O14 0.847142 0.000000 0.081296
O O15 0.412362 0.000000 0.311736
O O16 0.923480 0.227312 0.632605
O O17 0.846965 0.230358 0.620620
O O18 0.970970 0.280771 0.443609
O O19 0.928066 0.000000 0.529720
O O20 0.442454 0.000000 0.670959
O O21 0.288719 0.000000 0.684066
#
# Coordination Sequence:
#
# PCOD9195815 Si02
#       8
#     8   8   8   8   8   8   8   8
#     4  11  22  38  58  87 120 153 193 243 295 347
#     4  12  25  41  59  85 118 156 198 246 297 349
#     4  10  20  35  55  81 114 152 196 244 291 344
#     4  10  23  39  59  84 116 157 200 245 292 347
#     4  11  22  37  58  85 116 154 196 244 297 352
#     4  11  22  40  65  94 122 154 192 239 294 352
#     4  11  22  39  64  93 122 154 190 239 294 351
#     4  11  23  42  63  87 119 159 202 243 292 353
#
# _framework density 19.505758
#
# number of rings (size 3 to 8) (size 9 to 14) (size 15 to 20)
#    0.000    1.125    1.250    6.750    0.000    4.750 
#    0.000    0.625    0.000    0.000    0.000    0.000 
#    0.000    0.000    0.000    0.000    0.000    0.000 
#
# Total GULP energy -179009.249004 kJ/mol
# GULP energy per Si atom -5594.039031 kJ/mol
# Density = 1.946136 g / cm^3
# Si number density = 19.505758 Si / 1000 Ang^3
#
#
#
# Elastic Constant Matrix: (Units=GPa)
#
#
# Indices 1 2 3 4 5 6 
#
# 1 62.5941 -7.1200 23.2847 -0.0030 1.2747 0.0022
# 2 -7.1200 35.5456 -6.8038 0.0188 1.8169 -0.0109
# 3 23.2847 -6.8038 87.3940 0.0289 8.1715 -0.0133
# 4 -0.0030 0.0188 0.0289 17.3020 -0.0173 -1.6889
# 5 1.2747 1.8169 8.1715 -0.0173 31.0371 0.0081
# 6 0.0022 -0.0109 -0.0133 -1.6889 0.0081 31.6484
#
#
#
# Elastic Compliance Matrix: (Units=1/GPa)
#
#
# Indices 1 2 3 4 5 6 
#
# 1 0.017993 0.002705 -0.004613 0.000008 0.000317 -0.000002
# 2 0.002705 0.029128 0.001760 -0.000035 -0.002280 0.000009
# 3 -0.004613 0.001760 0.013124 -0.000027 -0.003369 0.000006
# 4 0.000008 -0.000035 -0.000027 0.058100 0.000041 0.003100
# 5 0.000317 -0.002280 -0.003369 0.000041 0.033227 -0.000009
# 6 -0.000002 0.000009 0.000006 0.003100 -0.000009 0.031763
#
#
# Mechanical properties :
#
#
# Convention : Reuss Voigt Hill
#
# Bulk Modulus (GPa) = 16.68085 22.69506 19.68796
# Shear Modulus (GPa) = 24.55638 27.74233 26.14935
#
# Velocity S-wave (km/s) = 3.55199 3.77538 3.66539
# Velocity P-wave (km/s) = 5.03910 5.53760 5.29422
#
# Compressibility (1/GPa) = 0.05994898
#
# Stress axis : x y z
#
# Youngs Moduli (GPa) = 55.57647 34.33103 76.19899
#
# Poissons Ratio (x) = -0.09286 0.35151
# Poissons Ratio (y) = -0.15033 -0.13412
# Poissons Ratio (z) = 0.25638 -0.06043
#
# Static dielectric constant tensor:
#      x y z
#    x 1.660340 0.000000 0.000670 
#    y 0.000000 1.658370 0.000000 
#    z 0.000670 0.000000 1.695370 
# 
# From -- ./inp_files/295566.got.cif
#   From: 2010.05.17/outbox.cif.g08.bks.cpg/sg12_148_cif.got.tgz:295566.got - 2010.06.03 13:09:07.
