data_PCOD9195559
_publ_section_title
;
Structure prediction by ZEFSAII (Michael W. Deem and Ramdas Pophale) SiO2 
 PCOD9195559
Probable space group: C 2/M
;
_chemical_formula_sum "Si O2"
_cell_formula_units_Z 48
_cell_length_a 32.384882
_cell_length_b 7.564972
_cell_length_c 18.802063
_cell_angle_alpha 90.000000
_cell_angle_beta 30.346261
_cell_angle_gamma 90.000000
_cell_volume 2327.231630
_symmetry_space_group_name_H-M "C 2/M"
_symmetry_group_IT_number 12
_symmetry_cell_setting 'monoclinic'
loop_
_space_group_symop_operation_xyz
x,y,z
-x,y,-z
-x,-y,-z
x,-y,z
1/2+x,1/2+y,z
1/2-x,1/2+y,-z
1/2-x,1/2-y,-z
1/2+x,1/2-y,z
loop_
_atom_site_type_symbol
_atom_site_label
_atom_site_fract_x
_atom_site_fract_y
_atom_site_fract_z
Si Si1 0.254641 0.209952 0.409476
Si Si2 0.587111 0.715525 0.588876
Si Si3 0.919312 0.790658 0.081432
Si Si4 0.077800 0.215908 0.082956
Si Si5 0.995442 0.783964 0.587664
Si Si6 0.164425 0.211223 0.091274
O O1 0.250000 0.250000 0.500000
O O2 0.173447 0.279816 0.490516
O O3 0.338595 0.271100 0.248773
O O4 0.253379 0.000000 0.403553
O O5 0.588324 0.500000 0.587794
O O6 0.510740 0.766178 0.752975
O O7 0.564812 0.769626 0.541389
O O8 0.933549 0.000000 0.051716
O O9 0.909563 0.719627 0.015858
O O10 0.000000 0.716848 0.000000
O O11 0.145958 0.275232 0.038702
O O12 0.079275 0.000000 0.079755
O O13 0.000000 0.722645 0.500000
O O14 0.910059 0.725764 0.749043
O O15 0.996704 0.000000 0.584348
O O16 0.157115 0.000000 0.099302
O O17 0.250000 0.250000 0.000000
#
# Coordination Sequence:
#
# PCOD9195559 Si02
#       6
#     8   8   8   8   8   8
#     4  11  22  35  53  77 104 131 163 205 250 298
#     4   8  15  29  48  69  94 127 165 201 240 290
#     4  10  20  35  55  75  98 132 170 206 250 303
#     4   8  15  30  50  70  94 128 167 201 240 296
#     4   8  14  26  46  71  96 124 161 202 241 283
#     4   9  17  29  47  70  97 129 163 201 244 292
#
# _framework density 20.625366
#
# number of rings (size 3 to 8) (size 9 to 14) (size 15 to 20)
#    0.000    3.000    0.000    3.500    0.000    4.333 
#    0.000    2.500    0.000   10.500    0.000    0.000 
#    0.000    0.000    0.000    0.000    0.000    0.000 
#
# Total GULP energy -133870.272353 kJ/mol
# GULP energy per Si atom -5577.928015 kJ/mol
# Density = 2.057842 g / cm^3
# Si number density = 20.625366 Si / 1000 Ang^3
#
#
#
# Elastic Constant Matrix: (Units=GPa)
#
#
# Indices 1 2 3 4 5 6 
#
# 1 255.9323 3.1490 132.9928 -0.0002 1.5583 -0.0004
# 2 3.1490 42.9601 -7.9748 -0.0010 1.1281 0.0039
# 3 132.9928 -7.9748 115.8813 -0.0086 -1.5585 0.0041
# 4 -0.0002 -0.0010 -0.0086 13.5055 0.0034 -3.6169
# 5 1.5583 1.1281 -1.5585 0.0034 46.6138 -0.0013
# 6 -0.0004 0.0039 0.0041 -3.6169 -0.0013 10.6777
#
#
#
# Elastic Compliance Matrix: (Units=1/GPa)
#
#
# Indices 1 2 3 4 5 6 
#
# 1 0.010047 -0.002898 -0.011739 -0.000006 -0.000658 0.000004
# 2 -0.002898 0.024427 0.005003 0.000002 -0.000327 -0.000010
# 3 -0.011739 0.005003 0.022460 0.000013 0.001022 -0.000006
# 4 -0.000006 0.000002 0.000013 0.081431 -0.000005 0.027584
# 5 -0.000658 -0.000327 0.001022 -0.000005 0.021517 0.000001
# 6 0.000004 -0.000010 -0.000006 0.027584 0.000001 0.102996
#
#
# Mechanical properties :
#
#
# Convention : Reuss Voigt Hill
#
# Bulk Modulus (GPa) = 26.54950 74.56752 50.55851
# Shear Modulus (GPa) = 16.96633 33.26654 25.11643
#
# Velocity S-wave (km/s) = 2.87120 4.02044 3.49341
# Velocity P-wave (km/s) = 4.88794 7.60156 6.39045
#
# Compressibility (1/GPa) = 0.03766549
#
# Stress axis : x y z
#
# Youngs Moduli (GPa) = 99.53343 40.93803 44.52421
#
# Poissons Ratio (x) = 0.11865 0.52266
# Poissons Ratio (y) = 0.28847 -0.22275
# Poissons Ratio (z) = 1.16840 -0.20481
#
# Static dielectric constant tensor:
#      x y z
#    x 1.901320 -0.000060 0.194910 
#    y -0.000060 1.795410 -0.000080 
#    z 0.194910 -0.000080 1.986250 
# 
# From -- ./inp_files/295362.got.cif
#   From: 2010.05.17/outbox.cif.g08.bks.cpg/sg12_148_cif.got.tgz:295362.got - 2010.06.03 13:09:07.
