data_PCOD9195668
_publ_section_title
;
Structure prediction by ZEFSAII (Michael W. Deem and Ramdas Pophale) SiO2 
 PCOD9195668
Probable space group: C 2/M
;
_chemical_formula_sum "Si O2"
_cell_formula_units_Z 48
_cell_length_a 14.783003
_cell_length_b 7.355982
_cell_length_c 17.546078
_cell_angle_alpha 90.000000
_cell_angle_beta 77.192622
_cell_angle_gamma 90.000000
_cell_volume 1860.551975
_symmetry_space_group_name_H-M "C 2/M"
_symmetry_group_IT_number 12
_symmetry_cell_setting 'monoclinic'
loop_
_space_group_symop_operation_xyz
x,y,z
-x,y,-z
-x,-y,-z
x,-y,z
1/2+x,1/2+y,z
1/2-x,1/2+y,-z
1/2-x,1/2-y,-z
1/2+x,1/2-y,z
loop_
_atom_site_type_symbol
_atom_site_label
_atom_site_fract_x
_atom_site_fract_y
_atom_site_fract_z
Si Si1 0.333006 0.782308 0.926797
Si Si2 0.526710 0.219419 0.856533
Si Si3 0.491887 0.219870 0.314791
Si Si4 0.399477 0.781627 0.478152
Si Si5 0.229284 0.788328 0.803625
Si Si6 0.189423 0.280847 0.358850
O O1 0.437812 0.718936 0.921165
O O2 0.301020 0.709605 0.850471
O O3 0.339581 0.000000 0.919941
O O4 0.250000 0.750000 0.000000
O O5 0.515651 0.281399 0.770544
O O6 0.628831 0.277787 0.860015
O O7 0.529213 0.000000 0.857041
O O8 0.413809 0.286534 0.389405
O O9 0.592355 0.259859 0.332938
O O10 0.487009 0.000000 0.313704
O O11 0.500000 0.750900 0.500000
O O12 0.323398 0.710718 0.552526
O O13 0.389283 0.000000 0.475045
O O14 0.235023 0.713664 0.716496
O O15 0.253630 0.000000 0.791027
O O16 0.196840 0.500000 0.365719
#
# Coordination Sequence:
#
# PCOD9195668 Si02
#       6
#     8   8   8   8   8   8
#     4  10  22  40  60  79 103 135 169 210 260 312
#     4  10  20  35  55  79 107 138 171 210 256 306
#     4   8  12  23  44  69  99 134 172 211 249 292
#     4   7  10  16  35  68  97 126 169 214 247 281
#     4  10  20  35  55  79 107 138 171 210 256 306
#     4   8  12  23  44  69  99 134 172 211 249 292
#
# _framework density 25.798795999999999
#
# number of rings (size 3 to 8) (size 9 to 14) (size 15 to 20)
#    0.000    3.167    1.667    2.000    0.000    2.000 
#    0.000    4.167    0.000    0.000    0.000    0.000 
#    0.000    4.000    0.000    0.000    0.000    0.000 
#
# Total GULP energy -134000.618587 kJ/mol
# GULP energy per Si atom -5583.359108 kJ/mol
# Density = 2.574008 g / cm^3
# Si number density = 25.798796 Si / 1000 Ang^3
#
#
#
# Elastic Constant Matrix: (Units=GPa)
#
#
# Indices 1 2 3 4 5 6 
#
# 1 76.3020 -7.4451 26.4220 0.0000 -24.2260 0.0000
# 2 -7.4451 93.2018 1.8124 0.0000 0.4317 0.0000
# 3 26.4220 1.8124 104.9611 0.0000 -44.8612 0.0000
# 4 0.0000 0.0000 0.0000 -3.0126 0.0000 1.8819
# 5 -24.2260 0.4317 -44.8612 0.0000 47.4887 0.0000
# 6 0.0000 0.0000 0.0000 1.8819 0.0000 -2.5302
#
#
#
# Elastic Compliance Matrix: (Units=1/GPa)
#
#
# Indices 1 2 3 4 5 6 
#
# 1 0.015832 0.001250 -0.000939 0.000000 0.007178 0.000000
# 2 0.001250 0.010838 -0.000455 0.000000 0.000109 0.000000
# 3 -0.000939 -0.000455 0.016048 0.000000 0.014685 0.000000
# 4 0.000000 0.000000 0.000000 -0.620005 0.000000 -0.461140
# 5 0.007178 0.000109 0.014685 0.000000 0.038591 0.000000
# 6 0.000000 0.000000 0.000000 -0.461140 0.000000 -0.738212
#
#
# Mechanical properties :
#
#
# Convention : Reuss Voigt Hill
#
# Bulk Modulus (GPa) = 23.56879 35.11595 29.34237
# Shear Modulus (GPa) = -3.96047 25.30089 10.67021
#
# Velocity S-wave (km/s) = -1.24035 3.13501 2.03591
# Velocity P-wave (km/s) = 2.66536 5.17160 4.11397
#
# Compressibility (1/GPa) = 0.04242899
#
# Stress axis : x y z
#
# Youngs Moduli (GPa) = 63.16331 92.27152 62.31215
#
# Poissons Ratio (x) = -0.11531 0.05851
# Poissons Ratio (y) = -0.07893 0.02836
# Poissons Ratio (z) = 0.05931 0.04199
#
# Static dielectric constant tensor:
#      x y z
#    x 2.029280 0.000000 -0.033970 
#    y 0.000000 2.122700 0.000000 
#    z -0.033970 0.000000 2.090820 
# 
# From -- ./inp_files/261802.got.cif
#   From: 2010.05.17/outbox.cif.g08.bks.cpg/sg12_131_cif.got.tgz:261802.got - 2010.06.03 13:09:07.
