data_PCOD9195141
_publ_section_title
;
Structure prediction by ZEFSAII (Michael W. Deem and Ramdas Pophale) SiO2 
 PCOD9195141
Probable space group: C 2/M
;
_chemical_formula_sum "Si O2"
_cell_formula_units_Z 56
_cell_length_a 17.287654
_cell_length_b 27.632766
_cell_length_c 8.938593
_cell_angle_alpha 90.000000
_cell_angle_beta 143.581930
_cell_angle_gamma 90.000000
_cell_volume 2534.992428
_symmetry_space_group_name_H-M "C 2/M"
_symmetry_group_IT_number 12
_symmetry_cell_setting 'monoclinic'
loop_
_space_group_symop_operation_xyz
x,y,z
-x,y,-z
-x,-y,-z
x,-y,z
1/2+x,1/2+y,z
1/2-x,1/2+y,-z
1/2-x,1/2-y,-z
1/2+x,1/2-y,z
loop_
_atom_site_type_symbol
_atom_site_label
_atom_site_fract_x
_atom_site_fract_y
_atom_site_fract_z
Si Si1 0.369267 0.500000 0.186140
Si Si2 0.531641 0.596965 0.728654
Si Si3 0.132839 0.781036 0.608611
Si Si4 0.937914 0.500000 0.233571
Si Si5 0.584086 0.101209 0.939434
Si Si6 0.213165 0.869957 0.519428
Si Si7 0.743220 0.842041 0.971379
Si Si8 0.867923 0.325410 0.506116
O O1 0.500000 0.500000 0.500000
O O2 0.386261 0.548719 0.119789
O O3 0.221826 0.500000 0.019222
O O4 0.500000 0.599968 0.500000
O O5 0.406240 0.594256 0.638835
O O6 0.619782 0.644059 0.890337
O O7 0.162374 0.825372 0.543022
O O8 0.241814 0.794475 0.904122
O O9 0.136798 0.732577 0.515722
O O10 0.000000 0.780649 0.500000
O O11 0.974642 0.549944 0.203746
O O12 0.000000 0.500000 0.500000
O O13 0.492634 0.147971 0.770253
O O14 0.655566 0.105150 0.210032
O O15 0.703806 0.113257 0.013997
O O16 0.249421 0.847696 0.417037
O O17 0.642214 0.839202 0.682317
#
# Coordination Sequence:
#
# PCOD9195141 Si02
#       8
#     4   8   8   4   8   8   8   8
#     4  10  20  34  69 104 126 173 234 291 334 411
#     4  11  18  40  66  93 125 165 222 272 337 389
#     4  11  21  42  66  91 124 171 225 274 332 396
#     4  12  22  38  72 109 139 174 237 300 348 403
#     4  11  23  43  66  94 133 179 221 277 339 410
#     4  11  23  44  63  90 137 173 216 279 336 412
#     4  11  20  39  67  90 129 163 219 281 327 386
#     4  12  26  38  60  97 132 173 217 265 341 410
#
# _framework density 22.090795
#
# number of rings (size 3 to 8) (size 9 to 14) (size 15 to 20)
#    0.000    0.857    5.714    4.286    0.000    1.714 
#    0.000    3.571    0.000    0.857    0.000    0.000 
#    0.000    0.000    0.000    0.000    0.000    0.000 
#
# Total GULP energy -155984.041687 kJ/mol
# GULP energy per Si atom -5570.858632 kJ/mol
# Density = 2.204052 g / cm^3
# Si number density = 22.090795 Si / 1000 Ang^3
#
#
#
# Elastic Constant Matrix: (Units=GPa)
#
#
# Indices 1 2 3 4 5 6 
#
# 1 83.9386 8.3009 14.8898 0.0000 2.0605 0.0000
# 2 8.3009 115.9296 3.4306 0.0000 -3.9778 0.0000
# 3 14.8898 3.4306 42.0806 0.0000 4.9870 0.0000
# 4 0.0000 0.0000 0.0000 2.5980 0.0000 14.7907
# 5 2.0605 -3.9778 4.9870 0.0000 27.5919 0.0000
# 6 0.0000 0.0000 0.0000 14.7907 0.0000 26.3614
#
#
#
# Elastic Compliance Matrix: (Units=1/GPa)
#
#
# Indices 1 2 3 4 5 6 
#
# 1 0.012784 -0.000794 -0.004427 0.000000 -0.000269 0.000000
# 2 -0.000794 0.008750 -0.000602 0.000000 0.001429 0.000000
# 3 -0.004427 -0.000602 0.025905 0.000000 -0.004438 0.000000
# 4 0.000000 0.000000 0.000000 -0.175418 0.000000 0.098422
# 5 -0.000269 0.001429 -0.004438 0.000000 0.037271 0.000000
# 6 0.000000 0.000000 0.000000 0.098422 0.000000 -0.017288
#
#
# Mechanical properties :
#
#
# Convention : Reuss Voigt Hill
#
# Bulk Modulus (GPa) = 27.93756 32.79904 30.36830
# Shear Modulus (GPa) = -59.22813 25.66541 -16.78136
#
# Velocity S-wave (km/s) = -5.18357 3.41224 -2.75917
# Velocity P-wave (km/s) = 4.81163 5.51399 1.90425
#
# Compressibility (1/GPa) = 0.03579411
#
# Stress axis : x y z
#
# Youngs Moduli (GPa) = 78.22379 114.29083 38.60196
#
# Poissons Ratio (x) = 0.09070 0.17089
# Poissons Ratio (y) = 0.06208 0.02324
# Poissons Ratio (z) = 0.34629 0.06879
#
# Static dielectric constant tensor:
#      x y z
#    x 1.858600 0.000000 0.059360 
#    y 0.000000 1.846260 0.000000 
#    z 0.059360 0.000000 1.883160 
# 
# From -- ./inp_files/80144.got.cif
#   From: 2010.05.17/outbox.cif.g08.bks.cpg/sg12_41_cif.got.tgz:80144.got - 2010.06.03 13:09:07.
