data_PCOD9195154
_publ_section_title
;
Structure prediction by ZEFSAII (Michael W. Deem and Ramdas Pophale) SiO2 
 PCOD9195154
Probable space group: C 2/M
;
_chemical_formula_sum "Si O2"
_cell_formula_units_Z 56
_cell_length_a 8.220793
_cell_length_b 27.441529
_cell_length_c 13.639702
_cell_angle_alpha 90.000000
_cell_angle_beta 106.748761
_cell_angle_gamma 90.000000
_cell_volume 2946.462212
_symmetry_space_group_name_H-M "C 2/M"
_symmetry_group_IT_number 12
_symmetry_cell_setting 'monoclinic'
loop_
_space_group_symop_operation_xyz
x,y,z
-x,y,-z
-x,-y,-z
x,-y,z
1/2+x,1/2+y,z
1/2-x,1/2+y,-z
1/2-x,1/2-y,-z
1/2+x,1/2-y,z
loop_
_atom_site_type_symbol
_atom_site_label
_atom_site_fract_x
_atom_site_fract_y
_atom_site_fract_z
Si Si1 0.770933 0.159292 0.789034
Si Si2 0.273921 0.446769 0.858083
Si Si3 0.860989 0.817487 0.403431
Si Si4 0.981037 0.723529 0.672789
Si Si5 0.814007 0.052162 0.092434
Si Si6 0.375765 0.757989 0.885417
Si Si7 0.662595 0.350407 0.804020
O O1 0.709892 0.105655 0.810010
O O2 0.632071 0.184395 0.696041
O O3 0.801740 0.202754 0.874327
O O4 0.959221 0.151340 0.779767
O O5 0.213011 0.500000 0.809360
O O6 0.479248 0.446544 0.877565
O O7 0.249213 0.446774 0.970332
O O8 0.685257 0.795621 0.411710
O O9 0.802672 0.851843 0.305259
O O10 0.000000 0.838888 0.500000
O O11 0.954834 0.772527 0.365826
O O12 0.939233 0.733994 0.782021
O O13 0.761662 0.101352 0.135544
O O14 0.764736 0.000000 0.128813
O O15 0.239704 0.801923 0.866965
O O16 0.500000 0.763013 0.000000
#
# Coordination Sequence:
#
# PCOD9195154 Si02
#       7
#     8   8   8   8   8   8   8
#     4  11  19  31  52  72 109 135 168 212 251 298
#     4   8  16  27  45  74 102 136 177 208 243 291
#     4  11  21  37  55  72 102 135 171 219 261 301
#     4  11  21  36  48  77 104 136 175 203 248 320
#     4   8  15  29  48  71  99 134 177 215 246 290
#     4  11  23  32  46  74 113 146 170 200 247 309
#     4  10  20  35  50  76 103 133 178 212 254 313
#
# _framework density 19.005842999999999
#
# number of rings (size 3 to 8) (size 9 to 14) (size 15 to 20)
#    0.000    2.000    4.286    1.286    6.000    1.143 
#    0.000    0.000    0.000    4.286    0.000    0.000 
#    0.000    5.143    0.000    0.000    0.000    0.000 
#
# Total GULP energy -155957.491566 kJ/mol
# GULP energy per Si atom -5569.910413 kJ/mol
# Density = 1.896259 g / cm^3
# Si number density = 19.005843 Si / 1000 Ang^3
#
#
#
# Elastic Constant Matrix: (Units=GPa)
#
#
# Indices 1 2 3 4 5 6 
#
# 1 29.0504 -0.5821 -3.9837 0.0000 9.4157 0.0000
# 2 -0.5821 132.0792 8.5097 0.0000 -6.8021 0.0000
# 3 -3.9837 8.5097 35.2993 0.0000 14.9040 0.0000
# 4 0.0000 0.0000 0.0000 17.5016 0.0000 -1.1574
# 5 9.4157 -6.8021 14.9040 0.0000 18.2386 0.0000
# 6 0.0000 0.0000 0.0000 -1.1574 0.0000 11.4126
#
#
#
# Elastic Compliance Matrix: (Units=1/GPa)
#
#
# Indices 1 2 3 4 5 6 
#
# 1 0.057278 -0.004751 0.031821 0.000000 -0.057345 0.000000
# 2 -0.004751 0.008660 -0.007669 0.000000 0.011949 0.000000
# 3 0.031821 -0.007669 0.063991 0.000000 -0.071579 0.000000
# 4 0.000000 0.000000 0.000000 0.057523 0.000000 0.005834
# 5 -0.057345 0.011949 -0.071579 0.000000 0.147381 0.000000
# 6 0.000000 0.000000 0.000000 0.005834 0.000000 0.088214
#
#
# Mechanical properties :
#
#
# Convention : Reuss Voigt Hill
#
# Bulk Modulus (GPa) = 5.92659 22.70187 14.31423
# Shear Modulus (GPa) = 11.35106 22.26292 16.80699
#
# Velocity S-wave (km/s) = 2.44650 3.42624 2.97695
# Velocity P-wave (km/s) = 3.33250 5.25574 4.40048
#
# Compressibility (1/GPa) = 0.16873109
#
# Stress axis : x y z
#
# Youngs Moduli (GPa) = 17.45878 115.47668 15.62722
#
# Poissons Ratio (x) = 0.54864 -0.49728
# Poissons Ratio (y) = 0.08295 0.11984
# Poissons Ratio (z) = -0.55556 0.88558
#
# Static dielectric constant tensor:
#      x y z
#    x 1.762560 0.000000 -0.018580 
#    y 0.000000 1.707060 0.000000 
#    z -0.018580 0.000000 1.677610 
# 
# From -- ./inp_files/199425.got.cif
#   From: 2010.05.17/outbox.cif.g08.bks.cpg/sg12_100_cif.got.tgz:199425.got - 2010.06.03 13:09:07.
