data_PCOD9195752
_publ_section_title
;
Structure prediction by ZEFSAII (Michael W. Deem and Ramdas Pophale) SiO2 
 PCOD9195752
Probable space group: C 2/M
;
_chemical_formula_sum "Si O2"
_cell_formula_units_Z 56
_cell_length_a 26.166876
_cell_length_b 7.521031
_cell_length_c 13.740768
_cell_angle_alpha 90.000000
_cell_angle_beta 109.833256
_cell_angle_gamma 90.000000
_cell_volume 2543.806182
_symmetry_space_group_name_H-M "C 2/M"
_symmetry_group_IT_number 12
_symmetry_cell_setting 'monoclinic'
loop_
_space_group_symop_operation_xyz
x,y,z
-x,y,-z
-x,-y,-z
x,-y,z
1/2+x,1/2+y,z
1/2-x,1/2+y,-z
1/2-x,1/2-y,-z
1/2+x,1/2-y,z
loop_
_atom_site_type_symbol
_atom_site_label
_atom_site_fract_x
_atom_site_fract_y
_atom_site_fract_z
Si Si1 0.600485 0.286893 0.325971
Si Si2 0.353965 0.783805 0.932169
Si Si3 0.213413 0.713079 0.293986
Si Si4 0.438849 0.282638 0.486086
Si Si5 0.038663 0.799004 0.103876
Si Si6 0.694706 0.789172 0.905482
Si Si7 0.171802 0.204067 0.671724
O O1 0.595525 0.500000 0.319683
O O2 0.662922 0.252350 0.333268
O O3 0.581989 0.228614 0.420207
O O4 0.557739 0.215939 0.217897
O O5 0.305303 0.732339 0.827247
O O6 0.405145 0.695020 0.917160
O O7 0.357922 0.000000 0.930264
O O8 0.348403 0.732883 0.040447
O O9 0.217543 0.500000 0.295808
O O10 0.274825 0.783348 0.348017
O O11 0.500000 0.221108 0.500000
O O12 0.441782 0.500000 0.485092
O O13 0.388614 0.222723 0.385085
O O14 0.017486 0.000000 0.108825
O O15 0.000000 0.708267 0.000000
O O16 0.685981 0.704842 0.795230
O O17 0.691417 0.000000 0.888707
O O18 0.750000 0.750000 0.000000
O O19 0.168436 0.000000 0.635038
#
# Coordination Sequence:
#
# PCOD9195752 Si02
#       7
#     8   8   8   8   8   8   8
#     4   9  18  33  53  77 104 137 178 225 273 321
#     4   9  18  32  48  70 105 141 170 206 260 324
#     4   9  17  32  51  75 106 137 171 215 272 330
#     4   9  19  36  57  79 106 143 187 233 277 325
#     4   9  18  31  49  76 106 135 175 225 269 313
#     4  11  21  34  53  80 113 146 179 218 270 328
#     4  10  20  35  55  80 109 145 186 229 277 329
#
# _framework density 22.014254999999999
#
# number of rings (size 3 to 8) (size 9 to 14) (size 15 to 20)
#    0.000    2.571    1.429    0.429    0.000    3.714 
#    0.000    3.571    0.000    1.714    0.000    0.000 
#    0.000    0.000    0.000    0.000    0.000    0.000 
#
# Total GULP energy -155971.004034 kJ/mol
# GULP energy per Si atom -5570.393001 kJ/mol
# Density = 2.196415 g / cm^3
# Si number density = 22.014255 Si / 1000 Ang^3
#
#
#
# Elastic Constant Matrix: (Units=GPa)
#
#
# Indices 1 2 3 4 5 6 
#
# 1 136.1153 2.6919 89.5962 0.0000 15.5086 0.0000
# 2 2.6919 53.2141 -4.2950 0.0000 4.9464 0.0000
# 3 89.5962 -4.2950 118.1448 0.0000 12.7544 0.0000
# 4 0.0000 0.0000 0.0000 13.4614 0.0000 -5.2963
# 5 15.5086 4.9464 12.7544 0.0000 40.4146 0.0000
# 6 0.0000 0.0000 0.0000 -5.2963 0.0000 18.8697
#
#
#
# Elastic Compliance Matrix: (Units=1/GPa)
#
#
# Indices 1 2 3 4 5 6 
#
# 1 0.014972 -0.001471 -0.011188 0.000000 -0.002034 0.000000
# 2 -0.001471 0.019262 0.002080 0.000000 -0.002449 0.000000
# 3 -0.011188 0.002080 0.017173 0.000000 -0.001381 0.000000
# 4 0.000000 0.000000 0.000000 0.083508 0.000000 0.023439
# 5 -0.002034 -0.002449 -0.001381 0.000000 0.026260 0.000000
# 6 0.000000 0.000000 0.000000 0.023439 0.000000 0.059574
#
#
# Mechanical properties :
#
#
# Convention : Reuss Voigt Hill
#
# Bulk Modulus (GPa) = 33.05809 53.71783 43.38796
# Shear Modulus (GPa) = 19.84206 29.18122 24.51164
#
# Velocity S-wave (km/s) = 3.00547 3.64477 3.34045
# Velocity P-wave (km/s) = 5.20510 6.49360 5.88472
#
# Compressibility (1/GPa) = 0.03024978
#
# Stress axis : x y z
#
# Youngs Moduli (GPa) = 66.79167 51.91555 58.22962
#
# Poissons Ratio (x) = 0.07638 0.65147
# Poissons Ratio (y) = 0.09827 -0.12114
# Poissons Ratio (z) = 0.74726 -0.10801
#
# Static dielectric constant tensor:
#      x y z
#    x 1.842620 0.000000 0.037210 
#    y 0.000000 1.853210 0.000000 
#    z 0.037210 0.000000 1.846680 
# 
# From -- ./inp_files/237898.got.cif
#   From: 2010.05.17/outbox.cif.g08.bks.cpg/sg12_119_cif.got.tgz:237898.got - 2010.06.03 13:09:07.
