data_PCOD9195485
_publ_section_title
;
Structure prediction by ZEFSAII (Michael W. Deem and Ramdas Pophale) SiO2 
 PCOD9195485
Probable space group: C 2/M
;
_chemical_formula_sum "Si O2"
_cell_formula_units_Z 48
_cell_length_a 12.770355
_cell_length_b 14.524031
_cell_length_c 12.081615
_cell_angle_alpha 90.000000
_cell_angle_beta 76.917091
_cell_angle_gamma 90.000000
_cell_volume 2182.697227
_symmetry_space_group_name_H-M "C 2/M"
_symmetry_group_IT_number 12
_symmetry_cell_setting 'monoclinic'
loop_
_space_group_symop_operation_xyz
x,y,z
-x,y,-z
-x,-y,-z
x,-y,z
1/2+x,1/2+y,z
1/2-x,1/2+y,-z
1/2-x,1/2-y,-z
1/2+x,1/2-y,z
loop_
_atom_site_type_symbol
_atom_site_label
_atom_site_fract_x
_atom_site_fract_y
_atom_site_fract_z
Si Si1 0.211393 0.387794 0.420724
Si Si2 0.351790 0.397034 0.800516
Si Si3 0.089470 0.887429 0.776755
Si Si4 0.329035 0.886923 0.318054
Si Si5 0.430893 0.889865 0.746901
Si Si6 0.768127 0.847858 0.050002
O O1 0.206906 0.500000 0.422658
O O2 0.326155 0.363500 0.339853
O O3 0.194788 0.358756 0.550432
O O4 0.119431 0.355531 0.357129
O O5 0.370785 0.500000 0.750833
O O6 0.469309 0.353315 0.781816
O O7 0.263204 0.352108 0.742506
O O8 0.303705 0.404688 0.934611
O O9 0.139473 0.852520 0.879604
O O10 0.087579 0.000000 0.786872
O O11 0.449063 0.856244 0.257590
O O12 0.327792 0.000000 0.312829
O O13 0.341929 0.874876 0.862345
O O14 0.440490 0.000000 0.731554
O O15 0.750000 0.750000 0.000000
#
# Coordination Sequence:
#
# PCOD9195485 Si02
#       6
#     8   8   8   8   8   8
#     4   8  14  27  52  84 110 134 171 217 264 315
#     4  10  20  35  54  79 111 143 177 219 268 321
#     4   9  18  35  59  81 105 141 182 221 263 319
#     4   9  17  29  50  84 115 136 166 214 271 324
#     4   9  17  32  54  79 109 144 178 216 264 321
#     4  11  22  36  52  76 102 139 187 231 269 312
#
# _framework density 21.991139
#
# number of rings (size 3 to 8) (size 9 to 14) (size 15 to 20)
#    0.000    2.667    0.000    3.500    0.000    4.667 
#    6.000    5.833    0.000    4.000    8.667    0.000 
#    0.000    0.000    0.000    0.000    0.000    0.000 
#
# Total GULP energy -134049.805206 kJ/mol
# GULP energy per Si atom -5585.408550 kJ/mol
# Density = 2.194109 g / cm^3
# Si number density = 21.991139 Si / 1000 Ang^3
#
#
#
# Elastic Constant Matrix: (Units=GPa)
#
#
# Indices 1 2 3 4 5 6 
#
# 1 244.5863 29.8471 90.1550 0.0000 1.8580 0.0000
# 2 29.8471 44.8221 6.2025 0.0000 0.7961 0.0000
# 3 90.1550 6.2025 71.8331 0.0000 2.4885 0.0000
# 4 0.0000 0.0000 0.0000 5.0727 0.0000 -2.7949
# 5 1.8580 0.7961 2.4885 0.0000 15.4135 0.0000
# 6 0.0000 0.0000 0.0000 -2.7949 0.0000 3.3044
#
#
#
# Elastic Compliance Matrix: (Units=1/GPa)
#
#
# Indices 1 2 3 4 5 6 
#
# 1 0.008313 -0.004153 -0.010105 0.000000 0.000844 0.000000
# 2 -0.004153 0.024666 0.003126 0.000000 -0.001278 0.000000
# 3 -0.010105 0.003126 0.026444 0.000000 -0.003213 0.000000
# 4 0.000000 0.000000 0.000000 0.369177 0.000000 0.312258
# 5 0.000844 -0.001278 -0.003213 0.000000 0.065361 0.000000
# 6 0.000000 0.000000 0.000000 0.312258 0.000000 0.566742
#
#
# Mechanical properties :
#
#
# Convention : Reuss Voigt Hill
#
# Bulk Modulus (GPa) = 26.90932 68.18339 47.54636
# Shear Modulus (GPa) = 4.56474 20.42725 12.49600
#
# Velocity S-wave (km/s) = 1.44230 3.05107 2.38634
# Velocity P-wave (km/s) = 3.87771 6.59426 5.40929
#
# Compressibility (1/GPa) = 0.03716184
#
# Stress axis : x y z
#
# Youngs Moduli (GPa) = 120.28728 40.54200 37.81525
#
# Poissons Ratio (x) = 0.16836 0.38211
# Poissons Ratio (y) = 0.49951 -0.11822
# Poissons Ratio (z) = 1.21545 -0.12675
#
# Static dielectric constant tensor:
#      x y z
#    x 1.740200 0.000000 0.075150 
#    y 0.000000 2.018820 0.000000 
#    z 0.075150 0.000000 1.624170 
# 
# From -- ./inp_files/131043.got.cif
#   From: 2010.05.17/outbox.cif.g08.bks.cpg/sg12_66_cif.got.tgz:131043.got - 2010.06.03 13:09:07.
