data_PCOD9195758
_publ_section_title
;
Structure prediction by ZEFSAII (Michael W. Deem and Ramdas Pophale) SiO2 
 PCOD9195758
Probable space group: C 2/M
;
_chemical_formula_sum "Si O2"
_cell_formula_units_Z 48
_cell_length_a 20.196424
_cell_length_b 8.641196
_cell_length_c 16.370992
_cell_angle_alpha 90.000000
_cell_angle_beta 71.986403
_cell_angle_gamma 90.000000
_cell_volume 2717.040778
_symmetry_space_group_name_H-M "C 2/M"
_symmetry_group_IT_number 12
_symmetry_cell_setting 'monoclinic'
loop_
_space_group_symop_operation_xyz
x,y,z
-x,y,-z
-x,-y,-z
x,-y,z
1/2+x,1/2+y,z
1/2-x,1/2+y,-z
1/2-x,1/2-y,-z
1/2+x,1/2-y,z
loop_
_atom_site_type_symbol
_atom_site_label
_atom_site_fract_x
_atom_site_fract_y
_atom_site_fract_z
Si Si1 0.149271 0.685300 0.590563
Si Si2 0.198586 0.185046 0.402052
Si Si3 0.684261 0.686016 0.073444
Si Si4 0.031911 0.187973 0.072549
Si Si5 0.365575 0.184461 0.738750
Si Si6 0.514300 0.686179 0.732260
O O1 0.146275 0.500000 0.584239
O O2 0.157037 0.758295 0.497808
O O3 0.220491 0.725561 0.611665
O O4 0.081801 0.746803 0.662705
O O5 0.169304 0.262435 0.331972
O O6 0.193192 0.000000 0.397194
O O7 0.686718 0.500000 0.076389
O O8 0.612295 0.731855 0.055627
O O9 0.677674 0.752061 0.167308
O O10 0.750000 0.750000 0.000000
O O11 0.990821 0.234073 0.170273
O O12 0.030129 0.000000 0.071028
O O13 0.000000 0.245812 0.000000
O O14 0.443096 0.254446 0.718223
O O15 0.369429 0.000000 0.741354
O O16 0.515277 0.500000 0.728313
#
# Coordination Sequence:
#
# PCOD9195758 Si02
#       6
#     8   8   8   8   8   8
#     4  10  21  37  57  82 111 142 179 223 272 328
#     4  10  21  38  58  81 111 143 179 225 274 325
#     4  10  20  35  55  80 110 143 180 224 274 325
#     4   8  16  32  53  77 104 136 176 219 262 313
#     4  11  22  37  57  80 109 145 186 229 273 322
#     4  10  20  35  56  81 111 145 181 224 274 326
#
# _framework density 17.66628
#
# number of rings (size 3 to 8) (size 9 to 14) (size 15 to 20)
#    0.000    2.167    0.000    4.500    0.000    4.000 
#    0.000    5.000    0.000   17.000    0.000    0.000 
#    0.000    0.000    0.000    0.000    0.000    0.000 
#
# Total GULP energy -133989.590055 kJ/mol
# GULP energy per Si atom -5582.899586 kJ/mol
# Density = 1.762607 g / cm^3
# Si number density = 17.666280 Si / 1000 Ang^3
#
#
#
# Elastic Constant Matrix: (Units=GPa)
#
#
# Indices 1 2 3 4 5 6 
#
# 1 87.2407 25.5056 101.3171 0.0000 -6.7343 0.0000
# 2 25.5056 55.5466 33.0459 0.0000 -3.2037 0.0000
# 3 101.3171 33.0459 145.4375 0.0000 -7.3857 0.0000
# 4 0.0000 0.0000 0.0000 28.2069 0.0000 -5.3287
# 5 -6.7343 -3.2037 -7.3857 0.0000 44.0707 0.0000
# 6 0.0000 0.0000 0.0000 -5.3287 0.0000 27.2282
#
#
#
# Elastic Compliance Matrix: (Units=1/GPa)
#
#
# Indices 1 2 3 4 5 6 
#
# 1 0.060684 -0.003072 -0.041470 0.000000 0.002100 0.000000
# 2 -0.003072 0.020995 -0.002599 0.000000 0.000621 0.000000
# 3 -0.041470 -0.002599 0.036334 0.000000 -0.000437 0.000000
# 4 0.000000 0.000000 0.000000 0.036813 0.000000 0.007205
# 5 0.002100 0.000621 -0.000437 0.000000 0.022984 0.000000
# 6 0.000000 0.000000 0.000000 0.007205 0.000000 0.038137
#
#
# Mechanical properties :
#
#
# Convention : Reuss Voigt Hill
#
# Bulk Modulus (GPa) = 42.13855 67.55133 54.84494
# Shear Modulus (GPa) = 15.71634 28.45824 22.08729
#
# Velocity S-wave (km/s) = 2.98589 4.01793 3.53973
# Velocity P-wave (km/s) = 5.98262 7.73599 6.91510
#
# Compressibility (1/GPa) = 0.02373124
#
# Stress axis : x y z
#
# Youngs Moduli (GPa) = 16.47871 47.62932 27.52255
#
# Poissons Ratio (x) = 0.14632 1.14137
# Poissons Ratio (y) = 0.05062 0.07153
# Poissons Ratio (z) = 0.68338 0.12378
#
# Static dielectric constant tensor:
#      x y z
#    x 1.582890 0.000000 0.008130 
#    y 0.000000 1.590940 0.000000 
#    z 0.008130 0.000000 1.576730 
# 
# From -- ./inp_files/229940.got.cif
#   From: 2010.05.17/outbox.cif.g08.bks.cpg/sg12_115_cif.got.tgz:229940.got - 2010.06.03 13:09:07.
