data_PCOD9195863
_publ_section_title
;
Structure prediction by ZEFSAII (Michael W. Deem and Ramdas Pophale) SiO2 
 PCOD9195863
Probable space group: C 2/M
;
_chemical_formula_sum "Si O2"
_cell_formula_units_Z 64
_cell_length_a 26.798875
_cell_length_b 13.992423
_cell_length_c 9.453916
_cell_angle_alpha 90.000000
_cell_angle_beta 93.634765
_cell_angle_gamma 90.000000
_cell_volume 3537.909677
_symmetry_space_group_name_H-M "C 2/M"
_symmetry_group_IT_number 12
_symmetry_cell_setting 'monoclinic'
loop_
_space_group_symop_operation_xyz
x,y,z
-x,y,-z
-x,-y,-z
x,-y,z
1/2+x,1/2+y,z
1/2-x,1/2+y,-z
1/2-x,1/2-y,-z
1/2+x,1/2-y,z
loop_
_atom_site_type_symbol
_atom_site_label
_atom_site_fract_x
_atom_site_fract_y
_atom_site_fract_z
Si Si1 0.220092 0.225407 0.851350
Si Si2 0.443090 0.745554 0.967012
Si Si3 0.264529 0.612205 0.713080
Si Si4 0.457748 0.107425 0.721202
Si Si5 0.370546 0.887714 0.481018
Si Si6 0.072854 0.612762 0.775334
Si Si7 0.232608 0.385454 0.401819
Si Si8 0.650272 0.614028 0.039121
O O1 0.219193 0.327274 0.771941
O O2 0.249214 0.162721 0.739137
O O3 0.250000 0.250000 0.000000
O O4 0.173895 0.166206 0.905500
O O5 0.443926 0.811837 0.829667
O O6 0.403346 0.661398 0.946983
O O7 0.500000 0.711395 0.000000
O O8 0.428481 0.818289 0.090648
O O9 0.254077 0.500000 0.723409
O O10 0.267271 0.634156 0.546181
O O11 0.313428 0.632094 0.817893
O O12 0.419980 0.116833 0.585571
O O13 0.516666 0.115303 0.699973
O O14 0.450800 0.000000 0.780966
O O15 0.387858 0.849846 0.332737
O O16 0.322415 0.851114 0.557449
O O17 0.359392 0.000000 0.455716
O O18 0.082222 0.500000 0.811390
O O19 0.231367 0.500000 0.379740
O O20 0.648525 0.500000 0.018501
#
# Coordination Sequence:
#
# PCOD9195863 Si02
#       8
#     8   8   8   8   8   8   8   8
#     4  10  21  36  58  82 110 148 182 224 269 329
#     4  10  21  35  55  81 107 141 187 239 286 332
#     4   9  20  38  57  81 112 146 184 225 273 330
#     4   9  17  31  51  77 112 148 180 218 272 337
#     4   9  18  29  49  80 112 147 180 217 266 326
#     4   9  17  32  52  78 113 147 180 220 273 338
#     4  10  20  35  55  83 116 146 184 227 270 327
#     4  10  22  40  58  77 106 146 191 234 283 335
#
# _framework density 18.089777000000002
#
# number of rings (size 3 to 8) (size 9 to 14) (size 15 to 20)
#    0.000    2.500    0.000    1.500    5.250    3.750 
#    0.000    0.625    0.000    0.000    0.000    0.000 
#    0.000    8.000    0.000    0.000    0.000    0.000 
#
# Total GULP energy -178282.455223 kJ/mol
# GULP energy per Si atom -5571.326726 kJ/mol
# Density = 1.804860 g / cm^3
# Si number density = 18.089777 Si / 1000 Ang^3
#
#
#
# Elastic Constant Matrix: (Units=GPa)
#
#
# Indices 1 2 3 4 5 6 
#
# 1 98.2384 51.4440 51.3721 0.0000 -8.2644 0.0000
# 2 51.4440 78.4874 36.8973 0.0000 -3.9021 0.0000
# 3 51.3721 36.8973 96.5284 0.0000 -19.2877 0.0000
# 4 0.0000 0.0000 0.0000 17.9167 0.0000 2.4860
# 5 -8.2644 -3.9021 -19.2877 0.0000 24.3800 0.0000
# 6 0.0000 0.0000 0.0000 2.4860 0.0000 22.1625
#
#
#
# Elastic Compliance Matrix: (Units=1/GPa)
#
#
# Indices 1 2 3 4 5 6 
#
# 1 0.018122 -0.008939 -0.006279 0.000000 -0.000255 0.000000
# 2 -0.008939 0.020084 -0.003424 0.000000 -0.002525 0.000000
# 3 -0.006279 -0.003424 0.017193 0.000000 0.010925 0.000000
# 4 0.000000 0.000000 0.000000 0.056696 0.000000 -0.006360
# 5 -0.000255 -0.002525 0.010925 0.000000 0.049170 0.000000
# 6 0.000000 0.000000 0.000000 -0.006360 0.000000 0.045835
#
#
# Mechanical properties :
#
#
# Convention : Reuss Voigt Hill
#
# Bulk Modulus (GPa) = 55.20061 61.40900 58.30481
# Shear Modulus (GPa) = 19.96621 21.79454 20.88037
#
# Velocity S-wave (km/s) = 3.32585 3.47479 3.40113
# Velocity P-wave (km/s) = 6.73271 7.07950 6.90828
#
# Compressibility (1/GPa) = 0.01811574
#
# Stress axis : x y z
#
# Youngs Moduli (GPa) = 55.18057 49.79043 58.16336
#
# Poissons Ratio (x) = 0.44509 0.36518
# Poissons Ratio (y) = 0.49327 0.19915
# Poissons Ratio (z) = 0.34646 0.17049
#
# Static dielectric constant tensor:
#      x y z
#    x 1.642540 0.000000 0.008980 
#    y 0.000000 1.623650 0.000000 
#    z 0.008980 0.000000 1.632680 
# 
# From -- ./inp_files/96858.got.cif
#   From: 2010.05.17/outbox.cif.g08.bks.cpg/sg12_49_cif.got.tgz:96858.got - 2010.06.03 13:09:07.
