data_PCOD9195950
_publ_section_title
;
Structure prediction by ZEFSAII (Michael W. Deem and Ramdas Pophale) SiO2 
 PCOD9195950
Probable space group: C 2/M
;
_chemical_formula_sum "Si O2"
_cell_formula_units_Z 56
_cell_length_a 18.413603
_cell_length_b 7.653787
_cell_length_c 19.231119
_cell_angle_alpha 90.000000
_cell_angle_beta 104.494847
_cell_angle_gamma 90.000000
_cell_volume 2624.045694
_symmetry_space_group_name_H-M "C 2/M"
_symmetry_group_IT_number 12
_symmetry_cell_setting 'monoclinic'
loop_
_space_group_symop_operation_xyz
x,y,z
-x,y,-z
-x,-y,-z
x,-y,z
1/2+x,1/2+y,z
1/2-x,1/2+y,-z
1/2-x,1/2-y,-z
1/2+x,1/2-y,z
loop_
_atom_site_type_symbol
_atom_site_label
_atom_site_fract_x
_atom_site_fract_y
_atom_site_fract_z
Si Si1 0.347695 0.285997 0.212631
Si Si2 0.417982 0.790024 0.501492
Si Si3 0.015868 0.211461 0.215584
Si Si4 0.863490 0.291943 0.637621
Si Si5 0.775661 0.708092 0.928211
Si Si6 0.944154 0.793859 0.928131
Si Si7 0.798435 0.210214 0.353522
O O1 0.347927 0.500000 0.212156
O O2 0.431452 0.230030 0.212540
O O3 0.286254 0.227561 0.141680
O O4 0.324888 0.226865 0.284256
O O5 0.500000 0.722252 0.500000
O O6 0.389840 0.721341 0.569252
O O7 0.358484 0.752050 0.427122
O O8 0.424315 0.000000 0.509363
O O9 0.073619 0.264463 0.289171
O O10 0.041778 0.276852 0.145959
O O11 0.015498 0.000000 0.214612
O O12 0.853539 0.500000 0.626419
O O13 0.783396 0.221602 0.644148
O O14 0.779298 0.500000 0.922023
O O15 0.858398 0.776085 0.930951
O O16 0.750000 0.750000 0.000000
O O17 0.961543 0.000000 0.927409
O O18 0.000000 0.719155 0.000000
O O19 0.793487 0.000000 0.346870
#
# Coordination Sequence:
#
# PCOD9195950 Si02
#       7
#     8   8   8   8   8   8   8
#     4   9  19  36  56  79 108 142 178 222 277 327
#     4  10  21  36  53  76 108 143 177 219 274 327
#     4  10  20  35  57  81 105 140 184 223 266 326
#     4  10  21  36  53  77 110 143 176 222 278 325
#     4  11  22  38  60  84 114 149 186 229 276 329
#     4  10  21  38  58  81 113 149 184 228 281 332
#     4  10  20  35  56  79 104 138 180 222 266 322
#
# _framework density 21.341090999999999
#
# number of rings (size 3 to 8) (size 9 to 14) (size 15 to 20)
#    0.000    2.000    0.000    3.429    0.000    5.714 
#    0.000    4.286    0.000    0.000    0.000    0.000 
#    0.000    0.000    0.000    0.000    0.000    0.000 
#
# Total GULP energy -156529.769503 kJ/mol
# GULP energy per Si atom -5590.348911 kJ/mol
# Density = 2.129252 g / cm^3
# Si number density = 21.341091 Si / 1000 Ang^3
#
#
#
# Elastic Constant Matrix: (Units=GPa)
#
#
# Indices 1 2 3 4 5 6 
#
# 1 208.4868 -15.8199 127.5600 0.0000 -6.9341 0.0000
# 2 -15.8199 32.6011 -15.2413 0.0000 -7.4684 0.0000
# 3 127.5600 -15.2413 230.8411 0.0000 -10.5973 0.0000
# 4 0.0000 0.0000 0.0000 27.3467 0.0000 11.8273
# 5 -6.9341 -7.4684 -10.5973 0.0000 48.5401 0.0000
# 6 0.0000 0.0000 0.0000 11.8273 0.0000 11.8525
#
#
#
# Elastic Compliance Matrix: (Units=1/GPa)
#
#
# Indices 1 2 3 4 5 6 
#
# 1 0.007349 0.001844 -0.003917 0.000000 0.000478 0.000000
# 2 0.001844 0.033569 0.001461 0.000000 0.005747 0.000000
# 3 -0.003917 0.001461 0.006644 0.000000 0.001116 0.000000
# 4 0.000000 0.000000 0.000000 0.064332 0.000000 -0.064195
# 5 0.000478 0.005747 0.001116 0.000000 0.021798 0.000000
# 6 0.000000 0.000000 0.000000 -0.064195 0.000000 0.148429
#
#
# Mechanical properties :
#
#
# Convention : Reuss Voigt Hill
#
# Bulk Modulus (GPa) = 21.58044 73.88071 47.73058
# Shear Modulus (GPa) = 16.73414 42.57653 29.65534
#
# Velocity S-wave (km/s) = 2.80327 4.47144 3.73176
# Velocity P-wave (km/s) = 4.54003 7.83279 6.40173
#
# Compressibility (1/GPa) = 0.04633826
#
# Stress axis : x y z
#
# Youngs Moduli (GPa) = 136.07181 29.78979 150.50485
#
# Poissons Ratio (x) = -0.05495 0.58957
# Poissons Ratio (y) = -0.25097 -0.21989
# Poissons Ratio (z) = 0.53303 -0.04352
#
# Static dielectric constant tensor:
#      x y z
#    x 1.722690 0.000000 -0.015430 
#    y 0.000000 1.809120 0.000000 
#    z -0.015430 0.000000 1.724870 
# 
# From -- ./inp_files/268863.got.cif
#   From: 2010.05.17/outbox.cif.g08.bks.cpg/sg12_135_cif.got.tgz:268863.got - 2010.06.03 13:09:07.
