data_PCOD9195202
_publ_section_title
;
Structure prediction by ZEFSAII (Michael W. Deem and Ramdas Pophale) SiO2 
 PCOD9195202
Probable space group: C 2/M
;
_chemical_formula_sum "Si O2"
_cell_formula_units_Z 48
_cell_length_a 7.524638
_cell_length_b 24.172762
_cell_length_c 10.582844
_cell_angle_alpha 90.000000
_cell_angle_beta 82.653111
_cell_angle_gamma 90.000000
_cell_volume 1909.123667
_symmetry_space_group_name_H-M "C 2/M"
_symmetry_group_IT_number 12
_symmetry_cell_setting 'monoclinic'
loop_
_space_group_symop_operation_xyz
x,y,z
-x,y,-z
-x,-y,-z
x,-y,z
1/2+x,1/2+y,z
1/2-x,1/2+y,-z
1/2-x,1/2-y,-z
1/2+x,1/2-y,z
loop_
_atom_site_type_symbol
_atom_site_label
_atom_site_fract_x
_atom_site_fract_y
_atom_site_fract_z
Si Si1 0.540434 0.825507 0.643684
Si Si2 0.811793 0.769790 0.238195
Si Si3 0.358770 0.681745 0.899056
Si Si4 0.067160 0.064206 0.628283
Si Si5 0.654719 0.560410 0.094554
Si Si6 0.460166 0.938914 0.651478
O O1 0.500000 0.828992 0.500000
O O2 0.365908 0.805300 0.735147
O O3 0.678741 0.776381 0.653356
O O4 0.582078 0.887934 0.684734
O O5 0.785875 0.728494 0.120446
O O6 0.988958 0.807884 0.224224
O O7 0.266362 0.622118 0.925715
O O8 0.500000 0.686689 0.000000
O O9 0.256230 0.083034 0.669344
O O10 0.000000 0.089042 0.500000
O O11 0.931545 0.062467 0.757297
O O12 0.110664 0.000000 0.592058
O O13 0.747967 0.500000 0.073221
O O14 0.500000 0.559373 0.000000
O O15 0.500000 0.945659 0.500000
O O16 0.478695 0.000000 0.709239
#
# Coordination Sequence:
#
# PCOD9195202 Si02
#       6
#     8   8   8   8   8   8
#     4  10  20  35  52  74 106 140 173 214 262 316
#     4  10  21  35  53  76 100 135 179 215 258 311
#     4  10  20  36  56  77 102 133 173 221 265 311
#     4   9  17  30  50  77 106 137 176 217 258 312
#     4   9  18  32  51  77 107 137 170 213 266 317
#     4   9  18  32  50  75 107 140 172 215 270 320
#
# _framework density 25.142423000000001
#
# number of rings (size 3 to 8) (size 9 to 14) (size 15 to 20)
#    0.000    2.500    0.000    2.000    0.000    2.667 
#    0.000    6.667    0.000    0.000    0.000    3.500 
#    0.000   45.333    0.000    0.000    0.000    0.000 
#
# Total GULP energy -133641.652627 kJ/mol
# GULP energy per Si atom -5568.402193 kJ/mol
# Density = 2.508520 g / cm^3
# Si number density = 25.142423 Si / 1000 Ang^3
#
#
#
# Elastic Constant Matrix: (Units=GPa)
#
#
# Indices 1 2 3 4 5 6 
#
# 1 45.7188 10.8507 1.0297 0.0000 8.2967 0.0000
# 2 10.8507 197.5722 17.1467 0.0000 7.1924 0.0000
# 3 1.0297 17.1467 70.9641 0.0000 31.1163 0.0000
# 4 0.0000 0.0000 0.0000 58.2780 0.0000 131.0653
# 5 8.2967 7.1924 31.1163 0.0000 30.0717 0.0000
# 6 0.0000 0.0000 0.0000 131.0653 0.0000 327.2762
#
#
#
# Elastic Compliance Matrix: (Units=1/GPa)
#
#
# Indices 1 2 3 4 5 6 
#
# 1 0.024178 -0.001345 0.005049 0.000000 -0.011573 0.000000
# 2 -0.001345 0.005245 -0.001575 0.000000 0.000746 0.000000
# 3 0.005049 -0.001575 0.027173 0.000000 -0.029133 0.000000
# 4 0.000000 0.000000 0.000000 0.172715 0.000000 -0.069168
# 5 -0.011573 0.000746 -0.029133 0.000000 0.066414 0.000000
# 6 0.000000 0.000000 0.000000 -0.069168 0.000000 0.030755
#
#
# Mechanical properties :
#
#
# Convention : Reuss Voigt Hill
#
# Bulk Modulus (GPa) = 16.43263 41.36771 28.90017
# Shear Modulus (GPa) = 14.59822 102.14038 58.36930
#
# Velocity S-wave (km/s) = 2.41222 6.38067 4.82347
# Velocity P-wave (km/s) = 3.78265 8.41267 6.52232
#
# Compressibility (1/GPa) = 0.06085452
#
# Stress axis : x y z
#
# Youngs Moduli (GPa) = 41.35907 190.66448 36.80079
#
# Poissons Ratio (x) = 0.25639 -0.18580
# Poissons Ratio (y) = 0.05562 0.05796
# Poissons Ratio (z) = -0.20881 0.30029
#
# Static dielectric constant tensor:
#      x y z
#    x 2.014180 0.000000 0.004200 
#    y 0.000000 2.067060 0.000000 
#    z 0.004200 0.000000 1.575000 
# 
# From -- ./inp_files/121827.got.cif
#   From: 2010.05.17/outbox.cif.g08.bks.cpg/sg12_61_cif.got.tgz:121827.got - 2010.06.03 13:09:07.
