data_PCOD9195486
_publ_section_title
;
Structure prediction by ZEFSAII (Michael W. Deem and Ramdas Pophale) SiO2 
 PCOD9195486
Probable space group: C 2/M
;
_chemical_formula_sum "Si O2"
_cell_formula_units_Z 48
_cell_length_a 13.400379
_cell_length_b 21.118168
_cell_length_c 16.060065
_cell_angle_alpha 90.000000
_cell_angle_beta 27.247303
_cell_angle_gamma 90.000000
_cell_volume 2080.783181
_symmetry_space_group_name_H-M "C 2/M"
_symmetry_group_IT_number 12
_symmetry_cell_setting 'monoclinic'
loop_
_space_group_symop_operation_xyz
x,y,z
-x,y,-z
-x,-y,-z
x,-y,z
1/2+x,1/2+y,z
1/2-x,1/2+y,-z
1/2-x,1/2-y,-z
1/2+x,1/2-y,z
loop_
_atom_site_type_symbol
_atom_site_label
_atom_site_fract_x
_atom_site_fract_y
_atom_site_fract_z
Si Si1 0.977518 0.202411 0.424177
Si Si2 0.622910 0.118841 0.133653
Si Si3 0.501966 0.750537 0.238803
Si Si4 0.593821 0.392271 0.733262
Si Si5 0.655974 0.429170 0.499781
Si Si6 0.755959 0.571185 0.785968
O O1 0.726455 0.210834 0.583590
O O2 0.101156 0.234859 0.256282
O O3 0.010652 0.126899 0.400980
O O4 0.000000 0.228506 0.500000
O O5 0.633395 0.192714 0.097022
O O6 0.394981 0.084946 0.283166
O O7 0.640114 0.116499 0.221900
O O8 0.843109 0.086525 0.936840
O O9 0.424434 0.684011 0.258527
O O10 0.669841 0.420834 0.589805
O O11 0.748311 0.410036 0.695250
O O12 0.586600 0.500000 0.531617
O O13 0.843626 0.500000 0.731873
O O14 0.500000 0.570122 0.000000
#
# Coordination Sequence:
#
# PCOD9195486 Si02
#       6
#     8   8   8   8   8   8
#     4   9  19  35  55  82 113 141 180 235 273 320
#     4  10  20  35  54  79 111 145 182 231 277 326
#     4   9  19  34  54  83 107 146 187 219 280 339
#     4  10  20  35  54  79 111 145 182 231 277 326
#     4  10  21  36  55  80 105 144 192 221 271 331
#     4   9  18  31  49  77 108 141 179 219 274 329
#
# _framework density 23.068238000000001
#
# number of rings (size 3 to 8) (size 9 to 14) (size 15 to 20)
#    0.000    2.500    0.000    2.500    2.333    3.000 
#    0.000    1.667    0.000    9.000    0.000    9.333 
#    0.000    0.000    0.000    0.000    0.000    0.000 
#
# Total GULP energy -133779.609803 kJ/mol
# GULP energy per Si atom -5574.150408 kJ/mol
# Density = 2.301573 g / cm^3
# Si number density = 23.068238 Si / 1000 Ang^3
#
#
#
# Elastic Constant Matrix: (Units=GPa)
#
#
# Indices 1 2 3 4 5 6 
#
# 1 71.7677 2.9916 1.9121 0.0608 23.9521 -0.0394
# 2 2.9916 116.9320 -0.6218 0.0957 0.2939 -0.0615
# 3 1.9121 -0.6218 72.1610 0.1526 -0.3013 -0.1011
# 4 0.0608 0.0957 0.1526 17.5326 -0.1298 -0.0108
# 5 23.9521 0.2939 -0.3013 -0.1298 21.5635 0.0693
# 6 -0.0394 -0.0615 -0.1011 -0.0108 0.0693 16.8198
#
#
#
# Elastic Compliance Matrix: (Units=1/GPa)
#
#
# Indices 1 2 3 4 5 6 
#
# 1 0.022209 -0.000510 -0.000695 -0.000251 -0.024673 0.000147
# 2 -0.000510 0.008564 0.000089 -0.000042 0.000450 0.000029
# 3 -0.000695 0.000089 0.013881 -0.000112 0.000964 0.000078
# 4 -0.000251 -0.000042 -0.000112 0.057043 0.000621 0.000033
# 5 -0.024673 0.000450 0.000964 0.000621 0.073793 -0.000354
# 6 0.000147 0.000029 0.000078 0.000033 -0.000354 0.059456
#
#
# Mechanical properties :
#
#
# Convention : Reuss Voigt Hill
#
# Bulk Modulus (GPa) = 23.57183 29.93606 26.75394
# Shear Modulus (GPa) = 19.89500 28.28843 24.09171
#
# Velocity S-wave (km/s) = 2.93992 3.50565 3.23517
# Velocity P-wave (km/s) = 4.66526 5.42139 5.05747
#
# Compressibility (1/GPa) = 0.04242353
#
# Stress axis : x y z
#
# Youngs Moduli (GPa) = 45.02771 116.76226 72.03857
#
# Poissons Ratio (x) = 0.05950 0.05008
# Poissons Ratio (y) = 0.02295 -0.00643
# Poissons Ratio (z) = 0.03130 -0.01043
#
# Static dielectric constant tensor:
#      x y z
#    x 1.861010 0.000020 0.036900 
#    y 0.000020 1.906080 0.000080 
#    z 0.036900 0.000080 2.009910 
# 
# From -- ./inp_files/272047.got.cif
#   From: 2010.05.17/outbox.cif.g08.bks.cpg/sg12_137_cif.got.tgz:272047.got - 2010.06.03 13:09:07.
