data_PCOD9195972
_publ_section_title
;
Structure prediction by ZEFSAII (Michael W. Deem and Ramdas Pophale) SiO2 
 PCOD9195972
Probable space group: C 2/M
;
_chemical_formula_sum "Si O2"
_cell_formula_units_Z 64
_cell_length_a 27.146805
_cell_length_b 10.743455
_cell_length_c 14.276359
_cell_angle_alpha 90.000000
_cell_angle_beta 119.621708
_cell_angle_gamma 90.000000
_cell_volume 3619.542592
_symmetry_space_group_name_H-M "C 2/M"
_symmetry_group_IT_number 12
_symmetry_cell_setting 'monoclinic'
loop_
_space_group_symop_operation_xyz
x,y,z
-x,y,-z
-x,-y,-z
x,-y,z
1/2+x,1/2+y,z
1/2-x,1/2+y,-z
1/2-x,1/2-y,-z
1/2+x,1/2-y,z
loop_
_atom_site_type_symbol
_atom_site_label
_atom_site_fract_x
_atom_site_fract_y
_atom_site_fract_z
Si Si1 0.906411 0.138877 0.040463
Si Si2 0.229951 0.149169 0.264529
Si Si3 0.220294 0.146238 0.035744
Si Si4 0.483316 0.362546 0.725543
Si Si5 0.431989 0.135471 0.930983
Si Si6 0.034499 0.357114 0.436795
Si Si7 0.161978 0.353164 0.517865
Si Si8 0.124784 0.243127 0.286440
O O1 0.961847 0.146609 0.156898
O O2 0.905566 0.000000 0.995186
O O3 0.847753 0.150110 0.041499
O O4 0.909604 0.248985 0.969235
O O5 0.230077 0.180050 0.154543
O O6 0.285555 0.195750 0.372144
O O7 0.174140 0.192712 0.266462
O O8 0.230796 0.000000 0.268468
O O9 0.237883 0.000000 0.037645
O O10 0.250000 0.250000 0.000000
O O11 0.484041 0.500000 0.681177
O O12 0.483352 0.247824 0.653819
O O13 0.425678 0.349942 0.731728
O O14 0.408452 0.151786 0.803952
O O15 0.414288 0.000000 0.951272
O O16 0.500000 0.141466 0.000000
O O17 0.026327 0.500000 0.394227
O O18 0.101953 0.340598 0.514649
O O19 0.000000 0.344204 0.500000
O O20 0.171168 0.500000 0.510141
O O21 0.153008 0.289690 0.409046
#
# Coordination Sequence:
#
# PCOD9195972 Si02
#       8
#     8   8   8   8   8   8   8   8
#     4  10  21  38  56  80 111 147 186 229 283 341
#     4  10  20  35  56  79 108 149 192 229 275 339
#     4  10  22  40  60  82 110 145 190 239 287 337
#     4  10  21  34  55  84 112 144 183 229 281 336
#     4  11  22  34  53  85 119 150 184 227 279 336
#     4   9  19  36  57  80 109 146 188 232 282 334
#     4   9  19  34  53  80 112 146 186 233 277 327
#     4  11  19  34  55  81 116 150 183 230 277 341
#
# _framework density 17.681792999999999
#
# number of rings (size 3 to 8) (size 9 to 14) (size 15 to 20)
#    0.000    2.000    2.500    1.125    0.000    3.500 
#    0.000    1.250    0.000    4.500    0.000    0.000 
#    0.000    0.000    0.000    0.000    0.000    0.000 
#
# Total GULP energy -178360.020822 kJ/mol
# GULP energy per Si atom -5573.750651 kJ/mol
# Density = 1.764155 g / cm^3
# Si number density = 17.681793 Si / 1000 Ang^3
#
#
#
# Elastic Constant Matrix: (Units=GPa)
#
#
# Indices 1 2 3 4 5 6 
#
# 1 103.4619 61.3601 74.2272 0.0000 -3.5034 0.0000
# 2 61.3601 120.3202 49.3589 0.0000 -8.7880 0.0000
# 3 74.2272 49.3589 106.2369 0.0000 11.8123 0.0000
# 4 0.0000 0.0000 0.0000 24.5214 0.0000 -3.8959
# 5 -3.5034 -8.7880 11.8123 0.0000 29.6697 0.0000
# 6 0.0000 0.0000 0.0000 -3.8959 0.0000 17.1123
#
#
#
# Elastic Compliance Matrix: (Units=1/GPa)
#
#
# Indices 1 2 3 4 5 6 
#
# 1 0.023891 -0.005550 -0.014904 0.000000 0.007111 0.000000
# 2 -0.005550 0.012376 -0.002309 0.000000 0.003930 0.000000
# 3 -0.014904 -0.002309 0.022152 0.000000 -0.011263 0.000000
# 4 0.000000 0.000000 0.000000 0.042311 0.000000 0.009633
# 5 0.007111 0.003930 -0.011263 0.000000 0.040192 0.000000
# 6 0.000000 0.000000 0.000000 0.009633 0.000000 0.060631
#
#
# Mechanical properties :
#
#
# Convention : Reuss Voigt Hill
#
# Bulk Modulus (GPa) = 77.57223 77.76792 77.67008
# Shear Modulus (GPa) = 19.89053 23.93219 21.91136
#
# Velocity S-wave (km/s) = 3.35762 3.68298 3.52405
# Velocity P-wave (km/s) = 7.68101 7.88436 7.78335
#
# Compressibility (1/GPa) = 0.01289121
#
# Stress axis : x y z
#
# Youngs Moduli (GPa) = 41.85744 80.80292 45.14333
#
# Poissons Ratio (x) = 0.44846 0.67283
# Poissons Ratio (y) = 0.23231 0.10424
# Poissons Ratio (z) = 0.62386 0.18658
#
# Static dielectric constant tensor:
#      x y z
#    x 1.600950 0.000000 0.015310 
#    y 0.000000 1.615950 0.000000 
#    z 0.015310 0.000000 1.605530 
# 
# From -- ./inp_files/175295.got.cif
#   From: 2010.05.17/outbox.cif.g08.bks.cpg/sg12_88_cif.got.tgz:175295.got - 2010.06.03 13:09:07.
