data_PCOD9195430
_publ_section_title
;
Structure prediction by ZEFSAII (Michael W. Deem and Ramdas Pophale) SiO2 
 PCOD9195430
Probable space group: C 2/M
;
_chemical_formula_sum "Si O2"
_cell_formula_units_Z 64
_cell_length_a 26.027168
_cell_length_b 7.615585
_cell_length_c 14.959059
_cell_angle_alpha 90.000000
_cell_angle_beta 67.244545
_cell_angle_gamma 90.000000
_cell_volume 2734.278167
_symmetry_space_group_name_H-M "C 2/M"
_symmetry_group_IT_number 12
_symmetry_cell_setting 'monoclinic'
loop_
_space_group_symop_operation_xyz
x,y,z
-x,y,-z
-x,-y,-z
x,-y,z
1/2+x,1/2+y,z
1/2-x,1/2+y,-z
1/2-x,1/2-y,-z
1/2+x,1/2-y,z
loop_
_atom_site_type_symbol
_atom_site_label
_atom_site_fract_x
_atom_site_fract_y
_atom_site_fract_z
Si Si1 0.602627 0.704558 0.096572
Si Si2 0.608352 0.207054 0.565755
Si Si3 0.987649 0.213432 0.110804
Si Si4 0.014021 0.797867 0.384893
Si Si5 0.134934 0.706390 0.736256
Si Si6 0.178554 0.285338 0.889081
Si Si7 0.797340 0.799051 0.856555
Si Si8 0.134599 0.704144 0.350099
O O1 0.598520 0.500000 0.126208
O O2 0.539973 0.774900 0.136224
O O3 0.652715 0.786620 0.120634
O O4 0.626232 0.717330 0.980197
O O5 0.541492 0.223933 0.622230
O O6 0.636788 0.283295 0.635203
O O7 0.625437 0.277804 0.456550
O O8 0.620074 0.000000 0.553741
O O9 0.928385 0.276820 0.185593
O O10 0.987203 0.000000 0.113157
O O11 0.000000 0.266805 0.000000
O O12 0.075113 0.716578 0.338588
O O13 0.000000 0.786567 0.500000
O O14 0.018818 0.000000 0.355192
O O15 0.147724 0.500000 0.719374
O O16 0.173254 0.775646 0.790381
O O17 0.177610 0.500000 0.890978
O O18 0.235564 0.222706 0.896976
O O19 0.819597 0.798241 0.740135
O O20 0.791689 0.000000 0.891391
O O21 0.149562 0.500000 0.345628
#
# Coordination Sequence:
#
# PCOD9195430 Si02
#       8
#     8   8   8   8   8   8   8   8
#     4  10  21  37  57  80 110 143 177 223 278 331
#     4   9  19  35  53  77 110 145 182 223 270 322
#     4  10  20  35  54  80 112 143 175 221 275 325
#     4   9  17  30  50  75 104 138 174 216 267 319
#     4  10  21  36  56  81 110 146 184 223 270 324
#     4  10  21  38  58  80 108 143 184 229 274 322
#     4  10  22  38  56  80 110 144 184 230 275 321
#     4  10  20  35  54  77 108 144 183 227 271 319
#
# _framework density 23.406544
#
# number of rings (size 3 to 8) (size 9 to 14) (size 15 to 20)
#    0.000    2.250    1.250    1.125    1.750    4.250 
#    0.000    0.625    0.000    0.000    0.000    0.000 
#    0.000    0.000    0.000    0.000    0.000    0.000 
#
# Total GULP energy -178714.117845 kJ/mol
# GULP energy per Si atom -5584.816183 kJ/mol
# Density = 2.335327 g / cm^3
# Si number density = 23.406544 Si / 1000 Ang^3
#
#
#
# Elastic Constant Matrix: (Units=GPa)
#
#
# Indices 1 2 3 4 5 6 
#
# 1 94.1279 1.7217 5.9981 0.0000 19.7837 0.0000
# 2 1.7217 46.2798 -14.6672 0.0000 -2.8625 0.0000
# 3 5.9981 -14.6672 62.3500 0.0000 8.5218 0.0000
# 4 0.0000 0.0000 0.0000 14.8853 0.0000 -7.0656
# 5 19.7837 -2.8625 8.5218 0.0000 36.1290 0.0000
# 6 0.0000 0.0000 0.0000 -7.0656 0.0000 -6.2836
#
#
#
# Elastic Compliance Matrix: (Units=1/GPa)
#
#
# Indices 1 2 3 4 5 6 
#
# 1 0.012054 -0.001013 -0.000501 0.000000 -0.006562 0.000000
# 2 -0.001013 0.023445 0.005459 0.000000 0.001125 0.000000
# 3 -0.000501 0.005459 0.017850 0.000000 -0.003503 0.000000
# 4 0.000000 0.000000 0.000000 0.043801 0.000000 -0.049253
# 5 -0.006562 0.001125 -0.003503 0.000000 0.032188 0.000000
# 6 0.000000 0.000000 0.000000 -0.049253 0.000000 -0.103762
#
#
# Mechanical properties :
#
#
# Convention : Reuss Voigt Hill
#
# Bulk Modulus (GPa) = 16.32972 20.98478 18.65725
# Shear Modulus (GPa) = 131.24159 22.92649 77.08404
#
# Velocity S-wave (km/s) = 7.49615 3.13308 5.74493
# Velocity P-wave (km/s) = 9.05067 4.69820 7.21068
#
# Compressibility (1/GPa) = 0.06123804
#
# Stress axis : x y z
#
# Youngs Moduli (GPa) = 82.96284 42.65299 56.02342
#
# Poissons Ratio (x) = 0.04321 0.02807
# Poissons Ratio (y) = 0.08405 -0.30583
# Poissons Ratio (z) = 0.04156 -0.23284
#
# Static dielectric constant tensor:
#      x y z
#    x 1.890000 0.000000 0.053710 
#    y 0.000000 1.859080 0.000000 
#    z 0.053710 0.000000 1.932310 
# 
# From -- ./inp_files/243901.got.cif
#   From: 2010.05.17/outbox.cif.g08.bks.cpg/sg12_122_cif.got.tgz:243901.got - 2010.06.03 13:09:07.
