data_PCOD9195724
_publ_section_title
;
Structure prediction by ZEFSAII (Michael W. Deem and Ramdas Pophale) SiO2 
 PCOD9195724
Probable space group: C 2/M
;
_chemical_formula_sum "Si O2"
_cell_formula_units_Z 58
_cell_length_a 21.731835
_cell_length_b 7.668656
_cell_length_c 18.613667
_cell_angle_alpha 90.000000
_cell_angle_beta 69.026711
_cell_angle_gamma 90.000000
_cell_volume 2896.523115
_symmetry_space_group_name_H-M "C 2/M"
_symmetry_group_IT_number 12
_symmetry_cell_setting 'monoclinic'
loop_
_space_group_symop_operation_xyz
x,y,z
-x,y,-z
-x,-y,-z
x,-y,z
1/2+x,1/2+y,z
1/2-x,1/2+y,-z
1/2-x,1/2-y,-z
1/2+x,1/2-y,z
loop_
_atom_site_type_symbol
_atom_site_label
_atom_site_fract_x
_atom_site_fract_y
_atom_site_fract_z
Si Si1 0.054827 0.710098 0.800646
Si Si2 0.548141 0.707314 0.042097
Si Si3 0.500000 0.000000 0.500000
Si Si4 0.899346 0.798644 0.530890
Si Si5 0.692727 0.209445 0.805478
Si Si6 0.251320 0.288576 0.632394
Si Si7 0.386901 0.212295 0.375017
Si Si8 0.695018 0.704476 0.965248
O O1 0.055786 0.500000 0.800493
O O2 0.117885 0.771701 0.821312
O O3 0.069829 0.763175 0.712460
O O4 0.988470 0.767519 0.866906
O O5 0.552455 0.500000 0.027477
O O6 0.500000 0.780721 0.000000
O O7 0.621880 0.782782 0.008307
O O8 0.447030 0.155297 0.544202
O O9 0.823403 0.742260 0.575370
O O10 0.909899 0.787836 0.440521
O O11 0.908275 0.000000 0.551111
O O12 0.736545 0.270350 0.720045
O O13 0.715462 0.256606 0.875055
O O14 0.691038 0.000000 0.802188
O O15 0.248891 0.500000 0.632978
O O16 0.188533 0.233714 0.610946
O O17 0.389376 0.000000 0.380312
O O18 0.686844 0.500000 0.974922
O O19 0.750000 0.750000 0.000000
#
# Coordination Sequence:
#
# PCOD9195724 Si02
#       8
#     8   8   2   8   8   8   8   8
#     4   9  18  31  56  89 118 150 187 234 296 356
#     4  10  20  35  55  79 113 149 193 247 295 348
#     4  12  26  44  60  82 124 168 212 256 280 354
#     4  11  22  40  64  90 118 166 212 243 300 361
#     4   9  17  34  57  85 117 150 184 237 296 351
#     4   8  17  34  61  92 122 150 191 244 307 367
#     4   9  17  35  59  91 129 152 184 254 313 350
#     4  11  23  38  55  79 111 153 195 243 297 354
#
# _framework density 20.024006
#
# number of rings (size 3 to 8) (size 9 to 14) (size 15 to 20)
#    0.000    2.345    2.069    2.690    0.000    1.931 
#    2.483    2.759    0.000    1.655    0.000    0.000 
#    0.000    0.000    0.000    0.000    0.000    0.000 
#
# Total GULP energy -161526.406914 kJ/mol
# GULP energy per Si atom -5569.876100 kJ/mol
# Density = 1.997843 g / cm^3
# Si number density = 20.024006 Si / 1000 Ang^3
#
#
#
# Elastic Constant Matrix: (Units=GPa)
#
#
# Indices 1 2 3 4 5 6 
#
# 1 53.5598 19.9622 34.6576 -0.0002 -5.8322 0.0000
# 2 19.9622 65.6003 2.8930 -0.0003 -5.4526 -0.0003
# 3 34.6576 2.8930 74.2429 -0.0001 -0.1846 0.0000
# 4 -0.0002 -0.0003 -0.0001 -1.4289 0.0000 9.3768
# 5 -5.8322 -5.4526 -0.1846 0.0000 24.7040 0.0000
# 6 0.0000 -0.0003 0.0000 9.3768 0.0000 19.5464
#
#
#
# Elastic Compliance Matrix: (Units=1/GPa)
#
#
# Indices 1 2 3 4 5 6 
#
# 1 0.031883 -0.008602 -0.014534 -0.000001 0.005520 0.000000
# 2 -0.008602 0.017876 0.003324 0.000000 0.001940 0.000000
# 3 -0.014534 0.003324 0.020118 0.000000 -0.002547 0.000000
# 4 -0.000001 0.000000 0.000000 -0.168717 -0.000001 0.080937
# 5 0.005520 0.001940 -0.002547 -0.000001 0.042191 0.000000
# 6 0.000000 0.000000 0.000000 0.080937 0.000000 0.012334
#
#
# Mechanical properties :
#
#
# Convention : Reuss Voigt Hill
#
# Bulk Modulus (GPa) = 33.05592 34.26986 33.66289
# Shear Modulus (GPa) = 926.75356 17.62364 472.18860
#
# Velocity S-wave (km/s) = 21.53662 2.96991 15.37281
# Velocity P-wave (km/s) = 25.19878 5.37699 18.21937
#
# Compressibility (1/GPa) = 0.03025177
#
# Stress axis : x y z
#
# Youngs Moduli (GPa) = 31.36480 55.94056 49.70586
#
# Poissons Ratio (x) = 0.48121 0.72245
# Poissons Ratio (y) = 0.26981 -0.16522
# Poissons Ratio (z) = 0.45587 -0.18594
#
# Static dielectric constant tensor:
#      x y z
#    x 1.701720 0.000000 -0.029370 
#    y 0.000000 1.739010 0.000000 
#    z -0.029370 0.000000 1.697410 
# 
# From -- ./inp_files/282155.got.cif
#   From: 2010.05.17/outbox.cif.g08.bks.cpg/sg12_142_cif.got.tgz:282155.got - 2010.06.03 13:09:07.
