data_PCOD9195306
_publ_section_title
;
Structure prediction by ZEFSAII (Michael W. Deem and Ramdas Pophale) SiO2 
 PCOD9195306
Probable space group: C 2/M
;
_chemical_formula_sum "Si O2"
_cell_formula_units_Z 56
_cell_length_a 28.392621
_cell_length_b 7.548036
_cell_length_c 19.533137
_cell_angle_alpha 90.000000
_cell_angle_beta 143.661960
_cell_angle_gamma 90.000000
_cell_volume 2480.476237
_symmetry_space_group_name_H-M "C 2/M"
_symmetry_group_IT_number 12
_symmetry_cell_setting 'monoclinic'
loop_
_space_group_symop_operation_xyz
x,y,z
-x,y,-z
-x,-y,-z
x,-y,z
1/2+x,1/2+y,z
1/2-x,1/2+y,-z
1/2-x,1/2-y,-z
1/2+x,1/2-y,z
loop_
_atom_site_type_symbol
_atom_site_label
_atom_site_fract_x
_atom_site_fract_y
_atom_site_fract_z
Si Si1 0.742586 0.706140 0.192864
Si Si2 0.510329 0.717359 0.791128
Si Si3 0.316941 0.712226 0.022610
Si Si4 0.978142 0.798565 0.901926
Si Si5 0.130226 0.216103 0.469506
Si Si6 0.698515 0.796010 0.294770
Si Si7 0.583667 0.285485 0.568027
O O1 0.720378 0.500000 0.172972
O O2 0.706508 0.779708 0.080467
O O3 0.715759 0.790740 0.233200
O O4 0.838038 0.721533 0.301099
O O5 0.506787 0.500000 0.787402
O O6 0.511050 0.779303 0.870455
O O7 0.430973 0.776624 0.659645
O O8 0.593619 0.770466 0.854374
O O9 0.319984 0.500000 0.020148
O O10 0.250000 0.750000 0.000000
O O11 0.883030 0.801149 0.785193
O O12 0.010045 0.000000 0.942089
O O13 0.000000 0.712618 0.000000
O O14 0.221847 0.275638 0.575676
O O15 0.095244 0.266725 0.502585
O O16 0.133170 0.000000 0.471583
O O17 0.687233 0.000000 0.301748
O O18 0.500000 0.224500 0.500000
O O19 0.584814 0.500000 0.572098
#
# Coordination Sequence:
#
# PCOD9195306 Si02
#       7
#     8   8   8   8   8   8   8
#     4  10  20  35  53  78 110 143 181 226 274 328
#     4   9  18  34  55  77 105 144 182 222 270 326
#     4  10  22  37  56  80 108 144 185 227 275 327
#     4  10  20  35  57  82 108 142 184 223 267 329
#     4   8  16  31  50  76 107 138 179 223 264 321
#     4  10  20  35  56  82 110 140 179 227 275 325
#     4   9  18  31  52  79 103 138 184 229 274 326
#
# _framework density 22.576312000000001
#
# number of rings (size 3 to 8) (size 9 to 14) (size 15 to 20)
#    0.000    2.571    0.000    2.571    2.000    4.571 
#    0.000    0.714    0.000    4.286    0.000    0.000 
#    0.000    0.000    0.000    0.000    0.000    0.000 
#
# Total GULP energy -156386.990673 kJ/mol
# GULP energy per Si atom -5585.249667 kJ/mol
# Density = 2.252493 g / cm^3
# Si number density = 22.576312 Si / 1000 Ang^3
#
#
#
# Elastic Constant Matrix: (Units=GPa)
#
#
# Indices 1 2 3 4 5 6 
#
# 1 87.0975 -4.9343 47.8570 0.0000 25.0781 0.0000
# 2 -4.9343 59.3717 0.6233 0.0000 -0.8890 0.0000
# 3 47.8570 0.6233 133.7077 0.0000 1.2681 0.0000
# 4 0.0000 0.0000 0.0000 9.1938 0.0000 7.6334
# 5 25.0781 -0.8890 1.2681 0.0000 33.1312 0.0000
# 6 0.0000 0.0000 0.0000 7.6334 0.0000 8.3034
#
#
#
# Elastic Compliance Matrix: (Units=1/GPa)
#
#
# Indices 1 2 3 4 5 6 
#
# 1 0.019486 0.001475 -0.006844 0.000000 -0.014448 0.000000
# 2 0.001475 0.016962 -0.000601 0.000000 -0.000638 0.000000
# 3 -0.006844 -0.000601 0.009886 0.000000 0.004786 0.000000
# 4 0.000000 0.000000 0.000000 0.459468 0.000000 -0.422391
# 5 -0.014448 -0.000638 0.004786 0.000000 0.040919 0.000000
# 6 0.000000 0.000000 0.000000 -0.422391 0.000000 0.508738
#
#
# Mechanical properties :
#
#
# Convention : Reuss Voigt Hill
#
# Bulk Modulus (GPa) = 29.07514 40.80766 34.94140
# Shear Modulus (GPa) = 4.63451 25.90108 15.26779
#
# Velocity S-wave (km/s) = 1.43432 3.39081 2.60335
# Velocity P-wave (km/s) = 3.95596 5.78315 4.95451
#
# Compressibility (1/GPa) = 0.03439364
#
# Stress axis : x y z
#
# Youngs Moduli (GPa) = 51.32018 58.95405 101.15221
#
# Poissons Ratio (x) = -0.08695 0.69230
# Poissons Ratio (y) = -0.07569 0.06079
# Poissons Ratio (z) = 0.35124 0.03543
#
# Static dielectric constant tensor:
#      x y z
#    x 1.802670 0.000000 0.001810 
#    y 0.000000 1.893670 0.000000 
#    z 0.001810 0.000000 1.838230 
# 
# From -- ./inp_files/287372.got.cif
#   From: 2010.05.17/outbox.cif.g08.bks.cpg/sg12_144_cif.got.tgz:287372.got - 2010.06.03 13:09:07.
