data_PCOD9195427
_publ_section_title
;
Structure prediction by ZEFSAII (Michael W. Deem and Ramdas Pophale) SiO2 
 PCOD9195427
Probable space group: C 2/M
;
_chemical_formula_sum "Si O2"
_cell_formula_units_Z 64
_cell_length_a 22.945012
_cell_length_b 8.806296
_cell_length_c 24.572163
_cell_angle_alpha 90.000000
_cell_angle_beta 45.872705
_cell_angle_gamma 90.000000
_cell_volume 3563.897445
_symmetry_space_group_name_H-M "C 2/M"
_symmetry_group_IT_number 12
_symmetry_cell_setting 'monoclinic'
loop_
_space_group_symop_operation_xyz
x,y,z
-x,y,-z
-x,-y,-z
x,-y,z
1/2+x,1/2+y,z
1/2-x,1/2+y,-z
1/2-x,1/2-y,-z
1/2+x,1/2-y,z
loop_
_atom_site_type_symbol
_atom_site_label
_atom_site_fract_x
_atom_site_fract_y
_atom_site_fract_z
Si Si1 0.837981 0.817839 0.458849
Si Si2 0.094189 0.817415 0.280208
Si Si3 0.000779 0.820975 0.156574
Si Si4 0.318690 0.319552 0.992687
Si Si5 0.724250 0.823234 0.865169
Si Si6 0.462931 0.179326 0.292512
Si Si7 0.441065 0.176425 0.089051
Si Si8 0.526428 0.315997 0.543564
O O1 0.750000 0.750000 0.500000
O O2 0.888423 0.768916 0.481439
O O3 0.897681 0.768047 0.371397
O O4 0.830771 0.000000 0.466120
O O5 0.189189 0.780523 0.216582
O O6 0.049454 0.731710 0.260430
O O7 0.045553 0.777504 0.366935
O O8 0.084959 0.000000 0.278976
O O9 0.960819 0.730002 0.231667
O O10 0.956830 0.785641 0.128795
O O11 0.000435 0.000000 0.169470
O O12 0.093262 0.768781 0.085827
O O13 0.317309 0.500000 0.989951
O O14 0.301033 0.270425 0.065651
O O15 0.250000 0.250000 0.000000
O O16 0.651166 0.812647 0.870394
O O17 0.730673 0.000000 0.878234
O O18 0.451509 0.000000 0.305997
O O19 0.458450 0.000000 0.092854
O O20 0.500000 0.212827 0.000000
O O21 0.500000 0.262714 0.500000
O O22 0.530922 0.500000 0.537672
#
# Coordination Sequence:
#
# PCOD9195427 Si02
#       8
#     8   8   8   8   8   8   8   8
#     4  10  20  37  61  89 122 155 191 234 284 342
#     4   9  18  34  56  81 111 145 181 228 283 334
#     4  11  23  38  55  77 108 144 183 229 282 337
#     4  11  23  35  52  77 104 138 179 226 279 333
#     4  10  20  35  54  77 107 143 183 228 278 332
#     4  11  22  37  59  84 111 146 188 233 282 334
#     4  10  20  36  56  77 106 145 187 230 277 334
#     4   8  15  31  56  84 113 148 189 230 274 331
#
# _framework density 17.957868999999999
#
# number of rings (size 3 to 8) (size 9 to 14) (size 15 to 20)
#    0.000    2.000    1.250    3.750    0.000    5.750 
#    2.250    0.000    0.000    9.375    0.000    0.000 
#    0.000    0.000    0.000    0.000    0.000    0.000 
#
# Total GULP energy -178483.189596 kJ/mol
# GULP energy per Si atom -5577.599675 kJ/mol
# Density = 1.791700 g / cm^3
# Si number density = 17.957869 Si / 1000 Ang^3
#
#
#
# Elastic Constant Matrix: (Units=GPa)
#
#
# Indices 1 2 3 4 5 6 
#
# 1 87.9170 23.5962 41.9000 -0.0001 -7.6195 0.0004
# 2 23.5962 29.1077 14.8811 -0.0002 -1.8697 0.0009
# 3 41.9000 14.8811 62.6659 -0.0001 -5.4402 0.0002
# 4 -0.0001 -0.0002 -0.0001 25.6828 0.0000 0.4488
# 5 -7.6195 -1.8697 -5.4402 0.0000 34.8430 -0.0001
# 6 0.0004 0.0009 0.0002 0.4488 -0.0001 22.2930
#
#
#
# Elastic Compliance Matrix: (Units=1/GPa)
#
#
# Indices 1 2 3 4 5 6 
#
# 1 0.019147 -0.010171 -0.010209 0.000000 0.002047 0.000000
# 2 -0.010171 0.044520 -0.003809 0.000000 -0.000430 -0.000002
# 3 -0.010209 -0.003809 0.023799 0.000000 0.001279 0.000000
# 4 0.000000 0.000000 0.000000 0.038950 0.000000 -0.000784
# 5 0.002047 -0.000430 0.001279 0.000000 0.029324 0.000000
# 6 0.000000 -0.000002 0.000000 -0.000784 0.000000 0.044873
#
#
# Mechanical properties :
#
#
# Convention : Reuss Voigt Hill
#
# Bulk Modulus (GPa) = 25.58303 37.82723 31.70513
# Shear Modulus (GPa) = 19.08242 23.18465 21.13353
#
# Velocity S-wave (km/s) = 3.26332 3.59703 3.43423
# Velocity P-wave (km/s) = 5.33630 6.19368 5.78091
#
# Compressibility (1/GPa) = 0.03908841
#
# Stress axis : x y z
#
# Youngs Moduli (GPa) = 52.22706 22.46194 42.01794
#
# Poissons Ratio (x) = 0.22845 0.42897
# Poissons Ratio (y) = 0.53119 0.16004
# Poissons Ratio (z) = 0.53320 0.08555
#
# Static dielectric constant tensor:
#      x y z
#    x 1.622900 0.000000 0.002000 
#    y 0.000000 1.613190 0.000000 
#    z 0.002000 0.000000 1.595730 
# 
# From -- ./inp_files/345936.got.cif
#   From: 2010.05.17/outbox.cif.g08.bks.cpg/sg12_173_cif.got.tgz:345936.got - 2010.06.03 13:09:07.
