data_PCOD9195581
_publ_section_title
;
Structure prediction by ZEFSAII (Michael W. Deem and Ramdas Pophale) SiO2 
 PCOD9195581
Probable space group: C 2/M
;
_chemical_formula_sum "Si O2"
_cell_formula_units_Z 40
_cell_length_a 9.458454
_cell_length_b 26.505782
_cell_length_c 7.926271
_cell_angle_alpha 90.000000
_cell_angle_beta 76.648735
_cell_angle_gamma 90.000000
_cell_volume 1933.438339
_symmetry_space_group_name_H-M "C 2/M"
_symmetry_group_IT_number 12
_symmetry_cell_setting 'monoclinic'
loop_
_space_group_symop_operation_xyz
x,y,z
-x,y,-z
-x,-y,-z
x,-y,z
1/2+x,1/2+y,z
1/2-x,1/2+y,-z
1/2-x,1/2-y,-z
1/2+x,1/2-y,z
loop_
_atom_site_type_symbol
_atom_site_label
_atom_site_fract_x
_atom_site_fract_y
_atom_site_fract_z
Si Si1 0.569826 0.831258 0.293559
Si Si2 0.147189 0.138127 0.626235
Si Si3 0.568340 0.718259 0.166878
Si Si4 0.715925 0.862396 0.785337
Si Si5 0.065749 0.058365 0.169950
O O1 0.500000 0.829650 0.500000
O O2 0.721538 0.859473 0.276320
O O3 0.213624 0.860913 0.422033
O O4 0.454560 0.857347 0.201032
O O5 0.047587 0.186944 0.689106
O O6 0.048294 0.089490 0.685297
O O7 0.591394 0.773879 0.230049
O O8 0.716576 0.685924 0.137089
O O9 0.500000 0.719199 0.000000
O O10 0.782471 0.911730 0.854595
O O11 0.079083 0.000000 0.213206
O O12 0.000000 0.061846 0.000000
#
# Coordination Sequence:
#
# PCOD9195581 Si02
#       5
#     8   8   8   8   8
#     4  10  21  35  51  76 108 139 172 211 254 298
#     4  10  20  35  55  77 103 136 174 214 253 299
#     4  11  21  32  50  77 108 143 178 208 246 301
#     4  10  20  35  55  77 103 136 174 214 253 299
#     4  10  21  38  58  78 101 130 167 212 260 311
#
# _framework density 20.68853
#
# number of rings (size 3 to 8) (size 9 to 14) (size 15 to 20)
#    0.000    1.800    0.000    7.200    0.000    9.600 
#    0.000    1.000    0.000    6.000    0.000    0.000 
#    0.000    0.000    0.000    0.000    0.000    0.000 
#
# Total GULP energy -111889.365606 kJ/mol
# GULP energy per Si atom -5594.468280 kJ/mol
# Density = 2.064144 g / cm^3
# Si number density = 20.688530 Si / 1000 Ang^3
#
#
#
# Elastic Constant Matrix: (Units=GPa)
#
#
# Indices 1 2 3 4 5 6 
#
# 1 171.8826 69.0547 0.8314 0.0000 38.8327 0.0000
# 2 69.0547 140.8241 15.7829 0.0000 15.5660 0.0000
# 3 0.8314 15.7829 68.6307 0.0000 13.7791 0.0000
# 4 0.0000 0.0000 0.0000 0.8390 0.0000 7.9517
# 5 38.8327 15.5660 13.7791 0.0000 30.4497 0.0000
# 6 0.0000 0.0000 0.0000 7.9517 0.0000 4.5692
#
#
#
# Elastic Compliance Matrix: (Units=1/GPa)
#
#
# Indices 1 2 3 4 5 6 
#
# 1 0.010237 -0.004009 0.003308 0.000000 -0.012503 0.000000
# 2 -0.004009 0.009166 -0.002359 0.000000 0.001494 0.000000
# 3 0.003308 -0.002359 0.017245 0.000000 -0.010816 0.000000
# 4 0.000000 0.000000 0.000000 -0.076929 0.000000 0.133877
# 5 -0.012503 0.001494 -0.010816 0.000000 0.052917 0.000000
# 6 0.000000 0.000000 0.000000 0.133877 0.000000 -0.014126
#
#
# Mechanical properties :
#
#
# Convention : Reuss Voigt Hill
#
# Bulk Modulus (GPa) = 32.75624 61.40836 47.08230
# Shear Modulus (GPa) = 337.70974 26.88283 182.29629
#
# Velocity S-wave (km/s) = 12.79022 3.60864 9.39712
# Velocity P-wave (km/s) = 15.29663 6.86366 11.85531
#
# Compressibility (1/GPa) = 0.03052853
#
# Stress axis : x y z
#
# Youngs Moduli (GPa) = 97.68234 109.09875 57.98831
#
# Poissons Ratio (x) = 0.43734 -0.19184
# Poissons Ratio (y) = 0.39157 0.13681
# Poissons Ratio (z) = -0.32315 0.25740
#
# Static dielectric constant tensor:
#      x y z
#    x 1.770570 0.000000 0.001310 
#    y 0.000000 1.672400 0.000000 
#    z 0.001310 0.000000 1.788200 
# 
# From -- ./inp_files/122784.got.cif
#   From: 2010.05.17/outbox.cif.g08.bks.cpg/sg12_62_cif.got.tgz:122784.got - 2010.06.03 13:09:07.
