data_PCOD9195011
_publ_section_title
;
Structure prediction by ZEFSAII (Michael W. Deem and Ramdas Pophale) SiO2 
 PCOD9195011
Probable space group: C 2/M
;
_chemical_formula_sum "Si O2"
_cell_formula_units_Z 56
_cell_length_a 13.941166
_cell_length_b 23.109871
_cell_length_c 9.669354
_cell_angle_alpha 90.000000
_cell_angle_beta 66.690521
_cell_angle_gamma 90.000000
_cell_volume 2860.993934
_symmetry_space_group_name_H-M "C 2/M"
_symmetry_group_IT_number 12
_symmetry_cell_setting 'monoclinic'
loop_
_space_group_symop_operation_xyz
x,y,z
-x,y,-z
-x,-y,-z
x,-y,z
1/2+x,1/2+y,z
1/2-x,1/2+y,-z
1/2-x,1/2-y,-z
1/2+x,1/2-y,z
loop_
_atom_site_type_symbol
_atom_site_label
_atom_site_fract_x
_atom_site_fract_y
_atom_site_fract_z
Si Si1 0.103315 0.933347 0.352620
Si Si2 0.119876 0.281093 0.977170
Si Si3 0.892081 0.068415 0.978396
Si Si4 0.691777 0.877761 0.737327
Si Si5 0.600684 0.000000 0.845547
Si Si6 0.878135 0.626831 0.525595
Si Si7 0.258222 0.829662 0.846641
Si Si8 0.110499 0.500000 0.509969
O O1 0.189229 0.891066 0.365084
O O2 0.000000 0.927408 0.500000
O O3 0.139754 0.000000 0.348240
O O4 0.089412 0.923041 0.196862
O O5 0.181973 0.324820 0.844025
O O6 0.169317 0.218218 0.925443
O O7 0.145492 0.307352 0.113206
O O8 0.000000 0.282369 0.000000
O O9 0.796770 0.109916 0.078155
O O10 0.868079 0.000000 0.013239
O O11 0.000000 0.081075 0.000000
O O12 0.629913 0.863115 0.633364
O O13 0.654775 0.937293 0.834366
O O14 0.587007 0.000000 0.687040
O O15 0.500000 0.000000 0.000000
O O16 0.804694 0.664513 0.666212
O O17 0.837917 0.560102 0.561201
O O18 0.000000 0.630204 0.500000
O O19 0.000000 0.500000 0.500000
#
# Coordination Sequence:
#
# PCOD9195011 Si02
#       8
#     8   8   8   8   4   8   8   4
#     4  10  21  39  60  89 129 166 205 259 315 375
#     4  11  24  44  66  89 125 167 214 267 318 370
#     4  10  22  41  64  98 126 160 214 266 320 382
#     4  11  21  39  61  92 125 161 214 258 315 382
#     4  10  20  34  59  91 120 163 209 260 312 368
#     4  10  22  39  60  92 130 167 206 255 320 378
#     4  11  24  42  67  92 126 168 211 264 316 382
#     4   8  18  36  52  87 128 158 201 247 312 375
#
# _framework density 19.573618
#
# number of rings (size 3 to 8) (size 9 to 14) (size 15 to 20)
#    0.000    1.714    2.143    1.714    3.000    2.857 
#    0.000    0.714    0.000    0.000    0.000    0.000 
#    0.000    0.000    0.000    0.000    0.000    0.000 
#
# Total GULP energy -156156.860402 kJ/mol
# GULP energy per Si atom -5577.030729 kJ/mol
# Density = 1.952907 g / cm^3
# Si number density = 19.573618 Si / 1000 Ang^3
#
#
#
# Elastic Constant Matrix: (Units=GPa)
#
#
# Indices 1 2 3 4 5 6 
#
# 1 77.4433 13.3028 6.4977 0.0000 -2.3046 0.0000
# 2 13.3028 64.6644 23.6863 0.0000 -2.0216 0.0000
# 3 6.4977 23.6863 60.8974 0.0000 -9.2476 0.0000
# 4 0.0000 0.0000 0.0000 23.5129 0.0000 1.9156
# 5 -2.3046 -2.0216 -9.2476 0.0000 27.0208 0.0000
# 6 0.0000 0.0000 0.0000 1.9156 0.0000 10.1728
#
#
#
# Elastic Compliance Matrix: (Units=1/GPa)
#
#
# Indices 1 2 3 4 5 6 
#
# 1 0.013413 -0.002631 -0.000279 0.000000 0.000852 0.000000
# 2 -0.002631 0.018581 -0.007141 0.000000 -0.001278 0.000000
# 3 -0.000279 -0.007141 0.020193 0.000000 0.006353 0.000000
# 4 0.000000 0.000000 0.000000 0.043192 0.000000 -0.008133
# 5 0.000852 -0.001278 0.006353 0.000000 0.039160 0.000000
# 6 0.000000 0.000000 0.000000 -0.008133 0.000000 0.099833
#
#
# Mechanical properties :
#
#
# Convention : Reuss Voigt Hill
#
# Bulk Modulus (GPa) = 31.16473 32.21984 31.69228
# Shear Modulus (GPa) = 18.85596 22.77588 20.81592
#
# Velocity S-wave (km/s) = 3.10713 3.41486 3.26462
# Velocity P-wave (km/s) = 5.36924 5.66083 5.51696
#
# Compressibility (1/GPa) = 0.03208756
#
# Stress axis : x y z
#
# Youngs Moduli (GPa) = 74.55298 53.81759 49.52243
#
# Poissons Ratio (x) = 0.14158 0.01380
# Poissons Ratio (y) = 0.19613 0.35362
# Poissons Ratio (z) = 0.02077 0.38429
#
# Static dielectric constant tensor:
#      x y z
#    x 1.718970 0.000000 0.026050 
#    y 0.000000 1.699010 0.000000 
#    z 0.026050 0.000000 1.616030 
# 
# From -- ./inp_files/65810.got.cif
#   From: 2010.05.17/outbox.cif.g08.bks.cpg/sg12_33_cif.got.tgz:65810.got - 2010.06.03 13:09:07.
