data_PCOD9195784
_publ_section_title
;
Structure prediction by ZEFSAII (Michael W. Deem and Ramdas Pophale) SiO2 
 PCOD9195784
Probable space group: C 2/M
;
_chemical_formula_sum "Si O2"
_cell_formula_units_Z 56
_cell_length_a 15.193656
_cell_length_b 7.674334
_cell_length_c 26.614132
_cell_angle_alpha 90.000000
_cell_angle_beta 64.993041
_cell_angle_gamma 90.000000
_cell_volume 2812.330799
_symmetry_space_group_name_H-M "C 2/M"
_symmetry_group_IT_number 12
_symmetry_cell_setting 'monoclinic'
loop_
_space_group_symop_operation_xyz
x,y,z
-x,y,-z
-x,-y,-z
x,-y,z
1/2+x,1/2+y,z
1/2-x,1/2+y,-z
1/2-x,1/2-y,-z
1/2+x,1/2-y,z
loop_
_atom_site_type_symbol
_atom_site_label
_atom_site_fract_x
_atom_site_fract_y
_atom_site_fract_z
Si Si1 0.390303 0.210694 0.767601
Si Si2 0.729445 0.209805 0.563146
Si Si3 0.532302 0.205906 0.140358
Si Si4 0.579844 0.500000 0.054293
Si Si5 0.520616 0.204857 0.645018
Si Si6 0.144159 0.000000 0.930024
Si Si7 0.927770 0.788752 0.562233
Si Si8 0.682958 0.802448 0.847677
O O1 0.435990 0.252712 0.810935
O O2 0.458882 0.276743 0.706311
O O3 0.280673 0.280725 0.792085
O O4 0.384047 0.000000 0.765951
O O5 0.750000 0.250000 0.500000
O O6 0.627115 0.280087 0.607774
O O7 0.820452 0.270871 0.573637
O O8 0.726499 0.000000 0.567147
O O9 0.586454 0.329621 0.087610
O O10 0.416492 0.233413 0.158995
O O11 0.551826 0.000000 0.127735
O O12 0.469354 0.500000 0.059179
O O13 0.647836 0.500000 0.989103
O O14 0.462350 0.222451 0.607356
O O15 0.534221 0.000000 0.652877
O O16 0.189247 0.831775 0.892247
O O17 0.000000 0.734058 0.500000
O O18 0.929741 0.000000 0.563255
O O19 0.676170 0.000000 0.867898
#
# Coordination Sequence:
#
# PCOD9195784 Si02
#       8
#     8   8   8   4   8   4   8   8
#     4  10  21  39  58  78 118 152 192 249 295 341
#     4  10  20  35  56  79 110 148 182 226 286 341
#     4   9  20  37  59  85 117 157 196 243 296 347
#     4   9  18  34  62  88 119 157 201 235 299 348
#     4  10  22  37  56  83 108 148 191 231 285 343
#     4   9  18  36  58  90 123 155 191 254 287 345
#     4  10  20  35  55  80 113 145 179 229 285 337
#     4  10  20  36  61  87 114 159 200 237 301 349
#
# _framework density 19.912307999999999
#
# number of rings (size 3 to 8) (size 9 to 14) (size 15 to 20)
#    0.000    2.286    2.143    0.000    1.000    3.143 
#    0.000    6.429    0.000    0.000    0.000    0.000 
#    0.000    0.000    0.000    0.000    0.000    0.000 
#
# Total GULP energy -156325.508165 kJ/mol
# GULP energy per Si atom -5583.053863 kJ/mol
# Density = 1.986699 g / cm^3
# Si number density = 19.912308 Si / 1000 Ang^3
#
#
#
# Elastic Constant Matrix: (Units=GPa)
#
#
# Indices 1 2 3 4 5 6 
#
# 1 68.0838 5.4018 8.4735 0.0000 -7.1746 0.0000
# 2 5.4018 47.0369 8.0621 0.0000 0.3822 0.0000
# 3 8.4735 8.0621 78.8079 0.0000 -2.4130 0.0000
# 4 0.0000 0.0000 0.0000 15.2926 0.0000 7.4043
# 5 -7.1746 0.3822 -2.4130 0.0000 28.3676 0.0000
# 6 0.0000 0.0000 0.0000 7.4043 0.0000 10.9283
#
#
#
# Elastic Compliance Matrix: (Units=1/GPa)
#
#
# Indices 1 2 3 4 5 6 
#
# 1 0.015383 -0.001561 -0.001378 0.000000 0.003794 0.000000
# 2 -0.001561 0.021804 -0.002089 0.000000 -0.000866 0.000000
# 3 -0.001378 -0.002089 0.013075 0.000000 0.000792 0.000000
# 4 0.000000 0.000000 0.000000 0.097315 0.000000 -0.065934
# 5 0.003794 -0.000866 0.000792 0.000000 0.036290 0.000000
# 6 0.000000 0.000000 0.000000 -0.065934 0.000000 0.136178
#
#
# Mechanical properties :
#
#
# Convention : Reuss Voigt Hill
#
# Bulk Modulus (GPa) = 24.87231 26.42262 25.64747
# Shear Modulus (GPa) = 14.55585 22.38379 18.46982
#
# Velocity S-wave (km/s) = 2.70663 3.35642 3.04889
# Velocity P-wave (km/s) = 4.72079 5.32157 5.03015
#
# Compressibility (1/GPa) = 0.04020535
#
# Stress axis : x y z
#
# Youngs Moduli (GPa) = 65.00675 45.86247 76.48043
#
# Poissons Ratio (x) = 0.07160 0.10540
# Poissons Ratio (y) = 0.10149 0.15979
# Poissons Ratio (z) = 0.08959 0.09582
#
# Static dielectric constant tensor:
#      x y z
#    x 1.698610 0.000000 -0.029900 
#    y 0.000000 1.743590 0.000000 
#    z -0.029900 0.000000 1.671770 
# 
# From -- ./inp_files/359677.got.cif
#   From: 2010.05.17/outbox.cif.g08.bks.cpg/sg12_180_cif.got.tgz:359677.got - 2010.06.03 13:09:07.
