data_PCOD9195553
_publ_section_title
;
Structure prediction by ZEFSAII (Michael W. Deem and Ramdas Pophale) SiO2 
 PCOD9195553
Probable space group: C 2/M
;
_chemical_formula_sum "Si O2"
_cell_formula_units_Z 64
_cell_length_a 10.745642
_cell_length_b 21.112226
_cell_length_c 20.053214
_cell_angle_alpha 90.000000
_cell_angle_beta 127.378828
_cell_angle_gamma 90.000000
_cell_volume 3615.099547
_symmetry_space_group_name_H-M "C 2/M"
_symmetry_group_IT_number 12
_symmetry_cell_setting 'monoclinic'
loop_
_space_group_symop_operation_xyz
x,y,z
-x,y,-z
-x,-y,-z
x,-y,z
1/2+x,1/2+y,z
1/2-x,1/2+y,-z
1/2-x,1/2-y,-z
1/2+x,1/2-y,z
loop_
_atom_site_type_symbol
_atom_site_label
_atom_site_fract_x
_atom_site_fract_y
_atom_site_fract_z
Si Si1 0.842555 0.571328 0.674602
Si Si2 0.490333 0.728158 0.886290
Si Si3 0.775780 0.171866 0.577686
Si Si4 0.002109 0.928495 0.420108
Si Si5 0.419113 0.191121 0.610220
Si Si6 0.691931 0.929663 0.823376
Si Si7 0.740659 0.348835 0.276297
Si Si8 0.266831 0.306128 0.924838
O O1 0.837902 0.500000 0.641843
O O2 0.679567 0.577813 0.660247
O O3 0.854511 0.629705 0.627820
O O4 0.003292 0.573271 0.767950
O O5 0.409465 0.686967 0.802308
O O6 0.352363 0.738484 0.896732
O O7 0.591254 0.784295 0.885989
O O8 0.624909 0.694322 0.974456
O O9 0.624045 0.179786 0.481229
O O10 0.840477 0.243389 0.606595
O O11 0.761502 0.141584 0.645708
O O12 0.895007 0.127355 0.575950
O O13 0.000000 0.924255 0.500000
O O14 0.056541 0.000000 0.420533
O O15 0.603552 0.193439 0.684087
O O16 0.731130 0.910728 0.759675
O O17 0.764564 0.874966 0.891521
O O18 0.745759 0.000000 0.856538
#
# Coordination Sequence:
#
# PCOD9195553 Si02
#       8
#     8   8   8   8   8   8   8   8
#     4   9  18  35  56  77 102 139 188 228 262 317
#     4   9  19  34  57  85 115 138 186 220 280 332
#     4  11  23  33  52  78 109 147 179 230 277 334
#     4  10  20  35  55  75 100 139 187 230 269 318
#     4  10  22  35  50  74 110 142 182 222 274 324
#     4   9  19  36  57  81 110 145 185 224 267 333
#     4  10  22  35  51  78 109 143 176 223 279 327
#     4   9  18  36  58  86 112 144 176 233 271 334
#
# _framework density 17.703523000000001
#
# number of rings (size 3 to 8) (size 9 to 14) (size 15 to 20)
#    0.000    2.375    1.250    0.375    7.000    0.500 
#    0.000    5.000    0.000    3.750    0.000    7.000 
#    0.000    0.000    0.000    0.000    0.000    0.000 
#
# Total GULP energy -178174.239770 kJ/mol
# GULP energy per Si atom -5567.944993 kJ/mol
# Density = 1.766323 g / cm^3
# Si number density = 17.703523 Si / 1000 Ang^3
#
#
#
# Elastic Constant Matrix: (Units=GPa)
#
#
# Indices 1 2 3 4 5 6 
#
# 1 46.7247 32.7307 17.7805 0.0000 5.7589 0.0000
# 2 32.7307 100.0560 16.0573 0.0000 -1.9190 0.0000
# 3 17.7805 16.0573 38.8644 0.0000 1.8750 0.0000
# 4 0.0000 0.0000 0.0000 20.6874 0.0000 1.4173
# 5 5.7589 -1.9190 1.8750 0.0000 25.6365 0.0000
# 6 0.0000 0.0000 0.0000 1.4173 0.0000 9.6207
#
#
#
# Elastic Compliance Matrix: (Units=1/GPa)
#
#
# Indices 1 2 3 4 5 6 
#
# 1 0.032844 -0.009134 -0.010902 0.000000 -0.007264 0.000000
# 2 -0.009134 0.013277 -0.001459 0.000000 0.003152 0.000000
# 3 -0.010902 -0.001459 0.031319 0.000000 0.000049 0.000000
# 4 0.000000 0.000000 0.000000 0.048831 0.000000 -0.007194
# 5 -0.007264 0.003152 0.000049 0.000000 0.040871 0.000000
# 6 0.000000 0.000000 0.000000 -0.007194 0.000000 0.105002
#
#
# Mechanical properties :
#
#
# Convention : Reuss Voigt Hill
#
# Bulk Modulus (GPa) = 29.02744 35.42026 32.22385
# Shear Modulus (GPa) = 15.30845 19.12737 17.21791
#
# Velocity S-wave (km/s) = 2.94379 3.29055 3.12199
# Velocity P-wave (km/s) = 5.29023 5.87264 5.58903
#
# Compressibility (1/GPa) = 0.03445016
#
# Stress axis : x y z
#
# Youngs Moduli (GPa) = 30.44676 75.31880 31.92996
#
# Poissons Ratio (x) = 0.68795 0.34810
# Poissons Ratio (y) = 0.27810 0.04658
# Poissons Ratio (z) = 0.33193 0.10988
#
# Static dielectric constant tensor:
#      x y z
#    x 1.638830 0.000000 0.011520 
#    y 0.000000 1.589840 0.000000 
#    z 0.011520 0.000000 1.625400 
# 
# From -- ./inp_files/306249.got.cif
#   From: 2010.05.17/outbox.cif.g08.bks.cpg/sg12_154_cif.got.tgz:306249.got - 2010.06.03 13:09:07.
