data_PCOD9195268
_publ_section_title
;
Structure prediction by ZEFSAII (Michael W. Deem and Ramdas Pophale) SiO2 
 PCOD9195268
Probable space group: C 2/M
;
_chemical_formula_sum "Si O2"
_cell_formula_units_Z 64
_cell_length_a 11.618288
_cell_length_b 17.504831
_cell_length_c 16.315317
_cell_angle_alpha 90.000000
_cell_angle_beta 82.696667
_cell_angle_gamma 90.000000
_cell_volume 3291.226690
_symmetry_space_group_name_H-M "C 2/M"
_symmetry_group_IT_number 12
_symmetry_cell_setting 'monoclinic'
loop_
_space_group_symop_operation_xyz
x,y,z
-x,y,-z
-x,-y,-z
x,-y,z
1/2+x,1/2+y,z
1/2-x,1/2+y,-z
1/2-x,1/2-y,-z
1/2+x,1/2-y,z
loop_
_atom_site_type_symbol
_atom_site_label
_atom_site_fract_x
_atom_site_fract_y
_atom_site_fract_z
Si Si1 0.614329 0.864458 0.760085
Si Si2 0.621899 0.584020 0.479557
Si Si3 0.556206 0.087044 0.355635
Si Si4 0.628517 0.588176 0.285624
Si Si5 0.274488 0.815061 0.565970
Si Si6 0.953301 0.410692 0.919684
Si Si7 0.264697 0.911470 0.814968
Si Si8 0.404249 0.309869 0.265865
O O1 0.566203 0.897420 0.677994
O O2 0.751371 0.876375 0.756865
O O3 0.550906 0.905345 0.841009
O O4 0.575367 0.776333 0.764187
O O5 0.500000 0.628827 0.500000
O O6 0.601208 0.500000 0.516546
O O7 0.644837 0.583951 0.381958
O O8 0.727668 0.612814 0.521544
O O9 0.601387 0.156661 0.409364
O O10 0.647267 0.087914 0.271008
O O11 0.558042 0.000000 0.389841
O O12 0.610472 0.500000 0.258922
O O13 0.519277 0.643138 0.279188
O O14 0.250000 0.750000 0.500000
O O15 0.186150 0.802476 0.649712
O O16 0.928489 0.500000 0.937519
O O17 0.836892 0.380990 0.886262
O O18 0.000000 0.375998 0.000000
O O19 0.159781 0.858433 0.798198
O O20 0.230318 0.000000 0.830762
#
# Coordination Sequence:
#
# PCOD9195268 Si02
#       8
#     8   8   8   8   8   8   8   8
#     4  11  23  37  61  90 123 149 196 249 295 362
#     4  10  20  35  53  75 105 144 197 249 292 343
#     4   9  19  36  58  79 108 151 197 246 299 351
#     4  11  23  39  60  85 118 162 204 248 305 365
#     4  11  22  35  57  80 112 148 200 255 304 349
#     4   9  18  37  67  94 117 150 191 238 293 357
#     4   8  16  33  58  86 114 148 198 240 277 349
#     4  11  23  35  58  83 119 159 198 244 302 354
#
# _framework density 19.445637999999999
#
# number of rings (size 3 to 8) (size 9 to 14) (size 15 to 20)
#    0.000    2.000    1.250    3.375    7.000    1.000 
#    0.000    2.500    0.000    4.500    0.000    3.500 
#    0.000    0.000    0.000    0.000    0.000    0.000 
#
# Total GULP energy -178297.403315 kJ/mol
# GULP energy per Si atom -5571.793854 kJ/mol
# Density = 1.940138 g / cm^3
# Si number density = 19.445638 Si / 1000 Ang^3
#
#
#
# Elastic Constant Matrix: (Units=GPa)
#
#
# Indices 1 2 3 4 5 6 
#
# 1 50.5721 -8.4864 16.6525 0.0000 8.6204 0.0000
# 2 -8.4864 57.2111 0.7823 0.0000 7.6560 0.0000
# 3 16.6525 0.7823 62.7358 0.0000 26.9111 0.0000
# 4 0.0000 0.0000 0.0000 11.0940 0.0000 -7.2864
# 5 8.6204 7.6560 26.9111 0.0000 20.3926 0.0000
# 6 0.0000 0.0000 0.0000 -7.2864 0.0000 -0.0167
#
#
#
# Elastic Compliance Matrix: (Units=1/GPa)
#
#
# Indices 1 2 3 4 5 6 
#
# 1 0.022736 0.004408 -0.002898 0.000000 -0.007442 0.000000
# 2 0.004408 0.020407 0.006133 0.000000 -0.017618 0.000000
# 3 -0.002898 0.006133 0.039396 0.000000 -0.053066 0.000000
# 4 0.000000 0.000000 0.000000 0.000314 0.000000 -0.136763
# 5 -0.007442 -0.017618 -0.053066 0.000000 0.128827 0.000000
# 6 0.000000 0.000000 0.000000 -0.136763 0.000000 -0.208229
#
#
# Mechanical properties :
#
#
# Convention : Reuss Voigt Hill
#
# Bulk Modulus (GPa) = 10.22231 20.93510 15.57870
# Shear Modulus (GPa) = 240.70846 17.06534 128.88690
#
# Velocity S-wave (km/s) = 11.13796 2.96563 8.15012
# Velocity P-wave (km/s) = 13.06421 4.74510 9.82827
#
# Compressibility (1/GPa) = 0.09782528
#
# Stress axis : x y z
#
# Youngs Moduli (GPa) = 43.98275 49.00339 25.38341
#
# Poissons Ratio (x) = -0.21601 0.07355
# Poissons Ratio (y) = -0.19388 -0.15567
# Poissons Ratio (z) = 0.12745 -0.30053
#
# Static dielectric constant tensor:
#      x y z
#    x 1.614650 0.000000 0.031990 
#    y 0.000000 1.709910 0.000000 
#    z 0.031990 0.000000 1.678130 
# 
# From -- ./inp_files/206686.got.cif
#   From: 2010.05.17/outbox.cif.g08.bks.cpg/sg12_104_cif.got.tgz:206686.got - 2010.06.03 13:09:07.
