data_PCOD9195497
_publ_section_title
;
Structure prediction by ZEFSAII (Michael W. Deem and Ramdas Pophale) SiO2 
 PCOD9195497
Probable space group: C 2/M
;
_chemical_formula_sum "Si O2"
_cell_formula_units_Z 48
_cell_length_a 28.228669
_cell_length_b 7.484451
_cell_length_c 11.110542
_cell_angle_alpha 90.000000
_cell_angle_beta 65.039093
_cell_angle_gamma 90.000000
_cell_volume 2128.135914
_symmetry_space_group_name_H-M "C 2/M"
_symmetry_group_IT_number 12
_symmetry_cell_setting 'monoclinic'
loop_
_space_group_symop_operation_xyz
x,y,z
-x,y,-z
-x,-y,-z
x,-y,z
1/2+x,1/2+y,z
1/2-x,1/2+y,-z
1/2-x,1/2-y,-z
1/2+x,1/2-y,z
loop_
_atom_site_type_symbol
_atom_site_label
_atom_site_fract_x
_atom_site_fract_y
_atom_site_fract_z
Si Si1 0.746798 0.712608 0.865259
Si Si2 0.471255 0.796476 0.913599
Si Si3 0.146147 0.718262 0.362317
Si Si4 0.859388 0.793831 0.122227
Si Si5 0.313338 0.786897 0.425479
Si Si6 0.960341 0.281808 0.650279
O O1 0.745310 0.500000 0.839903
O O2 0.799543 0.781778 0.751444
O O3 0.692518 0.788763 0.878856
O O4 0.750000 0.750000 0.000000
O O5 0.473410 0.722296 0.773737
O O6 0.492086 0.000000 0.881358
O O7 0.500000 0.712324 0.000000
O O8 0.411194 0.799375 0.020301
O O9 0.144580 0.500000 0.361528
O O10 0.153695 0.770657 0.492823
O O11 0.096561 0.776489 0.337411
O O12 0.843852 0.789796 0.278652
O O13 0.865771 0.000000 0.077411
O O14 0.250000 0.750000 0.500000
O O15 0.316589 0.000000 0.414370
O O16 0.960196 0.500000 0.656010
O O17 0.000000 0.231549 0.500000
#
# Coordination Sequence:
#
# PCOD9195497 Si02
#       6
#     8   8   8   8   8   8
#     4  10  20  35  54  80 112 150 193 238 293 358
#     4  10  22  39  62  92 118 150 202 252 298 360
#     4   9  18  33  53  78 115 152 186 236 292 348
#     4  11  23  39  58  84 120 158 197 243 302 363
#     4  11  21  36  59  87 120 156 198 244 296 356
#     4   9  18  33  57  87 117 149 191 244 300 353
#
# _framework density 22.554950000000002
#
# number of rings (size 3 to 8) (size 9 to 14) (size 15 to 20)
#    0.000    2.000    1.667    2.000    2.333    3.000 
#    0.000    0.000    0.000    1.500    0.000    0.000 
#    0.000    0.000    0.000    0.000    0.000    0.000 
#
# Total GULP energy -133886.683303 kJ/mol
# GULP energy per Si atom -5578.611804 kJ/mol
# Density = 2.250361 g / cm^3
# Si number density = 22.554950 Si / 1000 Ang^3
#
#
#
# Elastic Constant Matrix: (Units=GPa)
#
#
# Indices 1 2 3 4 5 6 
#
# 1 167.7850 1.4733 86.3389 0.0000 24.7823 0.0000
# 2 1.4733 72.1799 -9.9454 0.0000 -1.2332 0.0000
# 3 86.3389 -9.9454 163.7069 0.0000 27.5766 0.0000
# 4 0.0000 0.0000 0.0000 12.2870 0.0000 -2.9186
# 5 24.7823 -1.2332 27.5766 0.0000 47.6964 0.0000
# 6 0.0000 0.0000 0.0000 -2.9186 0.0000 -21.4868
#
#
#
# Elastic Compliance Matrix: (Units=1/GPa)
#
#
# Indices 1 2 3 4 5 6 
#
# 1 0.008389 -0.000775 -0.004137 0.000000 -0.001987 0.000000
# 2 -0.000775 0.014044 0.001255 0.000000 0.000040 0.000000
# 3 -0.004137 0.001255 0.008862 0.000000 -0.002942 0.000000
# 4 0.000000 0.000000 0.000000 0.078843 0.000000 -0.010709
# 5 -0.001987 0.000040 -0.002942 0.000000 0.023700 0.000000
# 6 0.000000 0.000000 0.000000 -0.010709 0.000000 -0.045086
#
#
# Mechanical properties :
#
#
# Convention : Reuss Voigt Hill
#
# Bulk Modulus (GPa) = 41.69888 62.15616 51.92752
# Shear Modulus (GPa) = 48.04927 29.41964 38.73446
#
# Velocity S-wave (km/s) = 4.62055 3.61550 4.14857
# Velocity P-wave (km/s) = 6.85520 6.71168 6.78382
#
# Compressibility (1/GPa) = 0.02398146
#
# Stress axis : x y z
#
# Youngs Moduli (GPa) = 119.20395 71.20612 112.84128
#
# Poissons Ratio (x) = 0.05520 0.46679
# Poissons Ratio (y) = 0.09240 -0.14164
# Poissons Ratio (z) = 0.49311 -0.08938
#
# Static dielectric constant tensor:
#      x y z
#    x 1.830250 0.000000 0.052820 
#    y 0.000000 1.841110 0.000000 
#    z 0.052820 0.000000 1.927700 
# 
# From -- ./inp_files/172854.got.cif
#   From: 2010.05.17/outbox.cif.g08.bks.cpg/sg12_87_cif.got.tgz:172854.got - 2010.06.03 13:09:07.
