data_PCOD9195252
_publ_section_title
;
Structure prediction by ZEFSAII (Michael W. Deem and Ramdas Pophale) SiO2 
 PCOD9195252
Probable space group: C 2/M
;
_chemical_formula_sum "Si O2"
_cell_formula_units_Z 56
_cell_length_a 26.541967
_cell_length_b 14.382966
_cell_length_c 12.100685
_cell_angle_alpha 90.000000
_cell_angle_beta 32.918094
_cell_angle_gamma 90.000000
_cell_volume 2510.399132
_symmetry_space_group_name_H-M "C 2/M"
_symmetry_group_IT_number 12
_symmetry_cell_setting 'monoclinic'
loop_
_space_group_symop_operation_xyz
x,y,z
-x,y,-z
-x,-y,-z
x,-y,z
1/2+x,1/2+y,z
1/2-x,1/2+y,-z
1/2-x,1/2-y,-z
1/2+x,1/2-y,z
loop_
_atom_site_type_symbol
_atom_site_label
_atom_site_fract_x
_atom_site_fract_y
_atom_site_fract_z
Si Si1 0.918123 0.192677 0.500950
Si Si2 0.227359 0.143408 0.063033
Si Si3 0.455714 0.107304 0.458334
Si Si4 0.634463 0.894874 0.997716
Si Si5 0.398494 0.612925 0.143275
Si Si6 0.706899 0.386609 0.453255
Si Si7 0.602768 0.394758 0.105898
O O1 0.863510 0.134778 0.693437
O O2 0.878038 0.155265 0.460019
O O3 0.893273 0.300922 0.566166
O O4 0.026886 0.170963 0.303194
O O5 0.308332 0.105569 0.991965
O O6 0.197193 0.103128 0.001601
O O7 0.250000 0.250000 0.000000
O O8 0.500000 0.108593 0.500000
O O9 0.423543 0.000000 0.500366
O O10 0.532379 0.132628 0.223540
O O11 0.700270 0.852322 0.781603
O O12 0.622235 0.000000 0.982471
O O13 0.400914 0.500000 0.140447
O O14 0.315780 0.639576 0.379057
O O15 0.500000 0.644317 0.000000
O O16 0.383344 0.639524 0.044341
O O17 0.704142 0.500000 0.449905
O O18 0.564638 0.500000 0.172575
#
# Coordination Sequence:
#
# PCOD9195252 Si02
#       7
#     8   8   8   8   8   8   8
#     4  11  20  32  53  77 107 140 173 220 269 321
#     4  11  22  34  48  72 111 146 173 212 264 320
#     4  10  20  35  53  73  99 139 187 224 258 309
#     4   9  18  32  50  71 101 137 171 214 264 313
#     4   9  16  30  51  78 113 145 173 211 262 326
#     4   9  17  31  53  81 109 138 168 205 269 332
#     4  11  21  32  54  86 113 138 174 218 268 325
#
# _framework density 22.307210000000001
#
# number of rings (size 3 to 8) (size 9 to 14) (size 15 to 20)
#    0.000    2.000    1.429    3.857    0.000    2.286 
#    0.000    0.714    0.000    9.429    0.000    2.000 
#    0.000    0.000    0.000    2.571    0.000    0.000 
#
# Total GULP energy -156129.175128 kJ/mol
# GULP energy per Si atom -5576.041969 kJ/mol
# Density = 2.225644 g / cm^3
# Si number density = 22.307210 Si / 1000 Ang^3
#
#
#
# Elastic Constant Matrix: (Units=GPa)
#
#
# Indices 1 2 3 4 5 6 
#
# 1 44.6877 -7.9017 18.0627 0.0000 25.3454 0.0000
# 2 -7.9017 84.0375 -3.5437 0.0000 -4.8758 0.0000
# 3 18.0627 -3.5437 91.0877 0.0000 8.8217 0.0000
# 4 0.0000 0.0000 0.0000 20.0401 0.0000 0.8983
# 5 25.3454 -4.8758 8.8217 0.0000 21.1688 0.0000
# 6 0.0000 0.0000 0.0000 0.8983 0.0000 94.3282
#
#
#
# Elastic Compliance Matrix: (Units=1/GPa)
#
#
# Indices 1 2 3 4 5 6 
#
# 1 0.073244 0.001709 -0.006255 0.000000 -0.084695 0.000000
# 2 0.001709 0.012104 0.000063 0.000000 0.000716 0.000000
# 3 -0.006255 0.000063 0.011978 0.000000 0.002512 0.000000
# 4 0.000000 0.000000 0.000000 0.049921 0.000000 -0.000475
# 5 -0.084695 0.000716 0.002512 0.000000 0.147762 0.000000
# 6 0.000000 0.000000 0.000000 -0.000475 0.000000 0.010606
#
#
# Mechanical properties :
#
#
# Convention : Reuss Voigt Hill
#
# Bulk Modulus (GPa) = 11.31740 25.89416 18.60578
# Shear Modulus (GPa) = 14.53338 41.32043 27.92691
#
# Velocity S-wave (km/s) = 2.55524 4.30855 3.54209
# Velocity P-wave (km/s) = 3.71350 6.03196 5.00873
#
# Compressibility (1/GPa) = 0.08835949
#
# Stress axis : x y z
#
# Youngs Moduli (GPa) = 13.65298 82.61517 83.48651
#
# Poissons Ratio (x) = -0.14120 0.52223
# Poissons Ratio (y) = -0.02333 -0.00523
# Poissons Ratio (z) = 0.08540 -0.00518
#
# Static dielectric constant tensor:
#      x y z
#    x 1.809420 0.000000 -0.001960 
#    y 0.000000 1.683390 0.000000 
#    z -0.001960 0.000000 1.926630 
# 
# From -- ./inp_files/183486.got.cif
#   From: 2010.05.17/outbox.cif.g08.bks.cpg/sg12_92_cif.got.tgz:183486.got - 2010.06.03 13:09:07.
