data_PCOD9195844
_publ_section_title
;
Structure prediction by ZEFSAII (Michael W. Deem and Ramdas Pophale) SiO2 
 PCOD9195844
Probable space group: C 2/M
;
_chemical_formula_sum "Si O2"
_cell_formula_units_Z 56
_cell_length_a 26.723341
_cell_length_b 8.767993
_cell_length_c 13.427564
_cell_angle_alpha 90.000000
_cell_angle_beta 67.375743
_cell_angle_gamma 90.000000
_cell_volume 2904.104233
_symmetry_space_group_name_H-M "C 2/M"
_symmetry_group_IT_number 12
_symmetry_cell_setting 'monoclinic'
loop_
_space_group_symop_operation_xyz
x,y,z
-x,y,-z
-x,-y,-z
x,-y,z
1/2+x,1/2+y,z
1/2-x,1/2+y,-z
1/2-x,1/2-y,-z
1/2+x,1/2-y,z
loop_
_atom_site_type_symbol
_atom_site_label
_atom_site_fract_x
_atom_site_fract_y
_atom_site_fract_z
Si Si1 0.915247 0.681674 0.403638
Si Si2 0.902614 0.819189 0.626232
Si Si3 0.809629 0.318295 0.822352
Si Si4 0.019893 0.181179 0.244128
Si Si5 0.700308 0.816510 0.599887
Si Si6 0.698407 0.816962 0.832336
Si Si7 0.623072 0.316842 0.044840
O O1 0.915672 0.500000 0.417665
O O2 0.922405 0.763457 0.504302
O O3 0.857118 0.728258 0.403973
O O4 0.964020 0.729871 0.294183
O O5 0.848472 0.730629 0.700973
O O6 0.946960 0.791515 0.678385
O O7 0.891320 0.000000 0.633568
O O8 0.807599 0.500000 0.833461
O O9 0.750350 0.251243 0.849170
O O10 0.837801 0.245810 0.897761
O O11 0.061995 0.224162 0.124805
O O12 0.009458 0.000000 0.245767
O O13 0.750000 0.750000 0.500000
O O14 0.702058 0.770691 0.714166
O O15 0.703588 0.000000 0.594187
O O16 0.699470 0.000000 0.838206
O O17 0.644814 0.753503 0.926493
O O18 0.626812 0.500000 0.040541
#
# Coordination Sequence:
#
# PCOD9195844 Si02
#       7
#     8   8   8   8   8   8   8
#     4  11  22  36  56  83 112 144 187 232 277 329
#     4  10  20  35  55  82 116 150 185 226 275 331
#     4  11  21  34  55  85 117 147 183 227 278 332
#     4   9  20  37  56  80 112 147 182 223 275 332
#     4  10  24  42  59  82 111 144 183 228 274 325
#     4  11  22  38  58  80 110 149 189 228 277 329
#     4  10  21  38  58  83 114 146 184 228 274 328
#
# _framework density 19.283054
#
# number of rings (size 3 to 8) (size 9 to 14) (size 15 to 20)
#    0.000    1.714    0.000    5.571    0.000    9.714 
#    0.000    0.714    0.000    4.286    0.000    0.000 
#    0.000    0.000    0.000    0.000    0.000    0.000 
#
# Total GULP energy -156517.329523 kJ/mol
# GULP energy per Si atom -5589.904626 kJ/mol
# Density = 1.923917 g / cm^3
# Si number density = 19.283054 Si / 1000 Ang^3
#
#
#
# Elastic Constant Matrix: (Units=GPa)
#
#
# Indices 1 2 3 4 5 6 
#
# 1 77.2838 35.3241 45.4322 0.0000 -29.7633 0.0000
# 2 35.3241 57.6198 33.2811 0.0000 -12.0834 0.0000
# 3 45.4322 33.2811 134.6047 0.0000 -28.8488 0.0000
# 4 0.0000 0.0000 0.0000 31.9632 0.0000 -10.6329
# 5 -29.7633 -12.0834 -28.8488 0.0000 25.5935 0.0000
# 6 0.0000 0.0000 0.0000 -10.6329 0.0000 24.4729
#
#
#
# Elastic Compliance Matrix: (Units=1/GPa)
#
#
# Indices 1 2 3 4 5 6 
#
# 1 0.029585 -0.011670 -0.001196 0.000000 0.027547 0.000000
# 2 -0.011670 0.025381 -0.003530 0.000000 -0.005567 0.000000
# 3 -0.001196 -0.003530 0.010615 0.000000 0.008907 0.000000
# 4 0.000000 0.000000 0.000000 0.036572 0.000000 0.015890
# 5 0.027547 -0.005567 0.008907 0.000000 0.078520 0.000000
# 6 0.000000 0.000000 0.000000 0.015890 0.000000 0.047765
#
#
# Mechanical properties :
#
#
# Convention : Reuss Voigt Hill
#
# Bulk Modulus (GPa) = 30.49761 55.28700 42.89230
# Shear Modulus (GPa) = 18.37164 26.77064 22.57114
#
# Velocity S-wave (km/s) = 3.08999 3.73003 3.42499
# Velocity P-wave (km/s) = 5.34610 6.87636 6.15894
#
# Compressibility (1/GPa) = 0.03278946
#
# Stress axis : x y z
#
# Youngs Moduli (GPa) = 33.80042 39.40017 94.20943
#
# Poissons Ratio (x) = 0.45978 0.11271
# Poissons Ratio (y) = 0.39443 0.33253
# Poissons Ratio (z) = 0.04044 0.13907
#
# Static dielectric constant tensor:
#      x y z
#    x 1.657130 0.000000 -0.013190 
#    y 0.000000 1.643550 0.000000 
#    z -0.013190 0.000000 1.682820 
# 
# From -- ./inp_files/180638.got.cif
#   From: 2010.05.17/outbox.cif.g08.bks.cpg/sg12_91_cif.got.tgz:180638.got - 2010.06.03 13:09:07.
