data_PCOD9195172
_publ_section_title
;
Structure prediction by ZEFSAII (Michael W. Deem and Ramdas Pophale) SiO2 
 PCOD9195172
Probable space group: C 2/M
;
_chemical_formula_sum "Si O2"
_cell_formula_units_Z 56
_cell_length_a 9.972829
_cell_length_b 15.684827
_cell_length_c 22.875964
_cell_angle_alpha 90.000000
_cell_angle_beta 122.785061
_cell_angle_gamma 90.000000
_cell_volume 3008.310055
_symmetry_space_group_name_H-M "C 2/M"
_symmetry_group_IT_number 12
_symmetry_cell_setting 'monoclinic'
loop_
_space_group_symop_operation_xyz
x,y,z
-x,y,-z
-x,-y,-z
x,-y,z
1/2+x,1/2+y,z
1/2-x,1/2+y,-z
1/2-x,1/2-y,-z
1/2+x,1/2-y,z
loop_
_atom_site_type_symbol
_atom_site_label
_atom_site_fract_x
_atom_site_fract_y
_atom_site_fract_z
Si Si1 0.685113 0.205941 0.678084
Si Si2 0.107581 0.347416 0.321134
Si Si3 0.817032 0.596492 0.438646
Si Si4 0.609515 0.159422 0.838211
Si Si5 0.767203 0.500000 0.070329
Si Si6 0.417667 0.326479 0.833547
Si Si7 0.670641 0.600120 0.522657
Si Si8 0.533935 0.500000 0.911145
O O1 0.753558 0.297614 0.679099
O O2 0.517698 0.209770 0.671834
O O3 0.684309 0.153743 0.618493
O O4 0.811531 0.160815 0.750638
O O5 0.199397 0.396583 0.394552
O O6 0.995481 0.379181 0.241070
O O7 0.758241 0.500000 0.411876
O O8 0.729787 0.635624 0.474637
O O9 0.000000 0.588855 0.500000
O O10 0.636050 0.085221 0.891472
O O11 0.522742 0.242358 0.844954
O O12 0.782340 0.185481 0.851967
O O13 0.618703 0.500000 0.081071
O O14 0.690465 0.500000 0.988280
O O15 0.516201 0.411828 0.871365
O O16 0.500000 0.638659 0.500000
O O17 0.645954 0.500000 0.504968
#
# Coordination Sequence:
#
# PCOD9195172 Si02
#       8
#     8   8   8   8   4   8   8   4
#     4  10  21  34  53  76 102 137 180 218 272 318
#     4  10  21  35  53  75 102 139 176 223 267 323
#     4  10  20  35  51  73 100 133 177 227 265 314
#     4   9  19  36  57  83 115 147 187 229 274 326
#     4   9  18  34  59  91 113 147 190 221 267 335
#     4   9  19  36  56  83 116 149 184 229 275 327
#     4  10  22  37  51  72 103 137 177 221 274 321
#     4   9  18  34  59  89 117 146 186 224 271 329
#
# _framework density 18.615102
#
# number of rings (size 3 to 8) (size 9 to 14) (size 15 to 20)
#    0.000    2.429    1.429    0.000    4.000    1.714 
#    0.000    0.714    0.000    0.857    0.000    0.000 
#    0.000    0.000    0.000    0.000    0.000    0.000 
#
# Total GULP energy -155877.605061 kJ/mol
# GULP energy per Si atom -5567.057324 kJ/mol
# Density = 1.857273 g / cm^3
# Si number density = 18.615102 Si / 1000 Ang^3
#
#
#
# Elastic Constant Matrix: (Units=GPa)
#
#
# Indices 1 2 3 4 5 6 
#
# 1 76.4942 13.1848 5.9234 0.0000 6.8135 0.0000
# 2 13.1848 51.6181 27.1569 0.0000 6.0007 0.0000
# 3 5.9234 27.1569 57.6492 0.0000 5.9019 0.0000
# 4 0.0000 0.0000 0.0000 38.0391 0.0000 2.3243
# 5 6.8135 6.0007 5.9019 0.0000 18.4684 0.0000
# 6 0.0000 0.0000 0.0000 2.3243 0.0000 35.3401
#
#
#
# Elastic Compliance Matrix: (Units=1/GPa)
#
#
# Indices 1 2 3 4 5 6 
#
# 1 0.013990 -0.003393 0.000596 0.000000 -0.004249 0.000000
# 2 -0.003393 0.026970 -0.011979 0.000000 -0.003683 0.000000
# 3 0.000596 -0.011979 0.023315 0.000000 -0.003778 0.000000
# 4 0.000000 0.000000 0.000000 0.026395 0.000000 -0.001736
# 5 -0.004249 -0.003683 -0.003778 0.000000 0.058118 0.000000
# 6 0.000000 0.000000 0.000000 -0.001736 0.000000 0.028411
#
#
# Mechanical properties :
#
#
# Convention : Reuss Voigt Hill
#
# Bulk Modulus (GPa) = 28.79966 30.92130 29.86048
# Shear Modulus (GPa) = 22.90151 27.66928 25.28539
#
# Velocity S-wave (km/s) = 3.51132 3.85955 3.68955
# Velocity P-wave (km/s) = 5.65189 6.04222 5.85031
#
# Compressibility (1/GPa) = 0.03472264
#
# Stress axis : x y z
#
# Youngs Moduli (GPa) = 71.47926 37.07771 42.89091
#
# Poissons Ratio (x) = 0.12581 -0.02556
# Poissons Ratio (y) = 0.24253 0.51380
# Poissons Ratio (z) = -0.04260 0.44416
#
# Static dielectric constant tensor:
#      x y z
#    x 1.672350 0.000000 0.003160 
#    y 0.000000 1.665290 0.000000 
#    z 0.003160 0.000000 1.655990 
# 
# From -- ./inp_files/333048.got.cif
#   From: 2010.05.17/outbox.cif.g08.bks.cpg/sg12_167_cif.got.tgz:333048.got - 2010.06.03 13:09:07.
