data_PCOD9195117
_publ_section_title
;
Structure prediction by ZEFSAII (Michael W. Deem and Ramdas Pophale) SiO2 
 PCOD9195117
Probable space group: C 2/M
;
_chemical_formula_sum "Si O2"
_cell_formula_units_Z 64
_cell_length_a 17.279811
_cell_length_b 14.929368
_cell_length_c 16.150593
_cell_angle_alpha 90.000000
_cell_angle_beta 137.901458
_cell_angle_gamma 90.000000
_cell_volume 2793.237748
_symmetry_space_group_name_H-M "C 2/M"
_symmetry_group_IT_number 12
_symmetry_cell_setting 'monoclinic'
loop_
_space_group_symop_operation_xyz
x,y,z
-x,y,-z
-x,-y,-z
x,-y,z
1/2+x,1/2+y,z
1/2-x,1/2+y,-z
1/2-x,1/2-y,-z
1/2+x,1/2-y,z
loop_
_atom_site_type_symbol
_atom_site_label
_atom_site_fract_x
_atom_site_fract_y
_atom_site_fract_z
Si Si1 0.536107 0.901390 0.779973
Si Si2 0.063321 0.214654 0.721445
Si Si3 0.295689 0.597793 0.055669
Si Si4 0.001952 0.132903 0.097571
Si Si5 0.558961 0.162408 0.128237
Si Si6 0.816611 0.213204 0.349692
Si Si7 0.844187 0.105462 0.540495
Si Si8 0.757234 0.599736 0.370115
O O1 0.527717 0.815881 0.713731
O O2 0.456719 0.890436 0.798662
O O3 0.516442 0.000000 0.727188
O O4 0.667440 0.897451 0.918254
O O5 0.173573 0.180323 0.860500
O O6 0.089825 0.198395 0.646618
O O7 0.960865 0.149523 0.667681
O O8 0.307429 0.500000 0.107918
O O9 0.389956 0.600375 0.057311
O O10 0.999907 0.241236 0.098370
O O11 0.123663 0.102281 0.232876
O O12 0.000000 0.106578 0.000000
O O13 0.691285 0.185996 0.214897
O O14 0.500000 0.121202 0.000000
O O15 0.824108 0.156763 0.439476
O O16 0.817475 0.317983 0.373261
O O17 0.748535 0.117693 0.535717
O O18 0.857946 0.000000 0.538187
O O19 0.802650 0.500000 0.390681
#
# Coordination Sequence:
#
# PCOD9195117 Si02
#       8
#     8   8   8   8   8   8   8   8
#     4  11  25  40  61  92 131 178 215 252 313 396
#     4  12  23  42  65  91 131 166 211 269 322 378
#     4  11  22  37  62  95 129 172 216 262 323 376
#     4  10  20  34  62  96 132 168 210 267 318 369
#     4  10  21  41  63  92 129 172 216 260 320 381
#     4  11  25  40  66  97 125 166 211 267 323 379
#     4  11  24  46  72  95 120 158 217 276 324 373
#     4  10  21  40  64  93 129 166 208 263 320 377
#
# _framework density 22.912476999999999
#
# number of rings (size 3 to 8) (size 9 to 14) (size 15 to 20)
#    0.000    1.250    2.500    3.375    5.250    3.750 
#    0.000    1.875    0.000    1.500    0.000    0.000 
#    0.000    0.000    0.000    0.000    0.000    0.000 
#
# Total GULP energy -179073.259791 kJ/mol
# GULP energy per Si atom -5596.039368 kJ/mol
# Density = 2.286033 g / cm^3
# Si number density = 22.912477 Si / 1000 Ang^3
#
#
#
# Elastic Constant Matrix: (Units=GPa)
#
#
# Indices 1 2 3 4 5 6 
#
# 1 45.2377 15.0622 6.4777 0.0000 -5.2113 0.0000
# 2 15.0622 88.0713 7.5208 0.0000 -1.6772 0.0000
# 3 6.4777 7.5208 58.8739 0.0000 -16.6013 0.0000
# 4 0.0000 0.0000 0.0000 -52.2709 0.0000 24.6578
# 5 -5.2113 -1.6772 -16.6013 0.0000 31.1020 0.0000
# 6 0.0000 0.0000 0.0000 24.6578 0.0000 -0.1288
#
#
#
# Elastic Compliance Matrix: (Units=1/GPa)
#
#
# Indices 1 2 3 4 5 6 
#
# 1 0.023954 -0.003930 -0.001250 0.000000 0.003135 0.000000
# 2 -0.003930 0.012126 -0.001316 0.000000 -0.000707 0.000000
# 3 -0.001250 -0.001316 0.020262 0.000000 0.010535 0.000000
# 4 0.000000 0.000000 0.000000 0.000214 0.000000 0.041009
# 5 0.003135 -0.000707 0.010535 0.000000 0.038262 0.000000
# 6 0.000000 0.000000 0.000000 0.041009 0.000000 0.086934
#
#
# Mechanical properties :
#
#
# Convention : Reuss Voigt Hill
#
# Bulk Modulus (GPa) = 23.06819 27.81158 25.43988
# Shear Modulus (GPa) = 23.90133 6.61528 15.25831
#
# Velocity S-wave (km/s) = 3.23330 1.70102 2.58338
# Velocity P-wave (km/s) = 4.90192 4.00281 4.47500
#
# Compressibility (1/GPa) = 0.04334973
#
# Stress axis : x y z
#
# Youngs Moduli (GPa) = 41.74647 82.47073 49.35435
#
# Poissons Ratio (x) = 0.32414 0.06167
# Poissons Ratio (y) = 0.16408 0.06494
# Poissons Ratio (z) = 0.05217 0.10852
#
# Static dielectric constant tensor:
#      x y z
#    x 1.798110 0.000000 0.021310 
#    y 0.000000 1.837580 0.000000 
#    z 0.021310 0.000000 1.924660 
# 
# From -- ./inp_files/225761.got.cif
#   From: 2010.05.17/outbox.cif.g08.bks.cpg/sg12_113_cif.got.tgz:225761.got - 2010.06.03 13:09:07.
