data_PCOD9195503
_publ_section_title
;
Structure prediction by ZEFSAII (Michael W. Deem and Ramdas Pophale) SiO2 
 PCOD9195503
Probable space group: C 2/M
;
_chemical_formula_sum "Si O2"
_cell_formula_units_Z 56
_cell_length_a 25.066220
_cell_length_b 25.716081
_cell_length_c 11.755971
_cell_angle_alpha 90.000000
_cell_angle_beta 23.567269
_cell_angle_gamma 90.000000
_cell_volume 3029.860324
_symmetry_space_group_name_H-M "C 2/M"
_symmetry_group_IT_number 12
_symmetry_cell_setting 'monoclinic'
loop_
_space_group_symop_operation_xyz
x,y,z
-x,y,-z
-x,-y,-z
x,-y,z
1/2+x,1/2+y,z
1/2-x,1/2+y,-z
1/2-x,1/2-y,-z
1/2+x,1/2-y,z
loop_
_atom_site_type_symbol
_atom_site_label
_atom_site_fract_x
_atom_site_fract_y
_atom_site_fract_z
Si Si1 0.707396 0.805508 0.886027
Si Si2 0.039944 0.062432 0.792957
Si Si3 0.908636 0.713573 0.502664
Si Si4 0.887382 0.381642 0.378225
Si Si5 0.151653 0.624715 0.200933
Si Si6 0.812363 0.381584 0.264325
Si Si7 0.306994 0.561568 0.078675
O O1 0.827082 0.766171 0.670284
O O2 0.714049 0.826789 0.745068
O O3 0.566627 0.777296 0.185105
O O4 0.699791 0.855903 0.983737
O O5 0.189213 0.081299 0.478293
O O6 0.033250 0.000000 0.807455
O O7 0.000000 0.080030 0.000000
O O8 0.939252 0.079906 0.889134
O O9 0.876636 0.674616 0.460032
O O10 0.869922 0.677591 0.684930
O O11 0.828373 0.378209 0.368059
O O12 0.809937 0.423452 0.604569
O O13 0.042343 0.397324 0.066559
O O14 0.260635 0.590371 0.054101
O O15 0.000000 0.600967 0.500000
O O16 0.316447 0.500000 0.041476
#
# Coordination Sequence:
#
# PCOD9195503 Si02
#       7
#     8   8   8   8   8   8   8
#     4  10  20  35  55  80 109 144 181 226 275 322
#     4  10  20  36  56  81 112 142 178 224 276 331
#     4   9  19  35  54  79 109 143 186 228 271 321
#     4   9  19  35  55  80 112 147 183 228 271 320
#     4   9  19  37  57  79 110 146 186 231 271 316
#     4  10  20  35  54  80 115 146 180 225 275 326
#     4  10  20  36  59  84 109 143 186 227 272 327
#
# _framework density 18.482700000000001
#
# number of rings (size 3 to 8) (size 9 to 14) (size 15 to 20)
#    0.000    2.429    1.429    1.286    0.000    3.714 
#    0.000    4.286    0.000    1.714    0.000    0.000 
#    0.000    0.000    0.000    0.000    0.000    0.000 
#
# Total GULP energy -156006.310355 kJ/mol
# GULP energy per Si atom -5571.653941 kJ/mol
# Density = 1.844063 g / cm^3
# Si number density = 18.482700 Si / 1000 Ang^3
#
#
#
# Elastic Constant Matrix: (Units=GPa)
#
#
# Indices 1 2 3 4 5 6 
#
# 1 123.1726 45.3500 40.8324 -0.0012 -10.7882 -0.0005
# 2 45.3500 38.0266 24.7706 -0.0001 -5.4726 0.0000
# 3 40.8324 24.7706 62.3777 -0.0028 -20.8961 0.0018
# 4 -0.0012 -0.0001 -0.0028 25.0378 -0.0001 -10.1116
# 5 -10.7882 -5.4726 -20.8961 -0.0001 39.3429 0.0000
# 6 -0.0005 0.0000 0.0018 -10.1116 0.0000 12.4876
#
#
#
# Elastic Compliance Matrix: (Units=1/GPa)
#
#
# Indices 1 2 3 4 5 6 
#
# 1 0.015076 -0.015583 -0.003676 0.000001 0.000014 0.000002
# 2 -0.015583 0.051893 -0.011459 -0.000002 -0.003141 0.000000
# 3 -0.003676 -0.011459 0.026903 0.000002 0.011687 -0.000003
# 4 0.000001 -0.000002 0.000002 0.059346 0.000001 0.048055
# 5 0.000014 -0.003141 0.011687 0.000001 0.031192 -0.000001
# 6 0.000002 0.000000 -0.000003 0.048055 -0.000001 0.118990
#
#
# Mechanical properties :
#
#
# Convention : Reuss Voigt Hill
#
# Bulk Modulus (GPa) = 30.82866 49.49810 40.16338
# Shear Modulus (GPa) = 13.31032 22.88194 18.09613
#
# Velocity S-wave (km/s) = 2.68647 3.52237 3.13243
# Velocity P-wave (km/s) = 5.13213 6.58648 5.90426
#
# Compressibility (1/GPa) = 0.03243734
#
# Stress axis : x y z
#
# Youngs Moduli (GPa) = 66.33160 19.27025 37.17043
#
# Poissons Ratio (x) = 0.30028 0.13664
# Poissons Ratio (y) = 1.03362 0.42593
# Poissons Ratio (z) = 0.24383 0.22082
#
# Static dielectric constant tensor:
#      x y z
#    x 1.682600 0.000000 -0.013390 
#    y 0.000000 1.600290 0.000000 
#    z -0.013390 0.000000 1.647170 
# 
# From -- ./inp_files/178681.got.cif
#   From: 2010.05.17/outbox.cif.g08.bks.cpg/sg12_90_cif.got.tgz:178681.got - 2010.06.03 13:09:07.
