data_PCOD9195055
_publ_section_title
;
Structure prediction by ZEFSAII (Michael W. Deem and Ramdas Pophale) SiO2 
 PCOD9195055
Probable space group: C 2/M
;
_chemical_formula_sum "Si O2"
_cell_formula_units_Z 44
_cell_length_a 17.385999
_cell_length_b 14.320132
_cell_length_c 14.102611
_cell_angle_alpha 90.000000
_cell_angle_beta 42.643551
_cell_angle_gamma 90.000000
_cell_volume 2378.559466
_symmetry_space_group_name_H-M "C 2/M"
_symmetry_group_IT_number 12
_symmetry_cell_setting 'monoclinic'
loop_
_space_group_symop_operation_xyz
x,y,z
-x,y,-z
-x,-y,-z
x,-y,z
1/2+x,1/2+y,z
1/2-x,1/2+y,-z
1/2-x,1/2-y,-z
1/2+x,1/2-y,z
loop_
_atom_site_type_symbol
_atom_site_label
_atom_site_fract_x
_atom_site_fract_y
_atom_site_fract_z
Si Si1 0.000000 0.661945 0.000000
Si Si2 0.744653 0.000000 0.518481
Si Si3 0.328323 0.697080 0.502587
Si Si4 0.939640 0.500000 0.703546
Si Si5 0.243723 0.000000 0.720337
Si Si6 0.221244 0.787928 0.788083
Si Si7 0.538692 0.203902 0.356554
Si Si8 0.002772 0.500000 0.841291
O O1 0.109866 0.728095 0.910573
O O2 0.001719 0.591592 0.908390
O O3 0.809070 0.089563 0.500392
O O4 0.738642 0.000000 0.409257
O O5 0.620083 0.000000 0.677102
O O6 0.250000 0.750000 0.500000
O O7 0.279589 0.735034 0.646232
O O8 0.459902 0.725117 0.371495
O O9 0.851408 0.500000 0.695054
O O10 0.998824 0.599527 0.636824
O O11 0.907030 0.500000 0.845044
O O12 0.192434 0.103276 0.790045
O O13 0.324909 0.788466 0.770825
O O14 0.500000 0.215630 0.500000
#
# Coordination Sequence:
#
# PCOD9195055 Si02
#       8
#     4   4   8   4   4   8   8   4
#     4  11  24  43  60  82 118 171 210 239 278 370
#     4  12  21  35  61  98 122 145 200 252 308 368
#     4  11  20  34  60  92 123 153 192 250 312 356
#     4  10  20  34  60  90 119 152 194 253 304 349
#     4  10  22  36  62  97 119 148 193 259 318 350
#     4  10  21  40  59  86 123 161 201 243 301 356
#     4   9  20  34  57  91 123 150 191 249 313 355
#     4  11  24  37  62  86 114 163 215 244 287 355
#
# _framework density 18.498591000000001
#
# number of rings (size 3 to 8) (size 9 to 14) (size 15 to 20)
#    0.000    1.636    3.636    1.364    5.091    0.364 
#    0.000    9.545    0.000    2.182    0.000    0.000 
#    0.000    0.000    0.000    0.000    0.000    0.000 
#
# Total GULP energy -122490.906027 kJ/mol
# GULP energy per Si atom -5567.768456 kJ/mol
# Density = 1.845649 g / cm^3
# Si number density = 18.498591 Si / 1000 Ang^3
#
#
#
# Elastic Constant Matrix: (Units=GPa)
#
#
# Indices 1 2 3 4 5 6 
#
# 1 102.1305 66.0525 42.1467 0.0000 -10.2182 0.0000
# 2 66.0525 181.2235 38.5052 0.0000 -23.6986 0.0000
# 3 42.1467 38.5052 53.7686 0.0000 -26.3113 0.0000
# 4 0.0000 0.0000 0.0000 21.3545 0.0000 -8.1935
# 5 -10.2182 -23.6986 -26.3113 0.0000 28.2531 0.0000
# 6 0.0000 0.0000 0.0000 -8.1935 0.0000 30.5656
#
#
#
# Elastic Compliance Matrix: (Units=1/GPa)
#
#
# Indices 1 2 3 4 5 6 
#
# 1 0.019241 -0.004953 -0.018672 0.000000 -0.014584 0.000000
# 2 -0.004953 0.007849 0.001114 0.000000 0.005830 0.000000
# 3 -0.018672 0.001114 0.054363 0.000000 0.044808 0.000000
# 4 0.000000 0.000000 0.000000 0.052197 0.000000 0.013992
# 5 -0.014584 0.005830 0.044808 0.000000 0.076739 0.000000
# 6 0.000000 0.000000 0.000000 0.013992 0.000000 0.036467
#
#
# Mechanical properties :
#
#
# Convention : Reuss Voigt Hill
#
# Bulk Modulus (GPa) = 27.44840 70.05904 48.75372
# Shear Modulus (GPa) = 16.44630 28.72919 22.58774
#
# Velocity S-wave (km/s) = 2.98494 3.94515 3.49815
# Velocity P-wave (km/s) = 5.17205 7.66206 6.53671
#
# Compressibility (1/GPa) = 0.03643200
#
# Stress axis : x y z
#
# Youngs Moduli (GPa) = 51.97275 127.40674 18.39499
#
# Poissons Ratio (x) = 0.63102 0.34347
# Poissons Ratio (y) = 0.25741 -0.02050
# Poissons Ratio (z) = 0.97042 -0.14199
#
# Static dielectric constant tensor:
#      x y z
#    x 1.781670 0.000000 0.012050 
#    y 0.000000 1.567210 0.000000 
#    z 0.012050 0.000000 1.669210 
# 
# From -- ./inp_files/224620.got.cif
#   From: 2010.05.17/outbox.cif.g08.bks.cpg/sg12_113_cif.got.tgz:224620.got - 2010.06.03 13:09:07.
