data_PCOD9195397
_publ_section_title
;
Structure prediction by ZEFSAII (Michael W. Deem and Ramdas Pophale) SiO2 
 PCOD9195397
Probable space group: C 2/M
;
_chemical_formula_sum "Si O2"
_cell_formula_units_Z 56
_cell_length_a 22.586344
_cell_length_b 7.468414
_cell_length_c 15.221504
_cell_angle_alpha 90.000000
_cell_angle_beta 102.215836
_cell_angle_gamma 90.000000
_cell_volume 2509.489114
_symmetry_space_group_name_H-M "C 2/M"
_symmetry_group_IT_number 12
_symmetry_cell_setting 'monoclinic'
loop_
_space_group_symop_operation_xyz
x,y,z
-x,y,-z
-x,-y,-z
x,-y,z
1/2+x,1/2+y,z
1/2-x,1/2+y,-z
1/2-x,1/2-y,-z
1/2+x,1/2-y,z
loop_
_atom_site_type_symbol
_atom_site_label
_atom_site_fract_x
_atom_site_fract_y
_atom_site_fract_z
Si Si1 0.319408 0.214625 0.052476
Si Si2 0.932125 0.709020 0.971724
Si Si3 0.016704 0.797064 0.608915
Si Si4 0.113510 0.219518 0.392749
Si Si5 0.777656 0.713655 0.219576
Si Si6 0.853339 0.216790 0.788021
Si Si7 0.642533 0.714514 0.595589
O O1 0.319833 0.280292 0.153839
O O2 0.325348 0.000000 0.052649
O O3 0.250000 0.250000 0.000000
O O4 0.375900 0.285122 0.012431
O O5 0.937360 0.500000 0.998312
O O6 0.908886 0.721896 0.864551
O O7 0.000000 0.786559 0.000000
O O8 0.082903 0.712344 0.627475
O O9 0.000000 0.808113 0.500000
O O10 0.956497 0.717582 0.631855
O O11 0.022194 0.000000 0.645534
O O12 0.144491 0.274446 0.312519
O O13 0.142760 0.277773 0.494652
O O14 0.112434 0.000000 0.394239
O O15 0.775049 0.500000 0.209142
O O16 0.709307 0.781919 0.189249
O O17 0.801385 0.749385 0.324569
O O18 0.853743 0.000000 0.788930
O O19 0.634493 0.500000 0.588171
#
# Coordination Sequence:
#
# PCOD9195397 Si02
#       7
#     8   8   8   8   8   8   8
#     4  10  20  37  59  78 103 140 178 217 267 323
#     4  10  22  39  58  82 111 140 174 223 279 329
#     4   7  11  23  44  68  93 123 164 212 254 292
#     4   8  15  29  50  74 103 137 171 215 263 303
#     4  10  21  34  49  74 106 137 171 217 268 313
#     4  10  20  35  54  76 104 140 180 219 264 318
#     4   9  17  30  50  76 102 134 177 215 252 310
#
# _framework density 22.315300000000001
#
# number of rings (size 3 to 8) (size 9 to 14) (size 15 to 20)
#    0.000    2.857    1.429    1.714    0.000    3.143 
#    0.000    0.714    0.000    3.857    0.000    0.000 
#    0.000    0.000    0.000    0.000    0.000    0.000 
#
# Total GULP energy -156058.612889 kJ/mol
# GULP energy per Si atom -5573.521889 kJ/mol
# Density = 2.226451 g / cm^3
# Si number density = 22.315300 Si / 1000 Ang^3
#
#
#
# Elastic Constant Matrix: (Units=GPa)
#
#
# Indices 1 2 3 4 5 6 
#
# 1 131.6105 7.5910 70.1454 0.0000 -0.7279 0.0000
# 2 7.5910 66.3600 -4.9850 0.0000 -5.7876 0.0000
# 3 70.1454 -4.9850 121.5531 0.0000 -2.0837 0.0000
# 4 0.0000 0.0000 0.0000 17.6984 0.0000 26.2426
# 5 -0.7279 -5.7876 -2.0837 0.0000 42.9726 0.0000
# 6 0.0000 0.0000 0.0000 26.2426 0.0000 115.8597
#
#
#
# Elastic Compliance Matrix: (Units=1/GPa)
#
#
# Indices 1 2 3 4 5 6 
#
# 1 0.011182 -0.001802 -0.006533 0.000000 -0.000370 0.000000
# 2 -0.001802 0.015592 0.001716 0.000000 0.002153 0.000000
# 3 -0.006533 0.001716 0.012079 0.000000 0.000706 0.000000
# 4 0.000000 0.000000 0.000000 0.085074 0.000000 -0.019270
# 5 -0.000370 0.002153 0.000706 0.000000 0.023589 0.000000
# 6 0.000000 0.000000 0.000000 -0.019270 0.000000 0.012996
#
#
# Mechanical properties :
#
#
# Convention : Reuss Voigt Hill
#
# Bulk Modulus (GPa) = 39.03853 51.66960 45.35406
# Shear Modulus (GPa) = 27.42897 51.75764 39.59330
#
# Velocity S-wave (km/s) = 3.50973 4.82122 4.21677
# Velocity P-wave (km/s) = 5.82721 7.36185 6.63902
#
# Compressibility (1/GPa) = 0.02561572
#
# Stress axis : x y z
#
# Youngs Moduli (GPa) = 89.42855 64.13481 82.78494
#
# Poissons Ratio (x) = 0.11558 0.54085
# Poissons Ratio (y) = 0.16117 -0.14209
# Poissons Ratio (z) = 0.58425 -0.11008
#
# Static dielectric constant tensor:
#      x y z
#    x 1.877460 0.000000 -0.016380 
#    y 0.000000 1.865220 0.000000 
#    z -0.016380 0.000000 1.799650 
# 
# From -- ./inp_files/237842.got.cif
#   From: 2010.05.17/outbox.cif.g08.bks.cpg/sg12_119_cif.got.tgz:237842.got - 2010.06.03 13:09:07.
