data_PCOD9195201
_publ_section_title
;
Structure prediction by ZEFSAII (Michael W. Deem and Ramdas Pophale) SiO2 
 PCOD9195201
Probable space group: C 2/M
;
_chemical_formula_sum "Si O2"
_cell_formula_units_Z 56
_cell_length_a 17.490872
_cell_length_b 15.096154
_cell_length_c 18.496754
_cell_angle_alpha 90.000000
_cell_angle_beta 136.671180
_cell_angle_gamma 90.000000
_cell_volume 3351.306133
_symmetry_space_group_name_H-M "C 2/M"
_symmetry_group_IT_number 12
_symmetry_cell_setting 'monoclinic'
loop_
_space_group_symop_operation_xyz
x,y,z
-x,y,-z
-x,-y,-z
x,-y,z
1/2+x,1/2+y,z
1/2-x,1/2+y,-z
1/2-x,1/2-y,-z
1/2+x,1/2-y,z
loop_
_atom_site_type_symbol
_atom_site_label
_atom_site_fract_x
_atom_site_fract_y
_atom_site_fract_z
Si Si1 0.059498 0.398579 0.154579
Si Si2 0.311474 0.103387 0.237333
Si Si3 0.227004 0.896254 0.336936
Si Si4 0.325418 0.100646 0.921921
Si Si5 0.918104 0.263783 0.706851
Si Si6 0.183566 0.747559 0.879066
Si Si7 0.075444 0.601951 0.417283
O O1 0.064206 0.500000 0.184502
O O2 0.125486 0.394285 0.124856
O O3 0.105445 0.329815 0.243000
O O4 0.930380 0.379059 0.046447
O O5 0.244686 0.126957 0.264471
O O6 0.286867 0.163170 0.150675
O O7 0.444229 0.112627 0.343376
O O8 0.290301 0.000000 0.207294
O O9 0.146508 0.827337 0.322341
O O10 0.346362 0.891151 0.459144
O O11 0.191131 0.000000 0.316575
O O12 0.226349 0.167401 0.865267
O O13 0.291561 0.000000 0.913039
O O14 0.891661 0.321418 0.616991
O O15 0.051234 0.249191 0.798061
O O16 0.250000 0.750000 0.000000
O O17 0.088957 0.500000 0.398253
#
# Coordination Sequence:
#
# PCOD9195201 Si02
#       7
#     8   8   8   8   8   8   8
#     4   9  17  31  51  71  90 120 165 211 246 281
#     4   9  19  35  55  75  98 133 175 211 245 296
#     4  10  20  35  52  74 104 136 168 205 253 307
#     4   9  18  32  49  67  92 128 165 201 243 288
#     4  11  20  31  51  76 105 131 163 206 255 303
#     4  11  21  33  48  73 102 133 166 204 250 295
#     4   9  18  33  55  79 100 126 167 217 260 294
#
# _framework density 16.709903000000001
#
# number of rings (size 3 to 8) (size 9 to 14) (size 15 to 20)
#    0.000    2.286    1.429    3.000    0.000    3.429 
#    0.000    0.000    0.000    1.714    0.000    0.000 
#    0.000   20.571    0.000    0.000    0.000    0.000 
#
# Total GULP energy -156047.592238 kJ/mol
# GULP energy per Si atom -5573.128294 kJ/mol
# Density = 1.667187 g / cm^3
# Si number density = 16.709903 Si / 1000 Ang^3
#
#
#
# Elastic Constant Matrix: (Units=GPa)
#
#
# Indices 1 2 3 4 5 6 
#
# 1 62.8852 50.2506 20.1894 0.0000 -6.0939 0.0000
# 2 50.2506 82.0253 24.6480 0.0000 -6.2699 0.0000
# 3 20.1894 24.6480 55.1237 0.0000 -10.9382 0.0000
# 4 0.0000 0.0000 0.0000 26.1244 0.0000 1.7865
# 5 -6.0939 -6.2699 -10.9382 0.0000 14.8670 0.0000
# 6 0.0000 0.0000 0.0000 1.7865 0.0000 20.1636
#
#
#
# Elastic Compliance Matrix: (Units=1/GPa)
#
#
# Indices 1 2 3 4 5 6 
#
# 1 0.031820 -0.018411 -0.002780 0.000000 0.003233 0.000000
# 2 -0.018411 0.024766 -0.004398 0.000000 -0.000338 0.000000
# 3 -0.002780 -0.004398 0.024042 0.000000 0.014694 0.000000
# 4 0.000000 0.000000 0.000000 0.038512 0.000000 -0.003412
# 5 0.003233 -0.000338 0.014694 0.000000 0.079257 0.000000
# 6 0.000000 0.000000 0.000000 -0.003412 0.000000 0.049897
#
#
# Mechanical properties :
#
#
# Convention : Reuss Voigt Hill
#
# Bulk Modulus (GPa) = 33.95695 43.35667 38.65681
# Shear Modulus (GPa) = 16.16620 19.22740 17.69680
#
# Velocity S-wave (km/s) = 3.11378 3.39582 3.25785
# Velocity P-wave (km/s) = 5.77001 6.43261 6.11030
#
# Compressibility (1/GPa) = 0.02944905
#
# Stress axis : x y z
#
# Youngs Moduli (GPa) = 31.42694 40.37790 41.59471
#
# Poissons Ratio (x) = 0.74340 0.11565
# Poissons Ratio (y) = 0.57860 0.18292
# Poissons Ratio (z) = 0.08738 0.17757
#
# Static dielectric constant tensor:
#      x y z
#    x 1.582220 0.000000 -0.008690 
#    y 0.000000 1.565230 0.000000 
#    z -0.008690 0.000000 1.559040 
# 
# From -- ./inp_files/183528.got.cif
#   From: 2010.05.17/outbox.cif.g08.bks.cpg/sg12_92_cif.got.tgz:183528.got - 2010.06.03 13:09:07.
