data_PCOD9195666
_publ_section_title
;
Structure prediction by ZEFSAII (Michael W. Deem and Ramdas Pophale) SiO2 
 PCOD9195666
Probable space group: C 2/M
;
_chemical_formula_sum "Si O2"
_cell_formula_units_Z 48
_cell_length_a 31.859466
_cell_length_b 8.294983
_cell_length_c 9.630475
_cell_angle_alpha 90.000000
_cell_angle_beta 89.827814
_cell_angle_gamma 90.000000
_cell_volume 2545.070046
_symmetry_space_group_name_H-M "C 2/M"
_symmetry_group_IT_number 12
_symmetry_cell_setting 'monoclinic'
loop_
_space_group_symop_operation_xyz
x,y,z
-x,y,-z
-x,-y,-z
x,-y,z
1/2+x,1/2+y,z
1/2-x,1/2+y,-z
1/2-x,1/2-y,-z
1/2+x,1/2-y,z
loop_
_atom_site_type_symbol
_atom_site_label
_atom_site_fract_x
_atom_site_fract_y
_atom_site_fract_z
Si Si1 0.867507 0.694993 0.594565
Si Si2 0.461507 0.305194 0.907269
Si Si3 0.132876 0.193143 0.088910
Si Si4 0.710360 0.804764 0.590366
Si Si5 0.789141 0.692356 0.091288
Si Si6 0.538387 0.194627 0.406962
O O1 0.867078 0.500000 0.596761
O O2 0.859283 0.752376 0.752129
O O3 0.831781 0.749959 0.488657
O O4 0.914567 0.748303 0.552536
O O5 0.461626 0.500000 0.910547
O O6 0.414452 0.252446 0.949868
O O7 0.467880 0.248427 0.750500
O O8 0.500000 0.246135 0.000000
O O9 0.134068 0.000000 0.086173
O O10 0.168165 0.257732 0.985903
O O11 0.750000 0.750000 0.500000
O O12 0.712715 0.746804 0.749649
O O13 0.709906 0.000000 0.592868
O O14 0.787398 0.500000 0.096962
O O15 0.750000 0.750000 0.000000
O O16 0.500000 0.255457 0.500000
O O17 0.538219 0.000000 0.412889
#
# Coordination Sequence:
#
# PCOD9195666 Si02
#       6
#     8   8   8   8   8   8
#     4   9  18  35  55  75 103 137 171 213 264 310
#     4   9  19  35  53  75 106 142 178 216 259 309
#     4  10  20  35  55  79 106 138 177 218 260 308
#     4  10  22  37  54  76 102 133 169 209 253 304
#     4  11  23  38  56  80 108 138 173 213 259 311
#     4   9  18  32  52  78 105 134 171 215 262 312
#
# _framework density 18.859992999999999
#
# number of rings (size 3 to 8) (size 9 to 14) (size 15 to 20)
#    0.000    2.333    0.000    2.000    0.000    7.333 
#    0.000    1.667    0.000    0.000    0.000    0.000 
#    0.000    0.000    0.000    0.000    0.000    0.000 
#
# Total GULP energy -133937.677787 kJ/mol
# GULP energy per Si atom -5580.736574 kJ/mol
# Density = 1.881707 g / cm^3
# Si number density = 18.859993 Si / 1000 Ang^3
#
#
#
# Elastic Constant Matrix: (Units=GPa)
#
#
# Indices 1 2 3 4 5 6 
#
# 1 209.5256 23.2807 140.5693 0.0000 1.5803 0.0000
# 2 23.2807 12.4244 18.3759 0.0000 2.3198 0.0000
# 3 140.5693 18.3759 148.8327 0.0000 0.8961 0.0000
# 4 0.0000 0.0000 0.0000 20.9614 0.0000 -1.0739
# 5 1.5803 2.3198 0.8961 0.0000 42.3640 0.0000
# 6 0.0000 0.0000 0.0000 -1.0739 0.0000 23.1237
#
#
#
# Elastic Compliance Matrix: (Units=1/GPa)
#
#
# Indices 1 2 3 4 5 6 
#
# 1 0.013643 -0.007999 -0.011899 0.000000 0.000181 0.000000
# 2 -0.007999 0.104288 -0.005289 0.000000 -0.005300 0.000000
# 3 -0.011899 -0.005289 0.018608 0.000000 0.000340 0.000000
# 4 0.000000 0.000000 0.000000 0.047820 0.000000 0.002221
# 5 0.000181 -0.005300 0.000340 0.000000 0.023881 0.000000
# 6 0.000000 0.000000 0.000000 0.002221 0.000000 0.043349
#
#
# Mechanical properties :
#
#
# Convention : Reuss Voigt Hill
#
# Bulk Modulus (GPa) = 11.60571 81.69273 46.64922
# Shear Modulus (GPa) = 15.12008 29.86028 22.49018
#
# Velocity S-wave (km/s) = 2.83450 3.98334 3.45698
# Velocity P-wave (km/s) = 4.10847 8.03526 6.38141
#
# Compressibility (1/GPa) = 0.08616448
#
# Stress axis : x y z
#
# Youngs Moduli (GPa) = 73.29664 9.58886 53.73912
#
# Poissons Ratio (x) = 0.07670 0.63945
# Poissons Ratio (y) = 0.58632 0.28423
# Poissons Ratio (z) = 0.87217 0.05072
#
# Static dielectric constant tensor:
#      x y z
#    x 1.677180 0.000000 0.014940 
#    y 0.000000 1.661520 0.000000 
#    z 0.014940 0.000000 1.618480 
# 
# From -- ./inp_files/108725.got.cif
#   From: 2010.05.17/outbox.cif.g08.bks.cpg/sg12_55_cif.got.tgz:108725.got - 2010.06.03 13:09:07.
