data_PCOD9195953
_publ_section_title
;
Structure prediction by ZEFSAII (Michael W. Deem and Ramdas Pophale) SiO2 
 PCOD9195953
Probable space group: C 2/M
;
_chemical_formula_sum "Si O2"
_cell_formula_units_Z 64
_cell_length_a 24.509002
_cell_length_b 9.426316
_cell_length_c 18.777325
_cell_angle_alpha 90.000000
_cell_angle_beta 49.916896
_cell_angle_gamma 90.000000
_cell_volume 3319.143040
_symmetry_space_group_name_H-M "C 2/M"
_symmetry_group_IT_number 12
_symmetry_cell_setting 'monoclinic'
loop_
_space_group_symop_operation_xyz
x,y,z
-x,y,-z
-x,-y,-z
x,-y,z
1/2+x,1/2+y,z
1/2-x,1/2+y,-z
1/2-x,1/2-y,-z
1/2+x,1/2-y,z
loop_
_atom_site_type_symbol
_atom_site_label
_atom_site_fract_x
_atom_site_fract_y
_atom_site_fract_z
Si Si1 0.716276 0.666546 0.829812
Si Si2 0.806531 0.837305 0.864359
Si Si3 0.079660 0.667953 0.957916
Si Si4 0.101585 0.333221 0.107146
Si Si5 0.650941 0.834246 0.388956
Si Si6 0.817342 0.331132 0.473496
Si Si7 0.973010 0.331468 0.321842
Si Si8 0.560267 0.338078 0.358977
O O1 0.706911 0.500000 0.852641
O O2 0.746686 0.748781 0.873274
O O3 0.642246 0.739802 0.870585
O O4 0.777025 0.681002 0.718444
O O5 0.836788 0.760435 0.908791
O O6 0.873269 0.839011 0.752908
O O7 0.784527 0.000000 0.895603
O O8 0.090761 0.500000 0.934284
O O9 0.087431 0.690548 0.036179
O O10 0.000000 0.704611 0.000000
O O11 0.118094 0.500000 0.104353
O O12 0.028886 0.302898 0.211953
O O13 0.668704 0.798594 0.455153
O O14 0.590654 0.738868 0.403032
O O15 0.629452 0.000000 0.403387
O O16 0.805795 0.500000 0.477133
O O17 0.750000 0.250000 0.500000
O O18 0.891779 0.294321 0.372239
O O19 0.975117 0.500000 0.335176
O O20 0.999838 0.249185 0.368871
O O21 0.539603 0.500000 0.389434
#
# Coordination Sequence:
#
# PCOD9195953 Si02
#       8
#     8   8   8   8   8   8   8   8
#     4  10  20  35  56  79 105 139 175 212 257 310
#     4   9  17  31  53  81 109 135 168 211 260 313
#     4  10  22  38  54  75 104 137 176 221 263 305
#     4   9  18  34  55  78 105 137 172 211 259 314
#     4   9  19  36  55  77 108 142 172 208 259 313
#     4  10  22  38  55  77 105 139 180 220 257 303
#     4   9  18  34  55  77 104 139 173 208 258 317
#     4   9  17  30  52  82 109 134 169 213 259 308
#
# _framework density 19.282086
#
# number of rings (size 3 to 8) (size 9 to 14) (size 15 to 20)
#    0.000    2.625    0.000    1.125    0.000    7.250 
#    0.000    3.750    0.000    0.000    0.000    0.000 
#    0.000    0.000    0.000    0.000    0.000    0.000 
#
# Total GULP energy -178724.559927 kJ/mol
# GULP energy per Si atom -5585.142498 kJ/mol
# Density = 1.923820 g / cm^3
# Si number density = 19.282086 Si / 1000 Ang^3
#
#
#
# Elastic Constant Matrix: (Units=GPa)
#
#
# Indices 1 2 3 4 5 6 
#
# 1 77.3471 36.6493 18.6670 0.0001 -27.4618 0.0003
# 2 36.6493 56.9486 19.8734 0.0021 -13.7192 -0.0022
# 3 18.6670 19.8734 57.1626 0.0000 -10.4049 0.0000
# 4 0.0001 0.0021 0.0000 16.8023 -0.0004 -4.7059
# 5 -27.4618 -13.7192 -10.4049 -0.0004 31.7078 0.0004
# 6 0.0003 -0.0022 0.0000 -4.7059 0.0004 37.6776
#
#
#
# Elastic Compliance Matrix: (Units=1/GPa)
#
#
# Indices 1 2 3 4 5 6 
#
# 1 0.024131 -0.011391 -0.001077 0.000001 0.015618 -0.000001
# 2 -0.011391 0.026829 -0.005626 -0.000003 -0.000104 0.000001
# 3 -0.001077 -0.005626 0.020408 0.000001 0.003329 0.000000
# 4 0.000001 -0.000003 0.000001 0.061673 0.000001 0.007703
# 5 0.015618 -0.000104 0.003329 0.000001 0.046112 0.000000
# 6 -0.000001 0.000001 0.000000 0.007703 0.000000 0.027503
#
#
# Mechanical properties :
#
#
# Convention : Reuss Voigt Hill
#
# Bulk Modulus (GPa) = 28.42681 37.98197 33.20439
# Shear Modulus (GPa) = 19.64080 24.98878 22.31479
#
# Velocity S-wave (km/s) = 3.19502 3.60385 3.40557
# Velocity P-wave (km/s) = 5.32780 6.08751 5.72028
#
# Compressibility (1/GPa) = 0.03517807
#
# Stress axis : x y z
#
# Youngs Moduli (GPa) = 41.44004 37.27298 49.00069
#
# Poissons Ratio (x) = 0.42459 0.05278
# Poissons Ratio (y) = 0.47206 0.27570
# Poissons Ratio (z) = 0.04464 0.20972
#
# Static dielectric constant tensor:
#      x y z
#    x 1.623240 0.000000 -0.013490 
#    y 0.000000 1.651210 0.000000 
#    z -0.013490 0.000000 1.727230 
# 
# From -- ./inp_files/324116.got.cif
#   From: 2010.05.17/outbox.cif.g08.bks.cpg/sg12_163_cif.got.tgz:324116.got - 2010.06.03 13:09:07.
