data_PCOD9195775
_publ_section_title
;
Structure prediction by ZEFSAII (Michael W. Deem and Ramdas Pophale) SiO2 
 PCOD9195775
Probable space group: C 2/M
;
_chemical_formula_sum "Si O2"
_cell_formula_units_Z 64
_cell_length_a 14.059753
_cell_length_b 25.140941
_cell_length_c 16.939338
_cell_angle_alpha 90.000000
_cell_angle_beta 35.081549
_cell_angle_gamma 90.000000
_cell_volume 3441.346494
_symmetry_space_group_name_H-M "C 2/M"
_symmetry_group_IT_number 12
_symmetry_cell_setting 'monoclinic'
loop_
_space_group_symop_operation_xyz
x,y,z
-x,y,-z
-x,-y,-z
x,-y,z
1/2+x,1/2+y,z
1/2-x,1/2+y,-z
1/2-x,1/2-y,-z
1/2+x,1/2-y,z
loop_
_atom_site_type_symbol
_atom_site_label
_atom_site_fract_x
_atom_site_fract_y
_atom_site_fract_z
Si Si1 0.859197 0.939397 0.285121
Si Si2 0.187513 0.651418 0.843507
Si Si3 0.626356 0.125946 0.345478
Si Si4 0.287993 0.605193 0.939322
Si Si5 0.142619 0.211297 0.017691
Si Si6 0.582299 0.061706 0.795627
Si Si7 0.220229 0.766236 0.781809
Si Si8 0.892582 0.562378 0.402815
O O1 0.796243 0.901146 0.257926
O O2 0.760165 0.926768 0.433839
O O3 0.053551 0.932407 0.164958
O O4 0.816989 0.000000 0.293047
O O5 0.281561 0.633741 0.858206
O O6 0.168140 0.602131 0.797620
O O7 0.260614 0.703837 0.752800
O O8 0.000000 0.665877 0.000000
O O9 0.500000 0.109776 0.500000
O O10 0.647833 0.189092 0.330416
O O11 0.544883 0.100229 0.323811
O O12 0.314701 0.651833 0.984740
O O13 0.113415 0.575806 0.069602
O O14 0.946779 0.223670 0.155131
O O15 0.250000 0.250000 0.000000
O O16 0.185773 0.221158 0.897306
O O17 0.645673 0.069610 0.663284
O O18 0.605263 0.000000 0.802401
O O19 0.938654 0.500000 0.382347
#
# Coordination Sequence:
#
# PCOD9195775 Si02
#       8
#     8   8   8   8   8   8   8   8
#     4  10  20  35  56  82 112 146 186 226 274 329
#     4  10  20  36  56  79 108 147 182 222 274 335
#     4  10  20  35  55  80 111 148 184 222 270 327
#     4  11  20  34  56  86 111 137 182 238 277 313
#     4  11  19  33  56  78 106 145 177 220 271 325
#     4  10  21  37  57  81 109 143 185 229 276 326
#     4  11  20  34  55  82 108 141 187 220 263 332
#     4   9  19  38  58  77 108 152 188 220 271 338
#
# _framework density 18.597370999999999
#
# number of rings (size 3 to 8) (size 9 to 14) (size 15 to 20)
#    0.000    1.750    3.750    2.250    0.000    4.250 
#    0.000    1.875    0.000    9.000    0.000    0.000 
#    0.000    0.000    0.000    0.000    0.000    0.000 
#
# Total GULP energy -178491.978530 kJ/mol
# GULP energy per Si atom -5577.874329 kJ/mol
# Density = 1.855504 g / cm^3
# Si number density = 18.597371 Si / 1000 Ang^3
#
#
#
# Elastic Constant Matrix: (Units=GPa)
#
#
# Indices 1 2 3 4 5 6 
#
# 1 74.4476 35.0757 4.8442 -0.0001 3.5795 -0.0001
# 2 35.0757 113.0852 8.2092 -0.0023 11.8684 0.0016
# 3 4.8442 8.2092 20.2975 -0.0094 3.1072 0.0008
# 4 -0.0001 -0.0023 -0.0094 27.8074 0.0012 0.6728
# 5 3.5795 11.8684 3.1072 0.0012 13.4497 0.0004
# 6 -0.0001 0.0016 0.0008 0.6728 0.0004 34.1675
#
#
#
# Elastic Compliance Matrix: (Units=1/GPa)
#
#
# Indices 1 2 3 4 5 6 
#
# 1 0.015801 -0.004814 -0.001898 -0.000001 0.000481 0.000000
# 2 -0.004814 0.011359 -0.002184 0.000001 -0.008238 0.000000
# 3 -0.001898 -0.002184 0.052073 0.000018 -0.009598 -0.000001
# 4 -0.000001 0.000001 0.000018 0.035979 -0.000008 -0.000708
# 5 0.000481 -0.008238 -0.009598 -0.000008 0.083710 0.000000
# 6 0.000000 0.000000 -0.000001 -0.000708 0.000000 0.029282
#
#
# Mechanical properties :
#
#
# Convention : Reuss Voigt Hill
#
# Bulk Modulus (GPa) = 16.27572 33.78760 25.03166
# Shear Modulus (GPa) = 18.76355 25.73166 22.24760
#
# Velocity S-wave (km/s) = 3.17982 3.72374 3.46248
# Velocity P-wave (km/s) = 4.71723 6.05770 5.42899
#
# Compressibility (1/GPa) = 0.06144122
#
# Stress axis : x y z
#
# Youngs Moduli (GPa) = 63.28905 88.03560 19.20390
#
# Poissons Ratio (x) = 0.42376 0.03645
# Poissons Ratio (y) = 0.30465 0.04194
# Poissons Ratio (z) = 0.12011 0.19229
#
# Static dielectric constant tensor:
#      x y z
#    x 1.633910 0.000000 -0.000900 
#    y 0.000000 1.647680 0.000000 
#    z -0.000900 0.000000 1.639700 
# 
# From -- ./inp_files/184948.got.cif
#   From: 2010.05.17/outbox.cif.g08.bks.cpg/sg12_93_cif.got.tgz:184948.got - 2010.06.03 13:09:07.
