data_PCOD9195789
_publ_section_title
;
Structure prediction by ZEFSAII (Michael W. Deem and Ramdas Pophale) SiO2 
 PCOD9195789
Probable space group: C 2/M
;
_chemical_formula_sum "Si O2"
_cell_formula_units_Z 48
_cell_length_a 18.383438
_cell_length_b 13.648456
_cell_length_c 18.428365
_cell_angle_alpha 90.000000
_cell_angle_beta 148.901842
_cell_angle_gamma 90.000000
_cell_volume 2388.208652
_symmetry_space_group_name_H-M "C 2/M"
_symmetry_group_IT_number 12
_symmetry_cell_setting 'monoclinic'
loop_
_space_group_symop_operation_xyz
x,y,z
-x,y,-z
-x,-y,-z
x,-y,z
1/2+x,1/2+y,z
1/2-x,1/2+y,-z
1/2-x,1/2-y,-z
1/2+x,1/2-y,z
loop_
_atom_site_type_symbol
_atom_site_label
_atom_site_fract_x
_atom_site_fract_y
_atom_site_fract_z
Si Si1 0.778684 0.808389 0.430618
Si Si2 0.009176 0.767451 0.279416
Si Si3 0.338560 0.609773 0.336432
Si Si4 0.453348 0.613191 0.090779
Si Si5 0.205338 0.698811 0.789941
Si Si6 0.711189 0.890036 0.644515
O O1 0.905598 0.838338 0.591982
O O2 0.635227 0.795988 0.352141
O O3 0.756715 0.874951 0.342021
O O4 0.824964 0.700935 0.438674
O O5 0.941821 0.828569 0.156630
O O6 0.899932 0.704443 0.232176
O O7 0.500000 0.627127 0.500000
O O8 0.325906 0.500000 0.297739
O O9 0.290942 0.691910 0.239881
O O10 0.412270 0.500000 0.064371
O O11 0.617646 0.615004 0.208407
O O12 0.354309 0.662249 0.946595
O O13 0.159460 0.633114 0.681800
O O14 0.671239 0.000000 0.587454
#
# Coordination Sequence:
#
# PCOD9195789 Si02
#       6
#     8   8   8   8   8   8
#     4   9  19  37  58  81 113 143 183 230 283 323
#     4  10  20  35  55  80 114 151 178 223 278 331
#     4  10  20  36  59  82 103 139 189 230 269 324
#     4  10  21  37  58  83 111 150 191 223 269 334
#     4  11  20  34  58  84 113 142 183 234 275 319
#     4   9  19  36  60  84 109 146 190 229 273 330
#
# _framework density 20.098745000000001
#
# number of rings (size 3 to 8) (size 9 to 14) (size 15 to 20)
#    0.000    2.167    1.667    1.500    0.000    2.667 
#    0.000    6.667    0.000   19.000    0.000    0.000 
#    0.000    0.000    0.000    0.000    0.000    0.000 
#
# Total GULP energy -133970.701651 kJ/mol
# GULP energy per Si atom -5582.112569 kJ/mol
# Density = 2.005300 g / cm^3
# Si number density = 20.098745 Si / 1000 Ang^3
#
#
#
# Elastic Constant Matrix: (Units=GPa)
#
#
# Indices 1 2 3 4 5 6 
#
# 1 102.5982 -0.8115 -4.8721 0.0001 -3.5125 0.0001
# 2 -0.8115 61.9091 12.2261 0.0004 -4.1930 0.0002
# 3 -4.8721 12.2261 51.4707 0.0003 -17.5260 0.0002
# 4 0.0001 0.0004 0.0003 20.7455 0.0001 5.1956
# 5 -3.5125 -4.1930 -17.5260 0.0001 26.1915 0.0001
# 6 0.0001 0.0002 0.0002 5.1956 0.0001 8.8247
#
#
#
# Elastic Compliance Matrix: (Units=1/GPa)
#
#
# Indices 1 2 3 4 5 6 
#
# 1 0.009919 -0.000057 0.001816 0.000000 0.002536 0.000000
# 2 -0.000057 0.016948 -0.004028 0.000000 0.000011 0.000000
# 3 0.001816 -0.004028 0.026446 0.000000 0.017295 0.000000
# 4 0.000000 0.000000 0.000000 0.056540 0.000000 -0.033288
# 5 0.002536 0.000011 0.017295 0.000000 0.050095 0.000000
# 6 0.000000 0.000000 0.000000 -0.033288 0.000000 0.132917
#
#
# Mechanical properties :
#
#
# Convention : Reuss Voigt Hill
#
# Bulk Modulus (GPa) = 20.50141 25.45146 22.97643
# Shear Modulus (GPa) = 15.94074 25.11470 20.52772
#
# Velocity S-wave (km/s) = 2.81930 3.53875 3.19931
# Velocity P-wave (km/s) = 4.56294 5.42105 5.01040
#
# Compressibility (1/GPa) = 0.04877713
#
# Stress axis : x y z
#
# Youngs Moduli (GPa) = 100.81269 59.00382 37.81256
#
# Poissons Ratio (x) = 0.00335 -0.06867
# Poissons Ratio (y) = 0.00573 0.15229
# Poissons Ratio (z) = -0.18309 0.23764
#
# Static dielectric constant tensor:
#      x y z
#    x 1.767680 0.000000 -0.001900 
#    y 0.000000 1.691170 0.000000 
#    z -0.001900 0.000000 1.740520 
# 
# From -- ./inp_files/278244.got.cif
#   From: 2010.05.17/outbox.cif.g08.bks.cpg/sg12_140_cif.got.tgz:278244.got - 2010.06.03 13:09:07.
