data_PCOD9195791
_publ_section_title
;
Structure prediction by ZEFSAII (Michael W. Deem and Ramdas Pophale) SiO2 
 PCOD9195791
Probable space group: C 2/M
;
_chemical_formula_sum "Si O2"
_cell_formula_units_Z 56
_cell_length_a 29.795991
_cell_length_b 18.052608
_cell_length_c 9.155547
_cell_angle_alpha 90.000000
_cell_angle_beta 139.519164
_cell_angle_gamma 90.000000
_cell_volume 3197.101048
_symmetry_space_group_name_H-M "C 2/M"
_symmetry_group_IT_number 12
_symmetry_cell_setting 'monoclinic'
loop_
_space_group_symop_operation_xyz
x,y,z
-x,y,-z
-x,-y,-z
x,-y,z
1/2+x,1/2+y,z
1/2-x,1/2+y,-z
1/2-x,1/2-y,-z
1/2+x,1/2-y,z
loop_
_atom_site_type_symbol
_atom_site_label
_atom_site_fract_x
_atom_site_fract_y
_atom_site_fract_z
Si Si1 0.561648 0.767175 0.466385
Si Si2 0.580904 0.713681 0.839176
Si Si3 0.044963 0.584287 0.258001
Si Si4 0.294683 0.800734 0.716781
Si Si5 0.824497 0.911129 0.035672
Si Si6 0.704964 0.697396 0.782218
Si Si7 0.198536 0.584076 0.512319
O O1 0.577121 0.759531 0.677311
O O2 0.494948 0.714853 0.279145
O O3 0.538895 0.848583 0.357200
O O4 0.632253 0.738412 0.566685
O O5 0.610397 0.633067 0.870509
O O6 0.636106 0.756811 0.072505
O O7 0.027866 0.500000 0.266289
O O8 0.125432 0.585219 0.412735
O O9 0.000000 0.598132 0.000000
O O10 0.250000 0.750000 0.500000
O O11 0.250466 0.816588 0.752271
O O12 0.309151 0.872256 0.656172
O O13 0.811771 0.875459 0.163459
O O14 0.831122 0.000000 0.055731
O O15 0.758975 0.889177 0.771044
O O16 0.750000 0.750000 0.000000
O O17 0.216925 0.500000 0.523060
#
# Coordination Sequence:
#
# PCOD9195791 Si02
#       7
#     8   8   8   8   8   8   8
#     4  10  20  36  55  82 115 144 194 237 279 338
#     4  10  21  36  56  83 113 148 190 240 281 344
#     4  10  20  35  55  80 116 155 190 229 284 351
#     4  12  20  34  59  82 114 152 190 235 293 334
#     4  10  20  38  60  81 111 152 193 239 291 336
#     4  11  20  36  57  83 114 147 192 239 282 343
#     4  10  21  35  55  83 113 148 192 237 288 347
#
# _framework density 17.515868000000001
#
# number of rings (size 3 to 8) (size 9 to 14) (size 15 to 20)
#    0.000    1.571    4.286    2.571    0.000    0.571 
#    0.000    7.857    0.000    0.000    0.000    2.000 
#    0.000    0.000    0.000    0.000    0.000    0.000 
#
# Total GULP energy -156141.686120 kJ/mol
# GULP energy per Si atom -5576.488790 kJ/mol
# Density = 1.747600 g / cm^3
# Si number density = 17.515868 Si / 1000 Ang^3
#
#
#
# Elastic Constant Matrix: (Units=GPa)
#
#
# Indices 1 2 3 4 5 6 
#
# 1 46.3430 20.0586 12.6745 0.0000 10.2294 0.0000
# 2 20.0586 98.3654 38.1171 0.0000 -5.5511 0.0000
# 3 12.6745 38.1171 99.5495 0.0000 12.7180 0.0000
# 4 0.0000 0.0000 0.0000 29.5047 0.0000 -1.7603
# 5 10.2294 -5.5511 12.7180 0.0000 30.2910 0.0000
# 6 0.0000 0.0000 0.0000 -1.7603 0.0000 22.9883
#
#
#
# Elastic Compliance Matrix: (Units=1/GPa)
#
#
# Indices 1 2 3 4 5 6 
#
# 1 0.026358 -0.006042 0.000250 0.000000 -0.010113 0.000000
# 2 -0.006042 0.013888 -0.005425 0.000000 0.006863 0.000000
# 3 0.000250 -0.005425 0.012922 0.000000 -0.006504 0.000000
# 4 0.000000 0.000000 0.000000 0.034048 0.000000 0.002607
# 5 -0.010113 0.006863 -0.006504 0.000000 0.040417 0.000000
# 6 0.000000 0.000000 0.000000 0.002607 0.000000 0.043700
#
#
# Mechanical properties :
#
#
# Convention : Reuss Voigt Hill
#
# Bulk Modulus (GPa) = 32.53969 42.88423 37.71196
# Shear Modulus (GPa) = 24.50840 28.11732 26.31286
#
# Velocity S-wave (km/s) = 3.74466 4.01090 3.88007
# Velocity P-wave (km/s) = 6.10854 6.78130 6.45369
#
# Compressibility (1/GPa) = 0.03073170
#
# Stress axis : x y z
#
# Youngs Moduli (GPa) = 37.93985 72.00497 77.38961
#
# Poissons Ratio (x) = 0.43508 -0.01933
# Poissons Ratio (y) = 0.22924 0.41985
# Poissons Ratio (z) = -0.00948 0.39064
#
# Static dielectric constant tensor:
#      x y z
#    x 1.614890 0.000000 0.010780 
#    y 0.000000 1.635060 0.000000 
#    z 0.010780 0.000000 1.610800 
# 
# From -- ./inp_files/112660.got.cif
#   From: 2010.05.17/outbox.cif.g08.bks.cpg/sg12_57_cif.got.tgz:112660.got - 2010.06.03 13:09:07.
