data_PCOD9195778
_publ_section_title
;
Structure prediction by ZEFSAII (Michael W. Deem and Ramdas Pophale) SiO2 
 PCOD9195778
Probable space group: C 2/M
;
_chemical_formula_sum "Si O2"
_cell_formula_units_Z 56
_cell_length_a 30.279683
_cell_length_b 9.131301
_cell_length_c 11.978410
_cell_angle_alpha 90.000000
_cell_angle_beta 116.237088
_cell_angle_gamma 90.000000
_cell_volume 2970.723509
_symmetry_space_group_name_H-M "C 2/M"
_symmetry_group_IT_number 12
_symmetry_cell_setting 'monoclinic'
loop_
_space_group_symop_operation_xyz
x,y,z
-x,y,-z
-x,-y,-z
x,-y,z
1/2+x,1/2+y,z
1/2-x,1/2+y,-z
1/2-x,1/2-y,-z
1/2+x,1/2-y,z
loop_
_atom_site_type_symbol
_atom_site_label
_atom_site_fract_x
_atom_site_fract_y
_atom_site_fract_z
Si Si1 0.021330 0.327467 0.813324
Si Si2 0.359050 0.674523 0.441749
Si Si3 0.818757 0.171469 0.010433
Si Si4 0.709563 0.172466 0.799369
Si Si5 0.590867 0.326326 0.055846
Si Si6 0.405447 0.173959 0.703699
Si Si7 0.550828 0.670700 0.625184
O O1 0.029691 0.500000 0.837811
O O2 0.047456 0.269180 0.730861
O O3 0.962957 0.301982 0.736879
O O4 0.043151 0.241101 0.942748
O O5 0.355772 0.500000 0.451756
O O6 0.311068 0.739822 0.328834
O O7 0.372202 0.751055 0.572540
O O8 0.404177 0.705426 0.406477
O O9 0.817654 0.268847 0.119903
O O10 0.819892 0.000000 0.046053
O O11 0.767422 0.196198 0.888011
O O12 0.864325 0.198648 0.980387
O O13 0.700897 0.000000 0.775364
O O14 0.585309 0.500000 0.066709
O O15 0.601648 0.246759 0.183878
O O16 0.396913 0.000000 0.698488
O O17 0.500000 0.685974 0.500000
O O18 0.555477 0.500000 0.665119
#
# Coordination Sequence:
#
# PCOD9195778 Si02
#       7
#     8   8   8   8   8   8   8
#     4  11  23  37  56  83 115 149 187 233 283 332
#     4  11  22  37  58  84 115 150 190 229 276 335
#     4   9  20  39  60  86 116 146 184 230 278 333
#     4  10  20  36  61  89 117 146 180 227 284 336
#     4  11  23  39  60  82 109 148 193 234 276 329
#     4  11  24  40  56  79 114 151 190 234 279 330
#     4  10  20  35  55  80 112 148 185 226 272 326
#
# _framework density 18.850626999999999
#
# number of rings (size 3 to 8) (size 9 to 14) (size 15 to 20)
#    0.000    1.571    1.429    3.429    0.000   10.000 
#    0.000    0.714    0.000    0.000    0.000    0.000 
#    0.000    0.000    0.000    0.000    0.000    0.000 
#
# Total GULP energy -156566.033683 kJ/mol
# GULP energy per Si atom -5591.644060 kJ/mol
# Density = 1.880772 g / cm^3
# Si number density = 18.850627 Si / 1000 Ang^3
#
#
#
# Elastic Constant Matrix: (Units=GPa)
#
#
# Indices 1 2 3 4 5 6 
#
# 1 17.8833 26.3585 14.7350 0.0000 -1.4248 0.0000
# 2 26.3585 77.8445 74.4945 0.0000 -3.8100 0.0000
# 3 14.7350 74.4945 138.1957 0.0000 -2.8095 0.0000
# 4 0.0000 0.0000 0.0000 41.2176 0.0000 -4.5802
# 5 -1.4248 -3.8100 -2.8095 0.0000 19.9891 0.0000
# 6 0.0000 0.0000 0.0000 -4.5802 0.0000 15.0935
#
#
#
# Elastic Compliance Matrix: (Units=1/GPa)
#
#
# Indices 1 2 3 4 5 6 
#
# 1 0.136728 -0.066808 0.021435 0.000000 0.000024 0.000000
# 2 -0.066808 0.059365 -0.024815 0.000000 0.003065 0.000000
# 3 0.021435 -0.024815 0.018314 0.000000 -0.000628 0.000000
# 4 0.000000 0.000000 0.000000 0.025108 0.000000 0.007619
# 5 0.000024 0.003065 -0.000628 0.000000 0.050525 0.000000
# 6 0.000000 0.000000 0.000000 0.007619 0.000000 0.068566
#
#
# Mechanical properties :
#
#
# Convention : Reuss Voigt Hill
#
# Bulk Modulus (GPa) = 13.50786 51.67770 32.59278
# Shear Modulus (GPa) = 9.54821 23.14910 16.34866
#
# Velocity S-wave (km/s) = 2.25304 3.50812 2.94815
# Velocity P-wave (km/s) = 3.73491 6.62443 5.37739
#
# Compressibility (1/GPa) = 0.07403097
#
# Stress axis : x y z
#
# Youngs Moduli (GPa) = 7.31380 16.84506 54.60198
#
# Poissons Ratio (x) = 1.12538 -1.17039
# Poissons Ratio (y) = 0.48862 1.35494
# Poissons Ratio (z) = -0.15677 0.41801
#
# Static dielectric constant tensor:
#      x y z
#    x 1.643430 0.000000 0.018510 
#    y 0.000000 1.627280 0.000000 
#    z 0.018510 0.000000 1.636280 
# 
# From -- ./inp_files/180618.got.cif
#   From: 2010.05.17/outbox.cif.g08.bks.cpg/sg12_91_cif.got.tgz:180618.got - 2010.06.03 13:09:07.
