data_PCOD9195195
_publ_section_title
;
Structure prediction by ZEFSAII (Michael W. Deem and Ramdas Pophale) SiO2 
 PCOD9195195
Probable space group: C 2/M
;
_chemical_formula_sum "Si O2"
_cell_formula_units_Z 64
_cell_length_a 22.265349
_cell_length_b 8.044528
_cell_length_c 20.213117
_cell_angle_alpha 90.000000
_cell_angle_beta 120.076989
_cell_angle_gamma 90.000000
_cell_volume 3132.972269
_symmetry_space_group_name_H-M "C 2/M"
_symmetry_group_IT_number 12
_symmetry_cell_setting 'monoclinic'
loop_
_space_group_symop_operation_xyz
x,y,z
-x,y,-z
-x,-y,-z
x,-y,z
1/2+x,1/2+y,z
1/2-x,1/2+y,-z
1/2-x,1/2-y,-z
1/2+x,1/2-y,z
loop_
_atom_site_type_symbol
_atom_site_label
_atom_site_fract_x
_atom_site_fract_y
_atom_site_fract_z
Si Si1 0.143862 0.298935 0.910279
Si Si2 0.213346 0.701032 0.080612
Si Si3 0.731138 0.803665 0.233862
Si Si4 0.113982 0.812028 0.382792
Si Si5 0.758954 0.306259 0.617624
Si Si6 0.609381 0.798300 0.666817
Si Si7 0.104691 0.690904 0.518697
Si Si8 0.976467 0.299123 0.250131
O O1 0.142667 0.500000 0.910053
O O2 0.209440 0.247150 0.901533
O O3 0.072599 0.242869 0.837084
O O4 0.161270 0.240504 0.994190
O O5 0.209719 0.500000 0.080129
O O6 0.202548 0.766600 0.149024
O O7 0.709120 0.745171 0.294571
O O8 0.814062 0.774596 0.279757
O O9 0.716398 0.000000 0.224333
O O10 0.182052 0.705827 0.404654
O O11 0.085066 0.780923 0.440445
O O12 0.053110 0.772040 0.297929
O O13 0.137249 0.000000 0.390313
O O14 0.737887 0.500000 0.612668
O O15 0.688807 0.205380 0.566749
O O16 0.582626 0.746477 0.579224
O O17 0.562853 0.753419 0.703516
O O18 0.615375 0.000000 0.668141
O O19 0.082263 0.500000 0.499771
O O20 0.981564 0.500000 0.251087
#
# Coordination Sequence:
#
# PCOD9195195 Si02
#       8
#     8   8   8   8   8   8   8   8
#     4   9  17  29  48  74 106 139 168 199 239 293
#     4   9  16  27  47  78 109 134 163 201 245 292
#     4   9  17  29  50  78 107 133 162 205 253 295
#     4  12  25  38  52  72  97 132 174 215 257 303
#     4  10  20  36  56  77 101 131 168 212 255 297
#     4   9  18  32  52  76 103 134 168 201 245 300
#     4  10  20  36  57  79 102 129 163 210 256 300
#     4  10  20  35  52  72 103 140 173 205 243 297
#
# _framework density 20.427883999999999
#
# number of rings (size 3 to 8) (size 9 to 14) (size 15 to 20)
#    0.000    2.250    1.250    2.250    0.000    2.500 
#    0.000    2.500    0.000    0.750    0.000    5.250 
#    0.000    0.000    0.000    0.000    0.000    0.000 
#
# Total GULP energy -178542.322847 kJ/mol
# GULP energy per Si atom -5579.447589 kJ/mol
# Density = 2.038139 g / cm^3
# Si number density = 20.427884 Si / 1000 Ang^3
#
#
#
# Elastic Constant Matrix: (Units=GPa)
#
#
# Indices 1 2 3 4 5 6 
#
# 1 21.5608 -1.7760 4.2201 0.0000 -5.1346 0.0000
# 2 -1.7760 20.3097 5.1833 0.0000 -1.2620 0.0000
# 3 4.2201 5.1833 135.4199 0.0000 -9.3364 0.0000
# 4 0.0000 0.0000 0.0000 19.2547 0.0000 3.8091
# 5 -5.1346 -1.2620 -9.3364 0.0000 26.4703 0.0000
# 6 0.0000 0.0000 0.0000 3.8091 0.0000 13.8459
#
#
#
# Elastic Compliance Matrix: (Units=1/GPa)
#
#
# Indices 1 2 3 4 5 6 
#
# 1 0.049262 0.005170 -0.001084 0.000000 0.009420 0.000000
# 2 0.005170 0.050344 -0.001900 0.000000 0.002733 0.000000
# 3 -0.001084 -0.001900 0.007656 0.000000 0.002400 0.000000
# 4 0.000000 0.000000 0.000000 0.054925 0.000000 -0.015110
# 5 0.009420 0.002733 0.002400 0.000000 0.040582 0.000000
# 6 0.000000 0.000000 0.000000 -0.015110 0.000000 0.076381
#
#
# Mechanical properties :
#
#
# Convention : Reuss Voigt Hill
#
# Bulk Modulus (GPa) = 8.95775 21.39392 15.17584
# Shear Modulus (GPa) = 16.02623 23.22504 19.62564
#
# Velocity S-wave (km/s) = 2.80398 3.37550 3.10292
# Velocity P-wave (km/s) = 3.85716 5.06829 4.50362
#
# Compressibility (1/GPa) = 0.11163512
#
# Stress axis : x y z
#
# Youngs Moduli (GPa) = 20.29975 19.86325 130.61029
#
# Poissons Ratio (x) = -0.10269 0.14153
# Poissons Ratio (y) = -0.10494 0.24811
# Poissons Ratio (z) = 0.02200 0.03773
#
# Static dielectric constant tensor:
#      x y z
#    x 1.692620 0.000000 -0.030340 
#    y 0.000000 1.710640 0.000000 
#    z -0.030340 0.000000 1.788340 
# 
# From -- ./inp_files/319853.got.cif
#   From: 2010.05.17/outbox.cif.g08.bks.cpg/sg12_160_cif.got.tgz:319853.got - 2010.06.03 13:09:07.
