data_PCOD9195861
_publ_section_title
;
Structure prediction by ZEFSAII (Michael W. Deem and Ramdas Pophale) SiO2 
 PCOD9195861
Probable space group: C 2/M
;
_chemical_formula_sum "Si O2"
_cell_formula_units_Z 56
_cell_length_a 26.260807
_cell_length_b 7.689780
_cell_length_c 14.882933
_cell_angle_alpha 90.000000
_cell_angle_beta 122.639092
_cell_angle_gamma 90.000000
_cell_volume 2530.849021
_symmetry_space_group_name_H-M "C 2/M"
_symmetry_group_IT_number 12
_symmetry_cell_setting 'monoclinic'
loop_
_space_group_symop_operation_xyz
x,y,z
-x,y,-z
-x,-y,-z
x,-y,z
1/2+x,1/2+y,z
1/2-x,1/2+y,-z
1/2-x,1/2-y,-z
1/2+x,1/2-y,z
loop_
_atom_site_type_symbol
_atom_site_label
_atom_site_fract_x
_atom_site_fract_y
_atom_site_fract_z
Si Si1 0.410119 0.202731 0.514694
Si Si2 0.486643 0.699906 0.254870
Si Si3 0.244876 0.706863 0.890833
Si Si4 0.175883 0.212773 0.191951
Si Si5 0.889410 0.204817 0.293690
Si Si6 0.723470 0.791578 0.571492
Si Si7 0.956702 0.212599 0.876385
O O1 0.463066 0.295483 0.619043
O O2 0.411514 0.215303 0.408376
O O3 0.344447 0.275199 0.480622
O O4 0.414304 0.000000 0.544099
O O5 0.471353 0.500000 0.217042
O O6 0.426885 0.777262 0.244284
O O7 0.515746 0.775575 0.191971
O O8 0.242640 0.500000 0.879595
O O9 0.302179 0.767192 0.886172
O O10 0.181819 0.772918 0.789748
O O11 0.250000 0.750000 0.000000
O O12 0.229208 0.270748 0.309259
O O13 0.111067 0.273152 0.165599
O O14 0.173660 0.000000 0.191246
O O15 0.902486 0.000000 0.312752
O O16 0.750000 0.750000 0.500000
O O17 0.719531 0.000000 0.578733
O O18 0.954040 0.000000 0.869415
O O19 0.000000 0.258881 0.000000
#
# Coordination Sequence:
#
# PCOD9195861 Si02
#       7
#     8   8   8   8   8   8   8
#     4  11  22  38  59  86 120 159 199 242 300 363
#     4  10  22  38  59  89 120 154 201 250 298 356
#     4  11  23  40  62  89 121 157 199 246 298 357
#     4   9  18  35  57  81 116 150 187 239 293 347
#     4  11  23  39  61  90 122 157 198 246 298 356
#     4  10  20  35  55  83 115 154 196 239 292 351
#     4   9  18  33  58  87 113 148 194 244 296 347
#
# _framework density 22.126963
#
# number of rings (size 3 to 8) (size 9 to 14) (size 15 to 20)
#    0.000    1.857    1.429    2.571    2.000    5.143 
#    0.000    0.000    0.000    1.286    0.000    0.000 
#    0.000    0.000    0.000    0.000    0.000    0.000 
#
# Total GULP energy -156477.348994 kJ/mol
# GULP energy per Si atom -5588.476750 kJ/mol
# Density = 2.207660 g / cm^3
# Si number density = 22.126963 Si / 1000 Ang^3
#
#
#
# Elastic Constant Matrix: (Units=GPa)
#
#
# Indices 1 2 3 4 5 6 
#
# 1 173.3880 0.6071 27.4394 0.0000 -23.9152 0.0000
# 2 0.6071 40.7192 -10.2210 0.0000 2.0231 0.0000
# 3 27.4394 -10.2210 64.1872 0.0000 -23.0004 0.0000
# 4 0.0000 0.0000 0.0000 16.6467 0.0000 -1.1177
# 5 -23.9152 2.0231 -23.0004 0.0000 42.0115 0.0000
# 6 0.0000 0.0000 0.0000 -1.1177 0.0000 14.1829
#
#
#
# Elastic Compliance Matrix: (Units=1/GPa)
#
#
# Indices 1 2 3 4 5 6 
#
# 1 0.006439 -0.000708 -0.001915 0.000000 0.002651 0.000000
# 2 -0.000708 0.025711 0.004738 0.000000 0.000953 0.000000
# 3 -0.001915 0.004738 0.020751 0.000000 0.010042 0.000000
# 4 0.000000 0.000000 0.000000 0.060392 0.000000 0.004759
# 5 0.002651 0.000953 0.010042 0.000000 0.030764 0.000000
# 6 0.000000 0.000000 0.000000 0.004759 0.000000 0.070883
#
#
# Mechanical properties :
#
#
# Convention : Reuss Voigt Hill
#
# Bulk Modulus (GPa) = 17.50392 34.88280 26.19336
# Shear Modulus (GPa) = 21.76246 31.93281 26.84764
#
# Velocity S-wave (km/s) = 3.13953 3.80302 3.48709
# Velocity P-wave (km/s) = 4.59021 5.92309 5.29873
#
# Compressibility (1/GPa) = 0.05713008
#
# Stress axis : x y z
#
# Youngs Moduli (GPa) = 155.31282 38.89373 48.18970
#
# Poissons Ratio (x) = 0.02756 0.09230
# Poissons Ratio (y) = 0.11004 -0.22834
# Poissons Ratio (z) = 0.29749 -0.18430
#
# Static dielectric constant tensor:
#      x y z
#    x 1.709490 0.000000 0.010020 
#    y 0.000000 1.799170 0.000000 
#    z 0.010020 0.000000 1.736460 
# 
# From -- ./inp_files/239033.got.cif
#   From: 2010.05.17/outbox.cif.g08.bks.cpg/sg12_120_cif.got.tgz:239033.got - 2010.06.03 13:09:07.
