data_PCOD9195866
_publ_section_title
;
Structure prediction by ZEFSAII (Michael W. Deem and Ramdas Pophale) SiO2 
 PCOD9195866
Probable space group: C 2/M
;
_chemical_formula_sum "Si O2"
_cell_formula_units_Z 56
_cell_length_a 27.478552
_cell_length_b 7.853800
_cell_length_c 12.393437
_cell_angle_alpha 90.000000
_cell_angle_beta 76.255983
_cell_angle_gamma 90.000000
_cell_volume 2598.057378
_symmetry_space_group_name_H-M "C 2/M"
_symmetry_group_IT_number 12
_symmetry_cell_setting 'monoclinic'
loop_
_space_group_symop_operation_xyz
x,y,z
-x,y,-z
-x,-y,-z
x,-y,z
1/2+x,1/2+y,z
1/2-x,1/2+y,-z
1/2-x,1/2-y,-z
1/2+x,1/2-y,z
loop_
_atom_site_type_symbol
_atom_site_label
_atom_site_fract_x
_atom_site_fract_y
_atom_site_fract_z
Si Si1 0.897365 0.704135 0.292036
Si Si2 0.413045 0.205010 0.813175
Si Si3 0.113421 0.291549 0.938589
Si Si4 0.007644 0.796944 0.617650
Si Si5 0.729246 0.796947 0.893237
Si Si6 0.807949 0.705622 0.481418
Si Si7 0.176294 0.701873 0.289769
O O1 0.893383 0.500000 0.285687
O O2 0.907914 0.767189 0.165226
O O3 0.940875 0.741318 0.353929
O O4 0.844487 0.767853 0.367558
O O5 0.462126 0.245059 0.719145
O O6 0.364606 0.271312 0.772709
O O7 0.408583 0.000000 0.821575
O O8 0.412348 0.267424 0.937099
O O9 0.111676 0.500000 0.940718
O O10 0.171939 0.240367 0.911680
O O11 0.000000 0.728426 0.500000
O O12 0.008197 0.000000 0.610824
O O13 0.768142 0.727284 0.785567
O O14 0.729121 0.000000 0.882812
O O15 0.750000 0.750000 0.000000
O O16 0.811024 0.500000 0.480609
O O17 0.750000 0.750000 0.500000
O O18 0.827182 0.771001 0.587368
O O19 0.167094 0.500000 0.301338
#
# Coordination Sequence:
#
# PCOD9195866 Si02
#       7
#     8   8   8   8   8   8   8
#     4  10  21  40  64  87 113 154 199 235 283 345
#     4  10  20  38  62  85 113 150 194 241 284 341
#     4   9  19  36  59  87 118 151 193 239 282 339
#     4  11  25  43  61  85 116 147 187 243 301 350
#     4  11  20  34  56  84 120 158 194 235 284 340
#     4  10  21  36  57  85 118 155 196 240 286 344
#     4  10  20  35  55  83 117 153 197 244 288 339
#
# _framework density 21.554566000000001
#
# number of rings (size 3 to 8) (size 9 to 14) (size 15 to 20)
#    0.000    1.857    1.429    2.571    0.000    5.714 
#    0.000    5.000    0.000    0.000    0.000    0.000 
#    0.000    0.000    0.000    0.000    0.000    0.000 
#
# Total GULP energy -156442.091070 kJ/mol
# GULP energy per Si atom -5587.217538 kJ/mol
# Density = 2.150551 g / cm^3
# Si number density = 21.554566 Si / 1000 Ang^3
#
#
#
# Elastic Constant Matrix: (Units=GPa)
#
#
# Indices 1 2 3 4 5 6 
#
# 1 109.0118 -1.9604 79.8916 0.0000 5.7427 0.0000
# 2 -1.9604 17.7366 11.6356 0.0000 7.6343 0.0000
# 3 79.8916 11.6356 204.9018 0.0000 10.6782 0.0000
# 4 0.0000 0.0000 0.0000 18.2986 0.0000 -6.1353
# 5 5.7427 7.6343 10.6782 0.0000 41.0609 0.0000
# 6 0.0000 0.0000 0.0000 -6.1353 0.0000 25.3730
#
#
#
# Elastic Compliance Matrix: (Units=1/GPa)
#
#
# Indices 1 2 3 4 5 6 
#
# 1 0.013350 0.005701 -0.005450 0.000000 -0.001510 0.000000
# 2 0.005701 0.065500 -0.005338 0.000000 -0.011587 0.000000
# 3 -0.005450 -0.005338 0.007316 0.000000 -0.000148 0.000000
# 4 0.000000 0.000000 0.000000 0.059470 0.000000 0.014380
# 5 -0.001510 -0.011587 -0.000148 0.000000 0.026758 0.000000
# 6 0.000000 0.000000 0.000000 0.014380 0.000000 0.042889
#
#
# Mechanical properties :
#
#
# Convention : Reuss Voigt Hill
#
# Bulk Modulus (GPa) = 13.15955 56.75376 34.95666
# Shear Modulus (GPa) = 19.93706 33.08540 26.51123
#
# Velocity S-wave (km/s) = 3.04461 3.92211 3.51088
# Velocity P-wave (km/s) = 4.29861 6.84821 5.71734
#
# Compressibility (1/GPa) = 0.07599041
#
# Stress axis : x y z
#
# Youngs Moduli (GPa) = 74.90890 15.26712 136.68246
#
# Poissons Ratio (x) = -0.08703 0.74493
# Poissons Ratio (y) = -0.42703 0.72966
# Poissons Ratio (z) = 0.40826 0.08150
#
# Static dielectric constant tensor:
#      x y z
#    x 1.757120 0.000000 0.023630 
#    y 0.000000 1.781000 0.000000 
#    z 0.023630 0.000000 1.798040 
# 
# From -- ./inp_files/180833.got.cif
#   From: 2010.05.17/outbox.cif.g08.bks.cpg/sg12_91_cif.got.tgz:180833.got - 2010.06.03 13:09:07.
