data_PCOD9195045
_publ_section_title
;
Structure prediction by ZEFSAII (Michael W. Deem and Ramdas Pophale) SiO2 
 PCOD9195045
Probable space group: C 2/M
;
_chemical_formula_sum "Si O2"
_cell_formula_units_Z 56
_cell_length_a 20.175578
_cell_length_b 12.422624
_cell_length_c 12.954378
_cell_angle_alpha 90.000000
_cell_angle_beta 120.686606
_cell_angle_gamma 90.000000
_cell_volume 2792.158058
_symmetry_space_group_name_H-M "C 2/M"
_symmetry_group_IT_number 12
_symmetry_cell_setting 'monoclinic'
loop_
_space_group_symop_operation_xyz
x,y,z
-x,y,-z
-x,-y,-z
x,-y,z
1/2+x,1/2+y,z
1/2-x,1/2+y,-z
1/2-x,1/2-y,-z
1/2+x,1/2-y,z
loop_
_atom_site_type_symbol
_atom_site_label
_atom_site_fract_x
_atom_site_fract_y
_atom_site_fract_z
Si Si1 0.381084 0.500000 0.470299
Si Si2 0.136049 0.625831 0.712449
Si Si3 0.815441 0.130843 0.909473
Si Si4 0.052553 0.835750 0.132958
Si Si5 0.053781 0.000000 0.692842
Si Si6 0.159016 0.841055 0.393522
Si Si7 0.580461 0.282987 0.838502
Si Si8 0.663568 0.875089 0.501700
O O1 0.469834 0.500000 0.575558
O O2 0.383012 0.500000 0.348957
O O3 0.343405 0.397979 0.496960
O O4 0.118028 0.500000 0.709827
O O5 0.226168 0.641529 0.812146
O O6 0.089249 0.695559 0.756739
O O7 0.126650 0.651979 0.583666
O O8 0.869555 0.189239 0.867796
O O9 0.832153 0.000000 0.924018
O O10 0.842473 0.188613 0.035831
O O11 0.093520 0.886173 0.266020
O O12 0.988695 0.759095 0.135483
O O13 0.000000 0.887872 0.000000
O O14 0.062261 0.105125 0.768025
O O15 0.243356 0.863805 0.414844
O O16 0.143519 0.714867 0.401236
O O17 0.646455 0.000000 0.463311
#
# Coordination Sequence:
#
# PCOD9195045 Si02
#       8
#     4   8   8   8   4   8   8   8
#     4  11  22  34  54  84 118 152 184 241 308 357
#     4  10  21  38  59  84 117 159 202 241 284 352
#     4  10  20  34  60  88 118 152 198 248 293 349
#     4  10  22  35  60  90 120 150 195 247 299 356
#     4  11  22  34  52  82 122 154 181 234 313 365
#     4  11  20  37  60  86 119 150 193 253 301 344
#     4  11  21  36  56  88 122 153 191 243 304 356
#     4  10  21  37  61  86 114 156 202 243 292 350
#
# _framework density 20.056170999999999
#
# number of rings (size 3 to 8) (size 9 to 14) (size 15 to 20)
#    0.000    1.571    4.286    1.286    2.000    0.857 
#    0.000    0.714    0.000    9.429    0.000    0.000 
#    0.000    0.000    0.000    0.000    0.000    0.000 
#
# Total GULP energy -155894.759247 kJ/mol
# GULP energy per Si atom -5567.669973 kJ/mol
# Density = 2.001052 g / cm^3
# Si number density = 20.056171 Si / 1000 Ang^3
#
#
#
# Elastic Constant Matrix: (Units=GPa)
#
#
# Indices 1 2 3 4 5 6 
#
# 1 65.8206 24.3191 8.5487 0.0000 -27.3841 0.0000
# 2 24.3191 89.4358 25.1891 0.0000 -17.9846 0.0000
# 3 8.5487 25.1891 65.0237 0.0000 -9.8441 0.0000
# 4 0.0000 0.0000 0.0000 9.2765 0.0000 -3.0645
# 5 -27.3841 -17.9846 -9.8441 0.0000 36.9872 0.0000
# 6 0.0000 0.0000 0.0000 -3.0645 0.0000 13.1670
#
#
#
# Elastic Compliance Matrix: (Units=1/GPa)
#
#
# Indices 1 2 3 4 5 6 
#
# 1 0.022724 -0.003252 0.000604 0.000000 0.015404 0.000000
# 2 -0.003252 0.013975 -0.004503 0.000000 0.003189 0.000000
# 3 0.000604 -0.004503 0.017485 0.000000 0.002911 0.000000
# 4 0.000000 0.000000 0.000000 0.116778 0.000000 0.027179
# 5 0.015404 0.003189 0.002911 0.000000 0.040766 0.000000
# 6 0.000000 0.000000 0.000000 0.027179 0.000000 0.082273
#
#
# Mechanical properties :
#
#
# Convention : Reuss Voigt Hill
#
# Bulk Modulus (GPa) = 25.07370 37.37710 31.22540
# Shear Modulus (GPa) = 15.54735 22.70102 19.12419
#
# Velocity S-wave (km/s) = 2.78724 3.36798 3.09128
# Velocity P-wave (km/s) = 4.78406 5.81387 5.32392
#
# Compressibility (1/GPa) = 0.03988243
#
# Stress axis : x y z
#
# Youngs Moduli (GPa) = 44.00538 71.55606 57.19241
#
# Poissons Ratio (x) = 0.23268 -0.03455
# Poissons Ratio (y) = 0.14309 0.25756
# Poissons Ratio (z) = -0.02658 0.32224
#
# Static dielectric constant tensor:
#      x y z
#    x 1.737540 0.000000 -0.015080 
#    y 0.000000 1.711120 0.000000 
#    z -0.015080 0.000000 1.733870 
# 
# From -- ./inp_files/165751.got.cif
#   From: 2010.05.17/outbox.cif.g08.bks.cpg/sg12_83_cif.got.tgz:165751.got - 2010.06.03 13:09:07.
