data_PCOD9195174
_publ_section_title
;
Structure prediction by ZEFSAII (Michael W. Deem and Ramdas Pophale) SiO2 
 PCOD9195174
Probable space group: C 2/M
;
_chemical_formula_sum "Si O2"
_cell_formula_units_Z 48
_cell_length_a 20.118755
_cell_length_b 7.686086
_cell_length_c 15.842165
_cell_angle_alpha 90.000000
_cell_angle_beta 78.954479
_cell_angle_gamma 90.000000
_cell_volume 2404.364119
_symmetry_space_group_name_H-M "C 2/M"
_symmetry_group_IT_number 12
_symmetry_cell_setting 'monoclinic'
loop_
_space_group_symop_operation_xyz
x,y,z
-x,y,-z
-x,-y,-z
x,-y,z
1/2+x,1/2+y,z
1/2-x,1/2+y,-z
1/2-x,1/2-y,-z
1/2+x,1/2-y,z
loop_
_atom_site_type_symbol
_atom_site_label
_atom_site_fract_x
_atom_site_fract_y
_atom_site_fract_z
Si Si1 0.682560 0.291824 0.463241
Si Si2 0.191759 0.297509 0.267457
Si Si3 0.451991 0.790668 0.753943
Si Si4 0.159277 0.209451 0.780223
Si Si5 0.083707 0.791019 0.629115
Si Si6 0.473067 0.209037 0.095927
O O1 0.678307 0.500000 0.453690
O O2 0.750000 0.250000 0.500000
O O3 0.686665 0.211166 0.369972
O O4 0.618817 0.229779 0.534757
O O5 0.193059 0.500000 0.241312
O O6 0.122775 0.220835 0.246536
O O7 0.264951 0.221648 0.225509
O O8 0.506017 0.752031 0.667035
O O9 0.484459 0.724567 0.833605
O O10 0.448220 0.000000 0.760367
O O11 0.127053 0.274185 0.699484
O O12 0.105120 0.251038 0.865474
O O13 0.163513 0.000000 0.771814
O O14 0.089341 0.000000 0.627383
O O15 0.480139 0.000000 0.093676
O O16 0.500000 0.275631 0.000000
#
# Coordination Sequence:
#
# PCOD9195174 Si02
#       6
#     8   8   8   8   8   8
#     4  11  21  33  51  75 103 137 177 215 252 294
#     4  10  20  35  51  73 105 136 171 212 255 300
#     4   9  19  34  53  74 100 136 170 207 257 306
#     4   9  17  32  52  72  98 132 168 205 250 303
#     4   9  18  33  50  70  99 134 171 211 249 291
#     4   9  18  34  55  78 101 127 166 211 253 305
#
# _framework density 19.963698999999998
#
# number of rings (size 3 to 8) (size 9 to 14) (size 15 to 20)
#    0.000    2.500    1.667    0.500    0.000    3.667 
#    0.000    4.167    0.000    0.000    0.000    0.000 
#    0.000    0.000    0.000    0.000    0.000    0.000 
#
# Total GULP energy -133901.088154 kJ/mol
# GULP energy per Si atom -5579.212006 kJ/mol
# Density = 1.991826 g / cm^3
# Si number density = 19.963699 Si / 1000 Ang^3
#
#
#
# Elastic Constant Matrix: (Units=GPa)
#
#
# Indices 1 2 3 4 5 6 
#
# 1 191.5842 -3.0239 71.3244 0.0000 -20.3512 0.0000
# 2 -3.0239 34.5435 -9.2308 0.0000 0.6635 0.0000
# 3 71.3244 -9.2308 92.7559 0.0000 -29.6242 0.0000
# 4 0.0000 0.0000 0.0000 14.9442 0.0000 -5.5143
# 5 -20.3512 0.6635 -29.6242 0.0000 27.6776 0.0000
# 6 0.0000 0.0000 0.0000 -5.5143 0.0000 18.3220
#
#
#
# Elastic Compliance Matrix: (Units=1/GPa)
#
#
# Indices 1 2 3 4 5 6 
#
# 1 0.007362 -0.000967 -0.006109 0.000000 -0.001103 0.000000
# 2 -0.000967 0.030123 0.004989 0.000000 0.003907 0.000000
# 3 -0.006109 0.004989 0.022034 0.000000 0.018973 0.000000
# 4 0.000000 0.000000 0.000000 0.075275 0.000000 0.022655
# 5 -0.001103 0.003907 0.018973 0.000000 0.055533 0.000000
# 6 0.000000 0.000000 0.000000 0.022655 0.000000 0.061398
#
#
# Mechanical properties :
#
#
# Convention : Reuss Voigt Hill
#
# Bulk Modulus (GPa) = 18.06859 48.55808 33.31334
# Shear Modulus (GPa) = 18.22513 29.50969 23.86741
#
# Velocity S-wave (km/s) = 3.02472 3.84887 3.46141
# Velocity P-wave (km/s) = 4.61183 6.64287 5.71824
#
# Compressibility (1/GPa) = 0.05534467
#
# Stress axis : x y z
#
# Youngs Moduli (GPa) = 135.84070 33.19774 45.38351
#
# Poissons Ratio (x) = 0.03210 0.27725
# Poissons Ratio (y) = 0.13134 -0.22642
# Poissons Ratio (z) = 0.82985 -0.16562
#
# Static dielectric constant tensor:
#      x y z
#    x 1.726820 0.000000 -0.003070 
#    y 0.000000 1.756640 0.000000 
#    z -0.003070 0.000000 1.685220 
# 
# From -- ./inp_files/221638.got.cif
#   From: 2010.05.17/outbox.cif.g08.bks.cpg/sg12_111_cif.got.tgz:221638.got - 2010.06.03 13:09:07.
