data_PCOD9195143
_publ_section_title
;
Structure prediction by ZEFSAII (Michael W. Deem and Ramdas Pophale) SiO2 
 PCOD9195143
Probable space group: C 2/M
;
_chemical_formula_sum "Si O2"
_cell_formula_units_Z 40
_cell_length_a 15.028488
_cell_length_b 32.134147
_cell_length_c 5.257974
_cell_angle_alpha 90.000000
_cell_angle_beta 115.884982
_cell_angle_gamma 90.000000
_cell_volume 2284.466634
_symmetry_space_group_name_H-M "C 2/M"
_symmetry_group_IT_number 12
_symmetry_cell_setting 'monoclinic'
loop_
_space_group_symop_operation_xyz
x,y,z
-x,y,-z
-x,-y,-z
x,-y,z
1/2+x,1/2+y,z
1/2-x,1/2+y,-z
1/2-x,1/2-y,-z
1/2+x,1/2-y,z
loop_
_atom_site_type_symbol
_atom_site_label
_atom_site_fract_x
_atom_site_fract_y
_atom_site_fract_z
Si Si1 0.334400 0.637297 0.680578
Si Si2 0.885501 0.910593 0.261625
Si Si3 0.867498 0.738370 0.122450
Si Si4 0.000000 0.804140 0.000000
Si Si5 0.179245 0.291158 0.433893
Si Si6 0.930424 0.000000 0.167238
O O1 0.327788 0.604088 0.443257
O O2 0.241745 0.668171 0.575156
O O3 0.359553 0.618276 0.988112
O O4 0.427450 0.667603 0.741974
O O5 0.000000 0.908438 0.500000
O O6 0.870942 0.957139 0.130556
O O7 0.893021 0.720986 0.429288
O O8 0.750000 0.750000 0.000000
O O9 0.931053 0.776585 0.096965
O O10 0.871351 0.704999 0.901520
O O11 0.250000 0.250000 0.500000
O O12 0.000000 0.000000 0.500000
O O13 0.000000 0.000000 0.000000
#
# Coordination Sequence:
#
# PCOD9195143 Si02
#       6
#     8   8   8   4   8   4
#     4  12  22  31  50  71  90 120 172 213 231 274
#     4  11  21  32  47  69  89 120 161 205 247 284
#     4  10  21  34  46  64  91 130 156 208 250 280
#     4  12  22  32  52  69  96 128 178 219 232 276
#     4  10  20  35  45  63  97 123 151 209 247 282
#     4  10  20  36  46  62  96 126 148 201 260 297
#
# _framework density 17.509557999999998
#
# number of rings (size 3 to 8) (size 9 to 14) (size 15 to 20)
#    0.000    1.200    6.000    3.600    2.800    2.400 
#    0.000    0.000    0.000    0.000    0.000    0.000 
#    0.000    0.000    0.000    0.000    0.000   70.000 
#
# Total GULP energy -111471.531473 kJ/mol
# GULP energy per Si atom -5573.576574 kJ/mol
# Density = 1.746970 g / cm^3
# Si number density = 17.509558 Si / 1000 Ang^3
#
#
#
# Elastic Constant Matrix: (Units=GPa)
#
#
# Indices 1 2 3 4 5 6 
#
# 1 66.3937 27.3425 25.7500 0.0000 -20.0859 0.0000
# 2 27.3425 95.7443 33.1487 0.0000 -9.0277 0.0000
# 3 25.7500 33.1487 106.9967 0.0000 -41.0284 0.0000
# 4 0.0000 0.0000 0.0000 21.7742 0.0000 -1.9900
# 5 -20.0859 -9.0277 -41.0284 0.0000 30.8734 0.0000
# 6 0.0000 0.0000 0.0000 -1.9900 0.0000 22.7288
#
#
#
# Elastic Compliance Matrix: (Units=1/GPa)
#
#
# Indices 1 2 3 4 5 6 
#
# 1 0.020980 -0.005420 0.002562 0.000000 0.015469 0.000000
# 2 -0.005420 0.013223 -0.005428 0.000000 -0.006872 0.000000
# 3 0.002562 -0.005428 0.021291 0.000000 0.028374 0.000000
# 4 0.000000 0.000000 0.000000 0.046296 0.000000 0.004053
# 5 0.015469 -0.006872 0.028374 0.000000 0.078151 0.000000
# 6 0.000000 0.000000 0.000000 0.004053 0.000000 0.044352
#
#
# Mechanical properties :
#
#
# Convention : Reuss Voigt Hill
#
# Bulk Modulus (GPa) = 25.69186 49.06856 37.38021
# Shear Modulus (GPa) = 19.69749 27.26820 23.48285
#
# Velocity S-wave (km/s) = 3.35768 3.95059 3.66614
# Velocity P-wave (km/s) = 5.45315 6.99244 6.27021
#
# Compressibility (1/GPa) = 0.03892284
#
# Stress axis : x y z
#
# Youngs Moduli (GPa) = 47.66480 75.62335 46.96776
#
# Poissons Ratio (x) = 0.40986 -0.12031
# Poissons Ratio (y) = 0.25833 0.25492
# Poissons Ratio (z) = -0.12210 0.41046
#
# Static dielectric constant tensor:
#      x y z
#    x 1.604380 0.000000 -0.045410 
#    y 0.000000 1.645870 0.000000 
#    z -0.045410 0.000000 1.646910 
# 
# From -- ./inp_files/12692.got.cif
#   From: 2010.05.17/outbox.cif.g08.bks.cpg/sg12_7_cif.got.tgz:12692.got - 2010.06.03 13:09:07.
