data_PCOD9195573
_publ_section_title
;
Structure prediction by ZEFSAII (Michael W. Deem and Ramdas Pophale) SiO2 
 PCOD9195573
Probable space group: C 2/M
;
_chemical_formula_sum "Si O2"
_cell_formula_units_Z 48
_cell_length_a 18.805286
_cell_length_b 9.016504
_cell_length_c 24.635480
_cell_angle_alpha 90.000000
_cell_angle_beta 139.689469
_cell_angle_gamma 90.000000
_cell_volume 2702.317706
_symmetry_space_group_name_H-M "C 2/M"
_symmetry_group_IT_number 12
_symmetry_cell_setting 'monoclinic'
loop_
_space_group_symop_operation_xyz
x,y,z
-x,y,-z
-x,-y,-z
x,-y,z
1/2+x,1/2+y,z
1/2-x,1/2+y,-z
1/2-x,1/2-y,-z
1/2+x,1/2-y,z
loop_
_atom_site_type_symbol
_atom_site_label
_atom_site_fract_x
_atom_site_fract_y
_atom_site_fract_z
Si Si1 0.923018 0.675799 0.504384
Si Si2 0.130585 0.822794 0.421054
Si Si3 0.630278 0.329523 0.090897
Si Si4 0.574532 0.175533 0.164229
Si Si5 0.836374 0.821205 0.009333
Si Si6 0.832866 0.174754 0.676239
O O1 0.940556 0.500000 0.523213
O O2 0.941669 0.759136 0.572074
O O3 0.796244 0.694949 0.412347
O O4 0.000000 0.726042 0.500000
O O5 0.250000 0.750000 0.500000
O O6 0.102468 0.788724 0.342045
O O7 0.140059 0.000000 0.430858
O O8 0.658669 0.500000 0.120592
O O9 0.642198 0.228913 0.150610
O O10 0.500000 0.327414 0.000000
O O11 0.688117 0.284565 0.068331
O O12 0.456597 0.256722 0.092442
O O13 0.631830 0.227794 0.252671
O O14 0.559173 0.000000 0.153720
O O15 0.838299 0.000000 0.014620
O O16 0.750000 0.750000 0.000000
O O17 0.849981 0.000000 0.698394
#
# Coordination Sequence:
#
# PCOD9195573 Si02
#       6
#     8   8   8   8   8   8
#     4   9  18  33  53  76 101 131 166 205 251 300
#     4   9  17  30  50  73  97 130 168 205 247 296
#     4   8  16  32  52  72  97 131 165 199 245 298
#     4  11  21  32  51  77 102 132 170 208 246 291
#     4  10  20  35  55  77 102 132 166 205 250 298
#     4   9  18  33  51  71  99 134 168 205 251 298
#
# _framework density 17.762530000000002
#
# number of rings (size 3 to 8) (size 9 to 14) (size 15 to 20)
#    0.000    2.667    0.000    4.500    0.000    7.333 
#    0.000    1.667    0.000    6.000    0.000    0.000 
#    0.000    0.000    0.000    0.000    0.000    0.000 
#
# Total GULP energy -133743.114824 kJ/mol
# GULP energy per Si atom -5572.629784 kJ/mol
# Density = 1.772210 g / cm^3
# Si number density = 17.762530 Si / 1000 Ang^3
#
#
#
# Elastic Constant Matrix: (Units=GPa)
#
#
# Indices 1 2 3 4 5 6 
#
# 1 139.6593 56.2932 38.3677 0.0000 -46.0411 0.0000
# 2 56.2932 83.7343 50.0282 0.0000 -31.8462 0.0000
# 3 38.3677 50.0282 59.0321 0.0000 -36.9595 0.0000
# 4 0.0000 0.0000 0.0000 23.5353 0.0000 -7.4687
# 5 -46.0411 -31.8462 -36.9595 0.0000 31.4424 0.0000
# 6 0.0000 0.0000 0.0000 -7.4687 0.0000 31.0955
#
#
#
# Elastic Compliance Matrix: (Units=1/GPa)
#
#
# Indices 1 2 3 4 5 6 
#
# 1 0.022631 -0.012266 0.032780 0.000000 0.059246 0.000000
# 2 -0.012266 0.030860 -0.037329 0.000000 -0.030585 0.000000
# 3 0.032780 -0.037329 0.127441 0.000000 0.159994 0.000000
# 4 0.000000 0.000000 0.000000 0.045995 0.000000 0.011047
# 5 0.059246 -0.030585 0.159994 0.000000 0.275648 0.000000
# 6 0.000000 0.000000 0.000000 0.011047 0.000000 0.034812
#
#
# Mechanical properties :
#
#
# Convention : Reuss Voigt Hill
#
# Bulk Modulus (GPa) = 6.78885 63.53375 35.16130
# Shear Modulus (GPa) = 8.06299 26.39710 17.23005
#
# Velocity S-wave (km/s) = 2.13288 3.85919 3.11790
# Velocity P-wave (km/s) = 3.14577 7.46350 5.72712
#
# Compressibility (1/GPa) = 0.14730037
#
# Stress axis : x y z
#
# Youngs Moduli (GPa) = 44.18806 32.40473 7.84677
#
# Poissons Ratio (x) = 0.39749 -0.25722
# Poissons Ratio (y) = 0.54203 0.29291
# Poissons Ratio (z) = -1.44850 1.20965
#
# Static dielectric constant tensor:
#      x y z
#    x 1.644380 0.000000 -0.023320 
#    y 0.000000 1.590510 0.000000 
#    z -0.023320 0.000000 1.597750 
# 
# From -- ./inp_files/313608.got.cif
#   From: 2010.05.17/outbox.cif.g08.bks.cpg/sg12_157_cif.got.tgz:313608.got - 2010.06.03 13:09:07.
