data_PCOD9195896
_publ_section_title
;
Structure prediction by ZEFSAII (Michael W. Deem and Ramdas Pophale) SiO2 
 PCOD9195896
Probable space group: C 2/M
;
_chemical_formula_sum "Si O2"
_cell_formula_units_Z 64
_cell_length_a 9.524083
_cell_length_b 19.613536
_cell_length_c 21.855638
_cell_angle_alpha 90.000000
_cell_angle_beta 121.957319
_cell_angle_gamma 90.000000
_cell_volume 3463.897471
_symmetry_space_group_name_H-M "C 2/M"
_symmetry_group_IT_number 12
_symmetry_cell_setting 'monoclinic'
loop_
_space_group_symop_operation_xyz
x,y,z
-x,y,-z
-x,-y,-z
x,-y,z
1/2+x,1/2+y,z
1/2-x,1/2+y,-z
1/2-x,1/2-y,-z
1/2+x,1/2-y,z
loop_
_atom_site_type_symbol
_atom_site_label
_atom_site_fract_x
_atom_site_fract_y
_atom_site_fract_z
Si Si1 0.542178 0.307253 0.438741
Si Si2 0.391700 0.080397 0.316215
Si Si3 0.893870 0.651741 0.536959
Si Si4 0.407519 0.320499 0.753641
Si Si5 0.773478 0.329745 0.070096
Si Si6 0.994745 0.580839 0.796566
Si Si7 0.800362 0.818403 0.277252
Si Si8 0.031013 0.192291 0.911779
O O1 0.500000 0.305297 0.500000
O O2 0.704858 0.353100 0.471999
O O3 0.584740 0.228768 0.431215
O O4 0.391212 0.330686 0.362695
O O5 0.538792 0.101488 0.395994
O O6 0.230139 0.124236 0.296542
O O7 0.441288 0.097370 0.257557
O O8 0.359840 0.000000 0.312533
O O9 0.000000 0.645497 0.500000
O O10 0.308621 0.250029 0.742008
O O11 0.552236 0.310663 0.737757
O O12 0.489513 0.340429 0.837234
O O13 0.897190 0.267683 0.084034
O O14 0.636059 0.304390 0.087055
O O15 0.873635 0.390366 0.124425
O O16 0.669378 0.345255 0.984774
O O17 0.975842 0.500000 0.796833
O O18 0.823592 0.620664 0.766891
#
# Coordination Sequence:
#
# PCOD9195896 Si02
#       8
#     8   8   8   8   8   8   8   8
#     4  10  21  34  57  86 119 149 196 255 301 354
#     4  11  23  40  62  85 123 164 203 250 303 367
#     4  10  20  35  55  85 117 152 195 246 304 357
#     4  12  22  38  61  94 121 153 205 248 306 351
#     4  10  20  37  60  93 122 153 192 247 300 355
#     4  11  24  42  60  86 122 165 206 247 304 358
#     4  12  24  37  65  90 121 161 199 261 299 360
#     4  10  20  35  61  94 121 149 193 245 299 349
#
# _framework density 18.476298
#
# number of rings (size 3 to 8) (size 9 to 14) (size 15 to 20)
#    0.000    1.250    3.750    3.000    3.500    0.750 
#    0.000    2.500    0.000    3.000    0.000    0.000 
#    0.000    0.000    0.000    0.000    0.000    0.000 
#
# Total GULP energy -178752.859269 kJ/mol
# GULP energy per Si atom -5586.026852 kJ/mol
# Density = 1.843424 g / cm^3
# Si number density = 18.476298 Si / 1000 Ang^3
#
#
#
# Elastic Constant Matrix: (Units=GPa)
#
#
# Indices 1 2 3 4 5 6 
#
# 1 107.0738 41.7082 31.2998 0.0000 6.7286 0.0000
# 2 41.7082 71.3970 32.9495 0.0000 7.5615 0.0000
# 3 31.2998 32.9495 127.9994 0.0000 8.0108 0.0000
# 4 0.0000 0.0000 0.0000 23.8546 0.0000 1.4208
# 5 6.7286 7.5615 8.0108 0.0000 28.0794 0.0000
# 6 0.0000 0.0000 0.0000 1.4208 0.0000 10.8743
#
#
#
# Elastic Compliance Matrix: (Units=1/GPa)
#
#
# Indices 1 2 3 4 5 6 
#
# 1 0.012300 -0.006506 -0.001281 0.000000 -0.000830 0.000000
# 2 -0.006506 0.019618 -0.003285 0.000000 -0.002787 0.000000
# 3 -0.001281 -0.003285 0.009058 0.000000 -0.001393 0.000000
# 4 0.000000 0.000000 0.000000 0.042249 0.000000 -0.005520
# 5 -0.000830 -0.002787 -0.001393 0.000000 0.036960 0.000000
# 6 0.000000 0.000000 0.000000 -0.005520 0.000000 0.092681
#
#
# Mechanical properties :
#
#
# Convention : Reuss Voigt Hill
#
# Bulk Modulus (GPa) = 53.09900 57.59835 55.34867
# Shear Modulus (GPa) = 20.72201 25.92918 23.32560
#
# Velocity S-wave (km/s) = 3.35258 3.75023 3.55697
# Velocity P-wave (km/s) = 6.61723 7.07065 6.84770
#
# Compressibility (1/GPa) = 0.01883275
#
# Stress axis : x y z
#
# Youngs Moduli (GPa) = 81.29799 50.97339 110.39387
#
# Poissons Ratio (x) = 0.33166 0.14141
# Poissons Ratio (y) = 0.52897 0.36260
# Poissons Ratio (z) = 0.10414 0.16743
#
# Static dielectric constant tensor:
#      x y z
#    x 1.611610 0.000000 -0.002820 
#    y 0.000000 1.608150 0.000000 
#    z -0.002820 0.000000 1.658990 
# 
# From -- ./inp_files/301774.got.cif
#   From: 2010.05.17/outbox.cif.g08.bks.cpg/sg12_151_cif.got.tgz:301774.got - 2010.06.03 13:09:07.
