data_PCOD9195447
_publ_section_title
;
Structure prediction by ZEFSAII (Michael W. Deem and Ramdas Pophale) SiO2 
 PCOD9195447
Probable space group: C 2/M
;
_chemical_formula_sum "Si O2"
_cell_formula_units_Z 48
_cell_length_a 25.084388
_cell_length_b 11.559597
_cell_length_c 13.906850
_cell_angle_alpha 90.000000
_cell_angle_beta 147.139140
_cell_angle_gamma 90.000000
_cell_volume 2188.040578
_symmetry_space_group_name_H-M "C 2/M"
_symmetry_group_IT_number 12
_symmetry_cell_setting 'monoclinic'
loop_
_space_group_symop_operation_xyz
x,y,z
-x,y,-z
-x,-y,-z
x,-y,z
1/2+x,1/2+y,z
1/2-x,1/2+y,-z
1/2-x,1/2-y,-z
1/2+x,1/2-y,z
loop_
_atom_site_type_symbol
_atom_site_label
_atom_site_fract_x
_atom_site_fract_y
_atom_site_fract_z
Si Si1 0.364634 0.870858 0.945773
Si Si2 0.295951 0.868498 0.116694
Si Si3 0.881943 0.371712 0.752073
Si Si4 0.213529 0.311094 0.681893
Si Si5 0.494250 0.136682 0.315928
Si Si6 0.328679 0.373688 0.660243
O O1 0.407034 0.872079 0.902801
O O2 0.261335 0.810977 0.778234
O O3 0.349599 0.000000 0.955961
O O4 0.437550 0.819683 0.134851
O O5 0.274895 0.873233 0.198202
O O6 0.412964 0.853425 0.275917
O O7 0.270408 0.000000 0.040329
O O8 0.250000 0.750000 0.000000
O O9 0.913311 0.500000 0.759608
O O10 0.763143 0.374088 0.553190
O O11 0.897328 0.237525 0.745098
O O12 0.275286 0.359944 0.684456
O O13 0.099108 0.305161 0.485262
O O14 0.517601 0.000000 0.343321
O O15 0.376872 0.500000 0.729169
#
# Coordination Sequence:
#
# PCOD9195447 Si02
#       6
#     8   8   8   8   8   8
#     4   9  18  34  55  77 108 144 177 213 262 316
#     4  11  22  37  56  79 105 139 177 219 267 318
#     4   8  15  28  47  71 103 140 171 205 256 312
#     4  11  20  33  56  79 105 137 178 221 264 309
#     4  10  20  35  54  78 105 138 178 218 262 316
#     4   9  16  27  46  76 104 130 171 218 257 299
#
# _framework density 21.937436999999999
#
# number of rings (size 3 to 8) (size 9 to 14) (size 15 to 20)
#    0.000    2.333    1.667    2.000    0.000    1.333 
#    0.000    1.667    0.000    6.000    0.000    0.000 
#    0.000   23.333    0.000    0.000    0.000    0.000 
#
# Total GULP energy -133677.484353 kJ/mol
# GULP energy per Si atom -5569.895181 kJ/mol
# Density = 2.188751 g / cm^3
# Si number density = 21.937437 Si / 1000 Ang^3
#
#
#
# Elastic Constant Matrix: (Units=GPa)
#
#
# Indices 1 2 3 4 5 6 
#
# 1 99.1784 21.4896 18.3144 0.0000 -4.7775 0.0000
# 2 21.4896 163.5913 48.5278 0.0000 17.1159 0.0000
# 3 18.3144 48.5278 102.6371 0.0000 2.8831 0.0000
# 4 0.0000 0.0000 0.0000 19.4816 0.0000 -3.4201
# 5 -4.7775 17.1159 2.8831 0.0000 40.2977 0.0000
# 6 0.0000 0.0000 0.0000 -3.4201 0.0000 16.5940
#
#
#
# Elastic Compliance Matrix: (Units=1/GPa)
#
#
# Indices 1 2 3 4 5 6 
#
# 1 0.010688 -0.001184 -0.001400 0.000000 0.001870 0.000000
# 2 -0.001184 0.007568 -0.003279 0.000000 -0.003120 0.000000
# 3 -0.001400 -0.003279 0.011532 0.000000 0.000402 0.000000
# 4 0.000000 0.000000 0.000000 0.053258 0.000000 0.010977
# 5 0.001870 -0.003120 0.000402 0.000000 0.026334 0.000000
# 6 0.000000 0.000000 0.000000 0.010977 0.000000 0.062525
#
#
# Mechanical properties :
#
#
# Convention : Reuss Voigt Hill
#
# Bulk Modulus (GPa) = 55.36744 60.23002 57.79873
# Shear Modulus (GPa) = 26.36432 33.74633 30.05533
#
# Velocity S-wave (km/s) = 3.47045 3.92637 3.70543
# Velocity P-wave (km/s) = 6.43058 6.93326 6.68665
#
# Compressibility (1/GPa) = 0.01806116
#
# Stress axis : x y z
#
# Youngs Moduli (GPa) = 93.56249 132.14391 86.71625
#
# Poissons Ratio (x) = 0.15652 0.12137
# Poissons Ratio (y) = 0.11082 0.28434
# Poissons Ratio (z) = 0.13096 0.43330
#
# Static dielectric constant tensor:
#      x y z
#    x 1.875870 0.000000 -0.023960 
#    y 0.000000 1.917280 0.000000 
#    z -0.023960 0.000000 1.819170 
# 
# From -- ./inp_files/212514.got.cif
#   From: 2010.05.17/outbox.cif.g08.bks.cpg/sg12_107_cif.got.tgz:212514.got - 2010.06.03 13:09:07.
