data_PCOD9195243
_publ_section_title
;
Structure prediction by ZEFSAII (Michael W. Deem and Ramdas Pophale) SiO2 
 PCOD9195243
Probable space group: C 2/M
;
_chemical_formula_sum "Si O2"
_cell_formula_units_Z 64
_cell_length_a 25.151772
_cell_length_b 7.882223
_cell_length_c 14.543733
_cell_angle_alpha 90.000000
_cell_angle_beta 103.158981
_cell_angle_gamma 90.000000
_cell_volume 2807.612454
_symmetry_space_group_name_H-M "C 2/M"
_symmetry_group_IT_number 12
_symmetry_cell_setting 'monoclinic'
loop_
_space_group_symop_operation_xyz
x,y,z
-x,y,-z
-x,-y,-z
x,-y,z
1/2+x,1/2+y,z
1/2-x,1/2+y,-z
1/2-x,1/2-y,-z
1/2+x,1/2-y,z
loop_
_atom_site_type_symbol
_atom_site_label
_atom_site_fract_x
_atom_site_fract_y
_atom_site_fract_z
Si Si1 0.103556 0.197254 0.631898
Si Si2 0.610554 0.704415 0.429262
Si Si3 0.610410 0.202990 0.979391
Si Si4 0.846420 0.698435 0.736098
Si Si5 0.660345 0.197472 0.820041
Si Si6 0.778480 0.703119 0.873807
Si Si7 0.503632 0.707471 0.714783
Si Si8 0.455897 0.306445 0.877642
O O1 0.113588 0.268941 0.534761
O O2 0.154184 0.210251 0.720751
O O3 0.053990 0.270568 0.673493
O O4 0.089325 0.000000 0.611086
O O5 0.615593 0.500000 0.430714
O O6 0.653750 0.772813 0.372352
O O7 0.551247 0.747933 0.363723
O O8 0.666745 0.257753 0.051672
O O9 0.560168 0.243008 0.027015
O O10 0.612402 0.000000 0.973938
O O11 0.618251 0.270577 0.879273
O O12 0.857642 0.500000 0.760246
O O13 0.792984 0.743294 0.773112
O O14 0.897951 0.796858 0.799769
O O15 0.721936 0.214843 0.880492
O O16 0.648966 0.000000 0.800620
O O17 0.772898 0.500000 0.882267
O O18 0.506672 0.500000 0.721944
O O19 0.495960 0.774747 0.816564
O O20 0.472424 0.500000 0.894482
#
# Coordination Sequence:
#
# PCOD9195243 Si02
#       8
#     8   8   8   8   8   8   8   8
#     4  10  20  35  53  72 101 138 171 208 251 293
#     4   9  17  31  54  80 101 128 170 211 247 292
#     4   9  19  35  53  75 103 132 163 204 254 302
#     4   9  17  30  50  77 107 132 157 200 255 303
#     4  11  23  36  50  72 103 135 168 208 252 299
#     4   9  18  34  55  76  97 127 167 205 248 301
#     4   8  15  30  53  79 102 127 165 210 250 289
#     4   9  16  28  51  80 103 126 164 209 248 292
#
# _framework density 22.795168
#
# number of rings (size 3 to 8) (size 9 to 14) (size 15 to 20)
#    0.000    2.750    0.000    3.375    0.000    5.500 
#    0.000    4.375    0.000    7.500    0.000    0.000 
#    0.000    0.000    0.000    0.000    0.000    0.000 
#
# Total GULP energy -178549.022964 kJ/mol
# GULP energy per Si atom -5579.656968 kJ/mol
# Density = 2.274329 g / cm^3
# Si number density = 22.795168 Si / 1000 Ang^3
#
#
#
# Elastic Constant Matrix: (Units=GPa)
#
#
# Indices 1 2 3 4 5 6 
#
# 1 87.3299 -0.8611 31.5770 0.0000 -22.4032 0.0000
# 2 -0.8611 29.7255 11.8002 0.0000 -6.1281 0.0000
# 3 31.5770 11.8002 154.3660 0.0000 -38.6153 0.0000
# 4 0.0000 0.0000 0.0000 16.9749 0.0000 -8.8380
# 5 -22.4032 -6.1281 -38.6153 0.0000 34.4337 0.0000
# 6 0.0000 0.0000 0.0000 -8.8380 0.0000 16.3275
#
#
#
# Elastic Compliance Matrix: (Units=1/GPa)
#
#
# Indices 1 2 3 4 5 6 
#
# 1 0.013996 0.002529 -0.000925 0.000000 0.008518 0.000000
# 2 0.002529 0.035648 -0.001729 0.000000 0.006051 0.000000
# 3 -0.000925 -0.001729 0.009135 0.000000 0.009334 0.000000
# 4 0.000000 0.000000 0.000000 0.082028 0.000000 0.044401
# 5 0.008518 0.006051 0.009334 0.000000 0.046128 0.000000
# 6 0.000000 0.000000 0.000000 0.044401 0.000000 0.085280
#
#
# Mechanical properties :
#
#
# Convention : Reuss Voigt Hill
#
# Bulk Modulus (GPa) = 17.08596 39.60597 28.34596
# Shear Modulus (GPa) = 17.12483 28.80758 22.96620
#
# Velocity S-wave (km/s) = 2.74386 3.55879 3.17756
# Velocity P-wave (km/s) = 4.18928 5.85655 5.09162
#
# Compressibility (1/GPa) = 0.05852760
#
# Stress axis : x y z
#
# Youngs Moduli (GPa) = 71.45123 28.05204 109.47495
#
# Poissons Ratio (x) = -0.07094 0.10131
# Poissons Ratio (y) = -0.18069 0.18925
# Poissons Ratio (z) = 0.06612 0.04849
#
# Static dielectric constant tensor:
#      x y z
#    x 1.869340 0.000000 -0.022250 
#    y 0.000000 1.826580 0.000000 
#    z -0.022250 0.000000 1.902450 
# 
# From -- ./inp_files/244072.got.cif
#   From: 2010.05.17/outbox.cif.g08.bks.cpg/sg12_123_cif.got.tgz:244072.got - 2010.06.03 13:09:07.
