data_PCOD9195132
_publ_section_title
;
Structure prediction by ZEFSAII (Michael W. Deem and Ramdas Pophale) SiO2 
 PCOD9195132
Probable space group: C 2/M
;
_chemical_formula_sum "Si O2"
_cell_formula_units_Z 42
_cell_length_a 17.704979
_cell_length_b 17.748511
_cell_length_c 6.119335
_cell_angle_alpha 90.000000
_cell_angle_beta 115.629851
_cell_angle_gamma 90.000000
_cell_volume 1733.720094
_symmetry_space_group_name_H-M "C 2/M"
_symmetry_group_IT_number 12
_symmetry_cell_setting 'monoclinic'
loop_
_space_group_symop_operation_xyz
x,y,z
-x,y,-z
-x,-y,-z
x,-y,z
1/2+x,1/2+y,z
1/2-x,1/2+y,-z
1/2-x,1/2-y,-z
1/2+x,1/2-y,z
loop_
_atom_site_type_symbol
_atom_site_label
_atom_site_fract_x
_atom_site_fract_y
_atom_site_fract_z
Si Si1 0.718869 0.820691 0.649786
Si Si2 0.196351 0.917409 0.598067
Si Si3 0.636022 0.916407 0.921407
Si Si4 0.000000 0.000000 0.000000
Si Si5 0.127240 0.270816 0.130072
Si Si6 0.060075 0.137281 0.767416
O O1 0.788520 0.865021 0.591193
O O2 0.678849 0.881462 0.759998
O O3 0.774814 0.751156 0.808700
O O4 0.643619 0.788661 0.404947
O O5 0.141053 0.887756 0.728103
O O6 0.163766 0.000000 0.484611
O O7 0.288858 0.925205 0.811500
O O8 0.598449 0.000000 0.841349
O O9 0.589146 0.845137 0.967423
O O10 0.976855 0.066082 0.152802
O O11 0.078713 0.201632 0.965913
O O12 0.000000 0.165618 0.500000
#
# Coordination Sequence:
#
# PCOD9195132 Si02
#       6
#     8   8   8   2   8   8
#     4  10  20  34  65  91 122 165 201 252 324 381
#     4  10  21  36  57  90 127 165 204 255 305 372
#     4  10  20  37  62  96 125 157 197 260 327 382
#     4  12  30  48  60  90 122 188 230 244 298 350
#     4  10  23  38  60  90 125 162 208 259 314 376
#     4  12  27  42  61  86 126 173 221 257 295 366
#
# _framework density 24.225363999999999
#
# number of rings (size 3 to 8) (size 9 to 14) (size 15 to 20)
#    0.000    1.524    2.857    1.429    8.000    0.762 
#    0.000    0.000    0.000    0.571    0.000    2.000 
#    0.000    0.000    0.000    0.000    0.000    0.000 
#
# Total GULP energy -116975.171177 kJ/mol
# GULP energy per Si atom -5570.246247 kJ/mol
# Density = 2.417023 g / cm^3
# Si number density = 24.225364 Si / 1000 Ang^3
#
#
#
# Elastic Constant Matrix: (Units=GPa)
#
#
# Indices 1 2 3 4 5 6 
#
# 1 45.1401 16.7416 18.7138 0.0000 -13.0896 0.0000
# 2 16.7416 206.6628 55.1578 0.0000 4.6234 0.0000
# 3 18.7138 55.1578 95.5157 0.0000 0.5386 0.0000
# 4 0.0000 0.0000 0.0000 22.2264 0.0000 -5.8866
# 5 -13.0896 4.6234 0.5386 0.0000 29.4572 0.0000
# 6 0.0000 0.0000 0.0000 -5.8866 0.0000 8.9769
#
#
#
# Elastic Compliance Matrix: (Units=1/GPa)
#
#
# Indices 1 2 3 4 5 6 
#
# 1 0.028403 -0.001283 -0.004897 0.000000 0.012912 0.000000
# 2 -0.001283 0.005799 -0.003089 0.000000 -0.001424 0.000000
# 3 -0.004897 -0.003089 0.013224 0.000000 -0.001933 0.000000
# 4 0.000000 0.000000 0.000000 0.054447 0.000000 0.035704
# 5 0.012912 -0.001424 -0.001933 0.000000 0.039944 0.000000
# 6 0.000000 0.000000 0.000000 0.035704 0.000000 0.134810
#
#
# Mechanical properties :
#
#
# Convention : Reuss Voigt Hill
#
# Bulk Modulus (GPa) = 34.61647 58.72723 46.67185
# Shear Modulus (GPa) = 16.40445 29.24580 22.82512
#
# Velocity S-wave (km/s) = 2.60505 3.47830 3.07286
# Velocity P-wave (km/s) = 4.83413 6.35815 5.64778
#
# Compressibility (1/GPa) = 0.02888798
#
# Stress axis : x y z
#
# Youngs Moduli (GPa) = 35.20703 172.43899 75.62065
#
# Poissons Ratio (x) = 0.22121 0.37031
# Poissons Ratio (y) = 0.04516 0.23363
# Poissons Ratio (z) = 0.17241 0.53275
#
# Static dielectric constant tensor:
#      x y z
#    x 2.050690 0.000000 0.032330 
#    y 0.000000 2.132670 0.000000 
#    z 0.032330 0.000000 1.946990 
# 
# From -- ./inp_files/20527.got.cif
#   From: 2010.05.17/outbox.cif.g08.bks.cpg/sg12_11_cif.got.tgz:20527.got - 2010.06.03 13:09:07.
