data_PCOD9195762
_publ_section_title
;
Structure prediction by ZEFSAII (Michael W. Deem and Ramdas Pophale) SiO2 
 PCOD9195762
Probable space group: C 2/M
;
_chemical_formula_sum "Si O2"
_cell_formula_units_Z 40
_cell_length_a 27.344829
_cell_length_b 8.937536
_cell_length_c 9.954492
_cell_angle_alpha 90.000000
_cell_angle_beta 68.626418
_cell_angle_gamma 90.000000
_cell_volume 2265.511427
_symmetry_space_group_name_H-M "C 2/M"
_symmetry_group_IT_number 12
_symmetry_cell_setting 'monoclinic'
loop_
_space_group_symop_operation_xyz
x,y,z
-x,y,-z
-x,-y,-z
x,-y,z
1/2+x,1/2+y,z
1/2-x,1/2+y,-z
1/2-x,1/2-y,-z
1/2+x,1/2-y,z
loop_
_atom_site_type_symbol
_atom_site_label
_atom_site_fract_x
_atom_site_fract_y
_atom_site_fract_z
Si Si1 0.210890 0.821459 0.645494
Si Si2 0.911645 0.320576 0.948756
Si Si3 0.709879 0.820950 0.936011
Si Si4 0.912025 0.177954 0.238482
Si Si5 0.996748 0.680660 0.347569
O O1 0.250000 0.750000 0.500000
O O2 0.221058 0.747166 0.779084
O O3 0.149650 0.791614 0.673718
O O4 0.217896 0.000000 0.645648
O O5 0.915093 0.500000 0.964571
O O6 0.951679 0.278072 0.790830
O O7 0.851300 0.284505 0.972654
O O8 0.924639 0.244170 0.078182
O O9 0.715054 0.000000 0.929055
O O10 0.750000 0.750000 0.000000
O O11 0.947884 0.251093 0.316254
O O12 0.919870 0.000000 0.227922
O O13 0.992489 0.500000 0.350221
O O14 0.000000 0.728124 0.500000
#
# Coordination Sequence:
#
# PCOD9195762 Si02
#       5
#     8   8   8   8   8
#     4  10  21  37  56  80 109 141 179 221 269 324
#     4   9  19  36  56  77 104 142 183 217 256 314
#     4  10  20  35  55  80 110 144 183 225 268 315
#     4  10  21  36  55  80 107 137 175 219 266 314
#     4  10  21  36  54  78 107 140 178 218 262 313
#
# _framework density 17.656056
#
# number of rings (size 3 to 8) (size 9 to 14) (size 15 to 20)
#    0.000    2.200    0.000    2.400    0.000    8.400 
#    0.000    2.000    0.000    0.000    0.000    0.000 
#    0.000    0.000    0.000    0.000    0.000    0.000 
#
# Total GULP energy -111663.216714 kJ/mol
# GULP energy per Si atom -5583.160836 kJ/mol
# Density = 1.761587 g / cm^3
# Si number density = 17.656056 Si / 1000 Ang^3
#
#
#
# Elastic Constant Matrix: (Units=GPa)
#
#
# Indices 1 2 3 4 5 6 
#
# 1 141.0187 68.1114 126.4090 0.0000 23.6825 0.0000
# 2 68.1114 52.4048 70.1330 0.0000 3.3507 0.0000
# 3 126.4090 70.1330 183.1834 0.0000 1.0982 0.0000
# 4 0.0000 0.0000 0.0000 26.1018 0.0000 6.4872
# 5 23.6825 3.3507 1.0982 0.0000 31.5899 0.0000
# 6 0.0000 0.0000 0.0000 6.4872 0.0000 33.9751
#
#
#
# Elastic Compliance Matrix: (Units=1/GPa)
#
#
# Indices 1 2 3 4 5 6 
#
# 1 0.040140 -0.027925 -0.016849 0.000000 -0.026545 0.000000
# 2 -0.027925 0.058980 -0.003400 0.000000 0.014797 0.000000
# 3 -0.016849 -0.003400 0.018314 0.000000 0.012356 0.000000
# 4 0.000000 0.000000 0.000000 0.040220 0.000000 -0.007680
# 5 -0.026545 0.014797 0.012356 0.000000 0.049557 0.000000
# 6 0.000000 0.000000 0.000000 -0.007680 0.000000 0.030900
#
#
# Mechanical properties :
#
#
# Convention : Reuss Voigt Hill
#
# Bulk Modulus (GPa) = 47.42293 100.65707 74.04000
# Shear Modulus (GPa) = 14.64182 25.79693 20.21937
#
# Velocity S-wave (km/s) = 2.88285 3.82656 3.38772
# Velocity P-wave (km/s) = 6.16431 8.75540 7.57152
#
# Compressibility (1/GPa) = 0.02108684
#
# Stress axis : x y z
#
# Youngs Moduli (GPa) = 24.91254 16.95488 54.60376
#
# Poissons Ratio (x) = 0.47346 0.92004
# Poissons Ratio (y) = 0.69567 0.18564
# Poissons Ratio (z) = 0.41976 0.05764
#
# Static dielectric constant tensor:
#      x y z
#    x 1.592700 0.000000 -0.020660 
#    y 0.000000 1.585670 0.000000 
#    z -0.020660 0.000000 1.557490 
# 
# From -- ./inp_files/92813.got.cif
#   From: 2010.05.17/outbox.cif.g08.bks.cpg/sg12_47_cif.got.tgz:92813.got - 2010.06.03 13:09:07.
