data_PCOD9195304
_publ_section_title
;
Structure prediction by ZEFSAII (Michael W. Deem and Ramdas Pophale) SiO2 
 PCOD9195304
Probable space group: C 2/M
;
_chemical_formula_sum "Si O2"
_cell_formula_units_Z 56
_cell_length_a 29.634536
_cell_length_b 8.902890
_cell_length_c 14.594111
_cell_angle_alpha 90.000000
_cell_angle_beta 59.858555
_cell_angle_gamma 90.000000
_cell_volume 3329.788527
_symmetry_space_group_name_H-M "C 2/M"
_symmetry_group_IT_number 12
_symmetry_cell_setting 'monoclinic'
loop_
_space_group_symop_operation_xyz
x,y,z
-x,y,-z
-x,-y,-z
x,-y,z
1/2+x,1/2+y,z
1/2-x,1/2+y,-z
1/2-x,1/2-y,-z
1/2+x,1/2-y,z
loop_
_atom_site_type_symbol
_atom_site_label
_atom_site_fract_x
_atom_site_fract_y
_atom_site_fract_z
Si Si1 0.771991 0.822013 0.243230
Si Si2 0.195866 0.820417 0.591380
Si Si3 0.995191 0.681050 0.611641
Si Si4 0.901680 0.825314 0.428030
Si Si5 0.665914 0.671324 0.322262
Si Si6 0.701602 0.321096 0.992625
Si Si7 0.117589 0.677871 0.200825
O O1 0.807475 0.795766 0.295947
O O2 0.720675 0.722074 0.307695
O O3 0.758273 0.000000 0.258021
O O4 0.793759 0.786972 0.120242
O O5 0.250000 0.750000 0.500000
O O6 0.143939 0.765809 0.592227
O O7 0.198984 0.000000 0.571229
O O8 0.995049 0.500000 0.609573
O O9 0.044376 0.737680 0.619334
O O10 0.000000 0.732222 0.500000
O O11 0.940708 0.729752 0.713293
O O12 0.876635 0.820585 0.554856
O O13 0.911700 0.000000 0.394533
O O14 0.668560 0.500000 0.285028
O O15 0.651716 0.783285 0.255541
O O16 0.704445 0.500000 0.001124
O O17 0.647587 0.259517 0.088457
O O18 0.750000 0.250000 0.000000
O O19 0.117010 0.500000 0.185414
#
# Coordination Sequence:
#
# PCOD9195304 Si02
#       7
#     8   8   8   8   8   8   8
#     4  10  21  35  53  75 107 145 178 212 259 316
#     4  10  20  35  53  78 108 141 176 215 261 314
#     4  10  21  36  54  76 104 140 178 215 263 321
#     4  10  21  34  51  79 111 139 174 217 263 312
#     4  11  20  30  50  80 111 140 173 214 259 314
#     4  11  22  35  53  79 107 141 179 219 265 314
#     4  11  22  36  53  76 107 143 179 216 263 317
#
# _framework density 16.817885
#
# number of rings (size 3 to 8) (size 9 to 14) (size 15 to 20)
#    0.000    1.571    4.286    1.286    0.000    3.143 
#    0.000    0.000    0.000    0.857    0.000    6.000 
#    0.000    0.000    0.000    0.000    0.000    0.000 
#
# Total GULP energy -156211.614584 kJ/mol
# GULP energy per Si atom -5578.986235 kJ/mol
# Density = 1.677961 g / cm^3
# Si number density = 16.817885 Si / 1000 Ang^3
#
#
#
# Elastic Constant Matrix: (Units=GPa)
#
#
# Indices 1 2 3 4 5 6 
#
# 1 99.0944 16.6450 36.9928 0.0000 -3.4870 0.0000
# 2 16.6450 22.6722 29.2380 0.0000 -4.1528 0.0000
# 3 36.9928 29.2380 87.4150 0.0000 -4.5494 0.0000
# 4 0.0000 0.0000 0.0000 21.3072 0.0000 -3.6991
# 5 -3.4870 -4.1528 -4.5494 0.0000 29.0049 0.0000
# 6 0.0000 0.0000 0.0000 -3.6991 0.0000 26.9918
#
#
#
# Elastic Compliance Matrix: (Units=1/GPa)
#
#
# Indices 1 2 3 4 5 6 
#
# 1 0.012194 -0.003980 -0.003814 0.000000 0.000298 0.000000
# 2 -0.003980 0.080336 -0.024815 0.000000 0.007131 0.000000
# 3 -0.003814 -0.024815 0.021319 0.000000 -0.000668 0.000000
# 4 0.000000 0.000000 0.000000 0.048076 0.000000 0.006589
# 5 0.000298 0.007131 -0.000668 0.000000 0.035429 0.000000
# 6 0.000000 0.000000 0.000000 0.006589 0.000000 0.037951
#
#
# Mechanical properties :
#
#
# Convention : Reuss Voigt Hill
#
# Bulk Modulus (GPa) = 20.56244 41.65921 31.11082
# Shear Modulus (GPa) = 15.78614 23.88117 19.83365
#
# Velocity S-wave (km/s) = 3.06707 3.77236 3.43785
# Velocity P-wave (km/s) = 4.97952 6.61807 5.85638
#
# Compressibility (1/GPa) = 0.04863237
#
# Stress axis : x y z
#
# Youngs Moduli (GPa) = 82.00728 12.44767 46.90675
#
# Poissons Ratio (x) = 0.04954 0.17889
# Poissons Ratio (y) = 0.32635 1.16400
# Poissons Ratio (z) = 0.31276 0.30889
#
# Static dielectric constant tensor:
#      x y z
#    x 1.561430 0.000000 0.008100 
#    y 0.000000 1.572700 0.000000 
#    z 0.008100 0.000000 1.574590 
# 
# From -- ./inp_files/243638.got.cif
#   From: 2010.05.17/outbox.cif.g08.bks.cpg/sg12_122_cif.got.tgz:243638.got - 2010.06.03 13:09:07.
