data_PCOD9195701
_publ_section_title
;
Structure prediction by ZEFSAII (Michael W. Deem and Ramdas Pophale) SiO2 
 PCOD9195701
Probable space group: C 2/M
;
_chemical_formula_sum "Si O2"
_cell_formula_units_Z 56
_cell_length_a 18.400571
_cell_length_b 8.388525
_cell_length_c 19.123972
_cell_angle_alpha 90.000000
_cell_angle_beta 76.190471
_cell_angle_gamma 90.000000
_cell_volume 2866.530318
_symmetry_space_group_name_H-M "C 2/M"
_symmetry_group_IT_number 12
_symmetry_cell_setting 'monoclinic'
loop_
_space_group_symop_operation_xyz
x,y,z
-x,y,-z
-x,-y,-z
x,-y,z
1/2+x,1/2+y,z
1/2-x,1/2+y,-z
1/2-x,1/2-y,-z
1/2+x,1/2-y,z
loop_
_atom_site_type_symbol
_atom_site_label
_atom_site_fract_x
_atom_site_fract_y
_atom_site_fract_z
Si Si1 0.867733 0.808834 0.358390
Si Si2 0.916382 0.308897 0.499598
Si Si3 0.202285 0.191221 0.359157
Si Si4 0.654248 0.305384 0.215292
Si Si5 0.486853 0.692697 0.214533
Si Si6 0.726751 0.192759 0.928837
Si Si7 0.559399 0.192770 0.927906
O O1 0.893006 0.750395 0.428567
O O2 0.784886 0.749720 0.359452
O O3 0.926573 0.753063 0.285942
O O4 0.867630 0.000000 0.358586
O O5 0.916050 0.500000 0.499525
O O6 0.857299 0.249860 0.570398
O O7 0.000000 0.252998 0.500000
O O8 0.178817 0.246539 0.286916
O O9 0.202305 0.000000 0.359293
O O10 0.654328 0.500000 0.215381
O O11 0.570378 0.253231 0.215663
O O12 0.713511 0.253293 0.143063
O O13 0.487084 0.500000 0.214753
O O14 0.464229 0.749742 0.143029
O O15 0.643111 0.246528 0.928242
O O16 0.726791 0.000000 0.928754
O O17 0.750000 0.250000 0.000000
O O18 0.559341 0.000000 0.927690
O O19 0.500000 0.246683 0.000000
#
# Coordination Sequence:
#
# PCOD9195701 Si02
#       7
#     8   8   8   8   8   8   8
#     4  11  23  39  59  85 117 150 190 238 287 343
#     4  11  24  41  61  87 118 151 190 236 285 339
#     4  11  22  39  63  86 114 153 192 233 285 341
#     4   9  19  36  57  81 109 144 186 230 279 335
#     4  10  21  37  58  83 110 144 188 235 280 333
#     4  10  20  35  55  79 109 144 184 228 274 330
#     4  10  21  36  54  80 114 149 185 229 284 342
#
# _framework density 19.535813999999998
#
# number of rings (size 3 to 8) (size 9 to 14) (size 15 to 20)
#    0.000    1.714    0.000    4.286    0.000    5.429 
#    0.000    2.857    0.000    0.000    0.000    0.000 
#    0.000    0.000    0.000    0.000    0.000    0.000 
#
# Total GULP energy -156551.181828 kJ/mol
# GULP energy per Si atom -5591.113637 kJ/mol
# Density = 1.949135 g / cm^3
# Si number density = 19.535814 Si / 1000 Ang^3
#
#
#
# Elastic Constant Matrix: (Units=GPa)
#
#
# Indices 1 2 3 4 5 6 
#
# 1 248.7576 31.6575 152.2085 0.0000 -1.0246 0.0000
# 2 31.6575 23.7347 29.4643 0.0000 -2.4148 0.0000
# 3 152.2085 29.4643 246.3264 0.0000 -1.5915 0.0000
# 4 0.0000 0.0000 0.0000 19.2097 0.0000 12.8440
# 5 -1.0246 -2.4148 -1.5915 0.0000 47.2224 0.0000
# 6 0.0000 0.0000 0.0000 12.8440 0.0000 2.3274
#
#
#
# Elastic Compliance Matrix: (Units=1/GPa)
#
#
# Indices 1 2 3 4 5 6 
#
# 1 0.006863 -0.004591 -0.003693 0.000000 -0.000210 0.000000
# 2 -0.004591 0.052809 -0.003464 0.000000 0.002484 0.000000
# 3 -0.003693 -0.003464 0.006756 0.000000 -0.000030 0.000000
# 4 0.000000 0.000000 0.000000 -0.019353 0.000000 0.106802
# 5 -0.000210 0.002484 -0.000030 0.000000 0.021298 0.000000
# 6 0.000000 0.000000 0.000000 0.106802 0.000000 -0.159735
#
#
# Mechanical properties :
#
#
# Convention : Reuss Voigt Hill
#
# Bulk Modulus (GPa) = 23.29272 105.05328 64.17300
# Shear Modulus (GPa) = -93.35791 34.11778 -29.62006
#
# Velocity S-wave (km/s) = -6.92039 4.18356 -3.89806
# Velocity P-wave (km/s) = 7.20464 8.78793 3.55815
#
# Compressibility (1/GPa) = 0.04293186
#
# Stress axis : x y z
#
# Youngs Moduli (GPa) = 145.70918 18.93632 148.02258
#
# Poissons Ratio (x) = 0.08693 0.54664
# Poissons Ratio (y) = 0.66893 0.51273
# Poissons Ratio (z) = 0.53810 0.06559
#
# Static dielectric constant tensor:
#      x y z
#    x 1.656070 0.000000 -0.015000 
#    y 0.000000 1.674300 0.000000 
#    z -0.015000 0.000000 1.642500 
# 
# From -- ./inp_files/275060.got.cif
#   From: 2010.05.17/outbox.cif.g08.bks.cpg/sg12_138_cif.got.tgz:275060.got - 2010.06.03 13:09:07.
