data_PCOD9195797
_publ_section_title
;
Structure prediction by ZEFSAII (Michael W. Deem and Ramdas Pophale) SiO2 
 PCOD9195797
Probable space group: C 2/M
;
_chemical_formula_sum "Si O2"
_cell_formula_units_Z 40
_cell_length_a 7.308193
_cell_length_b 21.291636
_cell_length_c 18.456699
_cell_angle_alpha 90.000000
_cell_angle_beta 147.666444
_cell_angle_gamma 90.000000
_cell_volume 1536.041237
_symmetry_space_group_name_H-M "C 2/M"
_symmetry_group_IT_number 12
_symmetry_cell_setting 'monoclinic'
loop_
_space_group_symop_operation_xyz
x,y,z
-x,y,-z
-x,-y,-z
x,-y,z
1/2+x,1/2+y,z
1/2-x,1/2+y,-z
1/2-x,1/2-y,-z
1/2+x,1/2-y,z
loop_
_atom_site_type_symbol
_atom_site_label
_atom_site_fract_x
_atom_site_fract_y
_atom_site_fract_z
Si Si1 0.707471 0.811811 0.170494
Si Si2 0.708466 0.334534 0.463405
Si Si3 0.203539 0.681818 0.747867
Si Si4 0.327169 0.068055 0.057365
Si Si5 0.788758 0.569245 0.672936
O O1 0.671903 0.736159 0.155566
O O2 0.406082 0.861767 0.054298
O O3 0.861777 0.816011 0.304397
O O4 0.005563 0.828565 0.214225
O O5 0.589216 0.401161 0.456952
O O6 0.000000 0.338626 0.500000
O O7 0.865965 0.299078 0.585865
O O8 0.077836 0.617411 0.741305
O O9 0.643674 0.062672 0.218349
O O10 0.303409 0.000000 0.008948
O O11 0.000000 0.069911 0.000000
O O12 0.829708 0.500000 0.655536
#
# Coordination Sequence:
#
# PCOD9195797 Si02
#       5
#     8   8   8   8   8
#     4  10  20  35  55  81 110 143 184 224 265 321
#     4   9  19  33  53  80 110 146 182 219 266 321
#     4  11  21  34  53  80 114 147 180 220 268 319
#     4   9  19  39  63  82 105 139 178 224 277 326
#     4  10  21  36  54  80 112 144 183 226 269 321
#
# _framework density 26.040966000000001
#
# number of rings (size 3 to 8) (size 9 to 14) (size 15 to 20)
#    0.000    2.200    0.000    3.600    0.000    6.000 
#    0.000    9.000    0.000    3.600    0.000    0.000 
#    0.000    0.000    0.000    0.000    0.000    0.000 
#
# Total GULP energy -111497.967457 kJ/mol
# GULP energy per Si atom -5574.898373 kJ/mol
# Density = 2.598170 g / cm^3
# Si number density = 26.040966 Si / 1000 Ang^3
#
#
#
# Elastic Constant Matrix: (Units=GPa)
#
#
# Indices 1 2 3 4 5 6 
#
# 1 75.5021 30.6262 2.7517 -0.0001 12.9097 0.0001
# 2 30.6262 215.6794 35.2479 -0.0002 16.4447 -0.0001
# 3 2.7517 35.2479 65.4899 0.0014 -5.2706 -0.0010
# 4 -0.0001 -0.0002 0.0014 9.3752 0.0001 6.3392
# 5 12.9097 16.4447 -5.2706 0.0001 49.8432 -0.0001
# 6 0.0001 -0.0001 -0.0010 6.3392 -0.0001 25.5486
#
#
#
# Elastic Compliance Matrix: (Units=1/GPa)
#
#
# Indices 1 2 3 4 5 6 
#
# 1 0.014525 -0.001844 0.000130 0.000000 -0.003140 0.000000
# 2 -0.001844 0.005520 -0.003027 0.000001 -0.001664 0.000000
# 3 0.000130 -0.003027 0.017117 -0.000004 0.002775 0.000002
# 4 0.000000 0.000001 -0.000004 0.128168 -0.000001 -0.031802
# 5 -0.003140 -0.001664 0.002775 -0.000001 0.021718 0.000000
# 6 0.000000 0.000000 0.000002 -0.031802 0.000000 0.047032
#
#
# Mechanical properties :
#
#
# Convention : Reuss Voigt Hill
#
# Bulk Modulus (GPa) = 36.13019 54.88032 45.50526
# Shear Modulus (GPa) = 19.77926 36.15644 27.96785
#
# Velocity S-wave (km/s) = 2.75897 3.73023 3.28074
# Velocity P-wave (km/s) = 4.90446 6.29866 5.64477
#
# Compressibility (1/GPa) = 0.02767768
#
# Stress axis : x y z
#
# Youngs Moduli (GPa) = 68.84715 181.15938 58.42212
#
# Poissons Ratio (x) = 0.33411 -0.00757
# Poissons Ratio (y) = 0.12698 0.17686
# Poissons Ratio (z) = -0.00893 0.54844
#
# Static dielectric constant tensor:
#      x y z
#    x 2.014320 0.000000 -0.106510 
#    y 0.000000 2.287510 0.000000 
#    z -0.106510 0.000000 2.148830 
# 
# From -- ./inp_files/118871.got.cif
#   From: 2010.05.17/outbox.cif.g08.bks.cpg/sg12_60_cif.got.tgz:118871.got - 2010.06.03 13:09:07.
