data_PCOD9195482
_publ_section_title
;
Structure prediction by ZEFSAII (Michael W. Deem and Ramdas Pophale) SiO2 
 PCOD9195482
Probable space group: C 2/M
;
_chemical_formula_sum "Si O2"
_cell_formula_units_Z 48
_cell_length_a 24.335183
_cell_length_b 8.520964
_cell_length_c 12.988343
_cell_angle_alpha 90.000000
_cell_angle_beta 89.429955
_cell_angle_gamma 90.000000
_cell_volume 2693.119355
_symmetry_space_group_name_H-M "C 2/M"
_symmetry_group_IT_number 12
_symmetry_cell_setting 'monoclinic'
loop_
_space_group_symop_operation_xyz
x,y,z
-x,y,-z
-x,-y,-z
x,-y,z
1/2+x,1/2+y,z
1/2-x,1/2+y,-z
1/2-x,1/2-y,-z
1/2+x,1/2-y,z
loop_
_atom_site_type_symbol
_atom_site_label
_atom_site_fract_x
_atom_site_fract_y
_atom_site_fract_z
Si Si1 0.633755 0.187939 0.689830
Si Si2 0.060391 0.189706 0.875110
Si Si3 0.062809 0.691402 0.493225
Si Si4 0.435241 0.311022 0.887810
Si Si5 0.749437 0.311869 0.617126
Si Si6 0.633955 0.189353 0.296219
O O1 0.602552 0.241233 0.792828
O O2 0.597490 0.240566 0.592145
O O3 0.694513 0.255621 0.674546
O O4 0.636975 0.000000 0.687076
O O5 0.997161 0.238846 0.854478
O O6 0.062275 0.000000 0.869948
O O7 0.072829 0.236067 0.992962
O O8 0.062291 0.500000 0.492949
O O9 0.093417 0.742081 0.388909
O O10 0.000000 0.745309 0.500000
O O11 0.434599 0.500000 0.885421
O O12 0.390123 0.247824 0.810702
O O13 0.750222 0.500000 0.612739
O O14 0.750000 0.250000 0.500000
O O15 0.804645 0.258937 0.675043
O O16 0.633742 0.000000 0.295256
#
# Coordination Sequence:
#
# PCOD9195482 Si02
#       6
#     8   8   8   8   8   8
#     4  11  21  35  56  82 110 144 188 228 272 328
#     4   9  19  37  57  81 114 148 180 222 279 329
#     4   9  17  30  49  76 110 140 168 215 274 324
#     4   9  19  36  58  82 112 147 182 224 274 330
#     4  11  22  38  57  78 110 150 187 228 275 325
#     4  10  20  35  54  79 110 144 183 225 273 326
#
# _framework density 17.823198000000001
#
# number of rings (size 3 to 8) (size 9 to 14) (size 15 to 20)
#    0.000    2.167    1.667    3.000    0.000    4.000 
#    0.000    2.500    0.000    3.500    0.000    0.000 
#    0.000    0.000    0.000    0.000    0.000    0.000 
#
# Total GULP energy -133969.608748 kJ/mol
# GULP energy per Si atom -5582.067031 kJ/mol
# Density = 1.778263 g / cm^3
# Si number density = 17.823198 Si / 1000 Ang^3
#
#
#
# Elastic Constant Matrix: (Units=GPa)
#
#
# Indices 1 2 3 4 5 6 
#
# 1 144.6651 24.4734 72.5754 0.0000 26.7168 0.0000
# 2 24.4734 21.8169 20.7926 0.0000 4.8636 0.0000
# 3 72.5754 20.7926 106.4984 0.0000 19.2416 0.0000
# 4 0.0000 0.0000 0.0000 29.0095 0.0000 0.5825
# 5 26.7168 4.8636 19.2416 0.0000 28.3223 0.0000
# 6 0.0000 0.0000 0.0000 0.5825 0.0000 21.7768
#
#
#
# Elastic Compliance Matrix: (Units=1/GPa)
#
#
# Indices 1 2 3 4 5 6 
#
# 1 0.012129 -0.006642 -0.005822 0.000000 -0.006345 0.000000
# 2 -0.006642 0.060109 -0.007382 0.000000 0.000959 0.000000
# 3 -0.005822 -0.007382 0.015477 0.000000 -0.003755 0.000000
# 4 0.000000 0.000000 0.000000 0.034490 0.000000 -0.000923
# 5 -0.006345 0.000959 -0.003755 0.000000 0.043680 0.000000
# 6 0.000000 0.000000 0.000000 -0.000923 0.000000 0.045945
#
#
# Mechanical properties :
#
#
# Convention : Reuss Voigt Hill
#
# Bulk Modulus (GPa) = 20.82405 56.51814 38.67110
# Shear Modulus (GPa) = 18.68941 26.16433 22.42687
#
# Velocity S-wave (km/s) = 3.24172 3.83560 3.55110
# Velocity P-wave (km/s) = 5.07156 7.16903 6.20950
#
# Compressibility (1/GPa) = 0.04802139
#
# Stress axis : x y z
#
# Youngs Moduli (GPa) = 82.44723 16.63641 64.61096
#
# Poissons Ratio (x) = 0.11051 0.37618
# Poissons Ratio (y) = 0.54765 0.47698
# Poissons Ratio (z) = 0.48003 0.12282
#
# Static dielectric constant tensor:
#      x y z
#    x 1.597140 0.000000 0.006690 
#    y 0.000000 1.615020 0.000000 
#    z 0.006690 0.000000 1.585450 
# 
# From -- ./inp_files/172026.got.cif
#   From: 2010.05.17/outbox.cif.g08.bks.cpg/sg12_87_cif.got.tgz:172026.got - 2010.06.03 13:09:07.
