data_PCOD9195638
_publ_section_title
;
Structure prediction by ZEFSAII (Michael W. Deem and Ramdas Pophale) SiO2 
 PCOD9195638
Probable space group: C 2/M
;
_chemical_formula_sum "Si O2"
_cell_formula_units_Z 48
_cell_length_a 31.567156
_cell_length_b 7.638915
_cell_length_c 18.417929
_cell_angle_alpha 90.000000
_cell_angle_beta 149.778663
_cell_angle_gamma 90.000000
_cell_volume 2235.480568
_symmetry_space_group_name_H-M "C 2/M"
_symmetry_group_IT_number 12
_symmetry_cell_setting 'monoclinic'
loop_
_space_group_symop_operation_xyz
x,y,z
-x,y,-z
-x,-y,-z
x,-y,z
1/2+x,1/2+y,z
1/2-x,1/2+y,-z
1/2-x,1/2-y,-z
1/2+x,1/2-y,z
loop_
_atom_site_type_symbol
_atom_site_label
_atom_site_fract_x
_atom_site_fract_y
_atom_site_fract_z
Si Si1 0.671279 0.714450 0.592601
Si Si2 0.664325 0.708786 0.915790
Si Si3 0.009984 0.796073 0.095483
Si Si4 0.334407 0.710322 0.581481
Si Si5 0.000776 0.785892 0.584732
Si Si6 0.159975 0.704547 0.078076
O O1 0.671906 0.500000 0.594804
O O2 0.671633 0.774562 0.509949
O O3 0.585096 0.769043 0.503500
O O4 0.754364 0.773128 0.758500
O O5 0.657015 0.500000 0.910393
O O6 0.583420 0.773116 0.750659
O O7 0.750000 0.750000 0.000000
O O8 0.664655 0.777520 0.998334
O O9 0.085262 0.719461 0.255357
O O10 0.032832 0.000000 0.118328
O O11 0.923223 0.788296 0.011134
O O12 0.000000 0.718461 0.000000
O O13 0.343415 0.500000 0.589099
O O14 0.250000 0.750000 0.500000
O O15 0.000000 0.729697 0.500000
O O16 0.002384 0.000000 0.587132
O O17 0.153751 0.500000 0.087087
#
# Coordination Sequence:
#
# PCOD9195638 Si02
#       6
#     8   8   8   8   8   8
#     4   9  18  33  53  78 106 139 181 223 264 316
#     4  11  22  37  59  84 112 145 181 225 276 328
#     4  10  21  37  57  82 113 147 182 225 280 334
#     4  10  20  35  55  78 107 143 183 226 270 320
#     4   9  17  32  56  81 104 136 178 219 262 319
#     4  11  22  36  57  83 111 144 184 229 273 322
#
# _framework density 21.471893999999999
#
# number of rings (size 3 to 8) (size 9 to 14) (size 15 to 20)
#    0.000    2.000    0.000    4.000    0.000    6.333 
#    0.000    0.833    0.000   13.000    0.000    0.000 
#    0.000    0.000    0.000    0.000    0.000    0.000 
#
# Total GULP energy -134165.110021 kJ/mol
# GULP energy per Si atom -5590.212918 kJ/mol
# Density = 2.142302 g / cm^3
# Si number density = 21.471894 Si / 1000 Ang^3
#
#
#
# Elastic Constant Matrix: (Units=GPa)
#
#
# Indices 1 2 3 4 5 6 
#
# 1 199.3399 -20.4300 123.2879 0.0000 -11.5513 0.0000
# 2 -20.4300 40.3157 -5.1364 0.0000 -6.4480 0.0000
# 3 123.2879 -5.1364 248.9731 0.0000 -9.3454 0.0000
# 4 0.0000 0.0000 0.0000 14.3272 0.0000 6.8853
# 5 -11.5513 -6.4480 -9.3454 0.0000 45.2391 0.0000
# 6 0.0000 0.0000 0.0000 6.8853 0.0000 24.3064
#
#
#
# Elastic Compliance Matrix: (Units=1/GPa)
#
#
# Indices 1 2 3 4 5 6 
#
# 1 0.007806 0.003763 -0.003722 0.000000 0.001761 0.000000
# 2 0.003763 0.027307 -0.001127 0.000000 0.004620 0.000000
# 3 -0.003722 -0.001127 0.005840 0.000000 0.000095 0.000000
# 4 0.000000 0.000000 0.000000 0.080797 0.000000 -0.022887
# 5 0.001761 0.004620 0.000095 0.000000 0.023233 0.000000
# 6 0.000000 0.000000 0.000000 -0.022887 0.000000 0.047625
#
#
# Mechanical properties :
#
#
# Convention : Reuss Voigt Hill
#
# Bulk Modulus (GPa) = 25.78515 76.00797 50.89656
# Shear Modulus (GPa) = 24.07268 42.83502 33.45385
#
# Velocity S-wave (km/s) = 3.35195 4.47131 3.95147
# Velocity P-wave (km/s) = 5.19766 7.88242 6.67638
#
# Compressibility (1/GPa) = 0.03878202
#
# Stress axis : x y z
#
# Youngs Moduli (GPa) = 128.10498 36.62112 171.23904
#
# Poissons Ratio (x) = -0.13781 0.63731
# Poissons Ratio (y) = -0.48208 0.19294
# Poissons Ratio (z) = 0.47677 0.04126
#
# Static dielectric constant tensor:
#      x y z
#    x 0.109360 0.000000 -0.129610 
#    y 0.000000 1.835320 0.000000 
#    z -0.129610 0.000000 1.751830 
# 
# From -- ./inp_files/274115.got.cif
#   From: 2010.05.17/outbox.cif.g08.bks.cpg/sg12_138_cif.got.tgz:274115.got - 2010.06.03 13:09:07.
