data_PCOD9195010
_publ_section_title
;
Structure prediction by ZEFSAII (Michael W. Deem and Ramdas Pophale) SiO2 
 PCOD9195010
Probable space group: C 2/M
;
_chemical_formula_sum "Si O2"
_cell_formula_units_Z 56
_cell_length_a 19.711045
_cell_length_b 16.300894
_cell_length_c 14.845668
_cell_angle_alpha 90.000000
_cell_angle_beta 33.667044
_cell_angle_gamma 90.000000
_cell_volume 2644.339725
_symmetry_space_group_name_H-M "C 2/M"
_symmetry_group_IT_number 12
_symmetry_cell_setting 'monoclinic'
loop_
_space_group_symop_operation_xyz
x,y,z
-x,y,-z
-x,-y,-z
x,-y,z
1/2+x,1/2+y,z
1/2-x,1/2+y,-z
1/2-x,1/2-y,-z
1/2+x,1/2-y,z
loop_
_atom_site_type_symbol
_atom_site_label
_atom_site_fract_x
_atom_site_fract_y
_atom_site_fract_z
Si Si1 0.321247 0.153743 0.515495
Si Si2 0.028039 0.096253 0.148716
Si Si3 0.772280 0.144001 0.203761
Si Si4 0.147608 0.176922 0.345934
Si Si5 0.298399 0.653769 0.517672
Si Si6 0.736195 0.345434 0.051607
Si Si7 0.929328 0.408664 0.716753
O O1 0.235285 0.112166 0.685652
O O2 0.286655 0.248737 0.544005
O O3 0.311715 0.120637 0.423823
O O4 0.455323 0.150620 0.411452
O O5 0.132169 0.111334 0.108270
O O6 0.911203 0.136740 0.325274
O O7 0.008148 0.000000 0.155566
O O8 0.094496 0.135257 0.987826
O O9 0.721206 0.236570 0.264671
O O10 0.671223 0.101582 0.250591
O O11 0.176710 0.127661 0.406567
O O12 0.198317 0.142515 0.196025
O O13 0.000000 0.187268 0.500000
O O14 0.750000 0.250000 0.000000
O O15 0.860537 0.389057 0.885307
O O16 0.979103 0.500000 0.657895
#
# Coordination Sequence:
#
# PCOD9195010 Si02
#       7
#     8   8   8   8   8   8   8
#     4  10  22  39  60  82 121 157 201 243 286 350
#     4  11  22  37  57  88 126 154 189 242 305 360
#     4  10  20  34  59  91 115 148 193 246 296 348
#     4  11  19  34  63  91 111 147 202 249 293 335
#     4  10  22  40  58  86 115 160 204 240 286 351
#     4  11  19  35  61  89 117 150 195 252 293 343
#     4  11  22  36  59  91 122 153 191 243 307 362
#
# _framework density 21.177309999999999
#
# number of rings (size 3 to 8) (size 9 to 14) (size 15 to 20)
#    0.000    1.429    4.286    4.714    0.000    2.857 
#    0.000    3.571    0.000    0.857    0.000    0.000 
#    0.000    0.000    0.000    0.000    0.000    0.000 
#
# Total GULP energy -155955.364144 kJ/mol
# GULP energy per Si atom -5569.834434 kJ/mol
# Density = 2.112911 g / cm^3
# Si number density = 21.177310 Si / 1000 Ang^3
#
#
#
# Elastic Constant Matrix: (Units=GPa)
#
#
# Indices 1 2 3 4 5 6 
#
# 1 105.5011 15.2697 52.4812 0.0000 40.9592 0.0000
# 2 15.2697 27.6943 13.7166 0.0000 9.6231 0.0000
# 3 52.4812 13.7166 119.0565 0.0000 37.3928 0.0000
# 4 0.0000 0.0000 0.0000 -29.4148 0.0000 -5.3546
# 5 40.9592 9.6231 37.3928 0.0000 35.6072 0.0000
# 6 0.0000 0.0000 0.0000 -5.3546 0.0000 -1.5861
#
#
#
# Elastic Compliance Matrix: (Units=1/GPa)
#
#
# Indices 1 2 3 4 5 6 
#
# 1 0.017639 -0.002669 -0.001972 0.000000 -0.017498 0.000000
# 2 -0.002669 0.040516 -0.001517 0.000000 -0.006287 0.000000
# 3 -0.001972 -0.001517 0.012836 0.000000 -0.010801 0.000000
# 4 0.000000 0.000000 0.000000 -0.088197 0.000000 0.297744
# 5 -0.017498 -0.006287 -0.010801 0.000000 0.061254 0.000000
# 6 0.000000 0.000000 0.000000 0.297744 0.000000 -1.635604
#
#
# Mechanical properties :
#
#
# Convention : Reuss Voigt Hill
#
# Bulk Modulus (GPa) = 17.04296 46.13187 31.58741
# Shear Modulus (GPa) = -3.20578 12.30689 4.55055
#
# Velocity S-wave (km/s) = -1.23169 2.41329 1.46746
# Velocity P-wave (km/s) = 2.45814 5.44024 4.22130
#
# Compressibility (1/GPa) = 0.05867524
#
# Stress axis : x y z
#
# Youngs Moduli (GPa) = 56.69133 24.68170 77.90692
#
# Poissons Ratio (x) = 0.06587 0.15366
# Poissons Ratio (y) = 0.15129 0.11818
# Poissons Ratio (z) = 0.11182 0.03744
#
# Static dielectric constant tensor:
#      x y z
#    x 2.411070 0.000000 -0.408460 
#    y 0.000000 1.823940 0.000000 
#    z -0.408460 0.000000 2.264450 
# 
# From -- ./inp_files/234645.got.cif
#   From: 2010.05.17/outbox.cif.g08.bks.cpg/sg12_118_cif.got.tgz:234645.got - 2010.06.03 13:09:07.
