data_PCOD9195445
_publ_section_title
;
Structure prediction by ZEFSAII (Michael W. Deem and Ramdas Pophale) SiO2 
 PCOD9195445
Probable space group: C 2/M
;
_chemical_formula_sum "Si O2"
_cell_formula_units_Z 48
_cell_length_a 32.347107
_cell_length_b 8.833324
_cell_length_c 9.587781
_cell_angle_alpha 90.000000
_cell_angle_beta 90.292199
_cell_angle_gamma 90.000000
_cell_volume 2739.504785
_symmetry_space_group_name_H-M "C 2/M"
_symmetry_group_IT_number 12
_symmetry_cell_setting 'monoclinic'
loop_
_space_group_symop_operation_xyz
x,y,z
-x,y,-z
-x,-y,-z
x,-y,z
1/2+x,1/2+y,z
1/2-x,1/2+y,-z
1/2-x,1/2-y,-z
1/2+x,1/2-y,z
loop_
_atom_site_type_symbol
_atom_site_label
_atom_site_fract_x
_atom_site_fract_y
_atom_site_fract_z
Si Si1 0.540666 0.317282 0.914916
Si Si2 0.038454 0.181660 0.590769
Si Si3 0.123265 0.674546 0.581525
Si Si4 0.372975 0.175449 0.079435
Si Si5 0.214397 0.683383 0.595649
Si Si6 0.713522 0.318739 0.906456
O O1 0.544561 0.500000 0.920386
O O2 0.534884 0.272121 0.752782
O O3 0.583606 0.245783 0.968297
O O4 0.500000 0.273278 0.000000
O O5 0.083003 0.234264 0.536541
O O6 0.000000 0.239388 0.500000
O O7 0.037546 0.000000 0.588117
O O8 0.117819 0.500000 0.541407
O O9 0.125148 0.681576 0.750904
O O10 0.168775 0.726257 0.536818
O O11 0.331580 0.265520 0.039532
O O12 0.369293 0.000000 0.038841
O O13 0.215909 0.500000 0.603182
O O14 0.250000 0.750000 0.500000
O O15 0.217974 0.751531 0.750645
O O16 0.715574 0.500000 0.903146
O O17 0.750000 0.250000 0.000000
#
# Coordination Sequence:
#
# PCOD9195445 Si02
#       6
#     8   8   8   8   8   8
#     4   9  17  30  48  69  94 125 161 200 244 294
#     4   9  17  29  46  68  92 120 156 196 238 286
#     4   8  16  30  48  69  94 125 162 200 237 287
#     4   9  17  31  50  72  97 127 166 206 245 297
#     4  10  20  35  54  78 105 135 172 212 255 304
#     4  11  21  35  55  78 104 135 171 212 258 308
#
# _framework density 17.521415000000001
#
# number of rings (size 3 to 8) (size 9 to 14) (size 15 to 20)
#    0.000    2.667    0.000    3.500    0.000    5.333 
#    0.000    1.667    0.000    6.000    0.000    0.000 
#    0.000    0.000    0.000    0.000    0.000    0.000 
#
# Total GULP energy -133753.226755 kJ/mol
# GULP energy per Si atom -5573.051115 kJ/mol
# Density = 1.748154 g / cm^3
# Si number density = 17.521415 Si / 1000 Ang^3
#
#
#
# Elastic Constant Matrix: (Units=GPa)
#
#
# Indices 1 2 3 4 5 6 
#
# 1 207.4268 68.9354 63.8383 0.0000 -3.2665 0.0000
# 2 68.9354 74.5251 28.7429 0.0000 3.4976 0.0000
# 3 63.8383 28.7429 38.9337 0.0000 0.8006 0.0000
# 4 0.0000 0.0000 0.0000 17.4508 0.0000 0.0090
# 5 -3.2665 3.4976 0.8006 0.0000 33.6262 0.0000
# 6 0.0000 0.0000 0.0000 0.0090 0.0000 35.5294
#
#
#
# Elastic Compliance Matrix: (Units=1/GPa)
#
#
# Indices 1 2 3 4 5 6 
#
# 1 0.010771 -0.004508 -0.014372 0.000000 0.001857 0.000000
# 2 -0.004508 0.020735 -0.007867 0.000000 -0.002407 0.000000
# 3 -0.014372 -0.007867 0.055097 0.000000 -0.001890 0.000000
# 4 0.000000 0.000000 0.000000 0.057304 0.000000 -0.000015
# 5 0.001857 -0.002407 -0.001890 0.000000 0.030215 0.000000
# 6 0.000000 0.000000 0.000000 -0.000015 0.000000 0.028146
#
#
# Mechanical properties :
#
#
# Convention : Reuss Voigt Hill
#
# Bulk Modulus (GPa) = 30.20262 71.54653 50.87457
# Shear Modulus (GPa) = 18.74082 27.94587 23.34335
#
# Velocity S-wave (km/s) = 3.27401 3.99802 3.65399
# Velocity P-wave (km/s) = 5.61847 7.88889 6.84842
#
# Compressibility (1/GPa) = 0.03310971
#
# Stress axis : x y z
#
# Youngs Moduli (GPa) = 92.83779 48.22747 18.14997
#
# Poissons Ratio (x) = 0.21740 0.26085
# Poissons Ratio (y) = 0.41849 0.14278
# Poissons Ratio (z) = 1.33426 0.37940
#
# Static dielectric constant tensor:
#      x y z
#    x 1.608270 0.000000 -0.003960 
#    y 0.000000 1.589100 0.000000 
#    z -0.003960 0.000000 1.587770 
# 
# From -- ./inp_files/179280.got.cif
#   From: 2010.05.17/outbox.cif.g08.bks.cpg/sg12_90_cif.got.tgz:179280.got - 2010.06.03 13:09:07.
