data_PCOD9195779
_publ_section_title
;
Structure prediction by ZEFSAII (Michael W. Deem and Ramdas Pophale) SiO2 
 PCOD9195779
Probable space group: C 2/M
;
_chemical_formula_sum "Si O2"
_cell_formula_units_Z 64
_cell_length_a 29.791669
_cell_length_b 7.682108
_cell_length_c 24.122909
_cell_angle_alpha 90.000000
_cell_angle_beta 30.530732
_cell_angle_gamma 90.000000
_cell_volume 2804.587633
_symmetry_space_group_name_H-M "C 2/M"
_symmetry_group_IT_number 12
_symmetry_cell_setting 'monoclinic'
loop_
_space_group_symop_operation_xyz
x,y,z
-x,y,-z
-x,-y,-z
x,-y,z
1/2+x,1/2+y,z
1/2-x,1/2+y,-z
1/2-x,1/2-y,-z
1/2+x,1/2-y,z
loop_
_atom_site_type_symbol
_atom_site_label
_atom_site_fract_x
_atom_site_fract_y
_atom_site_fract_z
Si Si1 0.055311 0.293889 0.822530
Si Si2 0.551250 0.789529 0.393046
Si Si3 0.721992 0.212651 0.712720
Si Si4 0.402444 0.708330 0.465106
Si Si5 0.529703 0.300123 0.722466
Si Si6 0.113270 0.699705 0.935152
Si Si7 0.271593 0.790853 0.831271
Si Si8 0.157006 0.706435 0.126247
O O1 0.052206 0.500000 0.835519
O O2 0.151680 0.237017 0.739895
O O3 0.039372 0.270391 0.774228
O O4 0.978144 0.220261 0.945217
O O5 0.500000 0.720393 0.500000
O O6 0.493260 0.741135 0.401470
O O7 0.653037 0.736361 0.291950
O O8 0.553145 0.000000 0.391185
O O9 0.818865 0.274692 0.589984
O O10 0.673233 0.275120 0.821346
O O11 0.727819 0.000000 0.710631
O O12 0.391768 0.500000 0.471865
O O13 0.415715 0.777430 0.387989
O O14 0.556667 0.500000 0.698166
O O15 0.427144 0.290774 0.813004
O O16 0.095431 0.500000 0.937675
O O17 0.178907 0.704759 0.917966
O O18 0.322457 0.741295 0.832891
O O19 0.257935 0.000000 0.846231
O O20 0.141018 0.500000 0.141971
O O21 0.250000 0.750000 0.000000
#
# Coordination Sequence:
#
# PCOD9195779 Si02
#       8
#     8   8   8   8   8   8   8   8
#     4  10  21  38  61  85 111 150 194 240 297 352
#     4  10  20  35  55  80 112 148 185 227 279 343
#     4   9  19  38  61  85 113 146 190 244 297 346
#     4  10  21  37  58  83 114 152 193 239 286 338
#     4  11  23  38  56  83 118 153 195 242 285 339
#     4  10  20  35  59  88 114 144 189 240 289 348
#     4  10  21  35  52  79 113 147 179 218 275 335
#     4  11  22  37  57  81 113 152 191 232 281 336
#
# _framework density 22.819754
#
# number of rings (size 3 to 8) (size 9 to 14) (size 15 to 20)
#    0.000    1.875    1.250    2.625    0.000    6.750 
#    0.000    1.250    0.000    1.500    0.000    0.000 
#    0.000    0.000    0.000    0.000    0.000    0.000 
#
# Total GULP energy -178545.840967 kJ/mol
# GULP energy per Si atom -5579.557530 kJ/mol
# Density = 2.276782 g / cm^3
# Si number density = 22.819754 Si / 1000 Ang^3
#
#
#
# Elastic Constant Matrix: (Units=GPa)
#
#
# Indices 1 2 3 4 5 6 
#
# 1 78.8711 -3.5310 17.1488 -0.0042 -1.3987 0.0009
# 2 -3.5310 31.3078 -2.5940 0.0069 1.7847 0.0072
# 3 17.1488 -2.5940 122.7468 -0.0081 -1.7523 -0.0059
# 4 -0.0042 0.0069 -0.0081 9.6393 0.0021 4.9861
# 5 -1.3987 1.7847 -1.7523 0.0021 35.6226 -0.0042
# 6 0.0009 0.0072 -0.0059 4.9861 -0.0042 16.2879
#
#
#
# Elastic Compliance Matrix: (Units=1/GPa)
#
#
# Indices 1 2 3 4 5 6 
#
# 1 0.013136 0.001312 -0.001802 0.000005 0.000361 -0.000003
# 2 0.001312 0.032216 0.000476 -0.000017 -0.001539 -0.000009
# 3 -0.001802 0.000476 0.008413 0.000005 0.000319 0.000001
# 4 0.000005 -0.000017 0.000005 0.123259 -0.000010 -0.037732
# 5 0.000361 -0.001539 0.000319 -0.000010 0.028179 0.000011
# 6 -0.000003 -0.000009 0.000001 -0.037732 0.000011 0.072946
#
#
# Mechanical properties :
#
#
# Convention : Reuss Voigt Hill
#
# Bulk Modulus (GPa) = 18.60986 28.33035 23.47010
# Shear Modulus (GPa) = 16.88668 27.10342 21.99505
#
# Velocity S-wave (km/s) = 2.72325 3.45007 3.10798
# Velocity P-wave (km/s) = 4.24982 5.32094 4.81526
#
# Compressibility (1/GPa) = 0.05373496
#
# Stress axis : x y z
#
# Youngs Moduli (GPa) = 76.12714 31.04045 118.85997
#
# Poissons Ratio (x) = -0.04071 0.21422
# Poissons Ratio (y) = -0.09985 -0.05653
# Poissons Ratio (z) = 0.13721 -0.01476
#
# Static dielectric constant tensor:
#      x y z
#    x 1.886030 -0.000010 0.087730 
#    y -0.000010 1.866490 0.000000 
#    z 0.087730 0.000000 2.044800 
# 
# From -- ./inp_files/244215.got.cif
#   From: 2010.05.17/outbox.cif.g08.bks.cpg/sg12_123_cif.got.tgz:244215.got - 2010.06.03 13:09:07.
