data_PCOD9195265
_publ_section_title
;
Structure prediction by ZEFSAII (Michael W. Deem and Ramdas Pophale) SiO2 
 PCOD9195265
Probable space group: C 2/M
;
_chemical_formula_sum "Si O2"
_cell_formula_units_Z 36
_cell_length_a 13.970075
_cell_length_b 20.488834
_cell_length_c 10.532977
_cell_angle_alpha 90.000000
_cell_angle_beta 142.925820
_cell_angle_gamma 90.000000
_cell_volume 1817.503693
_symmetry_space_group_name_H-M "C 2/M"
_symmetry_group_IT_number 12
_symmetry_cell_setting 'monoclinic'
loop_
_space_group_symop_operation_xyz
x,y,z
-x,y,-z
-x,-y,-z
x,-y,z
1/2+x,1/2+y,z
1/2-x,1/2+y,-z
1/2-x,1/2-y,-z
1/2+x,1/2-y,z
loop_
_atom_site_type_symbol
_atom_site_label
_atom_site_fract_x
_atom_site_fract_y
_atom_site_fract_z
Si Si1 0.000000 0.239857 0.500000
Si Si2 0.384159 0.804990 0.630021
Si Si3 0.203513 0.076005 0.343596
Si Si4 0.783654 0.311947 0.945657
Si Si5 0.174147 0.076490 0.018142
O O1 0.037926 0.285822 0.421943
O O2 0.155074 0.196326 0.697685
O O3 0.250000 0.750000 0.500000
O O4 0.304170 0.875089 0.533811
O O5 0.528893 0.806285 0.882381
O O6 0.227108 0.091802 0.218798
O O7 0.243051 0.000000 0.402881
O O8 0.017173 0.084450 0.179105
O O9 0.750000 0.250000 0.000000
O O10 0.747535 0.376191 0.990969
O O11 0.208319 0.000000 0.030620
#
# Coordination Sequence:
#
# PCOD9195265 Si02
#       5
#     4   8   8   8   8
#     4  10  22  38  54  78 108 144 188 226 268 322
#     4  11  22  35  55  83 112 144 179 226 275 323
#     4   9  17  31  53  81 111 141 177 225 277 324
#     4  10  20  35  53  75 105 141 181 222 265 320
#     4   9  18  33  54  80 110 144 181 223 272 323
#
# _framework density 19.807386999999999
#
# number of rings (size 3 to 8) (size 9 to 14) (size 15 to 20)
#    0.000    2.222    0.000    6.667    0.000    3.556 
#    0.000    3.333    0.000    1.333    0.000    6.222 
#    0.000    0.000    0.000    0.000    0.000    0.000 
#
# Total GULP energy -100423.542574 kJ/mol
# GULP energy per Si atom -5579.085699 kJ/mol
# Density = 1.976230 g / cm^3
# Si number density = 19.807387 Si / 1000 Ang^3
#
#
#
# Elastic Constant Matrix: (Units=GPa)
#
#
# Indices 1 2 3 4 5 6 
#
# 1 41.3001 10.5541 8.3813 0.0000 0.5596 0.0000
# 2 10.5541 76.3389 58.4164 0.0000 9.1528 0.0000
# 3 8.3813 58.4164 158.7800 0.0000 12.0098 0.0000
# 4 0.0000 0.0000 0.0000 35.1498 0.0000 4.2065
# 5 0.5596 9.1528 12.0098 0.0000 15.5320 0.0000
# 6 0.0000 0.0000 0.0000 4.2065 0.0000 36.3668
#
#
#
# Elastic Compliance Matrix: (Units=1/GPa)
#
#
# Indices 1 2 3 4 5 6 
#
# 1 0.025123 -0.003532 -0.000123 0.000000 0.001271 0.000000
# 2 -0.003532 0.019253 -0.006424 0.000000 -0.006251 0.000000
# 3 -0.000123 -0.006424 0.008902 0.000000 -0.003093 0.000000
# 4 0.000000 0.000000 0.000000 0.028849 0.000000 -0.003337
# 5 0.001271 -0.006251 -0.003093 0.000000 0.070413 0.000000
# 6 0.000000 0.000000 0.000000 -0.003337 0.000000 0.027884
#
#
# Mechanical properties :
#
#
# Convention : Reuss Voigt Hill
#
# Bulk Modulus (GPa) = 30.19249 47.90249 39.04749
# Shear Modulus (GPa) = 23.62708 30.68087 27.15397
#
# Velocity S-wave (km/s) = 3.45750 3.93995 3.70659
# Velocity P-wave (km/s) = 5.58706 6.70331 6.17047
#
# Compressibility (1/GPa) = 0.03312082
#
# Stress axis : x y z
#
# Youngs Moduli (GPa) = 39.80374 51.93959 112.33471
#
# Poissons Ratio (x) = 0.18343 0.01381
# Poissons Ratio (y) = 0.14057 0.72165
# Poissons Ratio (z) = 0.00489 0.33367
#
# Static dielectric constant tensor:
#      x y z
#    x 1.712800 0.000000 0.024480 
#    y 0.000000 1.654490 0.000000 
#    z 0.024480 0.000000 1.789890 
# 
# From -- ./inp_files/48971.got.cif
#   From: 2010.05.17/outbox.cif.g08.bks.cpg/sg12_25_cif.got.tgz:48971.got - 2010.06.03 13:09:07.
