data_PCOD9195787
_publ_section_title
;
Structure prediction by ZEFSAII (Michael W. Deem and Ramdas Pophale) SiO2 
 PCOD9195787
Probable space group: C 2/M
;
_chemical_formula_sum "Si O2"
_cell_formula_units_Z 48
_cell_length_a 31.820899
_cell_length_b 8.537629
_cell_length_c 18.366007
_cell_angle_alpha 90.000000
_cell_angle_beta 29.962665
_cell_angle_gamma 90.000000
_cell_volume 2491.976508
_symmetry_space_group_name_H-M "C 2/M"
_symmetry_group_IT_number 12
_symmetry_cell_setting 'monoclinic'
loop_
_space_group_symop_operation_xyz
x,y,z
-x,y,-z
-x,-y,-z
x,-y,z
1/2+x,1/2+y,z
1/2-x,1/2+y,-z
1/2-x,1/2-y,-z
1/2+x,1/2-y,z
loop_
_atom_site_type_symbol
_atom_site_label
_atom_site_fract_x
_atom_site_fract_y
_atom_site_fract_z
Si Si1 0.831573 0.689386 0.919519
Si Si2 0.503636 0.189398 0.909813
Si Si3 0.668791 0.810539 0.911288
Si Si4 0.831869 0.813723 0.418557
Si Si5 0.831947 0.687982 0.582582
Si Si6 0.500717 0.808879 0.582863
O O1 0.830686 0.500000 0.919671
O O2 0.916796 0.741500 0.751146
O O3 0.750000 0.750000 0.000000
O O4 0.830959 0.739198 0.004737
O O5 0.584769 0.258332 0.748505
O O6 0.509536 0.000000 0.897721
O O7 0.500000 0.235147 0.000000
O O8 0.417954 0.236603 0.997631
O O9 0.748825 0.744326 0.748878
O O10 0.672804 0.000000 0.903121
O O11 0.750000 0.750000 0.500000
O O12 0.833343 0.750946 0.498613
O O13 0.828118 0.000000 0.425417
O O14 0.832721 0.500000 0.579089
O O15 0.915081 0.741011 0.501659
O O16 0.500000 0.757249 0.500000
O O17 0.500705 0.000000 0.582586
#
# Coordination Sequence:
#
# PCOD9195787 Si02
#       6
#     8   8   8   8   8   8
#     4  10  20  35  55  80 113 152 194 241 293 346
#     4  10  21  39  63  88 116 152 191 233 287 347
#     4  10  21  37  57  84 120 156 191 239 296 348
#     4  12  25  41  62  88 120 154 193 240 290 347
#     4  11  22  38  62  88 116 153 198 243 291 349
#     4   9  18  34  57  84 114 151 194 238 286 344
#
# _framework density 19.261818000000002
#
# number of rings (size 3 to 8) (size 9 to 14) (size 15 to 20)
#    0.000    1.667    0.000    5.000    0.000    7.000 
#    0.000    3.333    0.000    4.500    0.000    0.000 
#    0.000    0.000    0.000    0.000    0.000    0.000 
#
# Total GULP energy -134193.375443 kJ/mol
# GULP energy per Si atom -5591.390643 kJ/mol
# Density = 1.921798 g / cm^3
# Si number density = 19.261818 Si / 1000 Ang^3
#
#
#
# Elastic Constant Matrix: (Units=GPa)
#
#
# Indices 1 2 3 4 5 6 
#
# 1 246.3431 48.6490 150.9088 -0.0007 0.0509 0.0006
# 2 48.6490 29.5573 50.4969 -0.0024 0.6895 0.0042
# 3 150.9088 50.4969 241.1510 -0.0021 0.1295 0.0016
# 4 -0.0007 -0.0024 -0.0021 26.1052 0.0009 -3.4674
# 5 0.0509 0.6895 0.1295 0.0009 46.1007 -0.0004
# 6 0.0006 0.0042 0.0016 -3.4674 -0.0004 27.0888
#
#
#
# Elastic Compliance Matrix: (Units=1/GPa)
#
#
# Indices 1 2 3 4 5 6 
#
# 1 0.007321 -0.006579 -0.003204 -0.000001 0.000099 0.000001
# 2 -0.006579 0.058616 -0.008157 0.000003 -0.000846 -0.000008
# 3 -0.003204 -0.008157 0.007860 0.000000 0.000103 0.000001
# 4 -0.000001 0.000003 0.000000 0.038969 -0.000001 0.004988
# 5 0.000099 -0.000846 0.000103 -0.000001 0.021704 0.000000
# 6 0.000001 -0.000008 0.000001 0.004988 0.000000 0.037554
#
#
# Mechanical properties :
#
#
# Convention : Reuss Voigt Hill
#
# Bulk Modulus (GPa) = 26.37289 113.01789 69.69539
# Shear Modulus (GPa) = 22.67139 37.65872 30.16505
#
# Velocity S-wave (km/s) = 3.43448 4.42644 3.96163
# Velocity P-wave (km/s) = 5.42670 9.21556 7.56226
#
# Compressibility (1/GPa) = 0.03791773
#
# Stress axis : x y z
#
# Youngs Moduli (GPa) = 136.58659 17.06028 127.22963
#
# Poissons Ratio (x) = 0.11224 0.40765
# Poissons Ratio (y) = 0.89857 1.03778
# Poissons Ratio (z) = 0.43763 0.13916
#
# Static dielectric constant tensor:
#      x y z
#    x 1.646540 0.000000 0.001350 
#    y 0.000000 1.665360 0.000000 
#    z 0.001350 0.000000 1.625910 
# 
# From -- ./inp_files/274610.got.cif
#   From: 2010.05.17/outbox.cif.g08.bks.cpg/sg12_138_cif.got.tgz:274610.got - 2010.06.03 13:09:07.
