data_PCOD9195349
_publ_section_title
;
Structure prediction by ZEFSAII (Michael W. Deem and Ramdas Pophale) SiO2 
 PCOD9195349
Probable space group: C 2/M
;
_chemical_formula_sum "Si O2"
_cell_formula_units_Z 48
_cell_length_a 20.151381
_cell_length_b 7.605046
_cell_length_c 16.101127
_cell_angle_alpha 90.000000
_cell_angle_beta 77.659923
_cell_angle_gamma 90.000000
_cell_volume 2410.523731
_symmetry_space_group_name_H-M "C 2/M"
_symmetry_group_IT_number 12
_symmetry_cell_setting 'monoclinic'
loop_
_space_group_symop_operation_xyz
x,y,z
-x,y,-z
-x,-y,-z
x,-y,z
1/2+x,1/2+y,z
1/2-x,1/2+y,-z
1/2-x,1/2-y,-z
1/2+x,1/2-y,z
loop_
_atom_site_type_symbol
_atom_site_label
_atom_site_fract_x
_atom_site_fract_y
_atom_site_fract_z
Si Si1 0.569366 0.214393 0.027695
Si Si2 0.561654 0.784165 0.221288
Si Si3 0.170916 0.712906 0.862000
Si Si4 0.302219 0.207670 0.733763
Si Si5 0.088940 0.707457 0.722152
Si Si6 0.720022 0.291333 0.597543
O O1 0.570182 0.269400 0.122938
O O2 0.568691 0.000000 0.027757
O O3 0.500000 0.269366 0.000000
O O4 0.634094 0.270519 0.955965
O O5 0.624972 0.720489 0.258730
O O6 0.487021 0.724925 0.270395
O O7 0.563599 0.000000 0.222394
O O8 0.171038 0.500000 0.860904
O O9 0.247199 0.771071 0.822082
O O10 0.124926 0.777011 0.796372
O O11 0.266833 0.282199 0.660101
O O12 0.311374 0.000000 0.716910
O O13 0.081230 0.500000 0.738970
O O14 0.143086 0.730476 0.634424
O O15 0.718398 0.500000 0.607335
O O16 0.750000 0.250000 0.500000
#
# Coordination Sequence:
#
# PCOD9195349 Si02
#       6
#     8   8   8   8   8   8
#     4   9  14  23  43  72  99 125 165 205 227 257
#     4   9  16  28  47  71  99 130 161 195 233 273
#     4   9  16  27  46  71  96 127 167 202 228 264
#     4   9  19  33  48  69  99 128 154 192 243 288
#     4   9  16  29  51  74  95 123 160 196 232 275
#     4  10  20  35  54  73  93 120 155 193 237 291
#
# _framework density 19.912686000000001
#
# number of rings (size 3 to 8) (size 9 to 14) (size 15 to 20)
#    0.000    2.833    1.667    0.500    0.000    1.333 
#    0.000    1.667    0.000    6.500    0.000    0.000 
#    0.000    0.000    0.000    0.000    0.000    0.000 
#
# Total GULP energy -133846.342717 kJ/mol
# GULP energy per Si atom -5576.930947 kJ/mol
# Density = 1.986736 g / cm^3
# Si number density = 19.912686 Si / 1000 Ang^3
#
#
#
# Elastic Constant Matrix: (Units=GPa)
#
#
# Indices 1 2 3 4 5 6 
#
# 1 178.0983 1.6039 70.9183 0.0000 -20.8724 0.0000
# 2 1.6039 36.0423 -12.6745 0.0000 6.0916 0.0000
# 3 70.9183 -12.6745 114.4587 0.0000 -20.6288 0.0000
# 4 0.0000 0.0000 0.0000 12.3123 0.0000 -8.8661
# 5 -20.8724 6.0916 -20.6288 0.0000 22.2068 0.0000
# 6 0.0000 0.0000 0.0000 -8.8661 0.0000 10.5009
#
#
#
# Elastic Compliance Matrix: (Units=1/GPa)
#
#
# Indices 1 2 3 4 5 6 
#
# 1 0.007876 -0.002588 -0.004449 0.000000 0.003980 0.000000
# 2 -0.002588 0.030388 0.003636 0.000000 -0.007390 0.000000
# 3 -0.004449 0.003636 0.013167 0.000000 0.007052 0.000000
# 4 0.000000 0.000000 0.000000 0.207188 0.000000 0.174933
# 5 0.003980 -0.007390 0.007052 0.000000 0.057350 0.000000
# 6 0.000000 0.000000 0.000000 0.174933 0.000000 0.242929
#
#
# Mechanical properties :
#
#
# Convention : Reuss Voigt Hill
#
# Bulk Modulus (GPa) = 22.40634 49.81055 36.10844
# Shear Modulus (GPa) = 8.61212 26.92077 17.76645
#
# Velocity S-wave (km/s) = 2.08191 3.68086 2.99024
# Velocity P-wave (km/s) = 4.12987 6.56763 5.48587
#
# Compressibility (1/GPa) = 0.04463023
#
# Stress axis : x y z
#
# Youngs Moduli (GPa) = 126.96235 32.90759 75.94561
#
# Poissons Ratio (x) = 0.08516 0.33792
# Poissons Ratio (y) = 0.32855 -0.27618
# Poissons Ratio (z) = 0.56492 -0.11967
#
# Static dielectric constant tensor:
#      x y z
#    x 1.696940 0.000000 0.024460 
#    y 0.000000 1.763850 0.000000 
#    z 0.024460 0.000000 1.643940 
# 
# From -- ./inp_files/229976.got.cif
#   From: 2010.05.17/outbox.cif.g08.bks.cpg/sg12_115_cif.got.tgz:229976.got - 2010.06.03 13:09:07.
