data_PCOD9195296
_publ_section_title
;
Structure prediction by ZEFSAII (Michael W. Deem and Ramdas Pophale) SiO2 
 PCOD9195296
Probable space group: C 2/M
;
_chemical_formula_sum "Si O2"
_cell_formula_units_Z 52
_cell_length_a 16.006821
_cell_length_b 7.951721
_cell_length_c 19.897552
_cell_angle_alpha 90.000000
_cell_angle_beta 58.530211
_cell_angle_gamma 90.000000
_cell_volume 2160.090279
_symmetry_space_group_name_H-M "C 2/M"
_symmetry_group_IT_number 12
_symmetry_cell_setting 'monoclinic'
loop_
_space_group_symop_operation_xyz
x,y,z
-x,y,-z
-x,-y,-z
x,-y,z
1/2+x,1/2+y,z
1/2-x,1/2+y,-z
1/2-x,1/2-y,-z
1/2+x,1/2-y,z
loop_
_atom_site_type_symbol
_atom_site_label
_atom_site_fract_x
_atom_site_fract_y
_atom_site_fract_z
Si Si1 0.126963 0.313269 0.995435
Si Si2 0.823597 0.000000 0.941321
Si Si3 0.959965 0.195185 0.252576
Si Si4 0.138036 0.303224 0.249655
Si Si5 0.278758 0.297444 0.412448
Si Si6 0.086023 0.705124 0.415593
Si Si7 0.359926 0.806809 0.161853
O O1 0.085850 0.500000 0.032652
O O2 0.114062 0.152220 0.047779
O O3 0.100789 0.272007 0.929313
O O4 0.244208 0.357039 0.945763
O O5 0.881556 0.265955 0.339702
O O6 0.908132 0.207635 0.202594
O O7 0.065645 0.277737 0.217818
O O8 0.979706 0.000000 0.258115
O O9 0.158250 0.500000 0.247940
O O10 0.079968 0.243843 0.340766
O O11 0.243314 0.219531 0.206732
O O12 0.283400 0.500000 0.406701
O O13 0.250000 0.250000 0.500000
O O14 0.190433 0.241609 0.401394
O O15 0.082834 0.500000 0.418796
O O16 0.000000 0.767003 0.500000
O O17 0.377229 0.000000 0.171008
#
# Coordination Sequence:
#
# PCOD9195296 Si02
#       7
#     8   4   8   8   8   8   8
#     4   8  16  29  52  86 122 153 197 237 283 349
#     4   8  14  30  52  86 122 154 194 238 280 342
#     4  11  23  39  56  81 117 153 195 247 294 351
#     4  11  22  38  58  82 114 152 194 245 299 351
#     4  10  20  35  53  77 107 144 189 239 297 354
#     4   9  17  32  53  75 104 142 186 236 294 351
#     4  11  22  37  59  89 119 156 195 240 293 352
#
# _framework density 24.073067999999999
#
# number of rings (size 3 to 8) (size 9 to 14) (size 15 to 20)
#    0.462    1.692    1.538    2.308    2.154    2.462 
#    0.000    0.000    0.000    3.231    0.000    6.462 
#    0.000    0.000    0.000    0.000    0.000    0.000 
#
# Total GULP energy -144798.377119 kJ/mol
# GULP energy per Si atom -5569.168351 kJ/mol
# Density = 2.401828 g / cm^3
# Si number density = 24.073068 Si / 1000 Ang^3
#
#
#
# Elastic Constant Matrix: (Units=GPa)
#
#
# Indices 1 2 3 4 5 6 
#
# 1 119.8977 4.2981 42.4430 0.0000 -5.5308 0.0000
# 2 4.2981 49.3161 28.6325 0.0000 -1.4886 0.0001
# 3 42.4430 28.6325 92.1705 0.0000 -0.4661 0.0000
# 4 0.0000 0.0000 0.0000 23.0111 0.0000 10.7714
# 5 -5.5308 -1.4886 -0.4661 0.0000 43.7698 0.0000
# 6 0.0000 0.0001 0.0000 10.7714 0.0000 25.5532
#
#
#
# Elastic Compliance Matrix: (Units=1/GPa)
#
#
# Indices 1 2 3 4 5 6 
#
# 1 0.010238 0.002294 -0.005420 0.000000 0.001314 0.000000
# 2 0.002294 0.025279 -0.008904 0.000000 0.001055 0.000000
# 3 -0.005420 -0.008904 0.016107 0.000000 -0.000816 0.000000
# 4 0.000000 0.000000 0.000000 0.054140 0.000000 -0.022821
# 5 0.001314 0.001055 -0.000816 0.000000 0.023040 0.000000
# 6 0.000000 0.000000 0.000000 -0.022821 0.000000 0.048754
#
#
# Mechanical properties :
#
#
# Convention : Reuss Voigt Hill
#
# Bulk Modulus (GPa) = 36.27943 45.79240 41.03592
# Shear Modulus (GPa) = 23.71860 30.86754 27.29307
#
# Velocity S-wave (km/s) = 3.14231 3.58473 3.37079
# Velocity P-wave (km/s) = 5.31684 6.01641 5.67741
#
# Compressibility (1/GPa) = 0.02756383
#
# Stress axis : x y z
#
# Youngs Moduli (GPa) = 97.67940 39.55889 62.08364
#
# Poissons Ratio (x) = -0.09076 0.33651
# Poissons Ratio (y) = -0.22412 0.55279
# Poissons Ratio (z) = 0.52946 0.35223
#
# Static dielectric constant tensor:
#      x y z
#    x 1.946530 0.000000 -0.036850 
#    y 0.000000 1.866690 0.000000 
#    z -0.036850 0.000000 1.975370 
# 
# From -- ./inp_files/308416.got.cif
#   From: 2010.05.17/outbox.cif.g08.bks.cpg/sg12_155_cif.got.tgz:308416.got - 2010.06.03 13:09:07.
