data_PCOD9195970
_publ_section_title
;
Structure prediction by ZEFSAII (Michael W. Deem and Ramdas Pophale) SiO2 
 PCOD9195970
Probable space group: C 2/M
;
_chemical_formula_sum "Si O2"
_cell_formula_units_Z 64
_cell_length_a 24.463508
_cell_length_b 9.003225
_cell_length_c 17.005047
_cell_angle_alpha 90.000000
_cell_angle_beta 77.565739
_cell_angle_gamma 90.000000
_cell_volume 3657.517025
_symmetry_space_group_name_H-M "C 2/M"
_symmetry_group_IT_number 12
_symmetry_cell_setting 'monoclinic'
loop_
_space_group_symop_operation_xyz
x,y,z
-x,y,-z
-x,-y,-z
x,-y,z
1/2+x,1/2+y,z
1/2-x,1/2+y,-z
1/2-x,1/2-y,-z
1/2+x,1/2-y,z
loop_
_atom_site_type_symbol
_atom_site_label
_atom_site_fract_x
_atom_site_fract_y
_atom_site_fract_z
Si Si1 0.723193 0.821515 0.833101
Si Si2 0.431273 0.177553 0.358590
Si Si3 0.563638 0.176979 0.316326
Si Si4 0.880463 0.177063 0.221578
Si Si5 0.152560 0.823824 0.178414
Si Si6 0.567915 0.670593 0.478215
Si Si7 0.945384 0.327750 0.063372
Si Si8 0.165286 0.328942 0.009098
O O1 0.678699 0.739565 0.792063
O O2 0.788089 0.789845 0.797771
O O3 0.713685 0.000000 0.830437
O O4 0.709194 0.781067 0.928328
O O5 0.497608 0.211412 0.325940
O O6 0.396561 0.253407 0.300113
O O7 0.414857 0.241661 0.448950
O O8 0.424775 0.000000 0.358938
O O9 0.601449 0.240138 0.234987
O O10 0.583391 0.250311 0.392066
O O11 0.568748 0.000000 0.319655
O O12 0.926549 0.233234 0.144009
O O13 0.879570 0.000000 0.225147
O O14 0.160185 0.772415 0.086429
O O15 0.143606 0.000000 0.184904
O O16 0.500000 0.669981 0.500000
O O17 0.587044 0.500000 0.474083
O O18 0.954862 0.500000 0.085133
O O19 0.893608 0.327281 0.019108
O O20 0.000000 0.275063 0.000000
O O21 0.177311 0.500000 0.028532
#
# Coordination Sequence:
#
# PCOD9195970 Si02
#       8
#     8   8   8   8   8   8   8   8
#     4   9  20  39  56  72 100 142 183 218 266 321
#     4  10  20  35  56  79 108 145 180 209 251 321
#     4  10  21  35  53  79 110 144 177 208 257 319
#     4  11  22  34  53  80 105 133 176 226 266 304
#     4  11  22  34  53  79 107 137 175 226 270 308
#     4   9  17  32  54  80 110 138 169 215 264 305
#     4   9  19  35  52  70 102 144 178 211 261 320
#     4   9  18  33  52  74 100 136 181 220 262 317
#
# _framework density 17.498208999999999
#
# number of rings (size 3 to 8) (size 9 to 14) (size 15 to 20)
#    0.000    2.250    0.000    3.750    1.750    6.250 
#    0.000    0.000    0.000    0.750    0.000    0.000 
#    0.000    0.000    0.000    0.000    0.000    0.000 
#
# Total GULP energy -178592.678956 kJ/mol
# GULP energy per Si atom -5581.021217 kJ/mol
# Density = 1.745838 g / cm^3
# Si number density = 17.498209 Si / 1000 Ang^3
#
#
#
# Elastic Constant Matrix: (Units=GPa)
#
#
# Indices 1 2 3 4 5 6 
#
# 1 24.1705 20.9028 21.3733 0.0000 2.7391 0.0000
# 2 20.9028 73.8302 39.6100 0.0000 12.9147 0.0000
# 3 21.3733 39.6100 75.4023 0.0000 23.4726 0.0000
# 4 0.0000 0.0000 0.0000 25.7794 0.0000 7.6333
# 5 2.7391 12.9147 23.4726 0.0000 22.7133 0.0000
# 6 0.0000 0.0000 0.0000 7.6333 0.0000 16.5345
#
#
#
# Elastic Compliance Matrix: (Units=1/GPa)
#
#
# Indices 1 2 3 4 5 6 
#
# 1 0.065373 -0.012117 -0.017479 0.000000 0.017069 0.000000
# 2 -0.012117 0.021114 -0.006449 0.000000 -0.003879 0.000000
# 3 -0.017479 -0.006449 0.029201 0.000000 -0.024402 0.000000
# 4 0.000000 0.000000 0.000000 0.044933 0.000000 -0.020744
# 5 0.017069 -0.003879 -0.024402 0.000000 0.069393 0.000000
# 6 0.000000 0.000000 0.000000 -0.020744 0.000000 0.070056
#
#
# Mechanical properties :
#
#
# Convention : Reuss Voigt Hill
#
# Bulk Modulus (GPa) = 22.93682 37.46391 30.20036
# Shear Modulus (GPa) = 12.93018 19.10658 16.01838
#
# Velocity S-wave (km/s) = 2.72130 3.30800 3.02889
# Velocity P-wave (km/s) = 4.79693 6.00392 5.43404
#
# Compressibility (1/GPa) = 0.04359803
#
# Stress axis : x y z
#
# Youngs Moduli (GPa) = 15.29676 47.36276 34.24534
#
# Poissons Ratio (x) = 0.57388 0.59858
# Poissons Ratio (y) = 0.18535 0.22085
# Poissons Ratio (z) = 0.26737 0.30545
#
# Static dielectric constant tensor:
#      x y z
#    x 1.594620 0.000000 -0.000870 
#    y 0.000000 1.585150 0.000000 
#    z -0.000870 0.000000 1.574720 
# 
# From -- ./inp_files/243909.got.cif
#   From: 2010.05.17/outbox.cif.g08.bks.cpg/sg12_122_cif.got.tgz:243909.got - 2010.06.03 13:09:07.
