data_PCOD9195131
_publ_section_title
;
Structure prediction by ZEFSAII (Michael W. Deem and Ramdas Pophale) SiO2 
 PCOD9195131
Probable space group: C 2/M
;
_chemical_formula_sum "Si O2"
_cell_formula_units_Z 44
_cell_length_a 10.056736
_cell_length_b 20.253418
_cell_length_c 11.570601
_cell_angle_alpha 90.000000
_cell_angle_beta 101.504779
_cell_angle_gamma 90.000000
_cell_volume 2309.386530
_symmetry_space_group_name_H-M "C 2/M"
_symmetry_group_IT_number 12
_symmetry_cell_setting 'monoclinic'
loop_
_space_group_symop_operation_xyz
x,y,z
-x,y,-z
-x,-y,-z
x,-y,z
1/2+x,1/2+y,z
1/2-x,1/2+y,-z
1/2-x,1/2-y,-z
1/2+x,1/2-y,z
loop_
_atom_site_type_symbol
_atom_site_label
_atom_site_fract_x
_atom_site_fract_y
_atom_site_fract_z
Si Si1 0.000000 0.611367 0.500000
Si Si2 0.594080 0.000000 0.815965
Si Si3 0.155105 0.000000 0.980135
Si Si4 0.528707 0.862130 0.239887
Si Si5 0.003312 0.000000 0.636897
Si Si6 0.690294 0.000000 0.579032
Si Si7 0.171305 0.888166 0.792355
Si Si8 0.397399 0.260875 0.084410
O O1 0.992226 0.644625 0.371217
O O2 0.134191 0.565128 0.507530
O O3 0.520303 0.931301 0.825815
O O4 0.605025 0.000000 0.680716
O O5 0.741079 0.000000 0.897100
O O6 0.187612 0.063996 0.907030
O O7 0.000000 0.000000 0.000000
O O8 0.689655 0.866140 0.245208
O O9 0.454468 0.803910 0.157987
O O10 0.000000 0.000000 0.500000
O O11 0.079726 0.934991 0.695737
O O12 0.845384 0.000000 0.641146
O O13 0.105571 0.821111 0.826612
O O14 0.500000 0.278070 0.000000
O O15 0.250000 0.250000 0.000000
#
# Coordination Sequence:
#
# PCOD9195131 Si02
#       8
#     4   4   4   8   4   4   8   8
#     4   9  20  40  66  90 130 163 218 276 320 407
#     4  10  20  34  65  91 119 160 212 272 321 391
#     4  11  22  37  60  95 128 158 213 276 331 399
#     4  11  23  42  64  96 124 173 223 270 340 392
#     4  11  22  39  67  97 130 165 218 282 334 394
#     4   9  18  36  60  95 126 163 202 263 344 385
#     4  11  24  41  63  94 130 174 217 272 338 402
#     4  12  25  44  65  92 138 177 221 272 335 407
#
# _framework density 19.052679000000001
#
# number of rings (size 3 to 8) (size 9 to 14) (size 15 to 20)
#    0.000    1.273    1.818    5.455    0.000    3.636 
#    1.636    0.909    0.000    0.000    0.000    0.000 
#    0.000    0.000    0.000    0.000    0.000    0.000 
#
# Total GULP energy -122685.808317 kJ/mol
# GULP energy per Si atom -5576.627651 kJ/mol
# Density = 1.900931 g / cm^3
# Si number density = 19.052679 Si / 1000 Ang^3
#
#
#
# Elastic Constant Matrix: (Units=GPa)
#
#
# Indices 1 2 3 4 5 6 
#
# 1 136.9698 53.7567 46.9360 0.0000 5.5582 0.0000
# 2 53.7567 149.4953 48.7556 0.0000 5.4300 0.0000
# 3 46.9360 48.7556 101.1445 0.0000 10.1305 0.0000
# 4 0.0000 0.0000 0.0000 19.5270 0.0000 -0.9115
# 5 5.5582 5.4300 10.1305 0.0000 36.5555 0.0000
# 6 0.0000 0.0000 0.0000 -0.9115 0.0000 18.3598
#
#
#
# Elastic Compliance Matrix: (Units=1/GPa)
#
#
# Indices 1 2 3 4 5 6 
#
# 1 0.009304 -0.002298 -0.003191 0.000000 -0.000189 0.000000
# 2 -0.002298 0.008505 -0.003026 0.000000 -0.000075 0.000000
# 3 -0.003191 -0.003026 0.013096 0.000000 -0.002695 0.000000
# 4 0.000000 0.000000 0.000000 0.051330 0.000000 0.002548
# 5 -0.000189 -0.000075 -0.002695 0.000000 0.028142 0.000000
# 6 0.000000 0.000000 0.000000 0.002548 0.000000 0.054593
#
#
# Mechanical properties :
#
#
# Convention : Reuss Voigt Hill
#
# Bulk Modulus (GPa) = 72.06875 76.27846 74.17361
# Shear Modulus (GPa) = 26.79165 30.76587 28.77876
#
# Velocity S-wave (km/s) = 3.75399 4.02279 3.89071
# Velocity P-wave (km/s) = 7.52981 7.85491 7.69408
#
# Compressibility (1/GPa) = 0.01387564
#
# Stress axis : x y z
#
# Youngs Moduli (GPa) = 107.48220 117.57660 76.35942
#
# Poissons Ratio (x) = 0.27020 0.24364
# Poissons Ratio (y) = 0.24700 0.23105
# Poissons Ratio (z) = 0.34295 0.35576
#
# Static dielectric constant tensor:
#      x y z
#    x 1.583850 0.000000 -0.001640 
#    y 0.000000 1.675540 0.000000 
#    z -0.001640 0.000000 1.658120 
# 
# From -- ./inp_files/120901.got.cif
#   From: 2010.05.17/outbox.cif.g08.bks.cpg/sg12_61_cif.got.tgz:120901.got - 2010.06.03 13:09:07.
