data_PCOD9195288
_publ_section_title
;
Structure prediction by ZEFSAII (Michael W. Deem and Ramdas Pophale) SiO2 
 PCOD9195288
Probable space group: C 2/M
;
_chemical_formula_sum "Si O2"
_cell_formula_units_Z 64
_cell_length_a 30.919725
_cell_length_b 7.535447
_cell_length_c 12.339171
_cell_angle_alpha 90.000000
_cell_angle_beta 92.235149
_cell_angle_gamma 90.000000
_cell_volume 2872.764854
_symmetry_space_group_name_H-M "C 2/M"
_symmetry_group_IT_number 12
_symmetry_cell_setting 'monoclinic'
loop_
_space_group_symop_operation_xyz
x,y,z
-x,y,-z
-x,-y,-z
x,-y,z
1/2+x,1/2+y,z
1/2-x,1/2+y,-z
1/2-x,1/2-y,-z
1/2+x,1/2-y,z
loop_
_atom_site_type_symbol
_atom_site_label
_atom_site_fract_x
_atom_site_fract_y
_atom_site_fract_z
Si Si1 0.366266 0.214891 0.478847
Si Si2 0.973458 0.783568 0.168053
Si Si3 0.657110 0.792127 0.105768
Si Si4 0.191125 0.712099 0.330912
Si Si5 0.963229 0.790157 0.413638
Si Si6 0.709122 0.788009 0.919990
Si Si7 0.212735 0.286526 0.677108
Si Si8 0.937926 0.786250 0.939004
O O1 0.345483 0.277163 0.590201
O O2 0.415013 0.269849 0.456885
O O3 0.330277 0.275407 0.388209
O O4 0.366552 0.000000 0.478955
O O5 0.020928 0.731959 0.128661
O O6 0.964804 0.719926 0.289513
O O7 0.971494 0.000000 0.169665
O O8 0.942795 0.725764 0.064900
O O9 0.682958 0.713792 0.209675
O O10 0.606419 0.775184 0.117171
O O11 0.668573 0.000000 0.102728
O O12 0.669743 0.718540 0.989488
O O13 0.185770 0.500000 0.325953
O O14 0.240585 0.743868 0.369446
O O15 0.000000 0.718438 0.500000
O O16 0.972172 0.000000 0.404549
O O17 0.713078 0.715069 0.799961
O O18 0.705353 0.000000 0.905370
O O19 0.750000 0.750000 0.000000
O O20 0.210403 0.500000 0.677174
O O21 0.938268 0.000000 0.940765
#
# Coordination Sequence:
#
# PCOD9195288 Si02
#       8
#     8   8   8   8   8   8   8   8
#     4  10  23  40  58  82 111 145 184 225 276 327
#     4   8  17  36  56  79 109 138 175 224 274 317
#     4  10  21  34  51  79 113 142 174 220 271 320
#     4  10  21  38  57  79 112 149 183 225 274 324
#     4  10  22  39  59  83 111 143 182 228 273 322
#     4  10  20  35  53  76 109 143 176 217 266 314
#     4  10  21  37  58  83 110 143 185 231 270 320
#     4   9  18  34  58  80 104 141 180 220 265 321
#
# _framework density 22.278189999999999
#
# number of rings (size 3 to 8) (size 9 to 14) (size 15 to 20)
#    0.000    2.375    1.250    1.125    3.500    2.250 
#    0.000    1.875    0.000    0.000    0.000    0.000 
#    0.000    0.000    0.000    0.000    0.000    0.000 
#
# Total GULP energy -178591.722337 kJ/mol
# GULP energy per Si atom -5580.991323 kJ/mol
# Density = 2.222748 g / cm^3
# Si number density = 22.278190 Si / 1000 Ang^3
#
#
#
# Elastic Constant Matrix: (Units=GPa)
#
#
# Indices 1 2 3 4 5 6 
#
# 1 126.5040 -15.1147 61.1800 0.0000 0.2537 0.0000
# 2 -15.1147 52.0354 7.8167 0.0000 -5.9145 0.0000
# 3 61.1800 7.8167 130.4163 0.0000 -16.7860 0.0000
# 4 0.0000 0.0000 0.0000 26.1010 0.0000 48.3810
# 5 0.2537 -5.9145 -16.7860 0.0000 30.1114 0.0000
# 6 0.0000 0.0000 0.0000 48.3810 0.0000 99.8392
#
#
#
# Elastic Compliance Matrix: (Units=1/GPa)
#
#
# Indices 1 2 3 4 5 6 
#
# 1 0.011173 0.003824 -0.005802 0.000000 -0.002578 0.000000
# 2 0.003824 0.021031 -0.002722 0.000000 0.002581 0.000000
# 3 -0.005802 -0.002722 0.011301 0.000000 0.005814 0.000000
# 4 0.000000 0.000000 0.000000 0.376493 0.000000 -0.182445
# 5 -0.002578 0.002581 0.005814 0.000000 0.036980 0.000000
# 6 0.000000 0.000000 0.000000 -0.182445 0.000000 0.098427
#
#
# Mechanical properties :
#
#
# Convention : Reuss Voigt Hill
#
# Bulk Modulus (GPa) = 29.32201 46.30219 37.81210
# Shear Modulus (GPa) = 8.67793 48.21525 28.44659
#
# Velocity S-wave (km/s) = 1.97578 4.65718 3.57722
# Velocity P-wave (km/s) = 4.28897 7.05322 5.83709
#
# Compressibility (1/GPa) = 0.03410407
#
# Stress axis : x y z
#
# Youngs Moduli (GPa) = 89.50038 47.54933 88.48571
#
# Poissons Ratio (x) = -0.18183 0.51343
# Poissons Ratio (y) = -0.34226 0.24088
# Poissons Ratio (z) = 0.51932 0.12944
#
# Static dielectric constant tensor:
#      x y z
#    x 1.792670 0.000000 -0.018790 
#    y 0.000000 1.840800 0.000000 
#    z -0.018790 0.000000 1.855490 
# 
# From -- ./inp_files/182122.got.cif
#   From: 2010.05.17/outbox.cif.g08.bks.cpg/sg12_92_cif.got.tgz:182122.got - 2010.06.03 13:09:07.
