data_PCOD9195545
_publ_section_title
;
Structure prediction by ZEFSAII (Michael W. Deem and Ramdas Pophale) SiO2 
 PCOD9195545
Probable space group: C 2/M
;
_chemical_formula_sum "Si O2"
_cell_formula_units_Z 52
_cell_length_a 26.020568
_cell_length_b 22.666026
_cell_length_c 13.673627
_cell_angle_alpha 90.000000
_cell_angle_beta 18.747938
_cell_angle_gamma 90.000000
_cell_volume 2591.964413
_symmetry_space_group_name_H-M "C 2/M"
_symmetry_group_IT_number 12
_symmetry_cell_setting 'monoclinic'
loop_
_space_group_symop_operation_xyz
x,y,z
-x,y,-z
-x,-y,-z
x,-y,z
1/2+x,1/2+y,z
1/2-x,1/2+y,-z
1/2-x,1/2-y,-z
1/2+x,1/2-y,z
loop_
_atom_site_type_symbol
_atom_site_label
_atom_site_fract_x
_atom_site_fract_y
_atom_site_fract_z
Si Si1 0.365666 0.599336 0.041189
Si Si2 0.702103 0.398377 0.526052
Si Si3 0.683276 0.292520 0.262050
Si Si4 0.594043 0.815501 0.957217
Si Si5 0.715784 0.304920 0.660817
Si Si6 0.823409 0.827438 0.941450
Si Si7 0.248685 0.000000 0.607404
O O1 0.337185 0.661658 0.145889
O O2 0.265297 0.551544 0.282057
O O3 0.552028 0.584575 0.728009
O O4 0.320332 0.613201 0.011181
O O5 0.851047 0.376130 0.193516
O O6 0.654883 0.341900 0.677648
O O7 0.737819 0.448891 0.540126
O O8 0.809825 0.309987 0.115485
O O9 0.505304 0.303180 0.622567
O O10 0.705169 0.330269 0.123286
O O11 0.707594 0.224089 0.189481
O O12 0.655063 0.761261 0.780547
O O13 0.407332 0.809339 0.311071
#
# Coordination Sequence:
#
# PCOD9195545 Si02
#       7
#     8   8   8   8   8   8   4
#     4  11  20  39  59  82 110 151 192 245 280 332
#     4  11  22  38  56  80 111 151 191 242 275 340
#     4  10  20  35  54  86 118 147 186 221 286 347
#     4  12  21  36  54  84 120 153 184 232 285 345
#     4  11  23  34  53  85 118 154 189 222 288 348
#     4  10  20  35  58  83 117 151 182 232 280 344
#     4  10  23  40  63  83 107 150 209 234 286 337
#
# _framework density 20.062004000000002
#
# number of rings (size 3 to 8) (size 9 to 14) (size 15 to 20)
#    0.000    1.231    3.077    5.538    0.000    1.231 
#    0.000    6.154    0.000    2.769    0.000    4.308 
#    0.000    0.000    0.000    0.000    0.000    0.000 
#
# Total GULP energy -144756.673644 kJ/mol
# GULP energy per Si atom -5567.564371 kJ/mol
# Density = 2.001634 g / cm^3
# Si number density = 20.062004 Si / 1000 Ang^3
#
#
#
# Elastic Constant Matrix: (Units=GPa)
#
#
# Indices 1 2 3 4 5 6 
#
# 1 113.4344 35.9090 16.6290 -0.0056 -10.7632 0.0095
# 2 35.9090 94.4784 9.8132 -0.0125 13.0566 -0.0064
# 3 16.6290 9.8132 81.1980 0.0130 -1.5221 -0.0127
# 4 -0.0056 -0.0125 0.0130 -9.0679 -0.0110 8.4485
# 5 -10.7632 13.0566 -1.5221 -0.0110 23.6849 0.0048
# 6 0.0095 -0.0064 -0.0127 8.4485 0.0048 30.7813
#
#
#
# Elastic Compliance Matrix: (Units=1/GPa)
#
#
# Indices 1 2 3 4 5 6 
#
# 1 0.011492 -0.005319 -0.001560 -0.000014 0.008055 -0.000003
# 2 -0.005319 0.014106 -0.000807 0.000001 -0.010245 0.000006
# 3 -0.001560 -0.000807 0.012743 0.000020 0.000555 0.000000
# 4 -0.000014 0.000001 0.000020 -0.087821 -0.000051 0.024104
# 5 0.008055 -0.010245 0.000555 -0.000051 0.051565 0.000002
# 6 -0.000003 0.000006 0.000000 0.024104 0.000002 0.025871
#
#
# Mechanical properties :
#
#
# Convention : Reuss Voigt Hill
#
# Bulk Modulus (GPa) = 43.53782 45.97922 44.75852
# Shear Modulus (GPa) = 98.06767 24.19696 61.13231
#
# Velocity S-wave (km/s) = 6.99917 3.47668 5.52611
# Velocity P-wave (km/s) = 9.33095 6.25177 7.94202
#
# Compressibility (1/GPa) = 0.02296854
#
# Stress axis : x y z
#
# Youngs Moduli (GPa) = 87.01404 70.89284 78.47441
#
# Poissons Ratio (x) = 0.37709 0.12240
# Poissons Ratio (y) = 0.46284 0.06337
# Poissons Ratio (z) = 0.13572 0.05724
#
# Static dielectric constant tensor:
#      x y z
#    x 1.740980 0.000000 0.006240 
#    y 0.000000 1.678530 0.000010 
#    z 0.006240 0.000010 1.764890 
# 
# From -- ./inp_files/247167.got.cif
#   From: 2010.05.17/outbox.cif.g08.bks.cpg/sg12_124_cif.got.tgz:247167.got - 2010.06.03 13:09:07.
