data_PCOD9195868
_publ_section_title
;
Structure prediction by ZEFSAII (Michael W. Deem and Ramdas Pophale) SiO2 
 PCOD9195868
Probable space group: C 2/M
;
_chemical_formula_sum "Si O2"
_cell_formula_units_Z 58
_cell_length_a 19.581890
_cell_length_b 7.351906
_cell_length_c 22.917659
_cell_angle_alpha 90.000000
_cell_angle_beta 138.035519
_cell_angle_gamma 90.000000
_cell_volume 2206.157452
_symmetry_space_group_name_H-M "C 2/M"
_symmetry_group_IT_number 12
_symmetry_cell_setting 'monoclinic'
loop_
_space_group_symop_operation_xyz
x,y,z
-x,y,-z
-x,-y,-z
x,-y,z
1/2+x,1/2+y,z
1/2-x,1/2+y,-z
1/2-x,1/2-y,-z
1/2+x,1/2-y,z
loop_
_atom_site_type_symbol
_atom_site_label
_atom_site_fract_x
_atom_site_fract_y
_atom_site_fract_z
Si Si1 0.408723 0.278298 0.612003
Si Si2 0.012706 0.720889 0.854112
Si Si3 0.125316 0.290310 0.630426
Si Si4 0.329728 0.218473 0.814911
Si Si5 0.738249 0.208733 0.588304
Si Si6 0.500000 0.500000 0.500000
Si Si7 0.336627 0.221485 0.947147
Si Si8 0.607260 0.292205 0.790745
O O1 0.406911 0.500000 0.611565
O O2 0.345309 0.215650 0.516101
O O3 0.340563 0.214922 0.624387
O O4 0.524399 0.212303 0.693270
O O5 0.013111 0.500000 0.850917
O O6 0.047218 0.792958 0.813915
O O7 0.902511 0.779976 0.808698
O O8 0.094272 0.779608 0.955224
O O9 0.096942 0.500000 0.604217
O O10 0.212650 0.278598 0.734676
O O11 0.188276 0.209193 0.614022
O O12 0.029841 0.158520 0.567648
O O13 0.373123 0.272895 0.905512
O O14 0.329768 0.000000 0.813528
O O15 0.758395 0.000000 0.616494
O O16 0.218950 0.284826 0.874735
O O17 0.338033 0.000000 0.950777
O O18 0.625196 0.500000 0.782703
#
# Coordination Sequence:
#
# PCOD9195868 Si02
#       8
#     8   8   8   8   8   2   8   8
#     4   9  18  32  53  83 115 157 205 253 315 379
#     4  10  20  35  60  89 121 163 213 262 318 383
#     4  11  24  43  65  93 128 166 214 267 318 379
#     4  10  20  38  62  91 123 166 216 265 317 382
#     4   9  19  35  54  81 118 154 201 261 316 370
#     4  12  26  44  64  90 122 168 214 248 324 380
#     4   9  19  36  58  87 123 165 211 263 323 384
#     4  10  20  35  55  83 118 159 206 259 320 384
#
# _framework density 26.290054000000001
#
# number of rings (size 3 to 8) (size 9 to 14) (size 15 to 20)
#    0.000    2.207    0.690    1.862    0.966    4.966 
#    2.483    1.379    0.000    1.655    0.000    0.000 
#    0.000    0.000    0.000    0.000    0.000    0.000 
#
# Total GULP energy -162129.006210 kJ/mol
# GULP energy per Si atom -5590.655387 kJ/mol
# Density = 2.623022 g / cm^3
# Si number density = 26.290054 Si / 1000 Ang^3
#
#
#
# Elastic Constant Matrix: (Units=GPa)
#
#
# Indices 1 2 3 4 5 6 
#
# 1 91.2648 -6.0822 0.9442 0.0000 15.3609 0.0000
# 2 -6.0822 141.5372 9.4883 0.0000 6.4774 -0.0002
# 3 0.9442 9.4883 139.8582 0.0000 12.5631 0.0000
# 4 0.0000 0.0000 0.0000 7.9890 0.0000 -0.5382
# 5 15.3609 6.4774 12.5631 0.0000 46.8289 0.0000
# 6 0.0000 -0.0002 0.0000 -0.5382 0.0000 -2.3815
#
#
#
# Elastic Compliance Matrix: (Units=1/GPa)
#
#
# Indices 1 2 3 4 5 6 
#
# 1 0.011670 0.000668 0.000234 0.000000 -0.003983 0.000000
# 2 0.000668 0.007171 -0.000392 0.000000 -0.001106 -0.000001
# 3 0.000234 -0.000392 0.007354 0.000000 -0.001995 0.000000
# 4 0.000000 0.000000 0.000000 0.123296 0.000000 -0.027861
# 5 -0.003983 -0.001106 -0.001995 0.000000 0.023349 0.000000
# 6 0.000000 -0.000001 0.000000 -0.027861 0.000000 -0.413605
#
#
# Mechanical properties :
#
#
# Convention : Reuss Voigt Hill
#
# Bulk Modulus (GPa) = 36.74440 42.37342 39.55891
# Shear Modulus (GPa) = -21.48563 35.04126 6.77781
#
# Velocity S-wave (km/s) = -2.86187 3.65481 1.60739
# Velocity P-wave (km/s) = 1.75685 5.82777 4.30403
#
# Compressibility (1/GPa) = 0.02721503
#
# Stress axis : x y z
#
# Youngs Moduli (GPa) = 85.69260 139.45333 135.97410
#
# Poissons Ratio (x) = -0.09317 -0.03177
# Poissons Ratio (y) = -0.05725 0.05325
# Poissons Ratio (z) = -0.02002 0.05462
#
# Static dielectric constant tensor:
#      x y z
#    x 2.151900 0.000000 0.038840 
#    y 0.000000 1.988910 0.000000 
#    z 0.038840 0.000000 2.063300 
# 
# From -- ./inp_files/346570.got.cif
#   From: 2010.05.17/outbox.cif.g08.bks.cpg/sg12_174_cif.got.tgz:346570.got - 2010.06.03 13:09:07.
