data_PCOD9195780
_publ_section_title
;
Structure prediction by ZEFSAII (Michael W. Deem and Ramdas Pophale) SiO2 
 PCOD9195780
Probable space group: C 2/M
;
_chemical_formula_sum "Si O2"
_cell_formula_units_Z 56
_cell_length_a 15.857980
_cell_length_b 7.692556
_cell_length_c 20.321788
_cell_angle_alpha 90.000000
_cell_angle_beta 90.997296
_cell_angle_gamma 90.000000
_cell_volume 2478.646859
_symmetry_space_group_name_H-M "C 2/M"
_symmetry_group_IT_number 12
_symmetry_cell_setting 'monoclinic'
loop_
_space_group_symop_operation_xyz
x,y,z
-x,y,-z
-x,-y,-z
x,-y,z
1/2+x,1/2+y,z
1/2-x,1/2+y,-z
1/2-x,1/2-y,-z
1/2+x,1/2-y,z
loop_
_atom_site_type_symbol
_atom_site_label
_atom_site_fract_x
_atom_site_fract_y
_atom_site_fract_z
Si Si1 0.125659 0.801833 0.443042
Si Si2 0.182669 0.791099 0.577650
Si Si3 0.582356 0.301372 0.303568
Si Si4 0.869974 0.207303 0.832742
Si Si5 0.314207 0.707457 0.146982
Si Si6 0.022164 0.212957 0.926671
Si Si7 0.102038 0.701580 0.715479
O O1 0.121284 0.730274 0.517269
O O2 0.226317 0.795828 0.430569
O O3 0.087721 0.719384 0.376343
O O4 0.092905 0.000000 0.446391
O O5 0.147796 0.752428 0.648856
O O6 0.192944 0.000000 0.570623
O O7 0.614194 0.500000 0.312515
O O8 0.630943 0.220878 0.242107
O O9 0.485311 0.304132 0.280624
O O10 0.781289 0.236525 0.866816
O O11 0.949385 0.272673 0.875409
O O12 0.881705 0.000000 0.825975
O O13 0.316189 0.500000 0.146245
O O14 0.386374 0.770219 0.097911
O O15 0.341034 0.767230 0.220148
O O16 0.021626 0.000000 0.926326
O O17 0.000000 0.268504 0.000000
O O18 0.079431 0.500000 0.712422
#
# Coordination Sequence:
#
# PCOD9195780 Si02
#       7
#     8   8   8   8   8   8   8
#     4   9  19  35  56  81 112 150 194 245 299 356
#     4  10  20  35  55  80 112 151 195 244 298 357
#     4  10  20  37  58  81 112 152 197 244 299 357
#     4  10  20  37  62  91 124 163 201 243 297 355
#     4  11  22  39  63  91 121 159 203 248 298 357
#     4   9  19  38  63  91 126 165 200 237 292 361
#     4  12  24  37  56  82 114 152 198 252 302 353
#
# _framework density 22.592972
#
# number of rings (size 3 to 8) (size 9 to 14) (size 15 to 20)
#    0.000    1.857    1.429    3.000    0.000    4.000 
#    0.000    2.857    0.000    3.000    0.000    0.000 
#    0.000    0.000    0.000    0.000    0.000    0.000 
#
# Total GULP energy -156403.312007 kJ/mol
# GULP energy per Si atom -5585.832572 kJ/mol
# Density = 2.254155 g / cm^3
# Si number density = 22.592972 Si / 1000 Ang^3
#
#
#
# Elastic Constant Matrix: (Units=GPa)
#
#
# Indices 1 2 3 4 5 6 
#
# 1 13.6215 -36.2627 -53.1581 0.0000 -14.9546 0.0000
# 2 -36.2627 44.6571 -31.3404 0.0000 6.3433 0.0000
# 3 -53.1581 -31.3404 26.4090 0.0000 -21.2523 0.0000
# 4 0.0000 0.0000 0.0000 -2.1244 0.0000 -3.1358
# 5 -14.9546 6.3433 -21.2523 0.0000 34.7799 0.0000
# 6 0.0000 0.0000 0.0000 -3.1358 0.0000 22.0770
#
#
#
# Elastic Compliance Matrix: (Units=1/GPa)
#
#
# Indices 1 2 3 4 5 6 
#
# 1 0.000568 -0.007206 -0.012108 0.000000 -0.005840 0.000000
# 2 -0.007206 0.012619 -0.007625 0.000000 -0.010059 0.000000
# 3 -0.012108 -0.007625 0.002707 0.000000 -0.002161 0.000000
# 4 0.000000 0.000000 0.000000 -0.389128 0.000000 -0.055272
# 5 -0.005840 -0.010059 -0.002161 0.000000 0.026755 0.000000
# 6 0.000000 0.000000 0.000000 -0.055272 0.000000 0.037445
#
#
# Mechanical properties :
#
#
# Convention : Reuss Voigt Hill
#
# Bulk Modulus (GPa) = -26.32745 -17.42607 -21.87676
# Shear Modulus (GPa) = -18.66942 24.64310 2.98684
#
# Velocity S-wave (km/s) = -2.87773 3.30622 1.15104
# Velocity P-wave (km/s) = 4.76655 2.61630 2.81736
#
# Compressibility (1/GPa) = -0.03798317
#
# Stress axis : x y z
#
# Youngs Moduli (GPa) = 1759.98349 79.24586 369.42067
#
# Poissons Ratio (x) = 0.57106 4.47278
# Poissons Ratio (y) = 12.68278 2.81679
# Poissons Ratio (z) = 21.30908 0.60424
#
# Static dielectric constant tensor:
#      x y z
#    x 1.828030 0.000000 -0.011490 
#    y 0.000000 1.795070 0.000000 
#    z -0.011490 0.000000 1.871430 
# 
# From -- ./inp_files/308974.got.cif
#   From: 2010.05.17/outbox.cif.g08.bks.cpg/sg12_155_cif.got.tgz:308974.got - 2010.06.03 13:09:07.
