data_PCOD9195027
_publ_section_title
;
Structure prediction by ZEFSAII (Michael W. Deem and Ramdas Pophale) SiO2 
 PCOD9195027
Probable space group: C 2/M
;
_chemical_formula_sum "Si O2"
_cell_formula_units_Z 36
_cell_length_a 8.780233
_cell_length_b 14.328964
_cell_length_c 21.658141
_cell_angle_alpha 90.000000
_cell_angle_beta 147.673210
_cell_angle_gamma 90.000000
_cell_volume 1457.104780
_symmetry_space_group_name_H-M "C 2/M"
_symmetry_group_IT_number 12
_symmetry_cell_setting 'monoclinic'
loop_
_space_group_symop_operation_xyz
x,y,z
-x,y,-z
-x,-y,-z
x,-y,z
1/2+x,1/2+y,z
1/2-x,1/2+y,-z
1/2-x,1/2-y,-z
1/2+x,1/2-y,z
loop_
_atom_site_type_symbol
_atom_site_label
_atom_site_fract_x
_atom_site_fract_y
_atom_site_fract_z
Si Si1 0.081628 0.500000 0.814101
Si Si2 0.735693 0.500000 0.989908
Si Si3 0.450235 0.807398 0.253635
Si Si4 0.901546 0.000000 0.691350
Si Si5 0.000000 0.834769 0.500000
Si Si6 0.909930 0.845112 0.152146
Si Si7 0.266208 0.500000 0.505130
O O1 0.412242 0.500000 0.904841
O O2 0.961192 0.407570 0.742871
O O3 0.070818 0.500000 0.883866
O O4 0.756415 0.406578 0.955714
O O5 0.749005 0.772336 0.384071
O O6 0.210909 0.820479 0.223157
O O7 0.310806 0.750259 0.149473
O O8 0.040850 0.911968 0.772789
O O9 0.916807 0.000000 0.623291
O O10 0.570678 0.000000 0.598070
O O11 0.847276 0.906441 0.495277
#
# Coordination Sequence:
#
# PCOD9195027 Si02
#       7
#     4   4   8   4   4   8   4
#     4   9  18  39  64  86 110 158 194 245 294 357
#     4   8  18  39  66  83 114 152 197 239 307 345
#     4  11  23  38  59  87 124 154 202 236 292 344
#     4  10  20  39  56  79 115 159 196 245 281 346
#     4  11  22  36  56  89 120 164 190 243 278 353
#     4  10  22  39  58  89 118 154 196 247 286 355
#     4  10  20  34  60  80 111 159 208 232 286 333
#
# _framework density 24.706527999999999
#
# number of rings (size 3 to 8) (size 9 to 14) (size 15 to 20)
#    0.000    2.000    2.222    2.000    3.111    3.556 
#    0.000    0.000    0.000    1.333    0.000    0.000 
#    0.000    0.000    0.000    0.000    0.000    0.000 
#
# Total GULP energy -100782.575079 kJ/mol
# GULP energy per Si atom -5599.031949 kJ/mol
# Density = 2.465029 g / cm^3
# Si number density = 24.706528 Si / 1000 Ang^3
#
#
#
# Elastic Constant Matrix: (Units=GPa)
#
#
# Indices 1 2 3 4 5 6 
#
# 1 125.3067 21.8340 34.2606 -0.0001 -17.8851 -0.0002
# 2 21.8340 71.0112 -4.7883 0.0003 -15.6235 0.0000
# 3 34.2606 -4.7883 90.0358 0.0021 -12.7458 0.0001
# 4 -0.0001 0.0003 0.0021 12.3154 -0.0003 -11.5355
# 5 -17.8851 -15.6235 -12.7458 -0.0003 46.1305 -0.0003
# 6 -0.0002 0.0000 0.0001 -11.5355 -0.0003 23.2342
#
#
#
# Elastic Compliance Matrix: (Units=1/GPa)
#
#
# Indices 1 2 3 4 5 6 
#
# 1 0.009714 -0.002829 -0.003590 0.000002 0.001816 0.000001
# 2 -0.002829 0.016265 0.002671 -0.000001 0.005150 -0.000001
# 3 -0.003590 0.002671 0.013056 -0.000004 0.003120 -0.000002
# 4 0.000002 -0.000001 -0.000004 0.151787 0.000000 0.075360
# 5 0.001816 0.005150 0.003120 0.000000 0.024988 0.000001
# 6 0.000001 -0.000001 -0.000002 0.075360 0.000001 0.080455
#
#
# Mechanical properties :
#
#
# Convention : Reuss Voigt Hill
#
# Bulk Modulus (GPa) = 31.70681 43.21845 37.46263
# Shear Modulus (GPa) = 15.90956 32.00586 23.95771
#
# Velocity S-wave (km/s) = 2.54035 3.60313 3.11737
# Velocity P-wave (km/s) = 4.63312 5.90261 5.30596
#
# Compressibility (1/GPa) = 0.03153896
#
# Stress axis : x y z
#
# Youngs Moduli (GPa) = 102.94281 61.48052 76.59058
#
# Poissons Ratio (x) = 0.17395 0.27495
# Poissons Ratio (y) = 0.29126 -0.20455
# Poissons Ratio (z) = 0.36954 -0.16419
#
# Static dielectric constant tensor:
#      x y z
#    x 1.923580 0.000000 0.037530 
#    y 0.000000 1.960410 0.000000 
#    z 0.037530 0.000000 1.943040 
# 
# From -- ./inp_files/300122.got.cif
#   From: 2010.05.17/outbox.cif.g08.bks.cpg/sg12_151_cif.got.tgz:300122.got - 2010.06.03 13:09:07.
