data_PCOD9195850
_publ_section_title
;
Structure prediction by ZEFSAII (Michael W. Deem and Ramdas Pophale) SiO2 
 PCOD9195850
Probable space group: C 2/M
;
_chemical_formula_sum "Si O2"
_cell_formula_units_Z 44
_cell_length_a 14.419113
_cell_length_b 12.427572
_cell_length_c 10.796400
_cell_angle_alpha 90.000000
_cell_angle_beta 108.159442
_cell_angle_gamma 90.000000
_cell_volume 1838.296599
_symmetry_space_group_name_H-M "C 2/M"
_symmetry_group_IT_number 12
_symmetry_cell_setting 'monoclinic'
loop_
_space_group_symop_operation_xyz
x,y,z
-x,y,-z
-x,-y,-z
x,-y,z
1/2+x,1/2+y,z
1/2-x,1/2+y,-z
1/2-x,1/2-y,-z
1/2+x,1/2-y,z
loop_
_atom_site_type_symbol
_atom_site_label
_atom_site_fract_x
_atom_site_fract_y
_atom_site_fract_z
Si Si1 0.811126 0.720565 0.220981
Si Si2 0.843391 0.123873 0.010201
Si Si3 0.267679 0.881215 0.616940
Si Si4 0.500000 0.202328 0.000000
Si Si5 0.935855 0.118936 0.597891
Si Si6 0.520095 0.168018 0.278508
O O1 0.753046 0.635552 0.113787
O O2 0.753750 0.776846 0.308375
O O3 0.914134 0.663946 0.297564
O O4 0.826744 0.825172 0.138612
O O5 0.911014 0.215583 0.978483
O O6 0.876243 0.000000 0.025704
O O7 0.178442 0.878229 0.483298
O O8 0.380535 0.876592 0.621059
O O9 0.256842 0.000000 0.674244
O O10 0.511402 0.135615 0.131253
O O11 0.961030 0.204048 0.711278
O O12 0.000000 0.141787 0.500000
O O13 0.962783 0.000000 0.649305
#
# Coordination Sequence:
#
# PCOD9195850 Si02
#       6
#     8   8   8   4   8   8
#     4  10  21  37  57  84 121 159 198 242 297 355
#     4  10  20  35  55  82 119 158 198 241 293 354
#     4  11  22  40  62  89 119 158 202 244 296 356
#     4  10  21  36  59  90 118 150 195 238 305 350
#     4  10  21  38  64  90 114 154 204 247 296 350
#     4  11  22  39  62  88 124 153 196 247 297 352
#
# _framework density 23.935200999999999
#
# number of rings (size 3 to 8) (size 9 to 14) (size 15 to 20)
#    0.000    1.636    3.636    1.364    0.000    4.364 
#    0.000    0.455    0.000    0.545    0.000    0.000 
#    0.000    0.000    0.000    0.000    0.000    0.000 
#
# Total GULP energy -122742.804074 kJ/mol
# GULP energy per Si atom -5579.218367 kJ/mol
# Density = 2.388072 g / cm^3
# Si number density = 23.935201 Si / 1000 Ang^3
#
#
#
# Elastic Constant Matrix: (Units=GPa)
#
#
# Indices 1 2 3 4 5 6 
#
# 1 114.6181 5.4829 19.2387 0.0000 35.2220 0.0000
# 2 5.4829 62.1276 15.3480 0.0000 -10.5887 0.0000
# 3 19.2387 15.3480 43.1068 0.0000 20.8962 0.0000
# 4 0.0000 0.0000 0.0000 -11.3993 0.0000 -11.6647
# 5 35.2220 -10.5887 20.8962 0.0000 45.4252 0.0000
# 6 0.0000 0.0000 0.0000 -11.6647 0.0000 1.0174
#
#
#
# Elastic Compliance Matrix: (Units=1/GPa)
#
#
# Indices 1 2 3 4 5 6 
#
# 1 0.011895 -0.002973 0.000716 0.000000 -0.010246 0.000000
# 2 -0.002973 0.021816 -0.012900 0.000000 0.013325 0.000000
# 3 0.000716 -0.012900 0.037578 0.000000 -0.020849 0.000000
# 4 0.000000 0.000000 0.000000 -0.006890 0.000000 -0.078996
# 5 -0.010246 0.013325 -0.020849 0.000000 0.042655 0.000000
# 6 0.000000 0.000000 0.000000 -0.078996 0.000000 0.077198
#
#
# Mechanical properties :
#
#
# Convention : Reuss Voigt Hill
#
# Bulk Modulus (GPa) = 24.40437 33.33240 28.86838
# Shear Modulus (GPa) = 21.90827 18.99419 20.45123
#
# Velocity S-wave (km/s) = 3.02870 2.82009 2.92625
# Velocity P-wave (km/s) = 4.73802 4.95582 4.84815
#
# Compressibility (1/GPa) = 0.04097627
#
# Stress axis : x y z
#
# Youngs Moduli (GPa) = 84.06801 45.83790 26.61140
#
# Poissons Ratio (x) = 0.13628 -0.01907
# Poissons Ratio (y) = 0.24993 0.34328
# Poissons Ratio (z) = -0.06023 0.59130
#
# Static dielectric constant tensor:
#      x y z
#    x 2.055810 0.000000 0.017810 
#    y 0.000000 1.890030 0.000000 
#    z 0.017810 0.000000 1.947730 
# 
# From -- ./inp_files/143294.got.cif
#   From: 2010.05.17/outbox.cif.g08.bks.cpg/sg12_72_cif.got.tgz:143294.got - 2010.06.03 13:09:07.
