data_PCOD9195773
_publ_section_title
;
Structure prediction by ZEFSAII (Michael W. Deem and Ramdas Pophale) SiO2 
 PCOD9195773
Probable space group: C 2/M
;
_chemical_formula_sum "Si O2"
_cell_formula_units_Z 56
_cell_length_a 27.805204
_cell_length_b 7.541995
_cell_length_c 14.043552
_cell_angle_alpha 90.000000
_cell_angle_beta 60.784069
_cell_angle_gamma 90.000000
_cell_volume 2570.379568
_symmetry_space_group_name_H-M "C 2/M"
_symmetry_group_IT_number 12
_symmetry_cell_setting 'monoclinic'
loop_
_space_group_symop_operation_xyz
x,y,z
-x,y,-z
-x,-y,-z
x,-y,z
1/2+x,1/2+y,z
1/2-x,1/2+y,-z
1/2-x,1/2-y,-z
1/2+x,1/2-y,z
loop_
_atom_site_type_symbol
_atom_site_label
_atom_site_fract_x
_atom_site_fract_y
_atom_site_fract_z
Si Si1 0.595781 0.783515 0.253808
Si Si2 0.162744 0.794498 0.827653
Si Si3 0.760428 0.287454 0.600229
Si Si4 0.972754 0.283058 0.314936
Si Si5 0.042653 0.704827 0.883616
Si Si6 0.689742 0.788862 0.016656
Si Si7 0.879938 0.282874 0.553939
O O1 0.534593 0.729239 0.282300
O O2 0.642424 0.723749 0.134572
O O3 0.608885 0.727359 0.348674
O O4 0.596634 0.000000 0.252536
O O5 0.210554 0.719004 0.713668
O O6 0.103728 0.707964 0.867092
O O7 0.154850 0.000000 0.809721
O O8 0.181432 0.783669 0.918812
O O9 0.761451 0.500000 0.612135
O O10 0.750000 0.250000 0.500000
O O11 0.820121 0.222457 0.576090
O O12 0.971206 0.500000 0.318334
O O13 0.958543 0.221197 0.222057
O O14 0.927771 0.224825 0.435611
O O15 0.024945 0.500000 0.888508
O O16 0.000000 0.786911 0.000000
O O17 0.683732 0.000000 0.015080
O O18 0.750000 0.750000 0.000000
O O19 0.880030 0.500000 0.553325
#
# Coordination Sequence:
#
# PCOD9195773 Si02
#       7
#     8   8   8   8   8   8   8
#     4   9  17  30  49  75 106 137 171 218 272 322
#     4  11  23  38  56  81 113 147 185 229 280 338
#     4  10  21  36  54  78 109 144 182 228 279 333
#     4   9  16  27  48  77 105 136 175 218 268 324
#     4  10  20  35  55  80 111 146 187 233 278 329
#     4  11  22  37  57  80 110 146 184 229 279 333
#     4   9  16  28  48  74 104 135 171 218 269 321
#
# _framework density 21.786664999999999
#
# number of rings (size 3 to 8) (size 9 to 14) (size 15 to 20)
#    0.000    2.143    0.000    3.857    0.000    8.857 
#    0.000    0.000    0.000    0.000    0.000    0.000 
#    0.000   11.429    0.000    0.000    0.000    0.000 
#
# Total GULP energy -156530.913100 kJ/mol
# GULP energy per Si atom -5590.389754 kJ/mol
# Density = 2.173708 g / cm^3
# Si number density = 21.786665 Si / 1000 Ang^3
#
#
#
# Elastic Constant Matrix: (Units=GPa)
#
#
# Indices 1 2 3 4 5 6 
#
# 1 179.5174 -14.6425 110.4394 0.0000 -6.8806 0.0000
# 2 -14.6425 54.1921 -5.8859 0.0000 -5.8154 0.0000
# 3 110.4394 -5.8859 228.2214 0.0000 -11.4732 0.0000
# 4 0.0000 0.0000 0.0000 1.3992 0.0000 7.2211
# 5 -6.8806 -5.8154 -11.4732 0.0000 49.4026 0.0000
# 6 0.0000 0.0000 0.0000 7.2211 0.0000 15.6409
#
#
#
# Elastic Compliance Matrix: (Units=1/GPa)
#
#
# Indices 1 2 3 4 5 6 
#
# 1 0.008107 0.001820 -0.003854 0.000000 0.000448 0.000000
# 2 0.001820 0.019179 -0.000263 0.000000 0.002450 0.000000
# 3 -0.003854 -0.000263 0.006285 0.000000 0.000892 0.000000
# 4 0.000000 0.000000 0.000000 -0.516887 0.000000 0.238636
# 5 0.000448 0.002450 0.000892 0.000000 0.020800 0.000000
# 6 0.000000 0.000000 0.000000 0.238636 0.000000 -0.046238
#
#
# Mechanical properties :
#
#
# Convention : Reuss Voigt Hill
#
# Bulk Modulus (GPa) = 34.50958 71.30590 52.90774
# Shear Modulus (GPa) = -10.11116 38.08985 13.98934
#
# Velocity S-wave (km/s) = -2.15663 4.18582 2.53673
# Velocity P-wave (km/s) = 3.11010 7.49410 5.73735
#
# Compressibility (1/GPa) = 0.02897746
#
# Stress axis : x y z
#
# Youngs Moduli (GPa) = 123.35289 52.14041 159.12069
#
# Poissons Ratio (x) = -0.09490 0.61318
# Poissons Ratio (y) = -0.22450 0.04184
# Poissons Ratio (z) = 0.47534 0.01371
#
# Static dielectric constant tensor:
#      x y z
#    x 1.621380 0.000000 -0.027060 
#    y 0.000000 1.899290 0.000000 
#    z -0.027060 0.000000 1.762580 
# 
# From -- ./inp_files/180843.got.cif
#   From: 2010.05.17/outbox.cif.g08.bks.cpg/sg12_91_cif.got.tgz:180843.got - 2010.06.03 13:09:07.
