data_PCOD9195454
_publ_section_title
;
Structure prediction by ZEFSAII (Michael W. Deem and Ramdas Pophale) SiO2 
 PCOD9195454
Probable space group: C 2/M
;
_chemical_formula_sum "Si O2"
_cell_formula_units_Z 56
_cell_length_a 12.791720
_cell_length_b 15.518023
_cell_length_c 15.364513
_cell_angle_alpha 90.000000
_cell_angle_beta 79.626008
_cell_angle_gamma 90.000000
_cell_volume 3000.034115
_symmetry_space_group_name_H-M "C 2/M"
_symmetry_group_IT_number 12
_symmetry_cell_setting 'monoclinic'
loop_
_space_group_symop_operation_xyz
x,y,z
-x,y,-z
-x,-y,-z
x,-y,z
1/2+x,1/2+y,z
1/2-x,1/2+y,-z
1/2-x,1/2-y,-z
1/2+x,1/2-y,z
loop_
_atom_site_type_symbol
_atom_site_label
_atom_site_fract_x
_atom_site_fract_y
_atom_site_fract_z
Si Si1 0.771739 0.660818 0.447879
Si Si2 0.172864 0.321762 0.972924
Si Si3 0.490647 0.229777 0.874927
Si Si4 0.395904 0.091334 0.577232
Si Si5 0.989243 0.724473 0.332961
Si Si6 0.629663 0.595638 0.133392
Si Si7 0.411880 0.599606 0.655287
O O1 0.750000 0.750000 0.500000
O O2 0.800121 0.598893 0.524054
O O3 0.679324 0.625746 0.399844
O O4 0.879338 0.680235 0.377654
O O5 0.252258 0.392991 0.923518
O O6 0.102431 0.282613 0.905670
O O7 0.250000 0.250000 0.000000
O O8 0.089315 0.335998 0.063777
O O9 0.499080 0.216139 0.771586
O O10 0.443610 0.326765 0.891520
O O11 0.500000 0.091620 0.500000
O O12 0.414058 0.172690 0.636087
O O13 0.392332 0.000000 0.625738
O O14 0.999548 0.824497 0.360892
O O15 0.588576 0.500000 0.119426
O O16 0.631600 0.604382 0.238488
O O17 0.445838 0.500000 0.635443
#
# Coordination Sequence:
#
# PCOD9195454 Si02
#       7
#     8   8   8   8   8   8   8
#     4  11  20  33  54  78 107 142 184 225 272 323
#     4   9  17  33  53  78 105 136 174 210 258 318
#     4   9  18  33  54  77 104 143 175 215 267 324
#     4   9  18  33  52  72 100 134 175 221 266 317
#     4  10  20  35  54  78 107 141 182 226 273 322
#     4   9  18  33  55  82 110 139 179 220 262 316
#     4  10  20  35  56  82 111 147 183 223 270 325
#
# _framework density 18.666454000000002
#
# number of rings (size 3 to 8) (size 9 to 14) (size 15 to 20)
#    0.000    2.429    1.429    1.286    0.000    0.571 
#    0.000   10.714    0.000    0.000    0.000    0.000 
#    0.000    0.000    0.000    0.000    0.000    0.000 
#
# Total GULP energy -155886.030821 kJ/mol
# GULP energy per Si atom -5567.358244 kJ/mol
# Density = 1.862397 g / cm^3
# Si number density = 18.666454 Si / 1000 Ang^3
#
#
#
# Elastic Constant Matrix: (Units=GPa)
#
#
# Indices 1 2 3 4 5 6 
#
# 1 35.1516 -4.9174 9.2884 0.0000 10.0386 0.0000
# 2 -4.9174 84.6668 19.7490 0.0000 1.3227 0.0000
# 3 9.2884 19.7490 57.7982 0.0000 10.5425 0.0000
# 4 0.0000 0.0000 0.0000 21.8850 0.0000 -0.0632
# 5 10.0386 1.3227 10.5425 0.0000 19.1433 0.0000
# 6 0.0000 0.0000 0.0000 -0.0632 0.0000 15.2065
#
#
#
# Elastic Compliance Matrix: (Units=1/GPa)
#
#
# Indices 1 2 3 4 5 6 
#
# 1 0.034499 0.003105 -0.003631 0.000000 -0.016306 0.000000
# 2 0.003105 0.013163 -0.005040 0.000000 0.000238 0.000000
# 3 -0.003631 -0.005040 0.021340 0.000000 -0.009500 0.000000
# 4 0.000000 0.000000 0.000000 0.045694 0.000000 0.000190
# 5 -0.016306 0.000238 -0.009500 0.000000 0.066004 0.000000
# 6 0.000000 0.000000 0.000000 0.000190 0.000000 0.065762
#
#
# Mechanical properties :
#
#
# Convention : Reuss Voigt Hill
#
# Bulk Modulus (GPa) = 17.27997 25.09516 21.18757
# Shear Modulus (GPa) = 18.05815 21.48007 19.76911
#
# Velocity S-wave (km/s) = 3.11370 3.39592 3.25787
# Velocity P-wave (km/s) = 4.71213 5.37118 5.05241
#
# Compressibility (1/GPa) = 0.05787047
#
# Stress axis : x y z
#
# Youngs Moduli (GPa) = 28.98667 75.96883 46.86020
#
# Poissons Ratio (x) = -0.23591 0.17015
# Poissons Ratio (y) = -0.09001 0.23618
# Poissons Ratio (z) = 0.10525 0.38290
#
# Static dielectric constant tensor:
#      x y z
#    x 1.666320 0.000000 -0.025790 
#    y 0.000000 1.669400 0.000000 
#    z -0.025790 0.000000 1.653510 
# 
# From -- ./inp_files/214218.got.cif
#   From: 2010.05.17/outbox.cif.g08.bks.cpg/sg12_108_cif.got.tgz:214218.got - 2010.06.03 13:09:07.
