data_PCOD9195732
_publ_section_title
;
Structure prediction by ZEFSAII (Michael W. Deem and Ramdas Pophale) SiO2 
 PCOD9195732
Probable space group: C 2/M
;
_chemical_formula_sum "Si O2"
_cell_formula_units_Z 48
_cell_length_a 14.904818
_cell_length_b 13.200200
_cell_length_c 17.488121
_cell_angle_alpha 90.000000
_cell_angle_beta 146.297539
_cell_angle_gamma 90.000000
_cell_volume 1909.191693
_symmetry_space_group_name_H-M "C 2/M"
_symmetry_group_IT_number 12
_symmetry_cell_setting 'monoclinic'
loop_
_space_group_symop_operation_xyz
x,y,z
-x,y,-z
-x,-y,-z
x,-y,z
1/2+x,1/2+y,z
1/2-x,1/2+y,-z
1/2-x,1/2-y,-z
1/2+x,1/2-y,z
loop_
_atom_site_type_symbol
_atom_site_label
_atom_site_fract_x
_atom_site_fract_y
_atom_site_fract_z
Si Si1 0.062401 0.333227 0.432597
Si Si2 0.367307 0.889190 0.839978
Si Si3 0.048870 0.158874 0.829963
Si Si4 0.601290 0.109367 0.862067
Si Si5 0.643419 0.607668 0.454247
Si Si6 0.251217 0.174563 0.280924
O O1 0.170739 0.376264 0.440807
O O2 0.090038 0.211393 0.455168
O O3 0.155439 0.360701 0.576658
O O4 0.875151 0.365659 0.304192
O O5 0.467403 0.897021 0.833248
O O6 0.253848 0.793540 0.745584
O O7 0.292760 0.000000 0.804382
O O8 0.500000 0.867734 0.000000
O O9 0.074920 0.274137 0.817054
O O10 0.959575 0.105804 0.696828
O O11 0.934246 0.154115 0.824764
O O12 0.221960 0.116095 0.973531
O O13 0.598174 0.000000 0.819315
O O14 0.628184 0.500000 0.484611
#
# Coordination Sequence:
#
# PCOD9195732 Si02
#       6
#     8   8   8   8   8   8
#     4   9  20  36  53  78 108 138 176 214 262 316
#     4   9  18  29  46  77 107 135 174 216 264 313
#     4   9  18  32  51  77 107 139 180 216 258 314
#     4   9  17  31  50  74 107 143 178 214 262 314
#     4  10  20  35  55  80 105 135 176 220 264 313
#     4   9  18  35  52  72 109 142 172 216 264 307
#
# _framework density 25.141531000000001
#
# number of rings (size 3 to 8) (size 9 to 14) (size 15 to 20)
#    0.000    2.833    0.000    0.500    2.333    1.333 
#    0.000   17.500    0.000    0.000    0.000    1.167 
#    0.000    0.000    0.000    0.000    0.000    0.000 
#
# Total GULP energy -133810.707686 kJ/mol
# GULP energy per Si atom -5575.446154 kJ/mol
# Density = 2.508431 g / cm^3
# Si number density = 25.141531 Si / 1000 Ang^3
#
#
#
# Elastic Constant Matrix: (Units=GPa)
#
#
# Indices 1 2 3 4 5 6 
#
# 1 63.0773 -3.0135 10.3368 -0.0001 17.3723 -0.0001
# 2 -3.0135 119.7128 24.9468 0.0004 -3.7544 0.0001
# 3 10.3368 24.9468 69.1159 0.0003 19.6989 -0.0001
# 4 -0.0001 0.0004 0.0003 -163.6119 0.0000 -70.0267
# 5 17.3723 -3.7544 19.6989 0.0000 40.4039 -0.0002
# 6 -0.0001 0.0001 -0.0001 -70.0267 -0.0002 -10.3264
#
#
#
# Elastic Compliance Matrix: (Units=1/GPa)
#
#
# Indices 1 2 3 4 5 6 
#
# 1 0.018017 0.000376 -0.000734 0.000000 -0.007354 0.000000
# 2 0.000376 0.009326 -0.004208 0.000000 0.002757 0.000000
# 3 -0.000734 -0.004208 0.018720 0.000000 -0.009202 0.000000
# 4 0.000000 0.000000 0.000000 0.003213 0.000000 -0.021787
# 5 -0.007354 0.002757 -0.009202 0.000000 0.032655 0.000000
# 6 0.000000 0.000000 0.000000 -0.021787 0.000000 0.050903
#
#
# Mechanical properties :
#
#
# Convention : Reuss Voigt Hill
#
# Bulk Modulus (GPa) = 27.07811 35.16071 31.11941
# Shear Modulus (GPa) = 32.40939 -12.06448 10.17246
#
# Velocity S-wave (km/s) = 3.59427 -2.19295 2.01367
# Velocity P-wave (km/s) = 5.29327 2.75743 4.22031
#
# Compressibility (1/GPa) = 0.03693020
#
# Stress axis : x y z
#
# Youngs Moduli (GPa) = 55.50248 107.22526 53.41916
#
# Poissons Ratio (x) = -0.04031 0.03923
# Poissons Ratio (y) = -0.02087 0.22479
# Poissons Ratio (z) = 0.04076 0.45121
#
# Static dielectric constant tensor:
#      x y z
#    x 2.012250 0.000000 -0.019660 
#    y 0.000000 2.132070 0.000000 
#    z -0.019660 0.000000 1.992830 
# 
# From -- ./inp_files/316337.got.cif
#   From: 2010.05.17/outbox.cif.g08.bks.cpg/sg12_159_cif.got.tgz:316337.got - 2010.06.03 13:09:07.
