data_PCOD9195543
_publ_section_title
;
Structure prediction by ZEFSAII (Michael W. Deem and Ramdas Pophale) SiO2 
 PCOD9195543
Probable space group: C 2/M
;
_chemical_formula_sum "Si O2"
_cell_formula_units_Z 48
_cell_length_a 22.818870
_cell_length_b 10.590470
_cell_length_c 12.684867
_cell_angle_alpha 90.000000
_cell_angle_beta 122.861487
_cell_angle_gamma 90.000000
_cell_volume 2574.937583
_symmetry_space_group_name_H-M "C 2/M"
_symmetry_group_IT_number 12
_symmetry_cell_setting 'monoclinic'
loop_
_space_group_symop_operation_xyz
x,y,z
-x,y,-z
-x,-y,-z
x,-y,z
1/2+x,1/2+y,z
1/2-x,1/2+y,-z
1/2-x,1/2-y,-z
1/2+x,1/2-y,z
loop_
_atom_site_type_symbol
_atom_site_label
_atom_site_fract_x
_atom_site_fract_y
_atom_site_fract_z
Si Si1 0.185963 0.500000 0.011599
Si Si2 0.728148 0.864159 0.405259
Si Si3 0.214783 0.738741 0.170058
Si Si4 0.528466 0.000000 0.910848
Si Si5 0.070928 0.679957 0.304055
Si Si6 0.297962 0.000000 0.218111
Si Si7 0.069381 0.500000 0.497105
Si Si8 0.925119 0.146998 0.872595
O O1 0.219498 0.632106 0.084053
O O2 0.110511 0.500000 0.991583
O O3 0.176574 0.500000 0.877562
O O4 0.750000 0.750000 0.500000
O O5 0.746549 0.828396 0.304470
O O6 0.644666 0.871704 0.333556
O O7 0.757792 0.000000 0.466035
O O8 0.253276 0.871477 0.188220
O O9 0.135108 0.774522 0.125617
O O10 0.495457 0.883266 0.816119
O O11 0.500000 0.000000 0.000000
O O12 0.069218 0.625361 0.421342
O O13 0.072061 0.817141 0.249520
O O14 0.361734 0.000000 0.363258
O O15 0.000000 0.500000 0.500000
O O16 0.908265 0.000000 0.867292
O O17 0.000000 0.170296 0.000000
#
# Coordination Sequence:
#
# PCOD9195543 Si02
#       8
#     4   8   8   4   8   4   4   8
#     4  12  24  40  64  89 118 165 204 255 305 365
#     4  11  21  35  58  87 121 153 193 243 306 360
#     4  11  23  40  59  90 127 157 204 250 305 370
#     4  11  18  33  62  88 115 144 194 253 306 348
#     4  10  20  35  54  85 117 145 194 251 298 353
#     4  12  25  43  60  86 121 169 205 253 304 364
#     4  11  23  40  63  87 112 156 212 259 300 361
#     4  10  20  35  60  93 125 160 196 246 314 373
#
# _framework density 18.641228999999999
#
# number of rings (size 3 to 8) (size 9 to 14) (size 15 to 20)
#    0.000    1.167    3.333    6.000    1.167    0.667 
#    0.000    0.000    0.000    0.500    0.000    0.000 
#    0.000    0.000    0.000    0.000    0.000    0.000 
#
# Total GULP energy -133708.157579 kJ/mol
# GULP energy per Si atom -5571.173232 kJ/mol
# Density = 1.859880 g / cm^3
# Si number density = 18.641229 Si / 1000 Ang^3
#
#
#
# Elastic Constant Matrix: (Units=GPa)
#
#
# Indices 1 2 3 4 5 6 
#
# 1 65.2955 22.2543 21.7022 0.0000 -9.8568 0.0000
# 2 22.2543 134.2261 48.3573 0.0000 1.2782 0.0000
# 3 21.7022 48.3573 111.8554 0.0000 -14.6496 0.0000
# 4 0.0000 0.0000 0.0000 34.0695 0.0000 -7.5979
# 5 -9.8568 1.2782 -14.6496 0.0000 32.0145 0.0000
# 6 0.0000 0.0000 0.0000 -7.5979 0.0000 20.3874
#
#
#
# Elastic Compliance Matrix: (Units=1/GPa)
#
#
# Indices 1 2 3 4 5 6 
#
# 1 0.017384 -0.002286 -0.001778 0.000000 0.004630 0.000000
# 2 -0.002286 0.009278 -0.003944 0.000000 -0.002879 0.000000
# 3 -0.001778 -0.003944 0.011637 0.000000 0.004935 0.000000
# 4 0.000000 0.000000 0.000000 0.032012 0.000000 0.011930
# 5 0.004630 -0.002879 0.004935 0.000000 0.035034 0.000000
# 6 0.000000 0.000000 0.000000 0.011930 0.000000 0.053496
#
#
# Mechanical properties :
#
#
# Convention : Reuss Voigt Hill
#
# Bulk Modulus (GPa) = 44.88063 55.11162 49.99613
# Shear Modulus (GPa) = 27.42958 31.89850 29.66404
#
# Velocity S-wave (km/s) = 3.84011 4.14113 3.99345
# Velocity P-wave (km/s) = 6.61741 7.24526 6.93844
#
# Compressibility (1/GPa) = 0.02228133
#
# Stress axis : x y z
#
# Youngs Moduli (GPa) = 57.52429 107.78708 85.93468
#
# Poissons Ratio (x) = 0.24636 0.15282
# Poissons Ratio (y) = 0.13148 0.33897
# Poissons Ratio (z) = 0.10230 0.42516
#
# Static dielectric constant tensor:
#      x y z
#    x 1.561150 0.000000 -0.071300 
#    y 0.000000 1.720960 0.000000 
#    z -0.071300 0.000000 1.577060 
# 
# From -- ./inp_files/174109.got.cif
#   From: 2010.05.17/outbox.cif.g08.bks.cpg/sg12_88_cif.got.tgz:174109.got - 2010.06.03 13:09:07.
