data_PCOD9195829
_publ_section_title
;
Structure prediction by ZEFSAII (Michael W. Deem and Ramdas Pophale) SiO2 
 PCOD9195829
Probable space group: C 2/M
;
_chemical_formula_sum "Si O2"
_cell_formula_units_Z 48
_cell_length_a 15.041880
_cell_length_b 23.481818
_cell_length_c 11.376096
_cell_angle_alpha 90.000000
_cell_angle_beta 138.927509
_cell_angle_gamma 90.000000
_cell_volume 2639.983978
_symmetry_space_group_name_H-M "C 2/M"
_symmetry_group_IT_number 12
_symmetry_cell_setting 'monoclinic'
loop_
_space_group_symop_operation_xyz
x,y,z
-x,y,-z
-x,-y,-z
x,-y,z
1/2+x,1/2+y,z
1/2-x,1/2+y,-z
1/2-x,1/2-y,-z
1/2+x,1/2-y,z
loop_
_atom_site_type_symbol
_atom_site_label
_atom_site_fract_x
_atom_site_fract_y
_atom_site_fract_z
Si Si1 0.780515 0.768706 0.850790
Si Si2 0.307177 0.881493 0.559015
Si Si3 0.882469 0.189535 0.479849
Si Si4 0.526885 0.779796 0.772309
Si Si5 0.924275 0.500000 0.625502
Si Si6 0.846847 0.106831 0.843499
Si Si7 0.189286 0.500000 0.757778
O O1 0.721001 0.734601 0.681541
O O2 0.648328 0.782853 0.798362
O O3 0.843379 0.829621 0.889042
O O4 0.892117 0.730127 0.026740
O O5 0.203702 0.863002 0.557906
O O6 0.423478 0.832635 0.665271
O O7 0.222168 0.887077 0.353222
O O8 0.375708 0.942982 0.640790
O O9 0.000000 0.177337 0.500000
O O10 0.947743 0.222625 0.655312
O O11 0.867931 0.500000 0.434058
O O12 0.082174 0.500000 0.755306
O O13 0.766942 0.059765 0.838360
O O14 0.000000 0.086375 0.000000
#
# Coordination Sequence:
#
# PCOD9195829 Si02
#       7
#     8   8   8   8   4   8   4
#     4  10  21  33  53  84 115 148 183 233 279 337
#     4  11  21  36  58  80 111 149 191 233 277 342
#     4  10  21  36  53  79 115 149 184 235 287 328
#     4  10  20  35  55  82 113 148 189 225 286 337
#     4   9  20  36  59  81 104 147 197 225 284 335
#     4  11  21  32  54  83 118 148 185 224 284 340
#     4   9  19  36  54  82 115 146 178 237 282 340
#
# _framework density 18.181927999999999
#
# number of rings (size 3 to 8) (size 9 to 14) (size 15 to 20)
#    0.000    1.833    1.667    2.750    2.333    1.333 
#    0.000    0.417    0.000    2.000    0.000    3.500 
#    0.000    0.000    0.000    0.000    0.000    0.000 
#
# Total GULP energy -133836.788138 kJ/mol
# GULP energy per Si atom -5576.532839 kJ/mol
# Density = 1.814055 g / cm^3
# Si number density = 18.181928 Si / 1000 Ang^3
#
#
#
# Elastic Constant Matrix: (Units=GPa)
#
#
# Indices 1 2 3 4 5 6 
#
# 1 69.3094 65.7085 21.4032 0.0000 26.7445 0.0000
# 2 65.7085 117.5025 15.0207 0.0000 23.7297 0.0000
# 3 21.4032 15.0207 76.4484 0.0000 20.9808 0.0000
# 4 0.0000 0.0000 0.0000 5161.6105 0.0000-2037.4303
# 5 26.7445 23.7297 20.9808 0.0000 20.7751 0.0000
# 6 0.0000 0.0000 0.0000-2037.4303 0.0000 845.4242
#
#
#
# Elastic Compliance Matrix: (Units=1/GPa)
#
#
# Indices 1 2 3 4 5 6 
#
# 1 0.047345 -0.018232 0.001852 0.000000 -0.041995 0.000000
# 2 -0.018232 0.018263 0.001106 0.000000 0.001493 0.000000
# 3 0.001852 0.001106 0.018463 0.000000 -0.022294 0.000000
# 4 0.000000 0.000000 0.000000 0.003976 0.000000 0.009582
# 5 -0.041995 0.001493 -0.022294 0.000000 0.123006 0.000000
# 6 0.000000 0.000000 0.000000 0.009582 0.000000 0.024275
#
#
# Mechanical properties :
#
#
# Convention : Reuss Voigt Hill
#
# Bulk Modulus (GPa) = 18.68284 51.94721 35.31503
# Shear Modulus (GPa) = 17.62322 1216.30383 616.96353
#
# Velocity S-wave (km/s) = 3.11669 25.89238 18.44084
# Velocity P-wave (km/s) = 4.82177 30.37301 21.74591
#
# Compressibility (1/GPa) = 0.05352505
#
# Stress axis : x y z
#
# Youngs Moduli (GPa) = 21.12144 54.75572 54.16162
#
# Poissons Ratio (x) = 0.99829 -0.10032
# Poissons Ratio (y) = 0.38508 -0.05992
# Poissons Ratio (z) = -0.03912 -0.06058
#
# Static dielectric constant tensor:
#      x y z
#    x 1.649770 0.000000 0.022060 
#    y 0.000000 1.590700 0.000000 
#    z 0.022060 0.000000 1.646490 
# 
# From -- ./inp_files/147952.got.cif
#   From: 2010.05.17/outbox.cif.g08.bks.cpg/sg12_74_cif.got.tgz:147952.got - 2010.06.03 13:09:07.
