data_PCOD9195840
_publ_section_title
;
Structure prediction by ZEFSAII (Michael W. Deem and Ramdas Pophale) SiO2 
 PCOD9195840
Probable space group: C 2/M
;
_chemical_formula_sum "Si O2"
_cell_formula_units_Z 64
_cell_length_a 30.870980
_cell_length_b 7.631287
_cell_length_c 18.840207
_cell_angle_alpha 90.000000
_cell_angle_beta 141.082399
_cell_angle_gamma 90.000000
_cell_volume 2788.259932
_symmetry_space_group_name_H-M "C 2/M"
_symmetry_group_IT_number 12
_symmetry_cell_setting 'monoclinic'
loop_
_space_group_symop_operation_xyz
x,y,z
-x,y,-z
-x,-y,-z
x,-y,z
1/2+x,1/2+y,z
1/2-x,1/2+y,-z
1/2-x,1/2-y,-z
1/2+x,1/2-y,z
loop_
_atom_site_type_symbol
_atom_site_label
_atom_site_fract_x
_atom_site_fract_y
_atom_site_fract_z
Si Si1 0.062592 0.205222 0.534309
Si Si2 0.352745 0.787253 0.226401
Si Si3 0.713178 0.711919 0.239255
Si Si4 0.203799 0.787851 0.062572
Si Si5 0.932441 0.703196 0.194587
Si Si6 0.570616 0.703238 0.121885
Si Si7 0.560737 0.203418 0.270263
Si Si8 0.857532 0.792971 0.496882
O O1 0.126060 0.222889 0.669185
O O2 0.087279 0.279797 0.490707
O O3 0.000000 0.285784 0.500000
O O4 0.046879 0.000000 0.502969
O O5 0.274095 0.733754 0.112535
O O6 0.407234 0.720550 0.237642
O O7 0.354434 0.000000 0.228543
O O8 0.714119 0.500000 0.241677
O O9 0.711927 0.764132 0.155142
O O10 0.642576 0.778165 0.185099
O O11 0.781607 0.766415 0.368536
O O12 0.198602 0.000000 0.053065
O O13 0.135241 0.713040 0.940592
O O14 0.949770 0.500000 0.230271
O O15 0.996888 0.780528 0.234436
O O16 0.571295 0.500000 0.099189
O O17 0.569241 0.710031 0.205046
O O18 0.500000 0.781328 0.000000
O O19 0.626333 0.215690 0.405677
O O20 0.545449 0.000000 0.236009
O O21 0.868693 0.000000 0.516785
#
# Coordination Sequence:
#
# PCOD9195840 Si02
#       8
#     8   8   8   8   8   8   8   8
#     4  10  21  36  55  82 116 156 202 248 292 342
#     4  10  20  35  55  82 115 153 198 241 290 351
#     4  10  21  39  63  90 120 154 195 245 298 354
#     4  10  20  35  58  86 116 154 196 240 294 355
#     4  10  22  37  55  84 119 156 197 243 296 349
#     4  10  22  42  68  94 120 153 195 242 295 355
#     4  11  24  41  61  87 121 157 196 244 295 350
#     4  11  23  39  61  88 119 157 200 245 295 352
#
# _framework density 22.953382999999999
#
# number of rings (size 3 to 8) (size 9 to 14) (size 15 to 20)
#    0.000    1.750    1.250    2.625    0.000    5.500 
#    0.000    0.000    0.000    0.000    0.000    0.000 
#    0.000    0.000    0.000    0.000    0.000    0.000 
#
# Total GULP energy -178887.218733 kJ/mol
# GULP energy per Si atom -5590.225585 kJ/mol
# Density = 2.290114 g / cm^3
# Si number density = 22.953383 Si / 1000 Ang^3
#
#
#
# Elastic Constant Matrix: (Units=GPa)
#
#
# Indices 1 2 3 4 5 6 
#
# 1 115.7973 4.9912 20.8707 0.0000 1.3112 0.0000
# 2 4.9912 52.7411 -8.3437 0.0000 7.0113 0.0000
# 3 20.8707 -8.3437 90.1520 0.0000 -8.2001 0.0000
# 4 0.0000 0.0000 0.0000 22.3992 0.0000 5.5016
# 5 1.3112 7.0113 -8.2001 0.0000 37.4978 0.0000
# 6 0.0000 0.0000 0.0000 5.5016 0.0000 0.3299
#
#
#
# Elastic Compliance Matrix: (Units=1/GPa)
#
#
# Indices 1 2 3 4 5 6 
#
# 1 0.009100 -0.001140 -0.002267 0.000000 -0.000601 0.000000
# 2 -0.001140 0.019787 0.001798 0.000000 -0.003267 0.000000
# 3 -0.002267 0.001798 0.011999 0.000000 0.002367 0.000000
# 4 0.000000 0.000000 0.000000 -0.014419 0.000000 0.240469
# 5 -0.000601 -0.003267 0.002367 0.000000 0.027818 0.000000
# 6 0.000000 0.000000 0.000000 0.240469 0.000000 -0.979039
#
#
# Mechanical properties :
#
#
# Convention : Reuss Voigt Hill
#
# Bulk Modulus (GPa) = 26.54719 32.63632 29.59175
# Shear Modulus (GPa) = -5.50067 28.12352 11.31143
#
# Velocity S-wave (km/s) = -1.54973 3.50415 2.22232
# Velocity P-wave (km/s) = 2.89631 5.53367 4.41645
#
# Compressibility (1/GPa) = 0.03766878
#
# Stress axis : x y z
#
# Youngs Moduli (GPa) = 109.88653 50.53780 83.34092
#
# Poissons Ratio (x) = 0.05761 0.18893
# Poissons Ratio (y) = 0.12527 -0.14986
# Poissons Ratio (z) = 0.24911 -0.09087
#
# Static dielectric constant tensor:
#      x y z
#    x 1.871390 0.000000 0.024030 
#    y 0.000000 1.874780 0.000000 
#    z 0.024030 0.000000 1.838400 
# 
# From -- ./inp_files/295798.got.cif
#   From: 2010.05.17/outbox.cif.g08.bks.cpg/sg12_148_cif.got.tgz:295798.got - 2010.06.03 13:09:07.
