data_PCOD9195208
_publ_section_title
;
Structure prediction by ZEFSAII (Michael W. Deem and Ramdas Pophale) SiO2 
 PCOD9195208
Probable space group: C 2/M
;
_chemical_formula_sum "Si O2"
_cell_formula_units_Z 64
_cell_length_a 26.400859
_cell_length_b 14.509510
_cell_length_c 11.740511
_cell_angle_alpha 90.000000
_cell_angle_beta 45.090723
_cell_angle_gamma 90.000000
_cell_volume 3185.146310
_symmetry_space_group_name_H-M "C 2/M"
_symmetry_group_IT_number 12
_symmetry_cell_setting 'monoclinic'
loop_
_space_group_symop_operation_xyz
x,y,z
-x,y,-z
-x,-y,-z
x,-y,z
1/2+x,1/2+y,z
1/2-x,1/2+y,-z
1/2-x,1/2-y,-z
1/2+x,1/2-y,z
loop_
_atom_site_type_symbol
_atom_site_label
_atom_site_fract_x
_atom_site_fract_y
_atom_site_fract_z
Si Si1 0.631928 0.775649 0.407044
Si Si2 0.416683 0.394460 0.658476
Si Si3 0.227722 0.819665 0.670631
Si Si4 0.159994 0.889940 0.005033
Si Si5 0.831401 0.642097 0.330883
Si Si6 0.372848 0.892854 0.015954
Si Si7 0.693160 0.111107 0.108621
Si Si8 0.964860 0.390823 0.273354
O O1 0.618244 0.676205 0.374538
O O2 0.703514 0.777145 0.371210
O O3 0.643734 0.844358 0.282570
O O4 0.567898 0.821472 0.581182
O O5 0.500000 0.395754 0.500000
O O6 0.388429 0.500000 0.692151
O O7 0.405284 0.364812 0.808645
O O8 0.175657 0.851387 0.854871
O O9 0.182848 0.751009 0.662353
O O10 0.269106 0.888418 0.517684
O O11 0.227059 0.865166 0.979590
O O12 0.158793 0.000000 0.991256
O O13 0.907800 0.616199 0.261293
O O14 0.831620 0.612042 0.199981
O O15 0.328877 0.852267 0.980255
O O16 0.455187 0.860606 0.888799
O O17 0.379946 0.000000 0.977870
O O18 0.688400 0.000000 0.121496
O O19 0.965075 0.500000 0.308586
#
# Coordination Sequence:
#
# PCOD9195208 Si02
#       8
#     8   8   8   8   8   8   8   8
#     4  10  21  35  59  82 113 150 185 231 285 334
#     4  10  23  39  55  81 113 145 189 235 281 337
#     4   9  21  36  55  83 108 142 198 239 275 334
#     4   9  19  37  59  81 112 148 182 229 289 341
#     4  10  20  35  52  74 113 151 189 233 269 310
#     4  10  21  33  52  82 116 150 185 223 272 340
#     4   9  19  33  53  88 120 145 179 221 278 350
#     4  10  21  37  55  81 117 157 191 223 273 345
#
# _framework density 20.093267999999998
#
# number of rings (size 3 to 8) (size 9 to 14) (size 15 to 20)
#    0.000    2.375    0.000    1.125    5.250    5.500 
#    0.000    2.500    0.000    4.500    0.000    0.000 
#    0.000   32.000    0.000    0.000    0.000    0.000 
#
# Total GULP energy -178304.597724 kJ/mol
# GULP energy per Si atom -5572.018679 kJ/mol
# Density = 2.004753 g / cm^3
# Si number density = 20.093268 Si / 1000 Ang^3
#
#
#
# Elastic Constant Matrix: (Units=GPa)
#
#
# Indices 1 2 3 4 5 6 
#
# 1 41.2035 18.1228 34.3746 0.0000 23.5624 0.0000
# 2 18.1228 63.9297 30.4133 0.0000 2.0719 0.0000
# 3 34.3746 30.4133 142.0953 0.0000 24.1754 0.0000
# 4 0.0000 0.0000 0.0000 25.4255 0.0000 7.3049
# 5 23.5624 2.0719 24.1754 0.0000 28.9253 0.0000
# 6 0.0000 0.0000 0.0000 7.3049 0.0000 17.3335
#
#
#
# Elastic Compliance Matrix: (Units=1/GPa)
#
#
# Indices 1 2 3 4 5 6 
#
# 1 0.057847 -0.013166 -0.003870 0.000000 -0.042945 0.000000
# 2 -0.013166 0.020530 -0.003245 0.000000 0.011967 0.000000
# 3 -0.003870 -0.003245 0.009434 0.000000 -0.004500 0.000000
# 4 0.000000 0.000000 0.000000 0.044749 0.000000 -0.018859
# 5 -0.042945 0.011967 -0.004500 0.000000 0.072458 0.000000
# 6 0.000000 0.000000 0.000000 -0.018859 0.000000 0.065639
#
#
# Mechanical properties :
#
#
# Convention : Reuss Voigt Hill
#
# Bulk Modulus (GPa) = 21.16397 45.89445 33.52921
# Shear Modulus (GPa) = 15.29198 25.29136 20.29167
#
# Velocity S-wave (km/s) = 2.76171 3.55166 3.18130
# Velocity P-wave (km/s) = 4.55248 6.30154 5.49702
#
# Compressibility (1/GPa) = 0.04725011
#
# Stress axis : x y z
#
# Youngs Moduli (GPa) = 17.28702 48.70816 106.00147
#
# Poissons Ratio (x) = 0.64128 0.41018
# Poissons Ratio (y) = 0.22760 0.34399
# Poissons Ratio (z) = 0.06689 0.15807
#
# Static dielectric constant tensor:
#      x y z
#    x 1.702650 0.000000 -0.003460 
#    y 0.000000 1.768410 0.000000 
#    z -0.003460 0.000000 1.766360 
# 
# From -- ./inp_files/189412.got.cif
#   From: 2010.05.17/outbox.cif.g08.bks.cpg/sg12_95_cif.got.tgz:189412.got - 2010.06.03 13:09:07.
