data_PCOD9195031
_publ_section_title
;
Structure prediction by ZEFSAII (Michael W. Deem and Ramdas Pophale) SiO2 
 PCOD9195031
Probable space group: C 2/M
;
_chemical_formula_sum "Si O2"
_cell_formula_units_Z 52
_cell_length_a 19.162147
_cell_length_b 9.379788
_cell_length_c 13.333669
_cell_angle_alpha 90.000000
_cell_angle_beta 86.280184
_cell_angle_gamma 90.000000
_cell_volume 2391.503058
_symmetry_space_group_name_H-M "C 2/M"
_symmetry_group_IT_number 12
_symmetry_cell_setting 'monoclinic'
loop_
_space_group_symop_operation_xyz
x,y,z
-x,y,-z
-x,-y,-z
x,-y,z
1/2+x,1/2+y,z
1/2-x,1/2+y,-z
1/2-x,1/2-y,-z
1/2+x,1/2-y,z
loop_
_atom_site_type_symbol
_atom_site_label
_atom_site_fract_x
_atom_site_fract_y
_atom_site_fract_z
Si Si1 0.423205 0.837042 0.054593
Si Si2 0.838964 0.774589 0.551427
Si Si3 0.606637 0.668314 0.746287
Si Si4 0.857300 0.331487 0.849334
Si Si5 0.043621 0.829121 0.317788
Si Si6 0.744872 0.839992 0.749099
Si Si7 0.742245 0.500000 0.542332
O O1 0.416211 0.718587 0.139756
O O2 0.413791 0.000000 0.094822
O O3 0.500000 0.831983 0.000000
O O4 0.371718 0.814477 0.965577
O O5 0.917736 0.778383 0.584532
O O6 0.794752 0.844862 0.647572
O O7 0.803295 0.623201 0.541672
O O8 0.819024 0.876598 0.462859
O O9 0.624505 0.500000 0.744265
O O10 0.539010 0.696278 0.683589
O O11 0.672520 0.770353 0.724187
O O12 0.858555 0.500000 0.825410
O O13 0.916337 0.252122 0.776875
O O14 0.784314 0.262273 0.823058
O O15 0.054193 0.000000 0.306567
O O16 0.736814 0.000000 0.788645
#
# Coordination Sequence:
#
# PCOD9195031 Si02
#       7
#     8   8   8   8   8   8   4
#     4  10  20  37  56  84 117 153 196 252 287 332
#     4  10  20  38  63  93 114 147 185 237 280 345
#     4  11  24  37  58  83 117 161 201 234 294 340
#     4  10  20  34  60  84 112 151 203 242 286 336
#     4  10  20  36  55  86 119 152 192 240 281 341
#     4  11  23  40  57  84 121 157 189 242 291 343
#     4  10  20  36  66  94 114 142 188 230 286 342
#
# _framework density 21.743648
#
# number of rings (size 3 to 8) (size 9 to 14) (size 15 to 20)
#    0.000    1.692    3.077    2.308    5.385    2.769 
#    0.000    0.000    0.000    5.538    0.000    0.000 
#    0.000    0.000    0.000    0.000    0.000    0.000 
#
# Total GULP energy -144798.051583 kJ/mol
# GULP energy per Si atom -5569.155830 kJ/mol
# Density = 2.169416 g / cm^3
# Si number density = 21.743648 Si / 1000 Ang^3
#
#
#
# Elastic Constant Matrix: (Units=GPa)
#
#
# Indices 1 2 3 4 5 6 
#
# 1 122.9808 38.0452 22.2577 0.0000 39.5553 0.0000
# 2 38.0452 125.4792 32.0468 0.0000 35.4763 0.0000
# 3 22.2577 32.0468 50.9176 0.0000 21.6764 0.0000
# 4 0.0000 0.0000 0.0000 -103.5525 0.0000 -54.2570
# 5 39.5553 35.4763 21.6764 0.0000 40.2439 0.0000
# 6 0.0000 0.0000 0.0000 -54.2570 0.0000 5.1088
#
#
#
# Elastic Compliance Matrix: (Units=1/GPa)
#
#
# Indices 1 2 3 4 5 6 
#
# 1 0.011906 -0.000379 -0.000164 0.000000 -0.011280 0.000000
# 2 -0.000379 0.011131 -0.003661 0.000000 -0.007468 0.000000
# 3 -0.000164 -0.003661 0.026694 0.000000 -0.010990 0.000000
# 4 0.000000 0.000000 0.000000 -0.001471 0.000000 -0.015623
# 5 -0.011280 -0.007468 -0.010990 0.000000 0.048438 0.000000
# 6 0.000000 0.000000 0.000000 -0.015623 0.000000 0.029818
#
#
# Mechanical properties :
#
#
# Convention : Reuss Voigt Hill
#
# Bulk Modulus (GPa) = 24.19914 53.78634 38.99274
# Shear Modulus (GPa) = 33.62533 2.16189 17.89361
#
# Velocity S-wave (km/s) = 3.93675 0.99821 2.87180
# Velocity P-wave (km/s) = 5.64070 5.11066 5.38221
#
# Compressibility (1/GPa) = 0.04132379
#
# Stress axis : x y z
#
# Youngs Moduli (GPa) = 83.98829 89.84236 37.46194
#
# Poissons Ratio (x) = 0.03404 0.00614
# Poissons Ratio (y) = 0.03182 0.13713
# Poissons Ratio (z) = 0.01377 0.32888
#
# Static dielectric constant tensor:
#      x y z
#    x 1.805140 0.000000 -0.011690 
#    y 0.000000 1.731480 0.000000 
#    z -0.011690 0.000000 1.904920 
# 
# From -- ./inp_files/274418.got.cif
#   From: 2010.05.17/outbox.cif.g08.bks.cpg/sg12_138_cif.got.tgz:274418.got - 2010.06.03 13:09:07.
