data_PCOD9195146
_publ_section_title
;
Structure prediction by ZEFSAII (Michael W. Deem and Ramdas Pophale) SiO2 
 PCOD9195146
Probable space group: C 2/M
;
_chemical_formula_sum "Si O2"
_cell_formula_units_Z 56
_cell_length_a 20.101806
_cell_length_b 7.448773
_cell_length_c 28.413525
_cell_angle_alpha 90.000000
_cell_angle_beta 140.651701
_cell_angle_gamma 90.000000
_cell_volume 2697.470968
_symmetry_space_group_name_H-M "C 2/M"
_symmetry_group_IT_number 12
_symmetry_cell_setting 'monoclinic'
loop_
_space_group_symop_operation_xyz
x,y,z
-x,y,-z
-x,-y,-z
x,-y,z
1/2+x,1/2+y,z
1/2-x,1/2+y,-z
1/2-x,1/2-y,-z
1/2+x,1/2-y,z
loop_
_atom_site_type_symbol
_atom_site_label
_atom_site_fract_x
_atom_site_fract_y
_atom_site_fract_z
Si Si1 0.425833 0.207081 0.505928
Si Si2 0.369596 0.286691 0.051163
Si Si3 0.833094 0.212261 0.197674
Si Si4 0.390749 0.794865 0.955985
Si Si5 0.999034 0.219529 0.786555
Si Si6 0.116606 0.283059 0.666893
Si Si7 0.758485 0.779865 0.656648
O O1 0.500000 0.205639 0.500000
O O2 0.501851 0.285009 0.587402
O O3 0.316420 0.283116 0.427117
O O4 0.404847 0.000000 0.507606
O O5 0.383456 0.500000 0.053694
O O6 0.445914 0.225123 0.134620
O O7 0.250000 0.250000 0.000000
O O8 0.389393 0.202659 0.011467
O O9 0.718736 0.287566 0.121539
O O10 0.926872 0.281084 0.215805
O O11 0.855933 0.234510 0.265091
O O12 0.827762 0.000000 0.184005
O O13 0.391932 0.000000 0.937963
O O14 0.500000 0.709016 0.000000
O O15 0.878429 0.277707 0.718075
O O16 0.997336 0.000000 0.785238
O O17 0.113121 0.500000 0.662057
O O18 0.202920 0.225330 0.675366
O O19 0.756216 0.000000 0.654799
#
# Coordination Sequence:
#
# PCOD9195146 Si02
#       7
#     8   8   8   8   8   8   8
#     4   7  11  23  44  71  98 123 154 197 246 290
#     4  11  21  36  57  78 103 135 175 214 254 305
#     4  10  20  35  49  67 101 136 163 194 248 309
#     4  10  22  39  55  73 103 139 173 212 259 309
#     4   9  18  32  49  70  98 130 165 204 243 295
#     4   9  17  29  50  77 100 122 160 208 246 286
#     4   8  14  27  50  75  96 123 162 206 246 284
#
# _framework density 20.760185
#
# number of rings (size 3 to 8) (size 9 to 14) (size 15 to 20)
#    0.000    2.857    1.429    2.143    2.000    0.857 
#    0.000    0.714    0.000    4.714    0.000    0.000 
#    0.000    0.000    0.000    0.000    0.000    0.000 
#
# Total GULP energy -156163.127336 kJ/mol
# GULP energy per Si atom -5577.254548 kJ/mol
# Density = 2.071293 g / cm^3
# Si number density = 20.760185 Si / 1000 Ang^3
#
#
#
# Elastic Constant Matrix: (Units=GPa)
#
#
# Indices 1 2 3 4 5 6 
#
# 1 122.5433 -9.1755 121.5022 0.0000 8.5250 0.0002
# 2 -9.1755 61.5274 4.8845 0.0000 2.7694 -0.0001
# 3 121.5022 4.8845 224.8144 0.0000 31.0239 -0.0001
# 4 0.0000 0.0000 0.0000 -6.9851 0.0000 -11.4478
# 5 8.5250 2.7694 31.0239 0.0000 32.8754 0.0000
# 6 0.0002 -0.0001 -0.0001 -11.4478 0.0000 -0.6842
#
#
#
# Elastic Compliance Matrix: (Units=1/GPa)
#
#
# Indices 1 2 3 4 5 6 
#
# 1 0.019066 0.003489 -0.011103 0.000000 0.005240 0.000000
# 2 0.003489 0.016960 -0.002221 0.000000 -0.000237 0.000000
# 3 -0.011103 -0.002221 0.011582 0.000000 -0.007864 0.000000
# 4 0.000000 0.000000 0.000000 0.005418 0.000000 -0.090659
# 5 0.005240 -0.000237 -0.007864 0.000000 0.036500 0.000000
# 6 0.000000 0.000000 0.000000 -0.090659 0.000000 0.055317
#
#
# Mechanical properties :
#
#
# Convention : Reuss Voigt Hill
#
# Bulk Modulus (GPa) = 35.79458 71.47862 53.63660
# Shear Modulus (GPa) = 28.76416 24.48615 26.62516
#
# Velocity S-wave (km/s) = 3.72633 3.43808 3.58510
# Velocity P-wave (km/s) = 5.98276 7.08984 6.55970
#
# Compressibility (1/GPa) = 0.02793719
#
# Stress axis : x y z
#
# Youngs Moduli (GPa) = 52.44944 58.96146 86.33821
#
# Poissons Ratio (x) = -0.20571 0.95863
# Poissons Ratio (y) = -0.18299 0.19179
# Poissons Ratio (z) = 0.58236 0.13097
#
# Static dielectric constant tensor:
#      x y z
#    x 1.708490 0.000000 0.018820 
#    y 0.000000 1.821050 0.000000 
#    z 0.018820 0.000000 1.752940 
# 
# From -- ./inp_files/363121.got.cif
#   From: 2010.05.17/outbox.cif.g08.bks.cpg/sg12_182_cif.got.tgz:363121.got - 2010.06.03 13:09:07.
