data_PCOD9195959
_publ_section_title
;
Structure prediction by ZEFSAII (Michael W. Deem and Ramdas Pophale) SiO2 
 PCOD9195959
Probable space group: C 2/M
;
_chemical_formula_sum "Si O2"
_cell_formula_units_Z 56
_cell_length_a 20.778326
_cell_length_b 9.836417
_cell_length_c 15.098953
_cell_angle_alpha 90.000000
_cell_angle_beta 116.826756
_cell_angle_gamma 90.000000
_cell_volume 2753.859624
_symmetry_space_group_name_H-M "C 2/M"
_symmetry_group_IT_number 12
_symmetry_cell_setting 'monoclinic'
loop_
_space_group_symop_operation_xyz
x,y,z
-x,y,-z
-x,-y,-z
x,-y,z
1/2+x,1/2+y,z
1/2-x,1/2+y,-z
1/2-x,1/2-y,-z
1/2+x,1/2-y,z
loop_
_atom_site_type_symbol
_atom_site_label
_atom_site_fract_x
_atom_site_fract_y
_atom_site_fract_z
Si Si1 0.728252 0.658633 0.069161
Si Si2 0.849175 0.344968 0.500824
Si Si3 0.983452 0.843943 0.593544
Si Si4 0.978678 0.656734 0.231457
Si Si5 0.558127 0.340959 0.958510
Si Si6 0.747051 0.341162 0.269933
Si Si7 0.349293 0.853898 0.693890
O O1 0.744071 0.500000 0.059886
O O2 0.768496 0.702492 0.184578
O O3 0.750000 0.750000 0.000000
O O4 0.642504 0.668633 0.036758
O O5 0.881627 0.500000 0.514207
O O6 0.904869 0.223325 0.546323
O O7 0.804307 0.323804 0.384158
O O8 0.811492 0.346969 0.573746
O O9 0.000000 0.842141 0.500000
O O10 0.031156 0.744910 0.685115
O O11 0.985684 0.000000 0.626797
O O12 0.952820 0.500000 0.221924
O O13 0.950226 0.740187 0.129836
O O14 0.065425 0.650272 0.270234
O O15 0.544684 0.500000 0.925654
O O16 0.500000 0.307752 0.000000
O O17 0.731067 0.500000 0.253259
O O18 0.677039 0.263360 0.259917
O O19 0.330832 0.000000 0.722713
#
# Coordination Sequence:
#
# PCOD9195959 Si02
#       7
#     8   8   8   8   8   8   8
#     4  10  23  41  59  83 115 153 197 242 290 342
#     4   9  19  34  52  79 112 142 177 220 270 335
#     4  10  21  36  54  78 108 142 182 226 275 337
#     4  10  21  36  56  83 113 145 185 235 288 341
#     4  10  21  39  63  89 118 153 196 246 296 347
#     4  10  20  35  56  79 106 145 188 227 273 332
#     4   9  18  32  51  81 115 141 173 222 279 337
#
# _framework density 20.335097000000001
#
# number of rings (size 3 to 8) (size 9 to 14) (size 15 to 20)
#    0.000    2.286    0.000    3.000    0.000    8.286 
#    0.000    2.857    0.000    0.000    0.000    0.000 
#    0.000    0.000    0.000    0.000    0.000    0.000 
#
# Total GULP energy -156063.537745 kJ/mol
# GULP energy per Si atom -5573.697777 kJ/mol
# Density = 2.028881 g / cm^3
# Si number density = 20.335097 Si / 1000 Ang^3
#
#
#
# Elastic Constant Matrix: (Units=GPa)
#
#
# Indices 1 2 3 4 5 6 
#
# 1 29.9086 19.0026 10.0687 0.0000 -13.1838 0.0000
# 2 19.0026 102.3995 62.3503 0.0000 -16.6824 0.0000
# 3 10.0687 62.3503 123.4894 0.0000 -20.0813 0.0000
# 4 0.0000 0.0000 0.0000 34.8001 0.0000 -2.7037
# 5 -13.1838 -16.6824 -20.0813 0.0000 26.0595 0.0000
# 6 0.0000 0.0000 0.0000 -2.7037 0.0000 28.9356
#
#
#
# Elastic Compliance Matrix: (Units=1/GPa)
#
#
# Indices 1 2 3 4 5 6 
#
# 1 0.046275 -0.007108 0.003296 0.000000 0.021401 0.000000
# 2 -0.007108 0.015576 -0.007143 0.000000 0.000871 0.000000
# 3 0.003296 -0.007143 0.012534 0.000000 0.006753 0.000000
# 4 0.000000 0.000000 0.000000 0.028946 0.000000 0.002705
# 5 0.021401 0.000871 0.006753 0.000000 0.054962 0.000000
# 6 0.000000 0.000000 0.000000 0.002705 0.000000 0.034812
#
#
# Mechanical properties :
#
#
# Convention : Reuss Voigt Hill
#
# Bulk Modulus (GPa) = 19.05684 48.73786 33.89735
# Shear Modulus (GPa) = 21.50476 28.91745 25.21110
#
# Velocity S-wave (km/s) = 3.25548 3.77509 3.52487
# Velocity P-wave (km/s) = 4.85001 6.55905 5.76818
#
# Compressibility (1/GPa) = 0.05247460
#
# Stress axis : x y z
#
# Youngs Moduli (GPa) = 21.60989 64.20123 79.78324
#
# Poissons Ratio (x) = 0.45632 -0.26295
# Poissons Ratio (y) = 0.15360 0.56991
# Poissons Ratio (z) = -0.07122 0.45861
#
# Static dielectric constant tensor:
#      x y z
#    x 1.757170 0.000000 0.005390 
#    y 0.000000 1.718870 0.000000 
#    z 0.005390 0.000000 1.775200 
# 
# From -- ./inp_files/239020.got.cif
#   From: 2010.05.17/outbox.cif.g08.bks.cpg/sg12_120_cif.got.tgz:239020.got - 2010.06.03 13:09:07.
