data_PCOD9195790
_publ_section_title
;
Structure prediction by ZEFSAII (Michael W. Deem and Ramdas Pophale) SiO2 
 PCOD9195790
Probable space group: C 2/M
;
_chemical_formula_sum "Si O2"
_cell_formula_units_Z 56
_cell_length_a 5.566000
_cell_length_b 23.479034
_cell_length_c 17.973607
_cell_angle_alpha 90.000000
_cell_angle_beta 63.794329
_cell_angle_gamma 90.000000
_cell_volume 2107.439094
_symmetry_space_group_name_H-M "C 2/M"
_symmetry_group_IT_number 12
_symmetry_cell_setting 'monoclinic'
loop_
_space_group_symop_operation_xyz
x,y,z
-x,y,-z
-x,-y,-z
x,-y,z
1/2+x,1/2+y,z
1/2-x,1/2+y,-z
1/2-x,1/2-y,-z
1/2+x,1/2-y,z
loop_
_atom_site_type_symbol
_atom_site_label
_atom_site_fract_x
_atom_site_fract_y
_atom_site_fract_z
Si Si1 0.209267 0.669265 0.526349
Si Si2 0.616798 0.560265 0.593738
Si Si3 0.998802 0.408451 0.672491
Si Si4 0.206196 0.063149 0.077913
Si Si5 0.875784 0.180478 0.089344
Si Si6 0.886542 0.380899 0.186906
Si Si7 0.663647 0.735981 0.252054
O O1 0.500000 0.693523 0.500000
O O2 0.282739 0.610544 0.471935
O O3 0.064947 0.650189 0.621268
O O4 0.000000 0.696972 0.500000
O O5 0.691731 0.500000 0.549025
O O6 0.294518 0.563509 0.640299
O O7 0.770282 0.564696 0.652018
O O8 0.933425 0.398701 0.767366
O O9 0.258268 0.068733 0.159080
O O10 0.053475 0.122843 0.079962
O O11 0.082870 0.000000 0.077858
O O12 0.500000 0.062990 0.000000
O O13 0.587904 0.154583 0.107716
O O14 0.807272 0.224399 0.166804
O O15 0.000000 0.210111 0.000000
O O16 0.679247 0.332133 0.239176
O O17 0.355120 0.751262 0.294497
#
# Coordination Sequence:
#
# PCOD9195790 Si02
#       7
#     8   8   8   8   8   8   8
#     4   8  16  31  50  76 108 151 202 243 299 351
#     4  10  20  35  55  80 115 161 213 256 296 356
#     4  10  22  34  53  81 119 157 196 248 313 367
#     4  11  24  42  61  84 121 169 213 251 308 385
#     4  11  23  41  66  91 118 157 211 271 318 378
#     4  11  24  41  59  89 127 159 208 261 323 374
#     4  10  22  39  66  94 121 151 198 265 326 370
#
# _framework density 26.572535999999999
#
# number of rings (size 3 to 8) (size 9 to 14) (size 15 to 20)
#    0.000    1.857    2.857    0.429    2.000   10.000 
#    0.000    0.000    0.000    0.000    0.000    0.000 
#    0.000  123.429    0.000    0.000    0.000    0.000 
#
# Total GULP energy -156416.663777 kJ/mol
# GULP energy per Si atom -5586.309421 kJ/mol
# Density = 2.651206 g / cm^3
# Si number density = 26.572536 Si / 1000 Ang^3
#
#
#
# Elastic Constant Matrix: (Units=GPa)
#
#
# Indices 1 2 3 4 5 6 
#
# 1 184.8383 37.1316 22.8066 0.0000 21.3252 0.0000
# 2 37.1316 172.6160 13.8442 0.0000 14.0720 0.0000
# 3 22.8066 13.8442 70.8655 0.0000 13.9051 0.0000
# 4 0.0000 0.0000 0.0000 16.6652 0.0000 0.1088
# 5 21.3252 14.0720 13.9051 0.0000 46.5918 0.0000
# 6 0.0000 0.0000 0.0000 0.1088 0.0000 4.3043
#
#
#
# Elastic Compliance Matrix: (Units=1/GPa)
#
#
# Indices 1 2 3 4 5 6 
#
# 1 0.006016 -0.001020 -0.001335 0.000000 -0.002047 0.000000
# 2 -0.001020 0.006162 -0.000639 0.000000 -0.001203 0.000000
# 3 -0.001335 -0.000639 0.015410 0.000000 -0.003795 0.000000
# 4 0.000000 0.000000 0.000000 0.060015 0.000000 -0.001517
# 5 -0.002047 -0.001203 -0.003795 0.000000 0.023896 0.000000
# 6 0.000000 0.000000 0.000000 -0.001517 0.000000 0.232363
#
#
# Mechanical properties :
#
#
# Convention : Reuss Voigt Hill
#
# Bulk Modulus (GPa) = 46.29823 63.98717 55.14270
# Shear Modulus (GPa) = 14.00356 37.14808 25.57582
#
# Velocity S-wave (km/s) = 2.29813 3.74302 3.10577
# Velocity P-wave (km/s) = 4.95005 6.54315 5.80154
#
# Compressibility (1/GPa) = 0.02159910
#
# Stress axis : x y z
#
# Youngs Moduli (GPa) = 166.22428 162.28416 64.89086
#
# Poissons Ratio (x) = 0.16555 0.08664
# Poissons Ratio (y) = 0.16957 0.04149
# Poissons Ratio (z) = 0.22194 0.10376
#
# Static dielectric constant tensor:
#      x y z
#    x 2.132320 0.000000 -0.004140 
#    y 0.000000 2.064220 0.000000 
#    z -0.004140 0.000000 2.173020 
# 
# From -- ./inp_files/253603.got.cif
#   From: 2010.05.17/outbox.cif.g08.bks.cpg/sg12_127_cif.got.tgz:253603.got - 2010.06.03 13:09:07.
