data_PCOD9195803
_publ_section_title
;
Structure prediction by ZEFSAII (Michael W. Deem and Ramdas Pophale) SiO2 
 PCOD9195803
Probable space group: C 2/M
;
_chemical_formula_sum "Si O2"
_cell_formula_units_Z 64
_cell_length_a 14.731365
_cell_length_b 14.856895
_cell_length_c 18.130697
_cell_angle_alpha 90.000000
_cell_angle_beta 54.118718
_cell_angle_gamma 90.000000
_cell_volume 3215.107936
_symmetry_space_group_name_H-M "C 2/M"
_symmetry_group_IT_number 12
_symmetry_cell_setting 'monoclinic'
loop_
_space_group_symop_operation_xyz
x,y,z
-x,y,-z
-x,-y,-z
x,-y,z
1/2+x,1/2+y,z
1/2-x,1/2+y,-z
1/2-x,1/2-y,-z
1/2+x,1/2-y,z
loop_
_atom_site_type_symbol
_atom_site_label
_atom_site_fract_x
_atom_site_fract_y
_atom_site_fract_z
Si Si1 0.572727 0.396020 0.785869
Si Si2 0.697994 0.789405 0.114583
Si Si3 0.991618 0.900821 0.592438
Si Si4 0.820097 0.604018 0.615330
Si Si5 0.124720 0.719935 0.549487
Si Si6 0.647668 0.398731 0.208670
Si Si7 0.542015 0.102713 0.298692
Si Si8 0.434436 0.725932 0.961126
O O1 0.585745 0.500000 0.803596
O O2 0.693636 0.367105 0.697374
O O3 0.476706 0.393856 0.768795
O O4 0.522609 0.335772 0.875126
O O5 0.707787 0.687592 0.144116
O O6 0.624790 0.847211 0.204541
O O7 0.627333 0.785907 0.071946
O O8 0.823541 0.825782 0.043620
O O9 0.055006 0.811056 0.583444
O O10 0.000000 0.902067 0.500000
O O11 0.873845 0.892355 0.692927
O O12 0.036263 0.000000 0.594997
O O13 0.814690 0.500000 0.591466
O O14 0.873880 0.666276 0.527960
O O15 0.896267 0.605898 0.651572
O O16 0.250000 0.750000 0.500000
O O17 0.073601 0.655545 0.635998
O O18 0.691779 0.500000 0.171103
O O19 0.524131 0.000000 0.285886
O O20 0.500000 0.766406 0.000000
#
# Coordination Sequence:
#
# PCOD9195803 Si02
#       8
#     8   8   8   8   8   8   8   8
#     4   9  18  33  57  87 115 146 191 243 300 355
#     4  10  21  38  61  89 116 157 198 242 313 365
#     4  10  20  35  55  81 112 147 194 241 276 323
#     4  10  21  37  60  89 120 160 200 242 298 361
#     4  12  24  36  57  84 119 164 195 237 288 350
#     4   9  17  33  57  82 115 152 194 245 289 347
#     4  11  23  40  60  88 124 156 197 246 300 362
#     4  10  21  37  59  86 118 152 196 251 303 368
#
# _framework density 19.906020000000002
#
# number of rings (size 3 to 8) (size 9 to 14) (size 15 to 20)
#    0.000    1.875    1.250    3.000    1.750    3.750 
#    0.000    1.875    0.000    1.500    0.000    0.000 
#    0.000    0.000    0.000    0.000    0.000    0.000 
#
# Total GULP energy -178441.759131 kJ/mol
# GULP energy per Si atom -5576.304973 kJ/mol
# Density = 1.986071 g / cm^3
# Si number density = 19.906020 Si / 1000 Ang^3
#
#
#
# Elastic Constant Matrix: (Units=GPa)
#
#
# Indices 1 2 3 4 5 6 
#
# 1 36.7019 5.5517 10.5126 0.0000 3.8811 0.0000
# 2 5.5517 104.8208 51.4816 0.0000 -2.7030 0.0000
# 3 10.5126 51.4816 106.5994 0.0000 -2.5697 0.0000
# 4 0.0000 0.0000 0.0000 -23.6910 0.0000 17.2429
# 5 3.8811 -2.7030 -2.5697 0.0000 36.4580 0.0000
# 6 0.0000 0.0000 0.0000 17.2429 0.0000 5.4380
#
#
#
# Elastic Compliance Matrix: (Units=1/GPa)
#
#
# Indices 1 2 3 4 5 6 
#
# 1 0.028417 -0.000228 -0.002770 0.000000 -0.003237 0.000000
# 2 -0.000228 0.012518 -0.006010 0.000000 0.000529 0.000000
# 3 -0.002770 -0.006010 0.012574 0.000000 0.000736 0.000000
# 4 0.000000 0.000000 0.000000 -0.012761 0.000000 0.040462
# 5 -0.003237 0.000529 0.000736 0.000000 0.027865 0.000000
# 6 0.000000 0.000000 0.000000 0.040462 0.000000 0.055593
#
#
# Mechanical properties :
#
#
# Convention : Reuss Voigt Hill
#
# Bulk Modulus (GPa) = 28.17528 42.57933 35.37731
# Shear Modulus (GPa) = 32.45632 15.67942 24.06787
#
# Velocity S-wave (km/s) = 4.04230 2.80959 3.48095
# Velocity P-wave (km/s) = 5.99765 5.65347 5.82810
#
# Compressibility (1/GPa) = 0.03549211
#
# Stress axis : x y z
#
# Youngs Moduli (GPa) = 35.19035 79.88770 79.52671
#
# Poissons Ratio (x) = 0.01821 0.22032
# Poissons Ratio (y) = 0.00802 0.47796
# Poissons Ratio (z) = 0.09749 0.48013
#
# Static dielectric constant tensor:
#      x y z
#    x 1.722900 0.000000 0.026550 
#    y 0.000000 1.701010 0.000000 
#    z 0.026550 0.000000 1.735980 
# 
# From -- ./inp_files/270686.got.cif
#   From: 2010.05.17/outbox.cif.g08.bks.cpg/sg12_136_cif.got.tgz:270686.got - 2010.06.03 13:09:07.
