data_PCOD9195795
_publ_section_title
;
Structure prediction by ZEFSAII (Michael W. Deem and Ramdas Pophale) SiO2 
 PCOD9195795
Probable space group: C 2/M
;
_chemical_formula_sum "Si O2"
_cell_formula_units_Z 48
_cell_length_a 30.396071
_cell_length_b 7.414003
_cell_length_c 19.254874
_cell_angle_alpha 90.000000
_cell_angle_beta 149.850775
_cell_angle_gamma 90.000000
_cell_volume 2179.385975
_symmetry_space_group_name_H-M "C 2/M"
_symmetry_group_IT_number 12
_symmetry_cell_setting 'monoclinic'
loop_
_space_group_symop_operation_xyz
x,y,z
-x,y,-z
-x,-y,-z
x,-y,z
1/2+x,1/2+y,z
1/2-x,1/2+y,-z
1/2-x,1/2-y,-z
1/2+x,1/2-y,z
loop_
_atom_site_type_symbol
_atom_site_label
_atom_site_fract_x
_atom_site_fract_y
_atom_site_fract_z
Si Si1 0.655319 0.721122 0.553959
Si Si2 0.789696 0.784101 0.129152
Si Si3 0.004090 0.788793 0.083970
Si Si4 0.348194 0.715354 0.609002
Si Si5 0.017072 0.793490 0.604822
Si Si6 0.191045 0.718218 0.133423
O O1 0.657225 0.500000 0.558060
O O2 0.647760 0.782316 0.464487
O O3 0.568308 0.783403 0.475129
O O4 0.742531 0.776832 0.714610
O O5 0.887838 0.708178 0.259043
O O6 0.731694 0.719691 0.115158
O O7 0.797626 0.000000 0.151451
O O8 0.750000 0.750000 0.000000
O O9 0.078959 0.713358 0.237571
O O10 0.026303 0.000000 0.105861
O O11 0.908185 0.775628 0.987330
O O12 0.000000 0.711656 0.000000
O O13 0.361870 0.500000 0.623507
O O14 0.250000 0.750000 0.500000
O O15 0.000000 0.801568 0.500000
O O16 0.023872 0.000000 0.641216
O O17 0.190079 0.500000 0.131665
#
# Coordination Sequence:
#
# PCOD9195795 Si02
#       6
#     8   8   8   8   8   8
#     4   9  17  31  53  79 103 132 179 226 258 300
#     4  10  21  34  53  80 110 143 178 219 267 319
#     4  10  22  38  55  79 112 145 175 210 265 334
#     4  10  21  36  56  80 104 135 177 219 261 313
#     4   9  15  29  53  78 103 135 176 219 258 300
#     4  10  20  35  55  81 108 137 179 227 268 307
#
# _framework density 22.024552
#
# number of rings (size 3 to 8) (size 9 to 14) (size 15 to 20)
#    0.000    2.333    1.667    1.000    2.333    1.667 
#    0.000    0.000    0.000    1.500    0.000    0.000 
#    0.000    0.000    0.000    0.000    0.000    0.000 
#
# Total GULP energy -133994.636647 kJ/mol
# GULP energy per Si atom -5583.109860 kJ/mol
# Density = 2.197442 g / cm^3
# Si number density = 22.024552 Si / 1000 Ang^3
#
#
#
# Elastic Constant Matrix: (Units=GPa)
#
#
# Indices 1 2 3 4 5 6 
#
# 1 168.4601 -9.1354 105.1453 0.0001 -0.7083 0.0000
# 2 -9.1354 69.8638 -5.6937 0.0001 -7.2417 0.0000
# 3 105.1453 -5.6937 218.2182 0.0000 0.5986 0.0000
# 4 0.0001 0.0001 0.0000-2387.2211 0.0000 -889.9130
# 5 -0.7083 -7.2417 0.5986 0.0000 42.0503 0.0000
# 6 0.0000 0.0000 0.0000 -889.9130 0.0000 -321.2574
#
#
#
# Elastic Compliance Matrix: (Units=1/GPa)
#
#
# Indices 1 2 3 4 5 6 
#
# 1 0.008536 0.000818 -0.004093 0.000000 0.000343 0.000000
# 2 0.000818 0.014683 -0.000018 0.000000 0.002543 0.000000
# 3 -0.004093 -0.000018 0.006555 0.000000 -0.000165 0.000000
# 4 0.000000 0.000000 0.000000 0.012834 0.000000 -0.035550
# 5 0.000343 0.002543 -0.000165 0.000000 0.024227 0.000000
# 6 0.000000 0.000000 0.000000 -0.035550 0.000000 0.095364
#
#
# Mechanical properties :
#
#
# Convention : Reuss Voigt Hill
#
# Bulk Modulus (GPa) = 43.12513 70.79720 56.96116
# Shear Modulus (GPa) = 28.32646 -508.87057 -240.27206
#
# Velocity S-wave (km/s) = 3.59016 -15.21672 -10.45608
# Velocity P-wave (km/s) = 6.06701 16.62880 10.94779
#
# Compressibility (1/GPa) = 0.02318834
#
# Stress axis : x y z
#
# Youngs Moduli (GPa) = 117.14463 68.10770 152.56487
#
# Poissons Ratio (x) = -0.05573 0.62441
# Poissons Ratio (y) = -0.09585 0.00277
# Poissons Ratio (z) = 0.47945 0.00124
#
# Static dielectric constant tensor:
#      x y z
#    x 1.773890 0.000000 -0.021770 
#    y 0.000000 1.906750 0.000000 
#    z -0.021770 0.000000 1.745240 
# 
# From -- ./inp_files/154309.got.cif
#   From: 2010.05.17/outbox.cif.g08.bks.cpg/sg12_78_cif.got.tgz:154309.got - 2010.06.03 13:09:07.
