data_PCOD9195870
_publ_section_title
;
Structure prediction by ZEFSAII (Michael W. Deem and Ramdas Pophale) SiO2 
 PCOD9195870
Probable space group: C 2/M
;
_chemical_formula_sum "Si O2"
_cell_formula_units_Z 64
_cell_length_a 29.802745
_cell_length_b 14.659141
_cell_length_c 8.561969
_cell_angle_alpha 90.000000
_cell_angle_beta 120.925892
_cell_angle_gamma 90.000000
_cell_volume 3208.788274
_symmetry_space_group_name_H-M "C 2/M"
_symmetry_group_IT_number 12
_symmetry_cell_setting 'monoclinic'
loop_
_space_group_symop_operation_xyz
x,y,z
-x,y,-z
-x,-y,-z
x,-y,z
1/2+x,1/2+y,z
1/2-x,1/2+y,-z
1/2-x,1/2-y,-z
1/2+x,1/2-y,z
loop_
_atom_site_type_symbol
_atom_site_label
_atom_site_fract_x
_atom_site_fract_y
_atom_site_fract_z
Si Si1 0.809240 0.276148 0.056382
Si Si2 0.882204 0.738843 0.450139
Si Si3 0.653336 0.894851 0.158180
Si Si4 0.061568 0.895674 0.646281
Si Si5 0.058459 0.294104 0.144899
Si Si6 0.808602 0.897803 0.882692
Si Si7 0.713578 0.812721 0.538279
Si Si8 0.916898 0.102884 0.945442
O O1 0.851487 0.313893 0.255900
O O2 0.750000 0.250000 0.000000
O O3 0.813979 0.340902 0.915079
O O4 0.828018 0.175511 0.041271
O O5 0.910168 0.823923 0.417874
O O6 0.922685 0.691237 0.642222
O O7 0.830708 0.752143 0.465882
O O8 0.599383 0.842268 0.100473
O O9 0.685015 0.884582 0.376043
O O10 0.645345 0.000000 0.102974
O O11 0.067530 0.881321 0.844648
O O12 0.000000 0.890181 0.500000
O O13 0.079579 0.000000 0.648649
O O14 0.062489 0.185209 0.121500
O O15 0.000000 0.323976 0.000000
O O16 0.752251 0.865207 0.723584
O O17 0.806304 0.000000 0.940064
O O18 0.853380 0.894922 0.830675
O O19 0.750000 0.750000 0.500000
O O20 0.933474 0.000000 0.931339
#
# Coordination Sequence:
#
# PCOD9195870 Si02
#       8
#     8   8   8   8   8   8   8   8
#     4  12  22  40  61  92 126 157 200 249 304 376
#     4  11  22  35  62  88 117 161 204 255 307 365
#     4  11  24  43  65  89 124 165 207 254 305 365
#     4  10  20  35  55  83 121 160 202 253 309 367
#     4  11  23  41  64  89 121 162 212 268 314 358
#     4  11  20  34  60  85 121 162 195 239 299 363
#     4  11  20  40  61  87 124 164 202 248 300 359
#     4  10  20  36  58  85 122 165 202 246 309 372
#
# _framework density 19.945224
#
# number of rings (size 3 to 8) (size 9 to 14) (size 15 to 20)
#    0.000    1.125    5.000    1.875    0.000    1.500 
#    0.000    3.125    0.000    0.750    0.000    0.000 
#    0.000    0.000    0.000    0.000    0.000    0.000 
#
# Total GULP energy -178299.609936 kJ/mol
# GULP energy per Si atom -5571.862811 kJ/mol
# Density = 1.989983 g / cm^3
# Si number density = 19.945224 Si / 1000 Ang^3
#
#
#
# Elastic Constant Matrix: (Units=GPa)
#
#
# Indices 1 2 3 4 5 6 
#
# 1 69.3478 20.8650 32.4698 0.0000 15.2461 0.0000
# 2 20.8650 79.5393 13.0378 0.0000 -4.4593 0.0000
# 3 32.4698 13.0378 115.2165 0.0000 18.3976 0.0000
# 4 0.0000 0.0000 0.0000 11.1102 0.0000 5.1177
# 5 15.2461 -4.4593 18.3976 0.0000 33.6604 0.0000
# 6 0.0000 0.0000 0.0000 5.1177 0.0000 18.0737
#
#
#
# Elastic Compliance Matrix: (Units=1/GPa)
#
#
# Indices 1 2 3 4 5 6 
#
# 1 0.019221 -0.004847 -0.003698 0.000000 -0.007326 0.000000
# 2 -0.004847 0.014265 -0.000987 0.000000 0.004624 0.000000
# 3 -0.003698 -0.000987 0.010503 0.000000 -0.004196 0.000000
# 4 0.000000 0.000000 0.000000 0.103507 0.000000 -0.029309
# 5 -0.007326 0.004624 -0.004196 0.000000 0.035933 0.000000
# 6 0.000000 0.000000 0.000000 -0.029309 0.000000 0.063628
#
#
# Mechanical properties :
#
#
# Convention : Reuss Voigt Hill
#
# Bulk Modulus (GPa) = 40.11982 44.09432 42.10707
# Shear Modulus (GPa) = 18.21966 25.75094 21.98530
#
# Velocity S-wave (km/s) = 3.02567 3.59706 3.32367
# Velocity P-wave (km/s) = 5.68902 6.27754 5.99051
#
# Compressibility (1/GPa) = 0.02492534
#
# Stress axis : x y z
#
# Youngs Moduli (GPa) = 52.02750 70.10289 95.20824
#
# Poissons Ratio (x) = 0.33975 0.35212
# Poissons Ratio (y) = 0.25215 0.09395
# Poissons Ratio (z) = 0.19242 0.06917
#
# Static dielectric constant tensor:
#      x y z
#    x 1.743490 0.000000 -0.010670 
#    y 0.000000 1.689970 0.000000 
#    z -0.010670 0.000000 1.809030 
# 
# From -- ./inp_files/111683.got.cif
#   From: 2010.05.17/outbox.cif.g08.bks.cpg/sg12_56_cif.got.tgz:111683.got - 2010.06.03 13:09:07.
