data_PCOD9195585
_publ_section_title
;
Structure prediction by ZEFSAII (Michael W. Deem and Ramdas Pophale) SiO2 
 PCOD9195585
Probable space group: C 2/M
;
_chemical_formula_sum "Si O2"
_cell_formula_units_Z 56
_cell_length_a 23.265562
_cell_length_b 7.627007
_cell_length_c 30.349084
_cell_angle_alpha 90.000000
_cell_angle_beta 28.417624
_cell_angle_gamma 90.000000
_cell_volume 2562.856010
_symmetry_space_group_name_H-M "C 2/M"
_symmetry_group_IT_number 12
_symmetry_cell_setting 'monoclinic'
loop_
_space_group_symop_operation_xyz
x,y,z
-x,y,-z
-x,-y,-z
x,-y,z
1/2+x,1/2+y,z
1/2-x,1/2+y,-z
1/2-x,1/2-y,-z
1/2+x,1/2-y,z
loop_
_atom_site_type_symbol
_atom_site_label
_atom_site_fract_x
_atom_site_fract_y
_atom_site_fract_z
Si Si1 0.965892 0.288828 0.808554
Si Si2 0.244192 0.787317 0.716168
Si Si3 0.242309 0.294215 0.617815
Si Si4 0.030206 0.208471 0.093873
Si Si5 0.130724 0.284536 0.279738
Si Si6 0.867197 0.694881 0.447940
Si Si7 0.253021 0.785418 0.887327
O O1 0.970078 0.500000 0.804056
O O2 0.930511 0.238147 0.882089
O O3 0.867243 0.228899 0.839984
O O4 0.103519 0.227772 0.707467
O O5 0.279362 0.728322 0.643552
O O6 0.328070 0.728456 0.699634
O O7 0.106651 0.724051 0.817377
O O8 0.243005 0.000000 0.716217
O O9 0.243654 0.500000 0.605632
O O10 0.328084 0.200970 0.525248
O O11 0.023049 0.000000 0.091497
O O12 0.129800 0.277587 0.992959
O O13 0.128307 0.500000 0.282644
O O14 0.223603 0.234484 0.178726
O O15 0.997616 0.216688 0.356734
O O16 0.890141 0.500000 0.416066
O O17 0.750000 0.750000 0.500000
O O18 0.251783 0.000000 0.889444
#
# Coordination Sequence:
#
# PCOD9195585 Si02
#       7
#     8   8   8   8   8   8   8
#     4   9  17  30  49  71 100 135 168 202 252 311
#     4   9  18  34  53  76 103 133 171 212 250 296
#     4  10  20  35  55  77 103 138 172 209 255 301
#     4   9  17  28  48  76 102 127 164 212 252 288
#     4   9  19  34  52  73 102 137 171 206 252 309
#     4  11  22  37  57  80 104 133 168 208 254 306
#     4   9  16  28  47  73 101 131 167 208 250 296
#
# _framework density 21.850624
#
# number of rings (size 3 to 8) (size 9 to 14) (size 15 to 20)
#    0.000    2.571    0.000    2.143    0.000    4.000 
#    0.000    7.143    0.000    3.429    0.000    4.000 
#    0.000    0.000    0.000    0.000    0.000    0.000 
#
# Total GULP energy -156322.302437 kJ/mol
# GULP energy per Si atom -5582.939373 kJ/mol
# Density = 2.180089 g / cm^3
# Si number density = 21.850624 Si / 1000 Ang^3
#
#
#
# Elastic Constant Matrix: (Units=GPa)
#
#
# Indices 1 2 3 4 5 6 
#
# 1 88.1747 -5.7789 7.5707 -0.0046 -4.9376 0.0093
# 2 -5.7789 40.6691 -9.1748 0.0002 -6.9417 0.0152
# 3 7.5707 -9.1748 50.9607 -0.0070 18.5425 -0.0031
# 4 -0.0046 0.0002 -0.0070 6.7983 0.0071 -0.1860
# 5 -4.9376 -6.9417 18.5425 0.0071 23.3383 0.0040
# 6 0.0093 0.0152 -0.0031 -0.1860 0.0040 11.3998
#
#
#
# Elastic Compliance Matrix: (Units=1/GPa)
#
#
# Indices 1 2 3 4 5 6 
#
# 1 0.012119 0.001929 -0.003650 -0.000002 0.006038 -0.000016
# 2 0.001929 0.026461 0.002061 -0.000006 0.006641 -0.000039
# 3 -0.003650 0.002061 0.028969 0.000052 -0.023175 0.000017
# 4 -0.000002 -0.000006 0.000052 0.147161 -0.000089 0.002401
# 5 0.006038 0.006641 -0.023175 -0.000089 0.064514 -0.000044
# 6 -0.000016 -0.000039 0.000017 0.002401 -0.000044 0.087760
#
#
# Mechanical properties :
#
#
# Convention : Reuss Voigt Hill
#
# Bulk Modulus (GPa) = 14.65642 18.33761 16.49702
# Shear Modulus (GPa) = 12.85194 20.78646 16.81920
#
# Velocity S-wave (km/s) = 2.42786 3.08766 2.77742
# Velocity P-wave (km/s) = 3.81857 4.59587 4.22513
#
# Compressibility (1/GPa) = 0.06822947
#
# Stress axis : x y z
#
# Youngs Moduli (GPa) = 82.51473 37.79094 34.51996
#
# Poissons Ratio (x) = -0.07291 0.12600
# Poissons Ratio (y) = -0.15919 -0.07114
# Poissons Ratio (z) = 0.30118 -0.07788
#
# Static dielectric constant tensor:
#      x y z
#    x 1.772700 -0.000020 -0.021580 
#    y -0.000020 1.920700 0.000010 
#    z -0.021580 0.000010 1.794480 
# 
# From -- ./inp_files/237462.got.cif
#   From: 2010.05.17/outbox.cif.g08.bks.cpg/sg12_119_cif.got.tgz:237462.got - 2010.06.03 13:09:07.
