data_PCOD9195407
_publ_section_title
;
Structure prediction by ZEFSAII (Michael W. Deem and Ramdas Pophale) SiO2 
 PCOD9195407
Probable space group: C 2/M
;
_chemical_formula_sum "Si O2"
_cell_formula_units_Z 64
_cell_length_a 22.783266
_cell_length_b 24.808108
_cell_length_c 13.158936
_cell_angle_alpha 90.000000
_cell_angle_beta 154.116603
_cell_angle_gamma 90.000000
_cell_volume 3246.799995
_symmetry_space_group_name_H-M "C 2/M"
_symmetry_group_IT_number 12
_symmetry_cell_setting 'monoclinic'
loop_
_space_group_symop_operation_xyz
x,y,z
-x,y,-z
-x,-y,-z
x,-y,z
1/2+x,1/2+y,z
1/2-x,1/2+y,-z
1/2-x,1/2-y,-z
1/2+x,1/2-y,z
loop_
_atom_site_type_symbol
_atom_site_label
_atom_site_fract_x
_atom_site_fract_y
_atom_site_fract_z
Si Si1 0.202416 0.562948 0.451227
Si Si2 0.675643 0.735961 0.490660
Si Si3 0.577374 0.722626 0.015999
Si Si4 0.910231 0.436110 0.042202
Si Si5 0.612283 0.402738 0.096640
Si Si6 0.674679 0.612234 0.554050
Si Si7 0.603753 0.934959 0.746258
Si Si8 0.104826 0.061762 0.861621
O O1 0.213442 0.500000 0.495937
O O2 0.255945 0.597431 0.628845
O O3 0.288701 0.575205 0.486198
O O4 0.045826 0.574652 0.190858
O O5 0.750000 0.750000 0.500000
O O6 0.766895 0.762550 0.721387
O O7 0.683412 0.672694 0.527317
O O8 0.516774 0.746947 0.220113
O O9 0.571962 0.657653 0.001829
O O10 0.500000 0.737812 0.000000
O O11 0.877118 0.500000 0.979888
O O12 0.940467 0.425518 0.207464
O O13 0.787496 0.401052 0.812104
O O14 0.500000 0.424175 0.000000
O O15 0.625826 0.436611 0.016211
O O16 0.528010 0.596270 0.365511
O O17 0.500000 0.914174 0.500000
O O18 0.610562 0.000000 0.743245
O O19 0.756907 0.916122 0.969506
O O20 0.083052 0.000000 0.794412
#
# Coordination Sequence:
#
# PCOD9195407 Si02
#       8
#     8   8   8   8   8   8   8   8
#     4  11  21  32  49  76 117 160 192 229 280 346
#     4  10  20  35  54  76 113 154 190 240 293 353
#     4   9  18  33  50  73 105 144 188 237 284 341
#     4  10  22  37  53  77 118 164 205 243 283 346
#     4  11  19  32  51  79 114 144 190 237 287 353
#     4  12  22  35  52  84 122 150 193 238 297 368
#     4   9  19  38  58  79 112 158 209 248 280 338
#     4  11  21  33  56  84 119 158 190 235 294 345
#
# _framework density 19.711715999999999
#
# number of rings (size 3 to 8) (size 9 to 14) (size 15 to 20)
#    0.000    1.625    2.500    4.125    0.000    8.000 
#    0.000    1.875    0.000    0.000    0.000    0.875 
#    7.500    0.000    0.000    0.000    0.000    0.000 
#
# Total GULP energy -178513.165952 kJ/mol
# GULP energy per Si atom -5578.536436 kJ/mol
# Density = 1.966685 g / cm^3
# Si number density = 19.711716 Si / 1000 Ang^3
#
#
#
# Elastic Constant Matrix: (Units=GPa)
#
#
# Indices 1 2 3 4 5 6 
#
# 1 25.7965 1.7312 8.5225 0.0000 17.5052 0.0000
# 2 1.7312 28.6087 20.7787 0.0000 3.3226 0.0000
# 3 8.5225 20.7787 130.8532 0.0000 0.7776 0.0000
# 4 0.0000 0.0000 0.0000 24.8523 0.0000 -5.5559
# 5 17.5052 3.3226 0.7776 0.0000 28.7221 0.0000
# 6 0.0000 0.0000 0.0000 -5.5559 0.0000 6.4855
#
#
#
# Elastic Compliance Matrix: (Units=1/GPa)
#
#
# Indices 1 2 3 4 5 6 
#
# 1 0.068803 0.004319 -0.004916 0.000000 -0.042300 0.000000
# 2 0.004319 0.040347 -0.006646 0.000000 -0.007120 0.000000
# 3 -0.004916 -0.006646 0.008997 0.000000 0.003521 0.000000
# 4 0.000000 0.000000 0.000000 0.049769 0.000000 0.042635
# 5 -0.042300 -0.007120 0.003521 0.000000 0.061325 0.000000
# 6 0.000000 0.000000 0.000000 0.042635 0.000000 0.190714
#
#
# Mechanical properties :
#
#
# Convention : Reuss Voigt Hill
#
# Bulk Modulus (GPa) = 9.64669 27.48038 18.56353
# Shear Modulus (GPa) = 10.66114 22.29370 16.47742
#
# Velocity S-wave (km/s) = 2.32815 3.36666 2.89436
# Velocity P-wave (km/s) = 3.48304 5.39296 4.53958
#
# Compressibility (1/GPa) = 0.10366255
#
# Stress axis : x y z
#
# Youngs Moduli (GPa) = 14.53419 24.78512 111.15178
#
# Poissons Ratio (x) = -0.10706 0.54639
# Poissons Ratio (y) = -0.06278 0.73870
# Poissons Ratio (z) = 0.07145 0.16472
#
# Static dielectric constant tensor:
#      x y z
#    x 1.665900 0.000000 0.006760 
#    y 0.000000 1.694060 0.000000 
#    z 0.006760 0.000000 1.778840 
# 
# From -- ./inp_files/135918.got.cif
#   From: 2010.05.17/outbox.cif.g08.bks.cpg/sg12_68_cif.got.tgz:135918.got - 2010.06.03 13:09:07.
