data_PCOD9195103
_publ_section_title
;
Structure prediction by ZEFSAII (Michael W. Deem and Ramdas Pophale) SiO2 
 PCOD9195103
Probable space group: C 2/M
;
_chemical_formula_sum "Si O2"
_cell_formula_units_Z 46
_cell_length_a 21.905264
_cell_length_b 11.482153
_cell_length_c 11.934955
_cell_angle_alpha 90.000000
_cell_angle_beta 55.314607
_cell_angle_gamma 90.000000
_cell_volume 2468.409249
_symmetry_space_group_name_H-M "C 2/M"
_symmetry_group_IT_number 12
_symmetry_cell_setting 'monoclinic'
loop_
_space_group_symop_operation_xyz
x,y,z
-x,y,-z
-x,-y,-z
x,-y,z
1/2+x,1/2+y,z
1/2-x,1/2+y,-z
1/2-x,1/2-y,-z
1/2+x,1/2-y,z
loop_
_atom_site_type_symbol
_atom_site_label
_atom_site_fract_x
_atom_site_fract_y
_atom_site_fract_z
Si Si1 0.074578 0.697422 0.074825
Si Si2 0.204349 0.865696 0.855278
Si Si3 0.789896 0.131235 0.419638
Si Si4 0.870308 0.634349 0.737180
Si Si5 0.000000 0.785528 0.500000
Si Si6 0.461776 0.628125 0.297814
Si Si7 0.500000 0.000000 0.000000
O O1 0.103434 0.643943 0.162012
O O2 0.003433 0.774844 0.182995
O O3 0.049045 0.601346 0.013916
O O4 0.138984 0.781825 0.962662
O O5 0.207972 0.866497 0.717042
O O6 0.285216 0.825610 0.814220
O O7 0.192214 0.000000 0.905675
O O8 0.750000 0.250000 0.500000
O O9 0.873680 0.137555 0.377393
O O10 0.760005 0.000000 0.482940
O O11 0.872160 0.500000 0.698376
O O12 0.927922 0.707082 0.602458
O O13 0.984168 0.856802 0.404050
O O14 0.484504 0.500000 0.234051
#
# Coordination Sequence:
#
# PCOD9195103 Si02
#       7
#     8   8   8   8   4   8   2
#     4  11  22  39  59  87 119 158 200 245 312 352
#     4  10  21  38  63  85 118 157 202 250 304 362
#     4  10  21  39  57  85 116 154 199 249 303 364
#     4  10  20  37  58  89 124 159 201 245 297 361
#     4  10  20  34  62  88 124 159 201 242 304 352
#     4  10  21  38  61  86 120 153 202 250 298 366
#     4  12  24  40  58  82 128 154 196 256 296 370
#
# _framework density 18.635484000000002
#
# number of rings (size 3 to 8) (size 9 to 14) (size 15 to 20)
#    0.000    1.739    0.870    3.652    0.000    0.000 
#    6.261    3.478    3.826    0.000    0.000    0.000 
#    0.000    0.000    0.000    0.000    0.000    0.000 
#
# Total GULP energy -128087.608316 kJ/mol
# GULP energy per Si atom -5569.026449 kJ/mol
# Density = 1.859307 g / cm^3
# Si number density = 18.635484 Si / 1000 Ang^3
#
#
#
# Elastic Constant Matrix: (Units=GPa)
#
#
# Indices 1 2 3 4 5 6 
#
# 1 87.7391 44.2860 16.5416 0.0000 -16.4291 0.0000
# 2 44.2860 130.4077 48.1636 0.0000 -23.9149 0.0000
# 3 16.5416 48.1636 52.0659 0.0000 -15.4927 0.0000
# 4 0.0000 0.0000 0.0000 170.8585 0.0000 -257.6927
# 5 -16.4291 -23.9149 -15.4927 0.0000 18.5347 0.0000
# 6 0.0000 0.0000 0.0000 -257.6927 0.0000 378.5134
#
#
#
# Elastic Compliance Matrix: (Units=1/GPa)
#
#
# Indices 1 2 3 4 5 6 
#
# 1 0.014842 -0.003945 0.001775 0.000000 0.009550 0.000000
# 2 -0.003945 0.013665 -0.009559 0.000000 0.006145 0.000000
# 3 0.001775 -0.009559 0.032323 0.000000 0.016257 0.000000
# 4 0.000000 0.000000 0.000000 -0.218379 0.000000 -0.148673
# 5 0.009550 0.006145 0.016257 0.000000 0.083937 0.000000
# 6 0.000000 0.000000 0.000000 -0.148673 0.000000 -0.098575
#
#
# Mechanical properties :
#
#
# Convention : Reuss Voigt Hill
#
# Bulk Modulus (GPa) = 26.75732 54.24390 40.50061
# Shear Modulus (GPa) = -36.69113 124.32942 43.81915
#
# Velocity S-wave (km/s) = -4.44203 8.17688 4.85437
# Velocity P-wave (km/s) = 3.45244 10.87748 7.29384
#
# Compressibility (1/GPa) = 0.03737295
#
# Stress axis : x y z
#
# Youngs Moduli (GPa) = 67.37624 73.17792 30.93793
#
# Poissons Ratio (x) = 0.28866 -0.05493
# Poissons Ratio (y) = 0.26577 0.29575
# Poissons Ratio (z) = -0.11962 0.69953
#
# Static dielectric constant tensor:
#      x y z
#    x 1.632350 0.000000 0.003120 
#    y 0.000000 1.646730 0.000000 
#    z 0.003120 0.000000 1.615000 
# 
# From -- ./inp_files/165481.got.cif
#   From: 2010.05.17/outbox.cif.g08.bks.cpg/sg12_83_cif.got.tgz:165481.got - 2010.06.03 13:09:07.
