data_PCOD9195474
_publ_section_title
;
Structure prediction by ZEFSAII (Michael W. Deem and Ramdas Pophale) SiO2 
 PCOD9195474
Probable space group: C 2/M
;
_chemical_formula_sum "Si O2"
_cell_formula_units_Z 64
_cell_length_a 14.979592
_cell_length_b 8.154263
_cell_length_c 27.188016
_cell_angle_alpha 90.000000
_cell_angle_beta 77.546519
_cell_angle_gamma 90.000000
_cell_volume 3242.811843
_symmetry_space_group_name_H-M "C 2/M"
_symmetry_group_IT_number 12
_symmetry_cell_setting 'monoclinic'
loop_
_space_group_symop_operation_xyz
x,y,z
-x,y,-z
-x,-y,-z
x,-y,z
1/2+x,1/2+y,z
1/2-x,1/2+y,-z
1/2-x,1/2-y,-z
1/2+x,1/2-y,z
loop_
_atom_site_type_symbol
_atom_site_label
_atom_site_fract_x
_atom_site_fract_y
_atom_site_fract_z
Si Si1 0.006584 0.799834 0.614433
Si Si2 0.202113 0.196143 0.362481
Si Si3 0.203289 0.693485 0.253889
Si Si4 0.891938 0.801744 0.192448
Si Si5 0.468356 0.197708 0.079125
Si Si6 0.146742 0.697708 0.001186
Si Si7 0.501591 0.306118 0.725044
Si Si8 0.691872 0.695842 0.553545
O O1 0.086419 0.746148 0.568384
O O2 0.903054 0.751297 0.615024
O O3 0.027088 0.741125 0.667824
O O4 0.006585 0.000000 0.615142
O O5 0.230888 0.276918 0.307550
O O6 0.262119 0.244408 0.401625
O O7 0.203444 0.000000 0.355507
O O8 0.189190 0.500000 0.248132
O O9 0.286591 0.751971 0.210144
O O10 0.107038 0.781080 0.256824
O O11 0.939286 0.751873 0.136433
O O12 0.945882 0.737945 0.234076
O O13 0.891518 0.000000 0.194619
O O14 0.394601 0.252490 0.046632
O O15 0.469119 0.000000 0.077818
O O16 0.569585 0.252648 0.049805
O O17 0.146057 0.500000 0.001201
O O18 0.250000 0.750000 0.000000
O O19 0.520678 0.500000 0.721250
O O20 0.690948 0.500000 0.553843
O O21 0.750000 0.750000 0.500000
#
# Coordination Sequence:
#
# PCOD9195474 Si02
#       8
#     8   8   8   8   8   8   8   8
#     4   8  17  35  57  74  99 139 174 205 254 313
#     4  10  20  37  58  79 102 136 178 216 257 312
#     4  10  20  35  54  79 108 139 173 213 259 309
#     4  10  21  35  53  78 112 146 175 210 260 316
#     4   9  20  37  54  76 108 140 176 219 266 312
#     4   9  19  37  58  78 102 138 179 223 269 315
#     4   9  18  35  55  76 102 138 178 211 249 308
#     4  11  22  37  55  78 106 137 173 217 266 316
#
# _framework density 19.735958
#
# number of rings (size 3 to 8) (size 9 to 14) (size 15 to 20)
#    0.000    2.500    0.000    3.375    0.000    6.000 
#    0.000   17.500    0.000    0.000    0.000    0.000 
#    0.000    0.000    0.000    0.000    0.000    0.000 
#
# Total GULP energy -178545.131319 kJ/mol
# GULP energy per Si atom -5579.535354 kJ/mol
# Density = 1.969104 g / cm^3
# Si number density = 19.735958 Si / 1000 Ang^3
#
#
#
# Elastic Constant Matrix: (Units=GPa)
#
#
# Indices 1 2 3 4 5 6 
#
# 1 83.5405 -1.6288 31.3937 0.0000 -19.9647 0.0000
# 2 -1.6288 12.8407 -5.6252 0.0000 -2.2507 0.0000
# 3 31.3937 -5.6252 49.8969 0.0000 -29.6875 0.0000
# 4 0.0000 0.0000 0.0000 30.7142 0.0000 1.0615
# 5 -19.9647 -2.2507 -29.6875 0.0000 23.6257 0.0000
# 6 0.0000 0.0000 0.0000 1.0615 0.0000 25.6236
#
#
#
# Elastic Compliance Matrix: (Units=1/GPa)
#
#
# Indices 1 2 3 4 5 6 
#
# 1 0.015763 -0.001594 -0.008965 0.000000 0.001904 0.000000
# 2 -0.001594 0.144017 0.097479 0.000000 0.134862 0.000000
# 3 -0.008965 0.097479 0.149343 0.000000 0.189371 0.000000
# 4 0.000000 0.000000 0.000000 0.032605 0.000000 -0.001351
# 5 0.001904 0.134862 0.189371 0.000000 0.294743 0.000000
# 6 0.000000 0.000000 0.000000 -0.001351 0.000000 0.039082
#
#
# Mechanical properties :
#
#
# Convention : Reuss Voigt Hill
#
# Bulk Modulus (GPa) = 2.07055 21.61748 11.84402
# Shear Modulus (GPa) = 7.54490 24.13527 15.84009
#
# Velocity S-wave (km/s) = 1.95735 3.50080 2.83609
# Velocity P-wave (km/s) = 2.48187 5.22666 4.09131
#
# Compressibility (1/GPa) = 0.48296398
#
# Stress axis : x y z
#
# Youngs Moduli (GPa) = 63.43996 6.94363 6.69600
#
# Poissons Ratio (x) = 0.01107 0.06003
# Poissons Ratio (y) = 0.10112 -0.65272
# Poissons Ratio (z) = 0.56871 -0.67686
#
# Static dielectric constant tensor:
#      x y z
#    x 1.704520 0.000000 -0.013630 
#    y 0.000000 1.704170 0.000000 
#    z -0.013630 0.000000 1.675350 
# 
# From -- ./inp_files/359760.got.cif
#   From: 2010.05.17/outbox.cif.g08.bks.cpg/sg12_180_cif.got.tgz:359760.got - 2010.06.03 13:09:07.
