data_PCOD9195525
_publ_section_title
;
Structure prediction by ZEFSAII (Michael W. Deem and Ramdas Pophale) SiO2 
 PCOD9195525
Probable space group: C 2/M
;
_chemical_formula_sum "Si O2"
_cell_formula_units_Z 52
_cell_length_a 9.683594
_cell_length_b 17.506475
_cell_length_c 18.912601
_cell_angle_alpha 90.000000
_cell_angle_beta 53.685656
_cell_angle_gamma 90.000000
_cell_volume 2583.467781
_symmetry_space_group_name_H-M "C 2/M"
_symmetry_group_IT_number 12
_symmetry_cell_setting 'monoclinic'
loop_
_space_group_symop_operation_xyz
x,y,z
-x,y,-z
-x,-y,-z
x,-y,z
1/2+x,1/2+y,z
1/2-x,1/2+y,-z
1/2-x,1/2-y,-z
1/2+x,1/2-y,z
loop_
_atom_site_type_symbol
_atom_site_label
_atom_site_fract_x
_atom_site_fract_y
_atom_site_fract_z
Si Si1 0.118329 0.083350 0.546786
Si Si2 0.440538 0.911448 0.355913
Si Si3 0.162801 0.828209 0.004131
Si Si4 0.776429 0.654643 0.628433
Si Si5 0.122164 0.413678 0.172655
Si Si6 0.000000 0.216808 0.500000
Si Si7 0.941902 0.088994 0.185463
O O1 0.249518 0.085866 0.441476
O O2 0.231127 0.092967 0.582494
O O3 0.017506 0.161226 0.562812
O O4 0.031936 0.000000 0.574534
O O5 0.556846 0.866150 0.375948
O O6 0.469464 0.881584 0.267754
O O7 0.501529 0.000000 0.338014
O O8 0.309576 0.871500 0.916009
O O9 0.250000 0.750000 0.000000
O O10 0.000000 0.818185 0.000000
O O11 0.094660 0.875521 0.092564
O O12 0.835072 0.730086 0.567672
O O13 0.619583 0.644002 0.731679
O O14 0.079473 0.500000 0.165462
O O15 0.281846 0.413436 0.179330
O O16 0.972567 0.000000 0.197959
#
# Coordination Sequence:
#
# PCOD9195525 Si02
#       7
#     8   8   8   8   8   4   8
#     4  11  22  38  55  74 112 153 186 221 276 344
#     4   9  17  31  56  83 103 134 182 232 277 324
#     4  10  20  35  54  82 114 146 180 224 281 333
#     4  11  20  35  57  81 109 136 187 242 280 316
#     4   8  15  30  55  81 103 132 180 230 269 313
#     4  12  25  36  49  82 114 148 186 228 283 330
#     4   9  18  34  57  84 106 137 183 230 274 326
#
# _framework density 20.127984999999999
#
# number of rings (size 3 to 8) (size 9 to 14) (size 15 to 20)
#    0.000    2.154    1.538    3.462    0.000    4.308 
#    5.538    0.000    0.000    1.846    0.000    0.000 
#    0.000    0.000    0.000    0.000    0.000    0.000 
#
# Total GULP energy -144782.549973 kJ/mol
# GULP energy per Si atom -5568.559614 kJ/mol
# Density = 2.008217 g / cm^3
# Si number density = 20.127985 Si / 1000 Ang^3
#
#
#
# Elastic Constant Matrix: (Units=GPa)
#
#
# Indices 1 2 3 4 5 6 
#
# 1 18.3085 20.2311 6.5714 0.0000 5.7346 0.0000
# 2 20.2311 94.9988 39.1660 0.0000 12.9599 0.0000
# 3 6.5714 39.1660 134.8107 0.0000 12.4936 0.0000
# 4 0.0000 0.0000 0.0000 15.9382 0.0000 1.4635
# 5 5.7346 12.9599 12.4936 0.0000 9.1135 0.0000
# 6 0.0000 0.0000 0.0000 1.4635 0.0000 33.1366
#
#
#
# Elastic Compliance Matrix: (Units=1/GPa)
#
#
# Indices 1 2 3 4 5 6 
#
# 1 0.079361 -0.013443 0.003314 0.000000 -0.035365 0.000000
# 2 -0.013443 0.016036 -0.003063 0.000000 -0.010146 0.000000
# 3 0.003314 -0.003063 0.009091 0.000000 -0.010192 0.000000
# 4 0.000000 0.000000 0.000000 0.062998 0.000000 -0.002782
# 5 -0.035365 -0.010146 -0.010192 0.000000 0.160381 0.000000
# 6 0.000000 0.000000 0.000000 -0.002782 0.000000 0.030301
#
#
# Mechanical properties :
#
#
# Convention : Reuss Voigt Hill
#
# Bulk Modulus (GPa) = 12.80333 42.22832 27.51583
# Shear Modulus (GPa) = 12.17771 23.78096 17.97934
#
# Velocity S-wave (km/s) = 2.46237 3.44101 2.99197
# Velocity P-wave (km/s) = 3.80252 6.06736 5.06320
#
# Compressibility (1/GPa) = 0.07810465
#
# Stress axis : x y z
#
# Youngs Moduli (GPa) = 12.60063 62.35814 110.00179
#
# Poissons Ratio (x) = 0.83827 -0.36459
# Poissons Ratio (y) = 0.16939 0.33698
# Poissons Ratio (z) = -0.04176 0.19103
#
# Static dielectric constant tensor:
#      x y z
#    x 1.720580 0.000000 -0.016460 
#    y 0.000000 1.755790 0.000000 
#    z -0.016460 0.000000 1.773090 
# 
# From -- ./inp_files/305359.got.cif
#   From: 2010.05.17/outbox.cif.g08.bks.cpg/sg12_153_cif.got.tgz:305359.got - 2010.06.03 13:09:07.
