data_PCOD9195086
_publ_section_title
;
Structure prediction by ZEFSAII (Michael W. Deem and Ramdas Pophale) SiO2 
 PCOD9195086
Probable space group: C 2/M
;
_chemical_formula_sum "Si O2"
_cell_formula_units_Z 56
_cell_length_a 9.517701
_cell_length_b 19.095105
_cell_length_c 17.427711
_cell_angle_alpha 90.000000
_cell_angle_beta 107.046704
_cell_angle_gamma 90.000000
_cell_volume 3028.184859
_symmetry_space_group_name_H-M "C 2/M"
_symmetry_group_IT_number 12
_symmetry_cell_setting 'monoclinic'
loop_
_space_group_symop_operation_xyz
x,y,z
-x,y,-z
-x,-y,-z
x,-y,z
1/2+x,1/2+y,z
1/2-x,1/2+y,-z
1/2-x,1/2-y,-z
1/2+x,1/2-y,z
loop_
_atom_site_type_symbol
_atom_site_label
_atom_site_fract_x
_atom_site_fract_y
_atom_site_fract_z
Si Si1 0.352731 0.082387 0.725555
Si Si2 0.157018 0.822031 0.221067
Si Si3 0.347262 0.166954 0.574032
Si Si4 0.688584 0.679472 0.812175
Si Si5 0.833797 0.583432 0.142623
Si Si6 0.332178 0.821596 0.991977
Si Si7 0.816340 0.305966 0.401991
O O1 0.350103 0.105866 0.636658
O O2 0.230655 0.126063 0.751759
O O3 0.511837 0.099858 0.789054
O O4 0.330230 0.000000 0.729704
O O5 0.234176 0.752940 0.197680
O O6 0.203103 0.885675 0.173688
O O7 0.224889 0.834050 0.315977
O O8 0.984017 0.810414 0.202487
O O9 0.243019 0.228645 0.588129
O O10 0.513294 0.196236 0.594261
O O11 0.302827 0.150878 0.479211
O O12 0.757670 0.651368 0.902283
O O13 0.824568 0.500000 0.131645
O O14 0.829097 0.623876 0.061180
O O15 0.500000 0.804619 0.000000
O O16 0.250000 0.750000 0.000000
#
# Coordination Sequence:
#
# PCOD9195086 Si02
#       7
#     8   8   8   8   8   8   8
#     4  11  23  42  62  89 126 168 210 252 308 369
#     4  12  22  40  65  93 126 159 209 257 305 367
#     4  10  20  36  59  95 121 157 202 255 312 357
#     4  12  24  38  66  94 120 162 211 259 306 365
#     4  11  25  43  64  89 128 169 204 254 313 367
#     4  12  24  40  64  95 123 156 211 261 307 361
#     4  10  20  34  61  94 122 152 204 256 303 360
#
# _framework density 18.492927000000002
#
# number of rings (size 3 to 8) (size 9 to 14) (size 15 to 20)
#    0.000    0.857    5.714    2.571    0.000    1.429 
#    0.000    2.857    0.000    0.857    0.000    0.000 
#    0.000    0.000    0.000    0.000    0.000    0.000 
#
# Total GULP energy -156468.783389 kJ/mol
# GULP energy per Si atom -5588.170835 kJ/mol
# Density = 1.845084 g / cm^3
# Si number density = 18.492927 Si / 1000 Ang^3
#
#
#
# Elastic Constant Matrix: (Units=GPa)
#
#
# Indices 1 2 3 4 5 6 
#
# 1 147.4161 46.1930 42.3055 0.0000 -0.8318 0.0000
# 2 46.1930 89.5799 39.0210 0.0000 -10.5537 0.0000
# 3 42.3055 39.0210 141.9560 0.0000 -5.0105 0.0000
# 4 0.0000 0.0000 0.0000 25.4193 0.0000 2.9389
# 5 -0.8318 -10.5537 -5.0105 0.0000 27.9801 0.0000
# 6 0.0000 0.0000 0.0000 2.9389 0.0000 13.4127
#
#
#
# Elastic Compliance Matrix: (Units=1/GPa)
#
#
# Indices 1 2 3 4 5 6 
#
# 1 0.008415 -0.003860 -0.001499 0.000000 -0.001474 0.000000
# 2 -0.003860 0.014959 -0.002784 0.000000 0.005029 0.000000
# 3 -0.001499 -0.002784 0.008270 0.000000 0.000386 0.000000
# 4 0.000000 0.000000 0.000000 0.040363 0.000000 -0.008844
# 5 -0.001474 0.005029 0.000386 0.000000 0.037662 0.000000
# 6 0.000000 0.000000 0.000000 -0.008844 0.000000 0.076494
#
#
# Mechanical properties :
#
#
# Convention : Reuss Voigt Hill
#
# Bulk Modulus (GPa) = 65.11236 70.44343 67.77790
# Shear Modulus (GPa) = 24.08855 30.12459 27.10657
#
# Velocity S-wave (km/s) = 3.61304 4.04044 3.83270
# Velocity P-wave (km/s) = 7.25887 7.74220 7.50443
#
# Compressibility (1/GPa) = 0.01535807
#
# Stress axis : x y z
#
# Youngs Moduli (GPa) = 118.83726 66.84973 120.91878
#
# Poissons Ratio (x) = 0.25804 0.18123
# Poissons Ratio (y) = 0.45872 0.33664
# Poissons Ratio (z) = 0.17811 0.18611
#
# Static dielectric constant tensor:
#      x y z
#    x 1.638360 0.000000 -0.002530 
#    y 0.000000 1.608320 0.000000 
#    z -0.002530 0.000000 1.680710 
# 
# From -- ./inp_files/257199.got.cif
#   From: 2010.05.17/outbox.cif.g08.bks.cpg/sg12_129_cif.got.tgz:257199.got - 2010.06.03 13:09:07.
