data_PCOD9195741
_publ_section_title
;
Structure prediction by ZEFSAII (Michael W. Deem and Ramdas Pophale) SiO2 
 PCOD9195741
Probable space group: C 2/M
;
_chemical_formula_sum "Si O2"
_cell_formula_units_Z 48
_cell_length_a 30.865163
_cell_length_b 8.866643
_cell_length_c 12.176738
_cell_angle_alpha 90.000000
_cell_angle_beta 58.231981
_cell_angle_gamma 90.000000
_cell_volume 2833.172793
_symmetry_space_group_name_H-M "C 2/M"
_symmetry_group_IT_number 12
_symmetry_cell_setting 'monoclinic'
loop_
_space_group_symop_operation_xyz
x,y,z
-x,y,-z
-x,-y,-z
x,-y,z
1/2+x,1/2+y,z
1/2-x,1/2+y,-z
1/2-x,1/2-y,-z
1/2+x,1/2-y,z
loop_
_atom_site_type_symbol
_atom_site_label
_atom_site_fract_x
_atom_site_fract_y
_atom_site_fract_z
Si Si1 0.559683 0.819773 0.920452
Si Si2 0.695035 0.820757 0.105147
Si Si3 0.131575 0.181751 0.644943
Si Si4 0.634820 0.673849 0.992069
Si Si5 0.679345 0.678459 0.361091
Si Si6 0.279606 0.673628 0.310720
O O1 0.587289 0.758999 0.773806
O O2 0.588695 0.746059 0.985187
O O3 0.565541 0.000000 0.917921
O O4 0.500000 0.782301 0.000000
O O5 0.678879 0.766400 0.247586
O O6 0.700205 0.000000 0.095461
O O7 0.750000 0.750000 0.000000
O O8 0.653539 0.764523 0.072697
O O9 0.137485 0.220348 0.509103
O O10 0.184700 0.220784 0.635708
O O11 0.126538 0.000000 0.661900
O O12 0.623765 0.500000 0.034837
O O13 0.682441 0.674085 0.844063
O O14 0.676058 0.500000 0.344760
O O15 0.733369 0.717927 0.345033
O O16 0.262047 0.500000 0.350321
#
# Coordination Sequence:
#
# PCOD9195741 Si02
#       6
#     8   8   8   8   8   8
#     4  10  21  37  59  85 109 136 174 222 275 325
#     4  12  23  35  52  75 108 150 188 221 260 311
#     4   9  20  35  51  75 106 140 180 220 266 322
#     4  10  20  35  55  80 108 140 182 225 266 316
#     4  11  21  32  49  74 107 146 182 219 262 312
#     4   9  17  30  48  72 104 140 178 218 259 312
#
# _framework density 16.942136999999999
#
# number of rings (size 3 to 8) (size 9 to 14) (size 15 to 20)
#    0.000    1.833    1.667    4.500    0.000    5.333 
#    0.000    0.000    0.000    1.000    0.000    7.000 
#    0.000    0.000    0.000    0.000    0.000    0.000 
#
# Total GULP energy -133971.135015 kJ/mol
# GULP energy per Si atom -5582.130626 kJ/mol
# Density = 1.690358 g / cm^3
# Si number density = 16.942137 Si / 1000 Ang^3
#
#
#
# Elastic Constant Matrix: (Units=GPa)
#
#
# Indices 1 2 3 4 5 6 
#
# 1 89.9732 60.4341 75.3595 0.0000 -0.1849 0.0000
# 2 60.4341 100.7741 63.1373 0.0000 8.4834 0.0000
# 3 75.3595 63.1373 113.5593 0.0000 24.2338 0.0000
# 4 0.0000 0.0000 0.0000 23.2107 0.0000 4.8935
# 5 -0.1849 8.4834 24.2338 0.0000 22.9492 0.0000
# 6 0.0000 0.0000 0.0000 4.8935 0.0000 25.3258
#
#
#
# Elastic Compliance Matrix: (Units=1/GPa)
#
#
# Indices 1 2 3 4 5 6 
#
# 1 0.045366 -0.009860 -0.032891 0.000000 0.038742 0.000000
# 2 -0.009860 0.017703 -0.002434 0.000000 -0.004053 0.000000
# 3 -0.032891 -0.002434 0.041116 0.000000 -0.042782 0.000000
# 4 0.000000 0.000000 0.000000 0.044913 0.000000 -0.008678
# 5 0.038742 -0.004053 -0.042782 0.000000 0.090562 0.000000
# 6 0.000000 0.000000 0.000000 -0.008678 0.000000 0.041162
#
#
# Mechanical properties :
#
#
# Convention : Reuss Voigt Hill
#
# Bulk Modulus (GPa) = 72.39040 78.01872 75.20456
# Shear Modulus (GPa) = 13.30510 21.32220 17.31365
#
# Velocity S-wave (km/s) = 2.80541 3.55143 3.20023
# Velocity P-wave (km/s) = 7.30168 7.93517 7.62501
#
# Compressibility (1/GPa) = 0.01381399
#
# Stress axis : x y z
#
# Youngs Moduli (GPa) = 22.04315 56.48906 24.32158
#
# Poissons Ratio (x) = 0.55700 0.79995
# Poissons Ratio (y) = 0.21735 0.05920
# Poissons Ratio (z) = 0.72501 0.13749
#
# Static dielectric constant tensor:
#      x y z
#    x 1.554320 0.000000 0.018860 
#    y 0.000000 1.571640 0.000000 
#    z 0.018860 0.000000 1.588460 
# 
# From -- ./inp_files/172427.got.cif
#   From: 2010.05.17/outbox.cif.g08.bks.cpg/sg12_87_cif.got.tgz:172427.got - 2010.06.03 13:09:07.
