data_PCOD9195207
_publ_section_title
;
Structure prediction by ZEFSAII (Michael W. Deem and Ramdas Pophale) SiO2 
 PCOD9195207
Probable space group: C 2/M
;
_chemical_formula_sum "Si O2"
_cell_formula_units_Z 48
_cell_length_a 17.793993
_cell_length_b 32.249039
_cell_length_c 5.261692
_cell_angle_alpha 90.000000
_cell_angle_beta 55.495622
_cell_angle_gamma 90.000000
_cell_volume 2488.207080
_symmetry_space_group_name_H-M "C 2/M"
_symmetry_group_IT_number 12
_symmetry_cell_setting 'monoclinic'
loop_
_space_group_symop_operation_xyz
x,y,z
-x,y,-z
-x,-y,-z
x,-y,z
1/2+x,1/2+y,z
1/2-x,1/2+y,-z
1/2-x,1/2-y,-z
1/2+x,1/2-y,z
loop_
_atom_site_type_symbol
_atom_site_label
_atom_site_fract_x
_atom_site_fract_y
_atom_site_fract_z
Si Si1 0.059260 0.049169 0.138388
Si Si2 0.342887 0.832838 0.839475
Si Si3 0.391165 0.258881 0.726111
Si Si4 0.218547 0.112581 0.769471
Si Si5 0.892708 0.813084 0.224589
Si Si6 0.403121 0.125074 0.235497
O O1 0.000000 0.059338 0.500000
O O2 0.079239 0.000000 0.103761
O O3 0.150092 0.076276 0.964449
O O4 0.000000 0.057894 0.000000
O O5 0.335324 0.783709 0.830252
O O6 0.253694 0.860101 0.941749
O O7 0.408146 0.847647 0.482563
O O8 0.380067 0.845558 0.041896
O O9 0.500000 0.248320 0.500000
O O10 0.373571 0.288316 0.519092
O O11 0.375419 0.282969 0.018583
O O12 0.167541 0.146086 0.691479
O O13 0.312790 0.097926 0.457341
O O14 0.000000 0.824304 0.000000
O O15 0.500000 0.104158 0.000000
#
# Coordination Sequence:
#
# PCOD9195207 Si02
#       6
#     8   8   8   8   8   8
#     4  10  23  43  69  96 125 159 190 233 299 371
#     4  10  22  35  58  79 112 158 203 249 294 331
#     4  10  20  35  52  74 112 157 205 245 292 347
#     4  10  25  36  62  89 120 147 203 247 297 353
#     4  10  22  35  51  77 113 159 195 247 303 344
#     4  10  21  37  56  83 115 155 201 243 297 343
#
# _framework density 19.290997000000001
#
# number of rings (size 3 to 8) (size 9 to 14) (size 15 to 20)
#    1.000    1.000    0.000    3.000    4.667    4.667 
#    0.000    0.000    0.000    0.500    0.000    1.167 
#    0.000    0.000    0.000    0.000    0.000    0.000 
#
# Total GULP energy -133938.822251 kJ/mol
# GULP energy per Si atom -5580.784260 kJ/mol
# Density = 1.924709 g / cm^3
# Si number density = 19.290997 Si / 1000 Ang^3
#
#
#
# Elastic Constant Matrix: (Units=GPa)
#
#
# Indices 1 2 3 4 5 6 
#
# 1 76.8947 43.7107 70.4545 0.0000 -15.1905 0.0000
# 2 43.7107 58.3755 51.9295 0.0000 -24.1554 0.0000
# 3 70.4545 51.9295 130.4201 0.0000 -3.6338 0.0000
# 4 0.0000 0.0000 0.0000 11.0394 0.0000 -18.3903
# 5 -15.1905 -24.1554 -3.6338 0.0000 48.7268 0.0000
# 6 0.0000 0.0000 0.0000 -18.3903 0.0000 15.5017
#
#
#
# Elastic Compliance Matrix: (Units=1/GPa)
#
#
# Indices 1 2 3 4 5 6 
#
# 1 0.031330 -0.010963 -0.012465 0.000000 0.003403 0.000000
# 2 -0.010963 0.040745 -0.009854 0.000000 0.016046 0.000000
# 3 -0.012465 -0.009854 0.018118 0.000000 -0.007420 0.000000
# 4 0.000000 0.000000 0.000000 -0.092784 0.000000 -0.110073
# 5 0.003403 0.016046 -0.007420 0.000000 0.028985 0.000000
# 6 0.000000 0.000000 0.000000 -0.110073 0.000000 -0.066075
#
#
# Mechanical properties :
#
#
# Convention : Reuss Voigt Hill
#
# Bulk Modulus (GPa) = 42.32038 66.43109 54.37573
# Shear Modulus (GPa) = 143.85172 21.69329 82.77250
#
# Velocity S-wave (km/s) = 8.64472 3.35704 6.55747
# Velocity P-wave (km/s) = 11.02847 7.03828 9.25107
#
# Compressibility (1/GPa) = 0.02362928
#
# Stress axis : x y z
#
# Youngs Moduli (GPa) = 31.91876 24.54291 55.19352
#
# Poissons Ratio (x) = 0.26906 0.68797
# Poissons Ratio (y) = 0.34992 0.54389
# Poissons Ratio (z) = 0.39786 0.24185
#
# Static dielectric constant tensor:
#      x y z
#    x 1.723040 0.000000 -0.036740 
#    y 0.000000 1.610700 0.000000 
#    z -0.036740 0.000000 1.715790 
# 
# From -- ./inp_files/22263.got.cif
#   From: 2010.05.17/outbox.cif.g08.bks.cpg/sg12_12_cif.got.tgz:22263.got - 2010.06.03 13:09:07.
