data_PCOD9195913
_publ_section_title
;
Structure prediction by ZEFSAII (Michael W. Deem and Ramdas Pophale) SiO2 
 PCOD9195913
Probable space group: C 2/M
;
_chemical_formula_sum "Si O2"
_cell_formula_units_Z 64
_cell_length_a 11.500702
_cell_length_b 24.032718
_cell_length_c 15.492786
_cell_angle_alpha 90.000000
_cell_angle_beta 129.698595
_cell_angle_gamma 90.000000
_cell_volume 3294.712587
_symmetry_space_group_name_H-M "C 2/M"
_symmetry_group_IT_number 12
_symmetry_cell_setting 'monoclinic'
loop_
_space_group_symop_operation_xyz
x,y,z
-x,y,-z
-x,-y,-z
x,-y,z
1/2+x,1/2+y,z
1/2-x,1/2+y,-z
1/2-x,1/2-y,-z
1/2+x,1/2-y,z
loop_
_atom_site_type_symbol
_atom_site_label
_atom_site_fract_x
_atom_site_fract_y
_atom_site_fract_z
Si Si1 0.122116 0.648741 0.693830
Si Si2 0.120382 0.225730 0.134709
Si Si3 0.471576 0.634610 0.273164
Si Si4 0.629033 0.436539 0.629346
Si Si5 0.858359 0.774816 0.124047
Si Si6 0.070398 0.240210 0.436431
Si Si7 0.572841 0.938626 0.339852
Si Si8 0.272741 0.065155 0.399310
O O1 0.287984 0.670943 0.794983
O O2 0.140104 0.606285 0.623253
O O3 0.014998 0.701594 0.624900
O O4 0.043767 0.611015 0.728960
O O5 0.258482 0.261920 0.161849
O O6 0.024008 0.247699 0.171406
O O7 0.000000 0.217471 0.000000
O O8 0.361448 0.602755 0.284595
O O9 0.394539 0.659933 0.151510
O O10 0.531264 0.688851 0.354260
O O11 0.606074 0.591175 0.322826
O O12 0.500000 0.417520 0.500000
O O13 0.585836 0.500000 0.632527
O O14 0.789484 0.436977 0.660239
O O15 0.750000 0.750000 0.000000
O O16 0.250000 0.250000 0.500000
O O17 0.000000 0.227222 0.500000
O O18 0.655149 0.931815 0.471580
O O19 0.501602 0.000000 0.303919
O O20 0.276478 0.000000 0.375477
#
# Coordination Sequence:
#
# PCOD9195913 Si02
#       8
#     8   8   8   8   8   8   8   8
#     4  12  22  38  59  85 122 165 214 255 315 377
#     4  10  22  41  63  88 119 152 202 265 322 382
#     4  12  21  36  60  87 118 162 207 251 317 370
#     4  10  20  35  55  86 127 170 215 257 299 365
#     4  10  22  41  63  89 119 155 204 262 326 385
#     4  12  27  37  53  87 134 169 201 248 312 385
#     4  10  21  36  56  85 124 170 213 250 297 363
#     4  11  22  38  59  86 123 169 217 256 296 366
#
# _framework density 19.425063999999999
#
# number of rings (size 3 to 8) (size 9 to 14) (size 15 to 20)
#    0.000    1.125    3.750    3.750    1.750    2.000 
#    0.000    0.000    0.000    1.500    0.000    0.000 
#    0.000   13.500    0.000    0.000    0.000    0.000 
#
# Total GULP energy -178217.872644 kJ/mol
# GULP energy per Si atom -5569.308520 kJ/mol
# Density = 1.938085 g / cm^3
# Si number density = 19.425064 Si / 1000 Ang^3
#
#
#
# Elastic Constant Matrix: (Units=GPa)
#
#
# Indices 1 2 3 4 5 6 
#
# 1 134.3349 39.1139 23.3831 0.0000 19.9916 0.0000
# 2 39.1139 97.4536 26.0499 0.0000 13.5680 0.0000
# 3 23.3831 26.0499 48.2280 0.0000 17.7518 0.0000
# 4 0.0000 0.0000 0.0000 -151.7635 0.0000 -133.6450
# 5 19.9916 13.5680 17.7518 0.0000 22.1012 0.0000
# 6 0.0000 0.0000 0.0000 -133.6450 0.0000 -64.0185
#
#
#
# Elastic Compliance Matrix: (Units=1/GPa)
#
#
# Indices 1 2 3 4 5 6 
#
# 1 0.009266 -0.002652 -0.000815 0.000000 -0.006098 0.000000
# 2 -0.002652 0.012900 -0.005182 0.000000 -0.001358 0.000000
# 3 -0.000815 -0.005182 0.031925 0.000000 -0.021724 0.000000
# 4 0.000000 0.000000 0.000000 0.007860 0.000000 -0.016408
# 5 -0.006098 -0.001358 -0.021724 0.000000 0.069045 0.000000
# 6 0.000000 0.000000 0.000000 -0.016408 0.000000 0.018632
#
#
# Mechanical properties :
#
#
# Convention : Reuss Voigt Hill
#
# Bulk Modulus (GPa) = 27.17960 50.79005 38.98482
# Shear Modulus (GPa) = 27.90330 -25.97151 0.96590
#
# Velocity S-wave (km/s) = 3.79418 -3.66048 0.70592
# Velocity P-wave (km/s) = 5.76340 2.88754 4.55822
#
# Compressibility (1/GPa) = 0.03679230
#
# Stress axis : x y z
#
# Youngs Moduli (GPa) = 107.92488 77.51962 31.32316
#
# Poissons Ratio (x) = 0.20557 0.02554
# Poissons Ratio (y) = 0.28620 0.16232
# Poissons Ratio (z) = 0.08799 0.40171
#
# Static dielectric constant tensor:
#      x y z
#    x 1.827310 0.000000 -0.024480 
#    y 0.000000 1.688090 0.000000 
#    z -0.024480 0.000000 1.721870 
# 
# From -- ./inp_files/265094.got.cif
#   From: 2010.05.17/outbox.cif.g08.bks.cpg/sg12_133_cif.got.tgz:265094.got - 2010.06.03 13:09:07.
