data_PCOD9195077
_publ_section_title
;
Structure prediction by ZEFSAII (Michael W. Deem and Ramdas Pophale) SiO2 
 PCOD9195077
Probable space group: C 2/M
;
_chemical_formula_sum "Si O2"
_cell_formula_units_Z 48
_cell_length_a 9.076119
_cell_length_b 12.508177
_cell_length_c 24.318768
_cell_angle_alpha 90.000000
_cell_angle_beta 123.025347
_cell_angle_gamma 90.000000
_cell_volume 2314.740671
_symmetry_space_group_name_H-M "C 2/M"
_symmetry_group_IT_number 12
_symmetry_cell_setting 'monoclinic'
loop_
_space_group_symop_operation_xyz
x,y,z
-x,y,-z
-x,-y,-z
x,-y,z
1/2+x,1/2+y,z
1/2-x,1/2+y,-z
1/2-x,1/2-y,-z
1/2+x,1/2-y,z
loop_
_atom_site_type_symbol
_atom_site_label
_atom_site_fract_x
_atom_site_fract_y
_atom_site_fract_z
Si Si1 0.676990 0.749802 0.081731
Si Si2 0.387312 0.313216 0.608418
Si Si3 0.314929 0.877302 0.014942
Si Si4 0.306556 0.619151 0.476338
Si Si5 0.137850 0.629948 0.779933
Si Si6 0.230401 0.751564 0.301256
O O1 0.493211 0.807523 0.058525
O O2 0.688745 0.654738 0.038950
O O3 0.767616 0.697870 0.152482
O O4 0.761191 0.844167 0.060375
O O5 0.303618 0.379687 0.541850
O O6 0.340782 0.192613 0.579581
O O7 0.596635 0.320634 0.653801
O O8 0.306435 0.323016 0.652168
O O9 0.359373 0.000000 0.025232
O O10 0.500000 0.663453 0.500000
O O11 0.295225 0.500000 0.452219
O O12 0.146938 0.500000 0.787581
O O13 0.227407 0.672590 0.741901
O O14 0.937628 0.674398 0.739912
#
# Coordination Sequence:
#
# PCOD9195077 Si02
#       6
#     8   8   8   8   8   8
#     4  10  20  38  63  92 124 158 208 252 303 370
#     4  10  20  39  60  89 123 150 197 258 297 356
#     4  10  21  40  65  93 127 163 197 254 317 363
#     4  10  20  34  61  91 117 156 194 240 314 372
#     4  11  24  43  63  87 123 166 208 255 304 357
#     4  10  23  41  62  85 121 165 208 254 299 361
#
# _framework density 20.736663
#
# number of rings (size 3 to 8) (size 9 to 14) (size 15 to 20)
#    0.000    1.833    1.667    2.500    0.000    4.000 
#    0.000   30.000    0.000    0.000    0.000    0.000 
#    0.000    0.000    0.000    0.000    0.000    0.000 
#
# Total GULP energy -133698.850714 kJ/mol
# GULP energy per Si atom -5570.785446 kJ/mol
# Density = 2.068947 g / cm^3
# Si number density = 20.736663 Si / 1000 Ang^3
#
#
#
# Elastic Constant Matrix: (Units=GPa)
#
#
# Indices 1 2 3 4 5 6 
#
# 1 129.7579 49.4856 63.4174 0.0000 -10.8623 0.0000
# 2 49.4856 118.2213 54.9569 0.0000 13.0150 0.0000
# 3 63.4174 54.9569 131.4321 0.0000 -18.0541 0.0000
# 4 0.0000 0.0000 0.0000 -60.4928 0.0000 11.4130
# 5 -10.8623 13.0150 -18.0541 0.0000 23.3949 0.0000
# 6 0.0000 0.0000 0.0000 11.4130 0.0000 18.1652
#
#
#
# Elastic Compliance Matrix: (Units=1/GPa)
#
#
# Indices 1 2 3 4 5 6 
#
# 1 0.011044 -0.003692 -0.003130 0.000000 0.004766 0.000000
# 2 -0.003692 0.014564 -0.006327 0.000000 -0.014699 0.000000
# 3 -0.003130 -0.006327 0.013477 0.000000 0.012467 0.000000
# 4 0.000000 0.000000 0.000000 -0.014779 0.000000 0.009285
# 5 0.004766 -0.014699 0.012467 0.000000 0.062756 0.000000
# 6 0.000000 0.000000 0.000000 0.009285 0.000000 0.049216
#
#
# Mechanical properties :
#
#
# Convention : Reuss Voigt Hill
#
# Bulk Modulus (GPa) = 78.21612 79.45903 78.83757
# Shear Modulus (GPa) = 29.96914 10.31690 20.14302
#
# Velocity S-wave (km/s) = 3.80574 2.23294 3.12007
# Velocity P-wave (km/s) = 7.55726 6.71188 7.14708
#
# Compressibility (1/GPa) = 0.01278509
#
# Stress axis : x y z
#
# Youngs Moduli (GPa) = 90.55075 68.66323 74.20063
#
# Poissons Ratio (x) = 0.25353 0.23225
# Poissons Ratio (y) = 0.33434 0.46949
# Poissons Ratio (z) = 0.28343 0.43445
#
# Static dielectric constant tensor:
#      x y z
#    x 1.799880 0.000000 -0.003150 
#    y 0.000000 1.726420 0.000000 
#    z -0.003150 0.000000 1.793030 
# 
# From -- ./inp_files/355599.got.cif
#   From: 2010.05.17/outbox.cif.g08.bks.cpg/sg12_178_cif.got.tgz:355599.got - 2010.06.03 13:09:07.
