data_PCOD9195483
_publ_section_title
;
Structure prediction by ZEFSAII (Michael W. Deem and Ramdas Pophale) SiO2 
 PCOD9195483
Probable space group: C 2/M
;
_chemical_formula_sum "Si O2"
_cell_formula_units_Z 58
_cell_length_a 14.002394
_cell_length_b 12.181107
_cell_length_c 21.558829
_cell_angle_alpha 90.000000
_cell_angle_beta 124.073089
_cell_angle_gamma 90.000000
_cell_volume 3045.890158
_symmetry_space_group_name_H-M "C 2/M"
_symmetry_group_IT_number 12
_symmetry_cell_setting 'monoclinic'
loop_
_space_group_symop_operation_xyz
x,y,z
-x,y,-z
-x,-y,-z
x,-y,z
1/2+x,1/2+y,z
1/2-x,1/2+y,-z
1/2-x,1/2-y,-z
1/2+x,1/2-y,z
loop_
_atom_site_type_symbol
_atom_site_label
_atom_site_fract_x
_atom_site_fract_y
_atom_site_fract_z
Si Si1 0.785837 0.631888 0.324232
Si Si2 0.599901 0.375401 0.784792
Si Si3 0.126190 0.873231 0.382682
Si Si4 0.576678 0.773691 0.897097
Si Si5 0.324017 0.248006 0.829590
Si Si6 0.529021 0.219737 0.446298
Si Si7 0.313553 0.626266 0.956044
Si Si8 0.500000 0.000000 0.500000
O O1 0.808682 0.500000 0.332327
O O2 0.719539 0.656078 0.364034
O O3 0.708872 0.670337 0.238691
O O4 0.907926 0.693399 0.367888
O O5 0.608299 0.500000 0.810747
O O6 0.495962 0.369915 0.698338
O O7 0.575714 0.296426 0.833664
O O8 0.719833 0.337166 0.798731
O O9 0.113621 0.787330 0.433711
O O10 0.144187 0.000000 0.408861
O O11 0.446419 0.809414 0.862480
O O12 0.678368 0.861688 0.925510
O O13 0.616163 0.694926 0.967584
O O14 0.329540 0.317661 0.895022
O O15 0.500000 0.282264 0.500000
O O16 0.564594 0.098691 0.483516
O O17 0.348011 0.500000 0.967500
#
# Coordination Sequence:
#
# PCOD9195483 Si02
#       8
#     8   8   8   8   8   8   8   2
#     4  11  20  35  58  85 111 150 190 229 280 335
#     4  10  20  35  54  79 110 147 183 228 282 335
#     4  10  21  35  59  85 114 147 188 234 281 332
#     4  10  21  37  55  79 110 148 187 229 285 334
#     4  11  21  34  57  81 110 146 189 234 278 327
#     4  10  20  39  61  82 118 148 187 226 278 341
#     4  10  22  37  54  80 113 144 186 237 279 329
#     4   8  20  40  62  84 116 158 178 228 284 338
#
# _framework density 19.042052000000002
#
# number of rings (size 3 to 8) (size 9 to 14) (size 15 to 20)
#    0.414    1.379    3.448    1.241    0.000    3.586 
#    0.000    0.000    3.034    4.966    0.000    0.000 
#    0.000    0.000    0.000    0.000    0.000    0.000 
#
# Total GULP energy -161543.069691 kJ/mol
# GULP energy per Si atom -5570.450679 kJ/mol
# Density = 1.899871 g / cm^3
# Si number density = 19.042052 Si / 1000 Ang^3
#
#
#
# Elastic Constant Matrix: (Units=GPa)
#
#
# Indices 1 2 3 4 5 6 
#
# 1 86.7580 -3.8237 9.3599 0.0000 14.4603 0.0000
# 2 -3.8237 35.7483 -4.6271 0.0000 -5.4861 0.0000
# 3 9.3599 -4.6271 50.3177 0.0000 -1.4537 0.0000
# 4 0.0000 0.0000 0.0000 16.4303 0.0000 -4.4834
# 5 14.4603 -5.4861 -1.4537 0.0000 31.9169 0.0000
# 6 0.0000 0.0000 0.0000 -4.4834 0.0000 16.3445
#
#
#
# Elastic Compliance Matrix: (Units=1/GPa)
#
#
# Indices 1 2 3 4 5 6 
#
# 1 0.012787 0.000136 -0.002536 0.000000 -0.005885 0.000000
# 2 0.000136 0.029129 0.002800 0.000000 0.005073 0.000000
# 3 -0.002536 0.002800 0.020677 0.000000 0.002572 0.000000
# 4 0.000000 0.000000 0.000000 0.065788 0.000000 0.018046
# 5 -0.005885 0.005073 0.002572 0.000000 0.034987 0.000000
# 6 0.000000 0.000000 0.000000 0.018046 0.000000 0.066133
#
#
# Mechanical properties :
#
#
# Convention : Reuss Voigt Hill
#
# Bulk Modulus (GPa) = 15.77465 19.40470 17.58967
# Shear Modulus (GPa) = 20.01352 24.39933 22.20643
#
# Velocity S-wave (km/s) = 3.24546 3.58346 3.41864
# Velocity P-wave (km/s) = 4.72716 5.22821 4.98399
#
# Compressibility (1/GPa) = 0.06339285
#
# Stress axis : x y z
#
# Youngs Moduli (GPa) = 78.20528 34.33033 48.36239
#
# Poissons Ratio (x) = -0.00468 0.12265
# Poissons Ratio (y) = -0.01066 -0.13540
# Poissons Ratio (z) = 0.19833 -0.09612
#
# Static dielectric constant tensor:
#      x y z
#    x 2.090290 0.000000 0.640340 
#    y 0.000000 1.620590 0.000000 
#    z 0.640340 0.000000 2.619110 
# 
# From -- ./inp_files/309966.got.cif
#   From: 2010.05.17/outbox.cif.g08.bks.cpg/sg12_155_cif.got.tgz:309966.got - 2010.06.03 13:09:07.
