data_PCOD9195811
_publ_section_title
;
Structure prediction by ZEFSAII (Michael W. Deem and Ramdas Pophale) SiO2 
 PCOD9195811
Probable space group: C 2/M
;
_chemical_formula_sum "Si O2"
_cell_formula_units_Z 56
_cell_length_a 28.364639
_cell_length_b 8.753646
_cell_length_c 10.539217
_cell_angle_alpha 90.000000
_cell_angle_beta 105.593601
_cell_angle_gamma 90.000000
_cell_volume 2520.505920
_symmetry_space_group_name_H-M "C 2/M"
_symmetry_group_IT_number 12
_symmetry_cell_setting 'monoclinic'
loop_
_space_group_symop_operation_xyz
x,y,z
-x,y,-z
-x,-y,-z
x,-y,z
1/2+x,1/2+y,z
1/2-x,1/2+y,-z
1/2-x,1/2-y,-z
1/2+x,1/2-y,z
loop_
_atom_site_type_symbol
_atom_site_label
_atom_site_fract_x
_atom_site_fract_y
_atom_site_fract_z
Si Si1 0.247804 0.671415 0.162912
Si Si2 0.203138 0.330169 0.408335
Si Si3 0.541643 0.186821 0.630129
Si Si4 0.352654 0.178564 0.252254
Si Si5 0.492817 0.817879 0.851182
Si Si6 0.109727 0.823283 0.255508
Si Si7 0.845159 0.825738 0.993538
O O1 0.248544 0.500000 0.109484
O O2 0.218191 0.658101 0.272720
O O3 0.302089 0.730830 0.234579
O O4 0.212668 0.787620 0.062218
O O5 0.195845 0.500000 0.456070
O O6 0.250000 0.250000 0.500000
O O7 0.153632 0.233845 0.376330
O O8 0.500000 0.235179 0.500000
O O9 0.597800 0.231330 0.641801
O O10 0.526624 0.240428 0.760803
O O11 0.541539 0.000000 0.631001
O O12 0.344335 0.000000 0.270073
O O13 0.363826 0.206856 0.110911
O O14 0.437755 0.780553 0.769232
O O15 0.500114 0.000000 0.863129
O O16 0.500000 0.755782 0.000000
O O17 0.128885 0.811552 0.123522
O O18 0.098116 0.000000 0.271457
O O19 0.852078 0.000000 0.042200
#
# Coordination Sequence:
#
# PCOD9195811 Si02
#       7
#     8   8   8   8   8   8   8
#     4  10  21  36  54  80 113 145 181 225 277 337
#     4  10  21  37  57  80 110 147 185 228 277 336
#     4   9  20  38  57  80 111 148 191 235 281 339
#     4  11  21  34  56  81 108 145 187 231 278 332
#     4  10  20  36  60  87 113 145 190 242 293 345
#     4  10  21  36  56  83 113 145 185 234 287 342
#     4  10  20  35  55  81 114 147 181 224 277 338
#
# _framework density 22.217763000000001
#
# number of rings (size 3 to 8) (size 9 to 14) (size 15 to 20)
#    0.000    2.000    0.000    3.429    0.000    6.000 
#    0.000    2.857    0.000    3.000    0.000    0.000 
#    0.000    0.000    0.000    0.000    0.000    0.000 
#
# Total GULP energy -156340.752111 kJ/mol
# GULP energy per Si atom -5583.598290 kJ/mol
# Density = 2.216719 g / cm^3
# Si number density = 22.217763 Si / 1000 Ang^3
#
#
#
# Elastic Constant Matrix: (Units=GPa)
#
#
# Indices 1 2 3 4 5 6 
#
# 1 91.3834 -4.6521 17.2770 0.0000 17.4812 0.0000
# 2 -4.6521 34.5254 5.0767 0.0000 -9.0247 0.0000
# 3 17.2770 5.0767 68.6916 0.0000 21.5849 0.0000
# 4 0.0000 0.0000 0.0000 17.9728 0.0000 6.2993
# 5 17.4812 -9.0247 21.5849 0.0000 37.7650 0.0000
# 6 0.0000 0.0000 0.0000 6.2993 0.0000 22.3110
#
#
#
# Elastic Compliance Matrix: (Units=1/GPa)
#
#
# Indices 1 2 3 4 5 6 
#
# 1 0.012159 0.000716 -0.001702 0.000000 -0.004484 0.000000
# 2 0.000716 0.032818 -0.006053 0.000000 0.010971 0.000000
# 3 -0.001702 -0.006053 0.019064 0.000000 -0.011555 0.000000
# 4 0.000000 0.000000 0.000000 0.061750 0.000000 -0.017434
# 5 -0.004484 0.010971 -0.011555 0.000000 0.037781 0.000000
# 6 0.000000 0.000000 0.000000 -0.017434 0.000000 0.049743
#
#
# Mechanical properties :
#
#
# Convention : Reuss Voigt Hill
#
# Bulk Modulus (GPa) = 20.01420 25.55594 22.78507
# Shear Modulus (GPa) = 20.48775 27.40302 23.94538
#
# Velocity S-wave (km/s) = 3.03996 3.51577 3.28648
# Velocity P-wave (km/s) = 4.62056 5.29228 4.96779
#
# Compressibility (1/GPa) = 0.04996452
#
# Stress axis : x y z
#
# Youngs Moduli (GPa) = 82.24365 30.47074 52.45446
#
# Poissons Ratio (x) = -0.02183 0.08928
# Poissons Ratio (y) = -0.05892 0.31750
# Poissons Ratio (z) = 0.13998 0.18444
#
# Static dielectric constant tensor:
#      x y z
#    x 1.842050 0.000000 -0.046970 
#    y 0.000000 1.776270 0.000000 
#    z -0.046970 0.000000 1.888270 
# 
# From -- ./inp_files/187744.got.cif
#   From: 2010.05.17/outbox.cif.g08.bks.cpg/sg12_94_cif.got.tgz:187744.got - 2010.06.03 13:09:07.
