data_PCOD9195468
_publ_section_title
;
Structure prediction by ZEFSAII (Michael W. Deem and Ramdas Pophale) SiO2 
 PCOD9195468
Probable space group: C 2/M
;
_chemical_formula_sum "Si O2"
_cell_formula_units_Z 56
_cell_length_a 21.650406
_cell_length_b 13.422292
_cell_length_c 10.099202
_cell_angle_alpha 90.000000
_cell_angle_beta 94.286433
_cell_angle_gamma 90.000000
_cell_volume 2926.599551
_symmetry_space_group_name_H-M "C 2/M"
_symmetry_group_IT_number 12
_symmetry_cell_setting 'monoclinic'
loop_
_space_group_symop_operation_xyz
x,y,z
-x,y,-z
-x,-y,-z
x,-y,z
1/2+x,1/2+y,z
1/2-x,1/2+y,-z
1/2-x,1/2-y,-z
1/2+x,1/2-y,z
loop_
_atom_site_type_symbol
_atom_site_label
_atom_site_fract_x
_atom_site_fract_y
_atom_site_fract_z
Si Si1 0.072693 0.115689 0.991409
Si Si2 0.255992 0.721757 0.153545
Si Si3 0.681534 0.381665 0.473673
Si Si4 0.133883 0.886168 0.742978
Si Si5 0.934458 0.381875 0.556154
Si Si6 0.874951 0.753307 0.762605
Si Si7 0.691331 0.882287 0.631807
O O1 0.099154 0.189957 0.105312
O O2 0.096585 0.000000 0.006972
O O3 0.087687 0.155359 0.845851
O O4 0.000000 0.110731 0.000000
O O5 0.299687 0.626580 0.177005
O O6 0.188901 0.701505 0.203688
O O7 0.289758 0.811614 0.241609
O O8 0.250000 0.750000 0.000000
O O9 0.676782 0.500000 0.474954
O O10 0.647514 0.343562 0.600100
O O11 0.646629 0.337766 0.343454
O O12 0.754816 0.360334 0.469009
O O13 0.114898 0.000000 0.720641
O O14 0.938203 0.500000 0.587036
O O15 0.919074 0.319588 0.686274
O O16 0.876016 0.369738 0.445932
O O17 0.000000 0.352104 0.500000
O O18 0.697191 0.000000 0.668836
#
# Coordination Sequence:
#
# PCOD9195468 Si02
#       7
#     8   8   8   8   8   8   8
#     4  10  22  39  56  77 113 155 186 221 281 351
#     4  11  21  34  54  87 117 146 187 234 284 352
#     4   9  18  33  58  89 114 139 181 234 290 346
#     4  10  20  35  54  78 113 149 180 226 281 334
#     4  10  22  40  60  84 113 153 201 245 287 332
#     4  11  21  36  59  86 112 149 187 240 286 341
#     4   9  19  36  58  83 115 150 187 237 295 343
#
# _framework density 19.134834000000001
#
# number of rings (size 3 to 8) (size 9 to 14) (size 15 to 20)
#    0.000    2.000    1.429    2.143    0.000    7.429 
#    0.000    0.000    0.000    4.714    0.000    0.000 
#    0.000    0.000    0.000    0.000    0.000    0.000 
#
# Total GULP energy -156053.857499 kJ/mol
# GULP energy per Si atom -5573.352054 kJ/mol
# Density = 1.909128 g / cm^3
# Si number density = 19.134834 Si / 1000 Ang^3
#
#
#
# Elastic Constant Matrix: (Units=GPa)
#
#
# Indices 1 2 3 4 5 6 
#
# 1 91.9672 22.1511 41.2648 0.0000 -32.2572 0.0000
# 2 22.1511 53.3871 5.8920 0.0000 -8.1081 0.0000
# 3 41.2648 5.8920 113.2895 0.0000 -29.1888 0.0000
# 4 0.0000 0.0000 0.0000 24.7772 0.0000 -2.7234
# 5 -32.2572 -8.1081 -29.1888 0.0000 30.4141 0.0000
# 6 0.0000 0.0000 0.0000 -2.7234 0.0000 21.7298
#
#
#
# Elastic Compliance Matrix: (Units=1/GPa)
#
#
# Indices 1 2 3 4 5 6 
#
# 1 0.018940 -0.005099 -0.002402 0.000000 0.016423 0.000000
# 2 -0.005099 0.020910 0.001080 0.000000 0.001203 0.000000
# 3 -0.002402 0.001080 0.012041 0.000000 0.009296 0.000000
# 4 0.000000 0.000000 0.000000 0.040924 0.000000 0.005129
# 5 0.016423 0.001203 0.009296 0.000000 0.059539 0.000000
# 6 0.000000 0.000000 0.000000 0.005129 0.000000 0.046663
#
#
# Mechanical properties :
#
#
# Convention : Reuss Voigt Hill
#
# Bulk Modulus (GPa) = 25.60988 44.13995 34.87492
# Shear Modulus (GPa) = 22.23460 28.00661 25.12060
#
# Velocity S-wave (km/s) = 3.41250 3.82991 3.62722
# Velocity P-wave (km/s) = 5.37958 6.53265 5.98396
#
# Compressibility (1/GPa) = 0.03904743
#
# Stress axis : x y z
#
# Youngs Moduli (GPa) = 52.79947 47.82344 83.05104
#
# Poissons Ratio (x) = 0.24385 0.19950
# Poissons Ratio (y) = 0.26923 -0.08966
# Poissons Ratio (z) = 0.12683 -0.05163
#
# Static dielectric constant tensor:
#      x y z
#    x 1.668890 0.000000 -0.033190 
#    y 0.000000 1.711060 0.000000 
#    z -0.033190 0.000000 1.737980 
# 
# From -- ./inp_files/86368.got.cif
#   From: 2010.05.17/outbox.cif.g08.bks.cpg/sg12_44_cif.got.tgz:86368.got - 2010.06.03 13:09:07.
