data_PCOD9195192
_publ_section_title
;
Structure prediction by ZEFSAII (Michael W. Deem and Ramdas Pophale) SiO2 
 PCOD9195192
Probable space group: C 2/M
;
_chemical_formula_sum "Si O2"
_cell_formula_units_Z 56
_cell_length_a 19.381327
_cell_length_b 7.550592
_cell_length_c 25.778655
_cell_angle_alpha 90.000000
_cell_angle_beta 139.112406
_cell_angle_gamma 90.000000
_cell_volume 2469.366767
_symmetry_space_group_name_H-M "C 2/M"
_symmetry_group_IT_number 12
_symmetry_cell_setting 'monoclinic'
loop_
_space_group_symop_operation_xyz
x,y,z
-x,y,-z
-x,-y,-z
x,-y,z
1/2+x,1/2+y,z
1/2-x,1/2+y,-z
1/2-x,1/2-y,-z
1/2+x,1/2-y,z
loop_
_atom_site_type_symbol
_atom_site_label
_atom_site_fract_x
_atom_site_fract_y
_atom_site_fract_z
Si Si1 0.307833 0.715059 0.258570
Si Si2 0.611102 0.289817 0.582921
Si Si3 0.330606 0.714496 0.670446
Si Si4 0.076083 0.216964 0.997240
Si Si5 0.707902 0.789657 0.918359
Si Si6 0.039418 0.794201 0.744290
Si Si7 0.910304 0.792601 0.825886
O O1 0.305044 0.500000 0.256275
O O2 0.353921 0.777359 0.340436
O O3 0.382140 0.781507 0.254461
O O4 0.186624 0.775953 0.188940
O O5 0.500000 0.216922 0.500000
O O6 0.598180 0.500000 0.582204
O O7 0.708056 0.262579 0.598359
O O8 0.333837 0.500000 0.672430
O O9 0.420984 0.778330 0.682521
O O10 0.369620 0.783947 0.748871
O O11 0.016538 0.278673 0.911229
O O12 0.077172 0.000000 0.998191
O O13 0.000000 0.274701 0.000000
O O14 0.196424 0.275394 0.064286
O O15 0.599659 0.714277 0.833970
O O16 0.698177 0.000000 0.908567
O O17 0.750000 0.750000 0.000000
O O18 0.027408 0.000000 0.723698
O O19 0.928379 0.000000 0.827279
#
# Coordination Sequence:
#
# PCOD9195192 Si02
#       7
#     8   8   8   8   8   8   8
#     4   9  18  32  51  74 100 131 164 203 253 301
#     4   9  18  34  55  78 104 132 163 201 247 301
#     4   9  18  32  51  72  96 130 167 203 244 294
#     4   9  17  29  46  68  93 124 164 208 250 289
#     4  11  22  35  52  73 100 135 173 213 257 301
#     4  10  20  35  52  72 101 133 168 209 252 299
#     4   9  16  29  48  67  90 123 165 206 243 291
#
# _framework density 22.677878
#
# number of rings (size 3 to 8) (size 9 to 14) (size 15 to 20)
#    0.000    2.571    0.000    2.143    0.000    4.857 
#    0.000    5.000    0.000    3.857    0.000    0.000 
#    0.000    0.000    0.000    0.000    0.000    0.000 
#
# Total GULP energy -156283.327866 kJ/mol
# GULP energy per Si atom -5581.547424 kJ/mol
# Density = 2.262626 g / cm^3
# Si number density = 22.677878 Si / 1000 Ang^3
#
#
#
# Elastic Constant Matrix: (Units=GPa)
#
#
# Indices 1 2 3 4 5 6 
#
# 1 96.4326 -10.4736 21.3301 0.0000 26.8908 0.0000
# 2 -10.4736 58.9548 -5.8272 0.0000 -2.3943 0.0001
# 3 21.3301 -5.8272 95.3504 0.0000 36.4256 0.0000
# 4 0.0000 0.0000 0.0000 9.8724 0.0000 4.7463
# 5 26.8908 -2.3943 36.4256 0.0000 35.9696 0.0000
# 6 0.0000 0.0001 0.0000 4.7463 0.0000 15.0347
#
#
#
# Elastic Compliance Matrix: (Units=1/GPa)
#
#
# Indices 1 2 3 4 5 6 
#
# 1 0.013451 0.002072 0.001478 0.000000 -0.011415 0.000000
# 2 0.002072 0.017385 0.001221 0.000000 -0.001628 0.000000
# 3 0.001478 0.001221 0.017325 0.000000 -0.018569 0.000000
# 4 0.000000 0.000000 0.000000 0.119417 0.000000 -0.037699
# 5 -0.011415 -0.001628 -0.018569 0.000000 0.055031 0.000000
# 6 0.000000 0.000000 0.000000 -0.037699 0.000000 0.078414
#
#
# Mechanical properties :
#
#
# Convention : Reuss Voigt Hill
#
# Bulk Modulus (GPa) = 17.32966 28.97737 23.15351
# Shear Modulus (GPa) = 16.09190 28.55591 22.32390
#
# Velocity S-wave (km/s) = 2.66670 3.55237 3.14090
# Velocity P-wave (km/s) = 4.14004 5.44346 4.83587
#
# Compressibility (1/GPa) = 0.05770454
#
# Stress axis : x y z
#
# Youngs Moduli (GPa) = 74.34266 57.52137 57.71959
#
# Poissons Ratio (x) = -0.11920 -0.08534
# Poissons Ratio (y) = -0.15405 -0.07048
# Poissons Ratio (z) = -0.10991 -0.07023
#
# Static dielectric constant tensor:
#      x y z
#    x 1.907580 0.000000 -0.006800 
#    y 0.000000 1.831980 0.000000 
#    z -0.006800 0.000000 1.837650 
# 
# From -- ./inp_files/342605.got.cif
#   From: 2010.05.17/outbox.cif.g08.bks.cpg/sg12_172_cif.got.tgz:342605.got - 2010.06.03 13:09:07.
