data_PCOD9195768
_publ_section_title
;
Structure prediction by ZEFSAII (Michael W. Deem and Ramdas Pophale) SiO2 
 PCOD9195768
Probable space group: C 2/M
;
_chemical_formula_sum "Si O2"
_cell_formula_units_Z 64
_cell_length_a 19.484141
_cell_length_b 8.987937
_cell_length_c 31.737025
_cell_angle_alpha 90.000000
_cell_angle_beta 139.968023
_cell_angle_gamma 90.000000
_cell_volume 3574.898284
_symmetry_space_group_name_H-M "C 2/M"
_symmetry_group_IT_number 12
_symmetry_cell_setting 'monoclinic'
loop_
_space_group_symop_operation_xyz
x,y,z
-x,y,-z
-x,-y,-z
x,-y,z
1/2+x,1/2+y,z
1/2-x,1/2+y,-z
1/2-x,1/2-y,-z
1/2+x,1/2-y,z
loop_
_atom_site_type_symbol
_atom_site_label
_atom_site_fract_x
_atom_site_fract_y
_atom_site_fract_z
Si Si1 0.061294 0.822586 0.187109
Si Si2 0.442343 0.178727 0.296493
Si Si3 0.135009 0.323528 0.445983
Si Si4 0.978105 0.322523 0.920621
Si Si5 0.675651 0.177336 0.075732
Si Si6 0.208771 0.176401 0.705783
Si Si7 0.596116 0.822253 0.819069
Si Si8 0.510099 0.675787 0.553769
O O1 0.025510 0.766940 0.124097
O O2 0.180271 0.758692 0.249075
O O3 0.982386 0.755923 0.184997
O O4 0.061434 0.000000 0.189103
O O5 0.556998 0.219219 0.370497
O O6 0.352437 0.260362 0.281950
O O7 0.434709 0.214430 0.243740
O O8 0.428352 0.000000 0.294884
O O9 0.146940 0.500000 0.450832
O O10 0.250000 0.250000 0.500000
O O11 0.071213 0.271229 0.457120
O O12 0.971830 0.500000 0.909153
O O13 0.879907 0.284260 0.905684
O O14 0.085726 0.296156 0.997954
O O15 0.783017 0.266459 0.118189
O O16 0.697556 0.000000 0.086535
O O17 0.127299 0.199694 0.628576
O O18 0.226876 0.000000 0.719320
O O19 0.589688 0.000000 0.821322
O O20 0.500000 0.710602 0.500000
O O21 0.485651 0.500000 0.548008
#
# Coordination Sequence:
#
# PCOD9195768 Si02
#       8
#     8   8   8   8   8   8   8   8
#     4  12  25  38  54  79 112 146 182 225 270 317
#     4   9  20  38  58  80 107 142 183 226 269 319
#     4  10  20  35  55  80 111 143 180 225 271 321
#     4   9  19  38  62  85 111 143 179 218 264 321
#     4   9  19  37  61  87 112 140 176 220 268 318
#     4  10  20  36  59  82 107 142 181 222 270 324
#     4  11  23  38  56  79 109 145 183 223 271 322
#     4   9  19  36  57  81 109 142 180 221 268 323
#
# _framework density 17.902608000000001
#
# number of rings (size 3 to 8) (size 9 to 14) (size 15 to 20)
#    0.000    2.125    0.000    3.750    0.000    6.750 
#    0.000    6.250    0.000    0.000    0.000    0.000 
#    0.000    0.000    0.000    0.000    0.000    0.000 
#
# Total GULP energy -178719.932047 kJ/mol
# GULP energy per Si atom -5584.997876 kJ/mol
# Density = 1.786186 g / cm^3
# Si number density = 17.902608 Si / 1000 Ang^3
#
#
#
# Elastic Constant Matrix: (Units=GPa)
#
#
# Indices 1 2 3 4 5 6 
#
# 1 145.7532 87.2095 98.7412 0.0000 8.8898 0.0000
# 2 87.2095 86.3727 72.3498 0.0000 5.4241 0.0000
# 3 98.7412 72.3498 104.6647 0.0000 8.2742 0.0000
# 4 0.0000 0.0000 0.0000 30.1057 0.0000 6.8506
# 5 8.8898 5.4241 8.2742 0.0000 32.2218 0.0000
# 6 0.0000 0.0000 0.0000 6.8506 0.0000 30.1574
#
#
#
# Elastic Compliance Matrix: (Units=1/GPa)
#
#
# Indices 1 2 3 4 5 6 
#
# 1 0.023435 -0.012224 -0.013586 0.000000 -0.000919 0.000000
# 2 -0.012224 0.033880 -0.011946 0.000000 0.000737 0.000000
# 3 -0.013586 -0.011946 0.030799 0.000000 -0.002150 0.000000
# 4 0.000000 0.000000 0.000000 0.035027 0.000000 -0.007957
# 5 -0.000919 0.000737 -0.002150 0.000000 0.031716 0.000000
# 6 0.000000 0.000000 0.000000 -0.007957 0.000000 0.034967
#
#
# Mechanical properties :
#
#
# Convention : Reuss Voigt Hill
#
# Bulk Modulus (GPa) = 79.35065 94.82129 87.08597
# Shear Modulus (GPa) = 18.55025 23.72965 21.13995
#
# Velocity S-wave (km/s) = 3.22246 3.64467 3.44005
# Velocity P-wave (km/s) = 7.63318 8.41377 8.03296
#
# Compressibility (1/GPa) = 0.01260229
#
# Stress axis : x y z
#
# Youngs Moduli (GPa) = 42.67121 29.51563 32.46820
#
# Poissons Ratio (x) = 0.36079 0.44112
# Poissons Ratio (y) = 0.52161 0.38787
# Poissons Ratio (z) = 0.57974 0.35260
#
# Static dielectric constant tensor:
#      x y z
#    x 1.571740 0.000000 -0.006130 
#    y 0.000000 1.595940 0.000000 
#    z -0.006130 0.000000 1.613730 
# 
# From -- ./inp_files/378429.got.cif
#   From: 2010.05.17/outbox.cif.g08.bks.cpg/sg12_190_cif.got.tgz:378429.got - 2010.06.03 13:09:07.
