data_PCOD9195528
_publ_section_title
;
Structure prediction by ZEFSAII (Michael W. Deem and Ramdas Pophale) SiO2 
 PCOD9195528
Probable space group: C 2/M
;
_chemical_formula_sum "Si O2"
_cell_formula_units_Z 64
_cell_length_a 30.835046
_cell_length_b 7.663413
_cell_length_c 19.104325
_cell_angle_alpha 90.000000
_cell_angle_beta 141.755476
_cell_angle_gamma 90.000000
_cell_volume 2794.489178
_symmetry_space_group_name_H-M "C 2/M"
_symmetry_group_IT_number 12
_symmetry_cell_setting 'monoclinic'
loop_
_space_group_symop_operation_xyz
x,y,z
-x,y,-z
-x,-y,-z
x,-y,z
1/2+x,1/2+y,z
1/2-x,1/2+y,-z
1/2-x,1/2-y,-z
1/2+x,1/2-y,z
loop_
_atom_site_type_symbol
_atom_site_label
_atom_site_fract_x
_atom_site_fract_y
_atom_site_fract_z
Si Si1 0.300521 0.711840 0.944439
Si Si2 0.564520 0.204272 0.280678
Si Si3 0.935169 0.702801 0.203331
Si Si4 0.785961 0.796468 0.766290
Si Si5 0.354449 0.704294 0.490810
Si Si6 0.070773 0.711935 0.129927
Si Si7 0.647811 0.211539 0.771743
Si Si8 0.936447 0.795539 0.464618
O O1 0.306698 0.500000 0.953530
O O2 0.294630 0.771716 0.856363
O O3 0.227487 0.761691 0.888735
O O4 0.367905 0.786996 0.067836
O O5 0.500766 0.282288 0.245573
O O6 0.632382 0.217919 0.416076
O O7 0.570706 0.275103 0.210321
O O8 0.547728 0.000000 0.249831
O O9 0.951572 0.500000 0.238293
O O10 0.908351 0.778867 0.242993
O O11 0.722111 0.722531 0.639814
O O12 0.859559 0.773488 0.820655
O O13 0.769111 0.000000 0.752532
O O14 0.368327 0.500000 0.515212
O O15 0.410893 0.779413 0.506101
O O16 0.072617 0.500000 0.131555
O O17 0.000000 0.766101 0.000000
O O18 0.628282 0.278375 0.670477
O O19 0.645346 0.000000 0.767527
O O20 0.000000 0.715633 0.500000
O O21 0.952304 0.000000 0.495801
#
# Coordination Sequence:
#
# PCOD9195528 Si02
#       8
#     8   8   8   8   8   8   8   8
#     4  10  21  36  55  83 119 155 193 243 297 348
#     4  10  22  40  61  88 120 153 193 243 297 351
#     4  10  21  36  58  86 116 156 200 241 293 355
#     4  11  23  40  63  89 121 158 199 249 300 354
#     4  11  23  39  61  88 119 158 202 245 295 355
#     4  10  22  42  67  93 122 155 195 244 297 357
#     4  10  20  35  54  82 117 153 197 241 290 351
#     4  10  21  36  55  82 116 156 202 248 293 345
#
# _framework density 22.902217
#
# number of rings (size 3 to 8) (size 9 to 14) (size 15 to 20)
#    0.000    1.750    1.250    2.625    0.000    5.500 
#    0.000    0.000    0.000    0.000    0.000    0.000 
#    0.000    0.000    0.000    0.000    0.000    0.000 
#
# Total GULP energy -178875.083356 kJ/mol
# GULP energy per Si atom -5589.846355 kJ/mol
# Density = 2.285009 g / cm^3
# Si number density = 22.902217 Si / 1000 Ang^3
#
#
#
# Elastic Constant Matrix: (Units=GPa)
#
#
# Indices 1 2 3 4 5 6 
#
# 1 106.5836 0.2891 19.0555 0.0000 -15.6195 0.0000
# 2 0.2891 47.5802 -8.1256 0.0000 -0.3836 0.0000
# 3 19.0555 -8.1256 87.3912 0.0000 -16.6328 0.0000
# 4 0.0000 0.0000 0.0000 23.4268 0.0000 3.4096
# 5 -15.6195 -0.3836 -16.6328 0.0000 44.1824 0.0000
# 6 0.0000 0.0000 0.0000 3.4096 0.0000 6.2362
#
#
#
# Elastic Compliance Matrix: (Units=1/GPa)
#
#
# Indices 1 2 3 4 5 6 
#
# 1 0.010114 -0.000324 -0.001675 0.000000 0.002942 0.000000
# 2 -0.000324 0.021408 0.002235 0.000000 0.000913 0.000000
# 3 -0.001675 0.002235 0.012826 0.000000 0.004255 0.000000
# 4 0.000000 0.000000 0.000000 0.046377 0.000000 -0.025356
# 5 0.002942 0.000913 0.004255 0.000000 0.025283 0.000000
# 6 0.000000 0.000000 0.000000 -0.025356 0.000000 0.174217
#
#
# Mechanical properties :
#
#
# Convention : Reuss Voigt Hill
#
# Bulk Modulus (GPa) = 22.31207 29.33255 25.82231
# Shear Modulus (GPa) = 16.40991 30.12480 23.26736
#
# Velocity S-wave (km/s) = 2.67969 3.63073 3.19084
# Velocity P-wave (km/s) = 4.39748 5.51469 4.98747
#
# Compressibility (1/GPa) = 0.04481880
#
# Stress axis : x y z
#
# Youngs Moduli (GPa) = 98.87416 46.71127 77.96747
#
# Poissons Ratio (x) = 0.01513 0.13063
# Poissons Ratio (y) = 0.03202 -0.17424
# Poissons Ratio (z) = 0.16566 -0.10439
#
# Static dielectric constant tensor:
#      x y z
#    x 1.870660 0.000000 -0.007550 
#    y 0.000000 1.861880 0.000000 
#    z -0.007550 0.000000 1.848030 
# 
# From -- ./inp_files/295869.got.cif
#   From: 2010.05.17/outbox.cif.g08.bks.cpg/sg12_148_cif.got.tgz:295869.got - 2010.06.03 13:09:07.
