data_PCOD9195958
_publ_section_title
;
Structure prediction by ZEFSAII (Michael W. Deem and Ramdas Pophale) SiO2 
 PCOD9195958
Probable space group: C 2/M
;
_chemical_formula_sum "Si O2"
_cell_formula_units_Z 56
_cell_length_a 16.983349
_cell_length_b 13.024202
_cell_length_c 14.639503
_cell_angle_alpha 90.000000
_cell_angle_beta 90.000049
_cell_angle_gamma 90.000000
_cell_volume 3238.178542
_symmetry_space_group_name_H-M "C 2/M"
_symmetry_group_IT_number 12
_symmetry_cell_setting 'monoclinic'
loop_
_space_group_symop_operation_xyz
x,y,z
-x,y,-z
-x,-y,-z
x,-y,z
1/2+x,1/2+y,z
1/2-x,1/2+y,-z
1/2-x,1/2-y,-z
1/2+x,1/2-y,z
loop_
_atom_site_type_symbol
_atom_site_label
_atom_site_fract_x
_atom_site_fract_y
_atom_site_fract_z
Si Si1 0.285287 0.723834 0.401302
Si Si2 0.677062 0.878186 0.250000
Si Si3 0.454838 0.382132 0.095684
Si Si4 0.545163 0.382133 0.595684
Si Si5 0.285287 0.723834 0.098698
Si Si6 0.990542 0.269076 0.750000
Si Si7 0.843537 0.621533 0.250000
O O1 0.250000 0.750000 0.500000
O O2 0.225028 0.659589 0.338897
O O3 0.365950 0.659766 0.412180
O O4 0.306217 0.823748 0.339450
O O5 0.725028 0.840411 0.161103
O O6 0.591624 0.826685 0.250000
O O7 0.670783 0.000000 0.250000
O O8 0.453515 0.500000 0.128820
O O9 0.365950 0.340234 0.087821
O O10 0.499147 0.305811 0.163853
O O11 0.500000 0.379945 0.000000
O O12 0.500000 0.379946 0.500000
O O13 0.546486 0.500000 0.628821
O O14 0.500853 0.305811 0.663852
O O15 0.306217 0.823747 0.160550
O O16 0.250000 0.750000 0.000000
O O17 0.064310 0.347223 0.750000
O O18 0.832452 0.500000 0.250000
#
# Coordination Sequence:
#
# PCOD9195958 Si02
#       7
#     8   8   8   8   8   8   8
#     4  10  21  37  56  81 113 142 179 226 271 323
#     4  11  22  36  57  82 108 142 181 223 275 327
#     4  10  20  35  56  79 106 143 183 222 268 321
#     4  10  20  35  56  79 106 143 183 222 268 321
#     4  10  21  37  56  81 113 142 179 226 271 323
#     4  10  20  36  54  76 108 140 180 224 266 318
#     4   9  20  36  55  78 106 142 179 219 267 319
#
# _framework density 17.293672000000001
#
# number of rings (size 3 to 8) (size 9 to 14) (size 15 to 20)
#    0.000    2.000    0.000    4.286    0.000    2.286 
#    0.000    8.571    0.000    9.429    0.000    0.000 
#    0.000    0.000    0.000    0.000    0.000    0.000 
#
# Total GULP energy -156324.657149 kJ/mol
# GULP energy per Si atom -5583.023470 kJ/mol
# Density = 1.725431 g / cm^3
# Si number density = 17.293672 Si / 1000 Ang^3
#
#
#
# Elastic Constant Matrix: (Units=GPa)
#
#
# Indices 1 2 3 4 5 6 
#
# 1 150.2039 95.9135 81.8543 0.0000 -0.0004 0.0000
# 2 95.9135 181.6480 72.9616 0.0000 -0.0003 0.0000
# 3 81.8543 72.9616 140.1346 0.0000 -0.0002 0.0000
# 4 0.0000 0.0000 0.0000 -10.9220 0.0000 -0.0027
# 5 -0.0004 -0.0003 -0.0002 0.0000 29.7482 0.0000
# 6 0.0000 0.0000 0.0000 -0.0027 0.0000 13.1758
#
#
#
# Elastic Compliance Matrix: (Units=1/GPa)
#
#
# Indices 1 2 3 4 5 6 
#
# 1 0.012104 -0.004490 -0.004732 0.000000 0.000000 0.000000
# 2 -0.004490 0.008627 -0.001869 0.000000 0.000000 0.000000
# 3 -0.004732 -0.001869 0.010873 0.000000 0.000000 0.000000
# 4 0.000000 0.000000 0.000000 -0.091558 0.000000 -0.000019
# 5 0.000000 0.000000 0.000000 0.000000 0.033616 0.000000
# 6 0.000000 0.000000 0.000000 -0.000019 0.000000 0.075897
#
#
# Mechanical properties :
#
#
# Convention : Reuss Voigt Hill
#
# Bulk Modulus (GPa) = 106.14192 108.16056 107.15124
# Shear Modulus (GPa) = 66.77369 21.15086 43.96227
#
# Velocity S-wave (km/s) = 6.22057 3.50099 5.04740
# Velocity P-wave (km/s) = 10.63501 8.88942 9.80115
#
# Compressibility (1/GPa) = 0.00942135
#
# Stress axis : x y z
#
# Youngs Moduli (GPa) = 82.61997 115.91942 91.97126
#
# Poissons Ratio (x) = 0.52051 0.43521
# Poissons Ratio (y) = 0.37098 0.17187
# Poissons Ratio (z) = 0.39096 0.21662
#
# Static dielectric constant tensor:
#      x y z
#    x 1.565610 0.000000 0.000000 
#    y 0.000000 1.557150 0.000000 
#    z 0.000000 0.000000 1.564630 
# 
# From -- ./inp_files/213398.got.cif
#   From: 2010.05.17/outbox.cif.g08.bks.cpg/sg12_107_cif.got.tgz:213398.got - 2010.06.03 13:09:07.
