data_PCOD9195373
_publ_section_title
;
Structure prediction by ZEFSAII (Michael W. Deem and Ramdas Pophale) SiO2 
 PCOD9195373
Probable space group: C 2/M
;
_chemical_formula_sum "Si O2"
_cell_formula_units_Z 40
_cell_length_a 14.173960
_cell_length_b 7.494581
_cell_length_c 20.537091
_cell_angle_alpha 90.000000
_cell_angle_beta 130.128544
_cell_angle_gamma 90.000000
_cell_volume 1668.061335
_symmetry_space_group_name_H-M "C 2/M"
_symmetry_group_IT_number 12
_symmetry_cell_setting 'monoclinic'
loop_
_space_group_symop_operation_xyz
x,y,z
-x,y,-z
-x,-y,-z
x,-y,z
1/2+x,1/2+y,z
1/2-x,1/2+y,-z
1/2-x,1/2-y,-z
1/2+x,1/2-y,z
loop_
_atom_site_type_symbol
_atom_site_label
_atom_site_fract_x
_atom_site_fract_y
_atom_site_fract_z
Si Si1 0.230191 0.287235 0.897468
Si Si2 0.027907 0.211660 0.710364
Si Si3 0.922525 0.705395 0.406436
Si Si4 0.042874 0.795351 0.930281
Si Si5 0.652159 0.719614 0.253103
O O1 0.232400 0.500000 0.909134
O O2 0.163350 0.256259 0.799364
O O3 0.138954 0.205598 0.911431
O O4 0.369528 0.221588 0.973383
O O5 0.005636 0.290995 0.629731
O O6 0.931637 0.270904 0.722364
O O7 0.018484 0.000000 0.700677
O O8 0.897145 0.500000 0.414119
O O9 0.789512 0.783972 0.328698
O O10 0.000000 0.786387 0.500000
O O11 0.920248 0.715646 0.843514
O O12 0.012678 0.000000 0.933273
O O13 0.653002 0.500000 0.249269
#
# Coordination Sequence:
#
# PCOD9195373 Si02
#       5
#     8   8   8   8   8
#     4   9  15  25  46  75 103 133 170 207 242 288
#     4  10  20  35  54  75 103 138 170 204 252 306
#     4  10  21  37  56  77 100 128 168 217 260 300
#     4   8  14  26  46  72 103 138 169 199 243 298
#     4   8  16  33  54  75 103 137 168 201 249 306
#
# _framework density 23.979932000000002
#
# number of rings (size 3 to 8) (size 9 to 14) (size 15 to 20)
#    0.000    3.000    0.000    2.400    0.000    2.000 
#    0.000    6.000    0.000    6.000    0.000    0.000 
#    0.000    0.000    0.000    0.000    0.000    0.000 
#
# Total GULP energy -111666.248608 kJ/mol
# GULP energy per Si atom -5583.312430 kJ/mol
# Density = 2.392535 g / cm^3
# Si number density = 23.979932 Si / 1000 Ang^3
#
#
#
# Elastic Constant Matrix: (Units=GPa)
#
#
# Indices 1 2 3 4 5 6 
#
# 1 71.9297 1.9490 50.1556 0.0000 0.2456 0.0000
# 2 1.9490 74.7674 10.4692 0.0000 5.9818 0.0000
# 3 50.1556 10.4692 210.5980 0.0000 -13.8559 0.0000
# 4 0.0000 0.0000 0.0000 13.3550 0.0000 -7.1114
# 5 0.2456 5.9818 -13.8559 0.0000 37.4166 0.0000
# 6 0.0000 0.0000 0.0000 -7.1114 0.0000 5.9974
#
#
#
# Elastic Compliance Matrix: (Units=1/GPa)
#
#
# Indices 1 2 3 4 5 6 
#
# 1 0.016773 0.000274 -0.004119 0.000000 -0.001679 0.000000
# 2 0.000274 0.013698 -0.000913 0.000000 -0.002530 0.000000
# 3 -0.004119 -0.000913 0.005931 0.000000 0.002369 0.000000
# 4 0.000000 0.000000 0.000000 0.203138 0.000000 0.240869
# 5 -0.001679 -0.002530 0.002369 0.000000 0.028019 0.000000
# 6 0.000000 0.000000 0.000000 0.240869 0.000000 0.452347
#
#
# Mechanical properties :
#
#
# Convention : Reuss Voigt Hill
#
# Bulk Modulus (GPa) = 37.19381 53.60476 45.39929
# Shear Modulus (GPa) = 6.77156 31.00188 18.88672
#
# Velocity S-wave (km/s) = 1.68225 3.59949 2.80948
# Velocity P-wave (km/s) = 4.39515 6.29902 5.43116
#
# Compressibility (1/GPa) = 0.02688619
#
# Stress axis : x y z
#
# Youngs Moduli (GPa) = 59.62093 73.00422 168.61982
#
# Poissons Ratio (x) = -0.01999 0.69448
# Poissons Ratio (y) = -0.01633 0.15388
# Poissons Ratio (z) = 0.24556 0.06662
#
# Static dielectric constant tensor:
#      x y z
#    x 1.945940 0.000000 0.013760 
#    y 0.000000 1.923810 0.000000 
#    z 0.013760 0.000000 1.935750 
# 
# From -- ./inp_files/211154.got.cif
#   From: 2010.05.17/outbox.cif.g08.bks.cpg/sg12_106_cif.got.tgz:211154.got - 2010.06.03 13:09:07.
