data_PCOD9195617
_publ_section_title
;
Structure prediction by ZEFSAII (Michael W. Deem and Ramdas Pophale) SiO2 
 PCOD9195617
Probable space group: C 2/M
;
_chemical_formula_sum "Si O2"
_cell_formula_units_Z 48
_cell_length_a 20.684831
_cell_length_b 8.904052
_cell_length_c 16.009742
_cell_angle_alpha 90.000000
_cell_angle_beta 108.696390
_cell_angle_gamma 90.000000
_cell_volume 2793.056111
_symmetry_space_group_name_H-M "C 2/M"
_symmetry_group_IT_number 12
_symmetry_cell_setting 'monoclinic'
loop_
_space_group_symop_operation_xyz
x,y,z
-x,y,-z
-x,-y,-z
x,-y,z
1/2+x,1/2+y,z
1/2-x,1/2+y,-z
1/2-x,1/2-y,-z
1/2+x,1/2-y,z
loop_
_atom_site_type_symbol
_atom_site_label
_atom_site_fract_x
_atom_site_fract_y
_atom_site_fract_z
Si Si1 0.010271 0.680133 0.765112
Si Si2 0.158239 0.680019 0.897736
Si Si3 0.966972 0.818898 0.574658
Si Si4 0.872091 0.819743 0.770802
Si Si5 0.682917 0.679731 0.432966
Si Si6 0.295904 0.820849 0.896235
O O1 0.003739 0.500000 0.763162
O O2 0.083363 0.720662 0.834358
O O3 0.003417 0.741208 0.668051
O O4 0.947453 0.751729 0.789890
O O5 0.166957 0.500000 0.891835
O O6 0.218595 0.762018 0.873091
O O7 0.168534 0.715207 0.000016
O O8 0.886830 0.778556 0.547481
O O9 0.000000 0.778520 0.500000
O O10 0.971756 0.000000 0.587101
O O11 0.830493 0.777947 0.669220
O O12 0.834906 0.756769 0.836533
O O13 0.876545 0.000000 0.775527
O O14 0.689098 0.500000 0.438908
O O15 0.750000 0.750000 0.500000
O O16 0.296659 0.000000 0.885727
#
# Coordination Sequence:
#
# PCOD9195617 Si02
#       6
#     8   8   8   8   8   8
#     4  10  20  35  55  78 105 137 175 217 259 306
#     4   9  20  37  54  77 109 138 169 216 264 303
#     4   9  19  36  54  74 103 136 171 213 259 305
#     4  10  21  37  54  76 108 139 171 215 263 307
#     4   9  19  34  52  74 101 133 167 209 256 302
#     4  10  20  35  56  79 104 138 177 213 255 310
#
# _framework density 17.185476000000001
#
# number of rings (size 3 to 8) (size 9 to 14) (size 15 to 20)
#    0.000    2.500    0.000    2.500    0.000    7.667 
#    0.000    6.667    0.000    0.000    0.000    0.000 
#    0.000    0.000    0.000    0.000    0.000    0.000 
#
# Total GULP energy -133913.776392 kJ/mol
# GULP energy per Si atom -5579.740683 kJ/mol
# Density = 1.714636 g / cm^3
# Si number density = 17.185476 Si / 1000 Ang^3
#
#
#
# Elastic Constant Matrix: (Units=GPa)
#
#
# Indices 1 2 3 4 5 6 
#
# 1 171.1106 68.6073 130.3291 0.0000 -0.0798 0.0000
# 2 68.6073 46.6629 56.9523 0.0000 -1.4012 0.0000
# 3 130.3291 56.9523 117.0465 0.0000 0.3545 0.0000
# 4 0.0000 0.0000 0.0000 31.9087 0.0000 -1.7846
# 5 -0.0798 -1.4012 0.3545 0.0000 42.6327 0.0000
# 6 0.0000 0.0000 0.0000 -1.7846 0.0000 33.0639
#
#
#
# Elastic Compliance Matrix: (Units=1/GPa)
#
#
# Indices 1 2 3 4 5 6 
#
# 1 0.040701 -0.011147 -0.039896 0.000000 0.000042 0.000000
# 2 -0.011147 0.055983 -0.014833 0.000000 0.001942 0.000000
# 3 -0.039896 -0.014833 0.060188 0.000000 -0.001063 0.000000
# 4 0.000000 0.000000 0.000000 0.031434 0.000000 0.001697
# 5 0.000042 0.001942 -0.001063 0.000000 0.023529 0.000000
# 6 0.000000 0.000000 0.000000 0.001697 0.000000 0.030336
#
#
# Mechanical properties :
#
#
# Convention : Reuss Voigt Hill
#
# Bulk Modulus (GPa) = 39.81197 94.06636 66.93917
# Shear Modulus (GPa) = 13.07879 26.78315 19.93097
#
# Velocity S-wave (km/s) = 2.76168 3.95204 3.40921
# Velocity P-wave (km/s) = 5.77802 8.69940 7.38462
#
# Compressibility (1/GPa) = 0.02511807
#
# Stress axis : x y z
#
# Youngs Moduli (GPa) = 24.56916 17.86269 16.61456
#
# Poissons Ratio (x) = 0.19912 0.66286
# Poissons Ratio (y) = 0.27388 0.24645
# Poissons Ratio (z) = 0.98022 0.26496
#
# Static dielectric constant tensor:
#      x y z
#    x 1.556830 0.000000 0.000380 
#    y 0.000000 1.575750 0.000000 
#    z 0.000380 0.000000 1.564110 
# 
# From -- ./inp_files/230334.got.cif
#   From: 2010.05.17/outbox.cif.g08.bks.cpg/sg12_116_cif.got.tgz:230334.got - 2010.06.03 13:09:07.
