data_PCOD9195538
_publ_section_title
;
Structure prediction by ZEFSAII (Michael W. Deem and Ramdas Pophale) SiO2 
 PCOD9195538
Probable space group: C 2/M
;
_chemical_formula_sum "Si O2"
_cell_formula_units_Z 44
_cell_length_a 26.794172
_cell_length_b 16.833912
_cell_length_c 26.966613
_cell_angle_alpha 90.000000
_cell_angle_beta 11.169294
_cell_angle_gamma 90.000000
_cell_volume 2356.137973
_symmetry_space_group_name_H-M "C 2/M"
_symmetry_group_IT_number 12
_symmetry_cell_setting 'monoclinic'
loop_
_space_group_symop_operation_xyz
x,y,z
-x,y,-z
-x,-y,-z
x,-y,z
1/2+x,1/2+y,z
1/2-x,1/2+y,-z
1/2-x,1/2-y,-z
1/2+x,1/2-y,z
loop_
_atom_site_type_symbol
_atom_site_label
_atom_site_fract_x
_atom_site_fract_y
_atom_site_fract_z
Si Si1 0.337895 0.273528 0.552560
Si Si2 0.676822 0.328951 0.961321
Si Si3 0.258250 0.845919 0.993193
Si Si4 0.500000 0.769692 0.500000
Si Si5 0.727930 0.583627 0.816064
Si Si6 0.297737 0.594582 0.512515
O O1 0.366384 0.277854 0.585053
O O2 0.329456 0.357817 0.533186
O O3 0.075037 0.226627 0.796165
O O4 0.573814 0.223821 0.297588
O O5 0.716678 0.366344 0.976265
O O6 0.640151 0.398040 0.956899
O O7 0.530254 0.876590 0.748559
O O8 0.250000 0.750000 0.000000
O O9 0.031074 0.879054 0.249135
O O10 0.657727 0.833686 0.314218
O O11 0.881961 0.500000 0.665747
O O12 0.500000 0.573989 0.000000
O O13 0.297019 0.500000 0.519530
#
# Coordination Sequence:
#
# PCOD9195538 Si02
#       6
#     8   8   8   4   8   8
#     4  11  21  39  61  89 116 159 205 252 293 371
#     4  11  22  37  62  87 118 160 209 240 296 366
#     4  12  22  41  67  90 122 166 211 245 304 374
#     4  10  21  36  61  84 114 162 212 244 295 368
#     4  10  20  35  54  83 120 153 192 249 305 352
#     4  12  25  41  63  94 127 159 200 262 317 356
#
# _framework density 18.674627000000001
#
# number of rings (size 3 to 8) (size 9 to 14) (size 15 to 20)
#    0.000    0.909    5.455    2.455    0.000    1.455 
#    0.000    0.455    0.000    0.000    0.000    6.364 
#    0.000    0.000    0.000    0.000    0.000    0.000 
#
# Total GULP energy -122634.875243 kJ/mol
# GULP energy per Si atom -5574.312511 kJ/mol
# Density = 1.863212 g / cm^3
# Si number density = 18.674627 Si / 1000 Ang^3
#
#
#
# Elastic Constant Matrix: (Units=GPa)
#
#
# Indices 1 2 3 4 5 6 
#
# 1 172.8913 62.5775 25.3613 1.4185 5.4378 -1.4474
# 2 62.5775 132.7100 34.7906 1.2560 2.3004 -1.4051
# 3 25.3613 34.7906 110.7695 2.2544 -2.5236 -2.5647
# 4 1.4185 1.2560 2.2544 18.5832 -0.5362 -2.7677
# 5 5.4378 2.3004 -2.5236 -0.5362 25.5267 0.5273
# 6 -1.4474 -1.4051 -2.5647 -2.7677 0.5273 134.2433
#
#
#
# Elastic Compliance Matrix: (Units=1/GPa)
#
#
# Indices 1 2 3 4 5 6 
#
# 1 0.007056 -0.003130 -0.000656 -0.000280 -0.001292 0.000030
# 2 -0.003130 0.009627 -0.002313 -0.000140 -0.000433 0.000022
# 3 -0.000656 -0.002313 0.009957 -0.000944 0.001310 0.000134
# 4 -0.000280 -0.000140 -0.000944 0.054151 0.001094 0.001090
# 5 -0.001292 -0.000433 0.001310 0.001094 0.039644 -0.000127
# 6 0.000030 0.000022 0.000134 0.001090 -0.000127 0.007475
#
#
# Mechanical properties :
#
#
# Convention : Reuss Voigt Hill
#
# Bulk Modulus (GPa) = 69.24461 73.53662 71.39061
# Shear Modulus (GPa) = 34.50131 55.24672 44.87402
#
# Velocity S-wave (km/s) = 4.30291 5.44500 4.90730
# Velocity P-wave (km/s) = 7.86427 8.88786 8.39169
#
# Compressibility (1/GPa) = 0.01444156
#
# Stress axis : x y z
#
# Youngs Moduli (GPa) = 141.71832 103.87781 100.43582
#
# Poissons Ratio (x) = 0.32514 0.06584
# Poissons Ratio (y) = 0.44359 0.23235
# Poissons Ratio (z) = 0.09290 0.24031
#
# Static dielectric constant tensor:
#      x y z
#    x 1.715810 0.000470 -0.009050 
#    y 0.000470 1.743510 -0.004400 
#    z -0.009050 -0.004400 1.900390 
# 
# From -- ./inp_files/369766.got.cif
#   From: 2010.05.17/outbox.cif.g08.bks.cpg/sg12_185_cif.got.tgz:369766.got - 2010.06.03 13:09:07.
