data_PCOD9195333
_publ_section_title
;
Structure prediction by ZEFSAII (Michael W. Deem and Ramdas Pophale) SiO2 
 PCOD9195333
Probable space group: C 2/M
;
_chemical_formula_sum "Si O2"
_cell_formula_units_Z 56
_cell_length_a 19.714488
_cell_length_b 11.679916
_cell_length_c 12.246356
_cell_angle_alpha 90.000000
_cell_angle_beta 77.869214
_cell_angle_gamma 90.000000
_cell_volume 2756.922751
_symmetry_space_group_name_H-M "C 2/M"
_symmetry_group_IT_number 12
_symmetry_cell_setting 'monoclinic'
loop_
_space_group_symop_operation_xyz
x,y,z
-x,y,-z
-x,-y,-z
x,-y,z
1/2+x,1/2+y,z
1/2-x,1/2+y,-z
1/2-x,1/2-y,-z
1/2+x,1/2-y,z
loop_
_atom_site_type_symbol
_atom_site_label
_atom_site_fract_x
_atom_site_fract_y
_atom_site_fract_z
Si Si1 0.692539 0.876253 0.405546
Si Si2 0.628139 0.135094 0.793552
Si Si3 0.174522 0.667286 0.157312
Si Si4 0.020579 0.632881 0.236184
Si Si5 0.494521 0.628523 0.371246
Si Si6 0.245504 0.626420 0.914052
Si Si7 0.342670 0.299741 0.412696
O O1 0.690204 0.868631 0.275577
O O2 0.655196 0.768668 0.473741
O O3 0.771347 0.867239 0.422260
O O4 0.662399 0.000000 0.447844
O O5 0.545083 0.152228 0.821300
O O6 0.675208 0.172218 0.879714
O O7 0.657282 0.201824 0.679697
O O8 0.637399 0.000000 0.776483
O O9 0.096364 0.632628 0.156944
O O10 0.188389 0.801444 0.142182
O O11 0.228642 0.624714 0.048054
O O12 0.011879 0.500000 0.285108
O O13 0.020813 0.747977 0.313024
O O14 0.500000 0.634786 0.500000
O O15 0.521994 0.500000 0.328776
O O16 0.412396 0.630361 0.372750
O O17 0.256653 0.500000 0.870264
#
# Coordination Sequence:
#
# PCOD9195333 Si02
#       7
#     8   8   8   8   8   8   8
#     4  11  21  33  53  80 114 148 187 238 286 343
#     4   9  18  36  58  83 112 149 194 239 286 340
#     4  11  22  37  56  87 116 148 192 239 296 347
#     4  10  21  36  59  86 116 150 193 244 292 344
#     4  10  21  37  56  80 115 155 195 236 286 348
#     4  10  21  38  60  82 114 154 196 244 290 346
#     4  10  20  35  53  81 111 150 192 230 289 341
#
# _framework density 20.312503
#
# number of rings (size 3 to 8) (size 9 to 14) (size 15 to 20)
#    0.000    1.857    1.429    3.000    0.000    2.000 
#    0.000    2.857    0.000    0.000    0.000    4.000 
#    0.000    0.000    0.000    0.000    0.000    0.000 
#
# Total GULP energy -155882.418081 kJ/mol
# GULP energy per Si atom -5567.229217 kJ/mol
# Density = 2.026627 g / cm^3
# Si number density = 20.312503 Si / 1000 Ang^3
#
#
#
# Elastic Constant Matrix: (Units=GPa)
#
#
# Indices 1 2 3 4 5 6 
#
# 1 46.0463 36.2294 5.4710 0.0000 0.1057 0.0000
# 2 36.2294 105.6320 23.2458 0.0000 -8.0252 0.0000
# 3 5.4710 23.2458 54.9489 0.0000 11.5488 0.0000
# 4 0.0000 0.0000 0.0000 93.3172 0.0000 -63.5036
# 5 0.1057 -8.0252 11.5488 0.0000 24.5049 0.0000
# 6 0.0000 0.0000 0.0000 -63.5036 0.0000 64.0254
#
#
#
# Elastic Compliance Matrix: (Units=1/GPa)
#
#
# Indices 1 2 3 4 5 6 
#
# 1 0.030411 -0.011477 0.002936 0.000000 -0.005273 0.000000
# 2 -0.011477 0.015663 -0.007295 0.000000 0.008617 0.000000
# 3 0.002936 -0.007295 0.023861 0.000000 -0.013647 0.000000
# 4 0.000000 0.000000 0.000000 0.032970 0.000000 0.032701
# 5 -0.005273 0.008617 -0.013647 0.000000 0.050084 0.000000
# 6 0.000000 0.000000 0.000000 0.032701 0.000000 0.048053
#
#
# Mechanical properties :
#
#
# Convention : Reuss Voigt Hill
#
# Bulk Modulus (GPa) = 26.13501 37.39106 31.76303
# Shear Modulus (GPa) = 20.36936 45.81489 33.09213
#
# Velocity S-wave (km/s) = 3.17014 4.75436 4.04065
# Velocity P-wave (km/s) = 5.12777 6.97040 6.11885
#
# Compressibility (1/GPa) = 0.03826285
#
# Stress axis : x y z
#
# Youngs Moduli (GPa) = 32.88334 63.84460 41.91024
#
# Poissons Ratio (x) = 0.73273 -0.12304
# Poissons Ratio (y) = 0.37740 0.30571
# Poissons Ratio (z) = -0.09654 0.46571
#
# Static dielectric constant tensor:
#      x y z
#    x 1.735220 0.000000 0.011990 
#    y 0.000000 1.823820 0.000000 
#    z 0.011990 0.000000 1.705850 
# 
# From -- ./inp_files/165621.got.cif
#   From: 2010.05.17/outbox.cif.g08.bks.cpg/sg12_83_cif.got.tgz:165621.got - 2010.06.03 13:09:07.
