data_PCOD9195490
_publ_section_title
;
Structure prediction by ZEFSAII (Michael W. Deem and Ramdas Pophale) SiO2 
 PCOD9195490
Probable space group: C 2/M
;
_chemical_formula_sum "Si O2"
_cell_formula_units_Z 56
_cell_length_a 22.042004
_cell_length_b 7.632500
_cell_length_c 30.913241
_cell_angle_alpha 90.000000
_cell_angle_beta 29.854366
_cell_angle_gamma 90.000000
_cell_volume 2588.897272
_symmetry_space_group_name_H-M "C 2/M"
_symmetry_group_IT_number 12
_symmetry_cell_setting 'monoclinic'
loop_
_space_group_symop_operation_xyz
x,y,z
-x,y,-z
-x,-y,-z
x,-y,z
1/2+x,1/2+y,z
1/2-x,1/2+y,-z
1/2-x,1/2-y,-z
1/2+x,1/2-y,z
loop_
_atom_site_type_symbol
_atom_site_label
_atom_site_fract_x
_atom_site_fract_y
_atom_site_fract_z
Si Si1 0.433747 0.797705 0.419103
Si Si2 0.995835 0.711268 0.792420
Si Si3 0.498065 0.784937 0.951407
Si Si4 0.423336 0.209364 0.588831
Si Si5 0.647090 0.210982 0.779310
Si Si6 0.163545 0.286646 0.610203
Si Si7 0.729573 0.799384 0.962699
O O1 0.523003 0.717040 0.399296
O O2 0.298562 0.788328 0.523011
O O3 0.414394 0.724116 0.383066
O O4 0.470398 0.000000 0.390265
O O5 0.988132 0.500000 0.798133
O O6 0.863869 0.777341 0.860288
O O7 0.042210 0.771128 0.810723
O O8 0.097057 0.761782 0.695120
O O9 0.610359 0.732546 0.850477
O O10 0.498860 0.000000 0.952576
O O11 0.500000 0.725721 0.000000
O O12 0.376590 0.720299 0.001249
O O13 0.500000 0.277105 0.500000
O O14 0.278748 0.237483 0.679450
O O15 0.444537 0.000000 0.576312
O O16 0.644894 0.000000 0.780379
O O17 0.173507 0.500000 0.601837
O O18 0.693818 0.000000 0.987107
O O19 0.750000 0.750000 0.000000
#
# Coordination Sequence:
#
# PCOD9195490 Si02
#       7
#     8   8   8   8   8   8   8
#     4   9  18  33  50  71 104 140 175 217 268 319
#     4  10  20  35  54  80 109 137 178 225 274 321
#     4   9  19  37  58  81 112 147 182 225 277 326
#     4  10  21  35  51  74 107 142 175 216 268 323
#     4  10  20  35  55  78 105 139 180 225 267 318
#     4   9  18  32  52  75 102 137 174 221 268 315
#     4  11  21  36  59  83 109 142 180 223 272 325
#
# _framework density 21.630831000000001
#
# number of rings (size 3 to 8) (size 9 to 14) (size 15 to 20)
#    0.000    2.286    1.429    1.286    0.000    3.143 
#    0.000    0.000    0.000    3.000    0.000    0.000 
#    0.000    0.000    0.000    0.000    0.000    0.000 
#
# Total GULP energy -156198.673503 kJ/mol
# GULP energy per Si atom -5578.524054 kJ/mol
# Density = 2.158160 g / cm^3
# Si number density = 21.630831 Si / 1000 Ang^3
#
#
#
# Elastic Constant Matrix: (Units=GPa)
#
#
# Indices 1 2 3 4 5 6 
#
# 1 121.1277 4.6491 55.5448 0.0038 -2.8936 -0.0068
# 2 4.6491 37.7810 -9.8789 -0.0022 5.4274 -0.0046
# 3 55.5448 -9.8789 84.8364 -0.0028 13.6083 0.0022
# 4 0.0038 -0.0022 -0.0028 14.5571 0.0032 -4.5728
# 5 -2.8936 5.4274 13.6083 0.0032 35.5904 -0.0022
# 6 -0.0068 -0.0046 0.0022 -4.5728 -0.0022 5.2989
#
#
#
# Elastic Compliance Matrix: (Units=1/GPa)
#
#
# Indices 1 2 3 4 5 6 
#
# 1 0.013274 -0.005133 -0.010214 -0.000002 0.005767 0.000018
# 2 -0.005133 0.030427 0.008219 0.000018 -0.008200 0.000029
# 3 -0.010214 0.008219 0.021057 0.000006 -0.010135 -0.000014
# 4 -0.000002 0.000018 0.000006 0.094243 -0.000008 0.081329
# 5 0.005767 -0.008200 -0.010135 -0.000008 0.033692 0.000011
# 6 0.000018 0.000029 -0.000014 0.081329 0.000011 0.258903
#
#
# Mechanical properties :
#
#
# Convention : Reuss Voigt Hill
#
# Bulk Modulus (GPa) = 19.80057 38.26390 29.03223
# Shear Modulus (GPa) = 10.35868 23.98462 17.17165
#
# Velocity S-wave (km/s) = 2.19072 3.33350 2.82059
# Velocity P-wave (km/s) = 3.94623 5.70476 4.90494
#
# Compressibility (1/GPa) = 0.05050360
#
# Stress axis : x y z
#
# Youngs Moduli (GPa) = 75.33423 32.86564 47.48914
#
# Poissons Ratio (x) = 0.16869 0.48504
# Poissons Ratio (y) = 0.38666 -0.39031
# Poissons Ratio (z) = 0.76945 -0.27012
#
# Static dielectric constant tensor:
#      x y z
#    x 3.019790 -0.000160 -0.355690 
#    y -0.000160 1.886030 0.000050 
#    z -0.355690 0.000050 1.880300 
# 
# From -- ./inp_files/237391.got.cif
#   From: 2010.05.17/outbox.cif.g08.bks.cpg/sg12_119_cif.got.tgz:237391.got - 2010.06.03 13:09:07.
