data_PCOD9195104
_publ_section_title
;
Structure prediction by ZEFSAII (Michael W. Deem and Ramdas Pophale) SiO2 
 PCOD9195104
Probable space group: C 2/M
;
_chemical_formula_sum "Si O2"
_cell_formula_units_Z 54
_cell_length_a 23.086686
_cell_length_b 9.020616
_cell_length_c 18.063738
_cell_angle_alpha 90.000000
_cell_angle_beta 51.335992
_cell_angle_gamma 90.000000
_cell_volume 2937.365736
_symmetry_space_group_name_H-M "C 2/M"
_symmetry_group_IT_number 12
_symmetry_cell_setting 'monoclinic'
loop_
_space_group_symop_operation_xyz
x,y,z
-x,y,-z
-x,-y,-z
x,-y,z
1/2+x,1/2+y,z
1/2-x,1/2+y,-z
1/2-x,1/2-y,-z
1/2+x,1/2-y,z
loop_
_atom_site_type_symbol
_atom_site_label
_atom_site_fract_x
_atom_site_fract_y
_atom_site_fract_z
Si Si1 0.817218 0.176083 0.989873
Si Si2 0.106598 0.177364 0.663467
Si Si3 0.526191 0.832128 0.144309
Si Si4 0.120909 0.664739 0.498124
Si Si5 0.834022 0.164569 0.148303
Si Si6 0.768609 0.324147 0.337664
Si Si7 0.500000 0.752148 0.000000
Si Si8 0.000000 0.500000 0.500000
O O1 0.894234 0.255922 0.907861
O O2 0.822035 0.000000 0.971628
O O3 0.750000 0.250000 0.000000
O O4 0.806883 0.194195 0.086683
O O5 0.098020 0.242407 0.588232
O O6 0.180194 0.247323 0.641131
O O7 0.037766 0.235121 0.767313
O O8 0.110511 0.000000 0.660898
O O9 0.512104 0.836745 0.067250
O O10 0.524641 0.000000 0.174844
O O11 0.148324 0.500000 0.500679
O O12 0.187619 0.751750 0.405996
O O13 0.052840 0.627020 0.498344
O O14 0.806109 0.283122 0.229333
O O15 0.923367 0.165015 0.072670
O O16 0.809021 0.000000 0.191902
O O17 0.766273 0.500000 0.350559
#
# Coordination Sequence:
#
# PCOD9195104 Si02
#       8
#     8   8   8   8   8   8   4   2
#     4  10  22  41  60  85 119 168 222 271 319 376
#     4  12  24  40  65 100 135 169 212 267 330 396
#     4  11  22  37  60  92 128 167 210 263 319 383
#     4  10  22  46  70  95 124 167 208 263 322 381
#     4  10  21  37  60  90 126 167 209 261 319 384
#     4  12  24  39  64 101 135 168 212 267 330 395
#     4  10  20  34  62  88 130 164 210 258 318 376
#     4   8  24  48  78  92 124 176 214 266 312 412
#
# _framework density 18.383818999999999
#
# number of rings (size 3 to 8) (size 9 to 14) (size 15 to 20)
#    0.444    0.889    1.481    4.889    0.000    4.148 
#    2.667    1.481    0.000    0.000    0.000    0.000 
#    0.000    0.000    0.000    0.000    0.000    0.000 
#
# Total GULP energy -150461.643150 kJ/mol
# GULP energy per Si atom -5572.653450 kJ/mol
# Density = 1.834198 g / cm^3
# Si number density = 18.383819 Si / 1000 Ang^3
#
#
#
# Elastic Constant Matrix: (Units=GPa)
#
#
# Indices 1 2 3 4 5 6 
#
# 1 165.7286 72.1924 49.2894 0.0001 -7.1562 0.0003
# 2 72.1924 176.4480 52.7308 0.0002 -1.8195 0.0007
# 3 49.2894 52.7308 87.6353 0.0002 -7.3507 0.0002
# 4 0.0001 0.0002 0.0002 44.3124 0.0000 0.8196
# 5 -7.1562 -1.8195 -7.3507 0.0000 12.0249 0.0000
# 6 0.0003 0.0007 0.0002 0.8196 0.0000 22.3036
#
#
#
# Elastic Compliance Matrix: (Units=1/GPa)
#
#
# Indices 1 2 3 4 5 6 
#
# 1 0.008049 -0.002414 -0.002849 0.000000 0.002683 0.000000
# 2 -0.002414 0.007662 -0.003453 0.000000 -0.002388 0.000000
# 3 -0.002849 -0.003453 0.015711 0.000000 0.007386 0.000000
# 4 0.000000 0.000000 0.000000 0.022582 0.000000 -0.000830
# 5 0.002683 -0.002388 0.007386 0.000000 0.088911 0.000000
# 6 0.000000 0.000000 0.000000 -0.000830 0.000000 0.044866
#
#
# Mechanical properties :
#
#
# Convention : Reuss Voigt Hill
#
# Bulk Modulus (GPa) = 71.48462 86.47079 78.97770
# Shear Modulus (GPa) = 23.82341 32.76812 28.29577
#
# Velocity S-wave (km/s) = 3.60375 4.22648 3.92748
# Velocity P-wave (km/s) = 7.50233 8.42354 7.97625
#
# Compressibility (1/GPa) = 0.01398902
#
# Stress axis : x y z
#
# Youngs Moduli (GPa) = 124.24263 130.50833 63.65036
#
# Poissons Ratio (x) = 0.31503 0.18137
# Poissons Ratio (y) = 0.29991 0.21979
# Poissons Ratio (z) = 0.35402 0.45066
#
# Static dielectric constant tensor:
#      x y z
#    x 1.606580 0.000000 0.006190 
#    y 0.000000 1.633760 0.000000 
#    z 0.006190 0.000000 1.636220 
# 
# From -- ./inp_files/288276.got.cif
#   From: 2010.05.17/outbox.cif.g08.bks.cpg/sg12_145_cif.got.tgz:288276.got - 2010.06.03 13:09:07.
