data_PCOD9195393
_publ_section_title
;
Structure prediction by ZEFSAII (Michael W. Deem and Ramdas Pophale) SiO2 
 PCOD9195393
Probable space group: C 2/M
;
_chemical_formula_sum "Si O2"
_cell_formula_units_Z 64
_cell_length_a 11.224977
_cell_length_b 15.299973
_cell_length_c 16.821213
_cell_angle_alpha 90.000000
_cell_angle_beta 92.897987
_cell_angle_gamma 90.000000
_cell_volume 2885.211633
_symmetry_space_group_name_H-M "C 2/M"
_symmetry_group_IT_number 12
_symmetry_cell_setting 'monoclinic'
loop_
_space_group_symop_operation_xyz
x,y,z
-x,y,-z
-x,-y,-z
x,-y,z
1/2+x,1/2+y,z
1/2-x,1/2+y,-z
1/2-x,1/2-y,-z
1/2+x,1/2-y,z
loop_
_atom_site_type_symbol
_atom_site_label
_atom_site_fract_x
_atom_site_fract_y
_atom_site_fract_z
Si Si1 0.658547 0.893798 0.218546
Si Si2 0.369661 0.606975 0.771508
Si Si3 0.630393 0.106982 0.037040
Si Si4 0.456190 0.895205 0.629541
Si Si5 0.782394 0.844833 0.471505
Si Si6 0.398554 0.394491 0.320762
Si Si7 0.374317 0.393079 0.954814
Si Si8 0.713730 0.102167 0.628385
O O1 0.641902 0.863183 0.128646
O O2 0.562193 0.864435 0.280424
O O3 0.785012 0.871879 0.262176
O O4 0.652931 0.000000 0.214997
O O5 0.365906 0.500000 0.774021
O O6 0.486332 0.630466 0.725267
O O7 0.370962 0.635360 0.862614
O O8 0.263513 0.641048 0.711655
O O9 0.630715 0.000000 0.035258
O O10 0.500000 0.134024 0.000000
O O11 0.750743 0.133950 0.993932
O O12 0.338793 0.876136 0.575543
O O13 0.582871 0.862441 0.602442
O O14 0.459809 0.000000 0.630216
O O15 0.750000 0.750000 0.500000
O O16 0.881962 0.854293 0.407612
O O17 0.800777 0.892957 0.555857
O O18 0.397787 0.500000 0.331335
O O19 0.375084 0.500000 0.956518
O O20 0.500000 0.365972 0.000000
O O21 0.699032 0.000000 0.644321
#
# Coordination Sequence:
#
# PCOD9195393 Si02
#       8
#     8   8   8   8   8   8   8   8
#     4   8  14  25  44  68  96 135 174 208 251 310
#     4   9  18  30  48  73 101 139 179 212 254 312
#     4   9  16  22  35  65 103 136 167 210 266 315
#     4   9  18  34  57  76 100 140 182 218 259 320
#     4  11  22  36  52  77 103 132 171 223 275 325
#     4   9  17  33  53  72  99 138 183 217 254 315
#     4   9  16  26  41  65 104 145 173 205 257 322
#     4  10  20  35  54  76 103 137 179 222 264 316
#
# _framework density 22.182081
#
# number of rings (size 3 to 8) (size 9 to 14) (size 15 to 20)
#    0.000    2.750    0.000    3.000    1.750    4.500 
#    4.500    1.875    0.000    0.000    0.000    0.000 
#    0.000   13.000    0.500    0.000    0.000    0.000 
#
# Total GULP energy -178511.006996 kJ/mol
# GULP energy per Si atom -5578.468969 kJ/mol
# Density = 2.213159 g / cm^3
# Si number density = 22.182081 Si / 1000 Ang^3
#
#
#
# Elastic Constant Matrix: (Units=GPa)
#
#
# Indices 1 2 3 4 5 6 
#
# 1 82.6132 11.3700 54.9550 0.0000 -14.4640 0.0000
# 2 11.3700 39.9742 10.6548 0.0000 -3.6567 0.0000
# 3 54.9550 10.6548 180.3354 0.0000 -13.0437 0.0000
# 4 0.0000 0.0000 0.0000 -54.6469 0.0000 -15.9042
# 5 -14.4640 -3.6567 -13.0437 0.0000 31.6981 0.0000
# 6 0.0000 0.0000 0.0000 -15.9042 0.0000 -4.6151
#
#
#
# Elastic Compliance Matrix: (Units=1/GPa)
#
#
# Indices 1 2 3 4 5 6 
#
# 1 0.016398 -0.002996 -0.004436 0.000000 0.005311 0.000000
# 2 -0.002996 0.026140 -0.000528 0.000000 0.001431 0.000000
# 3 -0.004436 -0.000528 0.006985 0.000000 0.000789 0.000000
# 4 0.000000 0.000000 0.000000 6.197949 0.000000-21.359071
# 5 0.005311 0.001431 0.000789 0.000000 0.034461 0.000000
# 6 0.000000 0.000000 0.000000-21.359071 0.000000 73.389912
#
#
# Mechanical properties :
#
#
# Convention : Reuss Voigt Hill
#
# Bulk Modulus (GPa) = 29.75873 50.76471 40.26172
# Shear Modulus (GPa) = 0.06274 9.55008 4.80641
#
# Velocity S-wave (km/s) = 0.16836 2.07718 1.47360
# Velocity P-wave (km/s) = 3.67186 5.35612 4.59187
#
# Compressibility (1/GPa) = 0.03360359
#
# Stress axis : x y z
#
# Youngs Moduli (GPa) = 60.98470 38.25567 143.15840
#
# Poissons Ratio (x) = 0.11461 0.63502
# Poissons Ratio (y) = 0.18270 0.07558
# Poissons Ratio (z) = 0.27051 0.02020
#
# Static dielectric constant tensor:
#      x y z
#    x 1.848000 0.000000 0.029900 
#    y 0.000000 1.891220 0.000000 
#    z 0.029900 0.000000 1.896650 
# 
# From -- ./inp_files/206680.got.cif
#   From: 2010.05.17/outbox.cif.g08.bks.cpg/sg12_104_cif.got.tgz:206680.got - 2010.06.03 13:09:07.
