data_PCOD9195173
_publ_section_title
;
Structure prediction by ZEFSAII (Michael W. Deem and Ramdas Pophale) SiO2 
 PCOD9195173
Probable space group: C 2/M
;
_chemical_formula_sum "Si O2"
_cell_formula_units_Z 48
_cell_length_a 21.775649
_cell_length_b 17.488215
_cell_length_c 22.093773
_cell_angle_alpha 90.000000
_cell_angle_beta 20.753709
_cell_angle_gamma 90.000000
_cell_volume 2981.404093
_symmetry_space_group_name_H-M "C 2/M"
_symmetry_group_IT_number 12
_symmetry_cell_setting 'monoclinic'
loop_
_space_group_symop_operation_xyz
x,y,z
-x,y,-z
-x,-y,-z
x,-y,z
1/2+x,1/2+y,z
1/2-x,1/2+y,-z
1/2-x,1/2-y,-z
1/2+x,1/2-y,z
loop_
_atom_site_type_symbol
_atom_site_label
_atom_site_fract_x
_atom_site_fract_y
_atom_site_fract_z
Si Si1 0.232407 0.334729 0.136426
Si Si2 0.597469 0.591674 0.771388
Si Si3 0.184116 0.836995 0.566200
Si Si4 0.283749 0.688750 0.914720
Si Si5 0.697048 0.087092 0.295889
Si Si6 0.978969 0.590196 0.774667
O O1 0.242885 0.243455 0.118322
O O2 0.213180 0.359719 0.223087
O O3 0.082139 0.368536 0.231522
O O4 0.404946 0.375048 0.952115
O O5 0.598140 0.500000 0.761872
O O6 0.688983 0.632190 0.630553
O O7 0.686984 0.607943 0.753246
O O8 0.250000 0.750000 0.500000
O O9 0.320392 0.886947 0.402500
O O10 0.981756 0.839713 0.734199
O O11 0.250000 0.750000 0.000000
O O12 0.144311 0.623760 0.058867
O O13 0.500000 0.086420 0.500000
O O14 0.744800 0.000000 0.233253
O O15 0.957393 0.500000 0.788546
#
# Coordination Sequence:
#
# PCOD9195173 Si02
#       6
#     8   8   8   8   8   8
#     4  11  19  34  51  70 103 145 175 213 255 307
#     4  11  21  32  50  74 103 140 178 213 252 305
#     4  12  20  34  51  73 103 141 179 214 261 307
#     4  10  20  35  51  73 103 142 174 216 264 308
#     4  10  21  33  46  71 105 141 179 211 247 303
#     4  11  21  33  53  77 104 137 176 219 263 312
#
# _framework density 16.099796999999999
#
# number of rings (size 3 to 8) (size 9 to 14) (size 15 to 20)
#    0.000    1.167    6.667    3.500    0.000    3.333 
#    0.000    0.000    0.000    0.000    0.000    0.000 
#    0.000   12.667    0.000    0.833    0.000    0.000 
#
# Total GULP energy -133879.517748 kJ/mol
# GULP energy per Si atom -5578.313240 kJ/mol
# Density = 1.606315 g / cm^3
# Si number density = 16.099797 Si / 1000 Ang^3
#
#
#
# Elastic Constant Matrix: (Units=GPa)
#
#
# Indices 1 2 3 4 5 6 
#
# 1 70.9290 40.6395 32.1725 -0.0057 7.5450 0.0025
# 2 40.6395 80.0521 39.6707 0.0073 9.6857 0.0072
# 3 32.1725 39.6707 120.9847 0.0221 -2.2341 -0.0022
# 4 -0.0057 0.0073 0.0221 27.9832 -0.0021 5.9371
# 5 7.5450 9.6857 -2.2341 -0.0021 20.3666 -0.0025
# 6 0.0025 0.0072 -0.0022 5.9371 -0.0025 30.2689
#
#
#
# Elastic Compliance Matrix: (Units=1/GPa)
#
#
# Indices 1 2 3 4 5 6 
#
# 1 0.020735 -0.008710 -0.002729 0.000009 -0.003839 -0.000002
# 2 -0.008710 0.019865 -0.004321 -0.000003 -0.006695 -0.000004
# 3 -0.002729 -0.004321 0.010486 -0.000008 0.004216 0.000004
# 4 0.000009 -0.000003 -0.000008 0.037287 0.000000 -0.007314
# 5 -0.003839 -0.006695 0.004216 0.000000 0.054168 0.000007
# 6 -0.000002 -0.000004 0.000004 -0.007314 0.000007 0.034472
#
#
# Mechanical properties :
#
#
# Convention : Reuss Voigt Hill
#
# Bulk Modulus (GPa) = 51.10811 55.21460 53.16136
# Shear Modulus (GPa) = 23.24988 26.35594 24.80291
#
# Velocity S-wave (km/s) = 3.80427 4.05042 3.92927
# Velocity P-wave (km/s) = 7.14913 7.49961 7.32647
#
# Compressibility (1/GPa) = 0.01956636
#
# Stress axis : x y z
#
# Youngs Moduli (GPa) = 48.22756 50.34024 95.36554
#
# Poissons Ratio (x) = 0.43844 0.26025
# Poissons Ratio (y) = 0.42004 0.41209
# Poissons Ratio (z) = 0.13161 0.21753
#
# Static dielectric constant tensor:
#      x y z
#    x 1.544660 0.000000 -0.018690 
#    y 0.000000 1.542280 0.000010 
#    z -0.018690 0.000010 1.592480 
# 
# From -- ./inp_files/322529.got.cif
#   From: 2010.05.17/outbox.cif.g08.bks.cpg/sg12_162_cif.got.tgz:322529.got - 2010.06.03 13:09:07.
