data_PCOD9195382
_publ_section_title
;
Structure prediction by ZEFSAII (Michael W. Deem and Ramdas Pophale) SiO2 
 PCOD9195382
Probable space group: C 2/M
;
_chemical_formula_sum "Si O2"
_cell_formula_units_Z 64
_cell_length_a 32.464513
_cell_length_b 11.168201
_cell_length_c 17.461178
_cell_angle_alpha 90.000000
_cell_angle_beta 31.111111
_cell_angle_gamma 90.000000
_cell_volume 3271.173544
_symmetry_space_group_name_H-M "C 2/M"
_symmetry_group_IT_number 12
_symmetry_cell_setting 'monoclinic'
loop_
_space_group_symop_operation_xyz
x,y,z
-x,y,-z
-x,-y,-z
x,-y,z
1/2+x,1/2+y,z
1/2-x,1/2+y,-z
1/2-x,1/2-y,-z
1/2+x,1/2-y,z
loop_
_atom_site_type_symbol
_atom_site_label
_atom_site_fract_x
_atom_site_fract_y
_atom_site_fract_z
Si Si1 0.310649 0.138821 0.904424
Si Si2 0.575137 0.142105 0.136092
Si Si3 0.130811 0.866884 0.426729
Si Si4 0.689686 0.138087 0.824149
Si Si5 0.417243 0.868237 0.586158
Si Si6 0.266736 0.299169 0.388082
Si Si7 0.564627 0.633682 0.835382
Si Si8 0.404606 0.235563 0.370839
O O1 0.378388 0.170448 0.859631
O O2 0.349659 0.133459 0.758664
O O3 0.282142 0.000000 0.966825
O O4 0.250000 0.250000 0.000000
O O5 0.482993 0.175194 0.279999
O O6 0.581103 0.000000 0.119670
O O7 0.622860 0.192616 0.986345
O O8 0.226265 0.859823 0.264265
O O9 0.093009 0.751365 0.446792
O O10 0.115301 0.847196 0.541850
O O11 0.103829 0.000000 0.445790
O O12 0.705435 0.203078 0.719356
O O13 0.670473 0.000000 0.838042
O O14 0.500000 0.863998 0.500000
O O15 0.413969 0.000000 0.551473
O O16 0.250000 0.250000 0.500000
O O17 0.346770 0.375040 0.269888
O O18 0.178321 0.339529 0.501118
O O19 0.539127 0.500000 0.852188
O O20 0.572790 0.718816 0.749399
O O21 0.500000 0.677659 0.000000
#
# Coordination Sequence:
#
# PCOD9195382 Si02
#       8
#     8   8   8   8   8   8   8   8
#     4  10  21  38  60  86 116 151 190 234 286 342
#     4  10  20  35  57  82 110 146 184 228 285 344
#     4  10  20  35  57  82 108 143 186 232 280 332
#     4   9  18  34  55  78 105 138 180 229 280 333
#     4  10  21  37  56  79 111 149 186 228 280 337
#     4   9  19  33  52  77 104 140 180 222 272 328
#     4  10  20  35  54  75 106 147 184 223 275 335
#     4  10  20  35  55  81 112 141 180 233 283 333
#
# _framework density 19.564844000000001
#
# number of rings (size 3 to 8) (size 9 to 14) (size 15 to 20)
#    0.000    2.250    0.000    2.625    0.000    6.750 
#    0.000    6.250    0.000   15.000    0.000    0.000 
#    0.000    0.000    0.000    0.000    0.000    0.000 
#
# Total GULP energy -178185.757760 kJ/mol
# GULP energy per Si atom -5568.304930 kJ/mol
# Density = 1.952031 g / cm^3
# Si number density = 19.564844 Si / 1000 Ang^3
#
#
#
# Elastic Constant Matrix: (Units=GPa)
#
#
# Indices 1 2 3 4 5 6 
#
# 1 82.6964 47.6532 35.6012 0.0000 -8.0174 0.0000
# 2 47.6532 94.7282 29.1129 0.0000 -4.1020 0.0000
# 3 35.6012 29.1129 115.1684 0.0000 -3.3724 0.0000
# 4 0.0000 0.0000 0.0000 4.9674 0.0000 -13.7684
# 5 -8.0174 -4.1020 -3.3724 0.0000 34.8757 0.0000
# 6 0.0000 0.0000 0.0000 -13.7684 0.0000 9.6604
#
#
#
# Elastic Compliance Matrix: (Units=1/GPa)
#
#
# Indices 1 2 3 4 5 6 
#
# 1 0.018620 -0.008127 -0.003614 0.000000 0.002975 0.000000
# 2 -0.008127 0.015033 -0.001294 0.000000 -0.000225 0.000000
# 3 -0.003614 -0.001294 0.010127 0.000000 -0.000004 0.000000
# 4 0.000000 0.000000 0.000000 -0.068232 0.000000 -0.097247
# 5 0.002975 -0.000225 -0.000004 0.000000 0.029330 0.000000
# 6 0.000000 0.000000 0.000000 -0.097247 0.000000 -0.035085
#
#
# Mechanical properties :
#
#
# Convention : Reuss Voigt Hill
#
# Bulk Modulus (GPa) = 56.47027 57.48085 56.97556
# Shear Modulus (GPa) = 2827.99714 21.91576 1424.95645
#
# Velocity S-wave (km/s) = 38.06030 3.35051 27.01677
# Velocity P-wave (km/s) = 44.27611 6.66418 31.66059
#
# Compressibility (1/GPa) = 0.01770843
#
# Stress axis : x y z
#
# Youngs Moduli (GPa) = 53.70529 66.52034 98.74298
#
# Poissons Ratio (x) = 0.54063 0.35689
# Poissons Ratio (y) = 0.43648 0.12781
# Poissons Ratio (z) = 0.19411 0.08610
#
# Static dielectric constant tensor:
#      x y z
#    x 1.706120 0.000000 0.006580 
#    y 0.000000 1.712900 0.000000 
#    z 0.006580 0.000000 1.721490 
# 
# From -- ./inp_files/296466.got.cif
#   From: 2010.05.17/outbox.cif.g08.bks.cpg/sg12_149_cif.got.tgz:296466.got - 2010.06.03 13:09:07.
