data_PCOD9195340
_publ_section_title
;
Structure prediction by ZEFSAII (Michael W. Deem and Ramdas Pophale) SiO2 
 PCOD9195340
Probable space group: C 2/M
;
_chemical_formula_sum "Si O2"
_cell_formula_units_Z 42
_cell_length_a 32.797817
_cell_length_b 7.625710
_cell_length_c 7.450037
_cell_angle_alpha 90.000000
_cell_angle_beta 63.685732
_cell_angle_gamma 90.000000
_cell_volume 1670.220870
_symmetry_space_group_name_H-M "C 2/M"
_symmetry_group_IT_number 12
_symmetry_cell_setting 'monoclinic'
loop_
_space_group_symop_operation_xyz
x,y,z
-x,y,-z
-x,-y,-z
x,-y,z
1/2+x,1/2+y,z
1/2-x,1/2+y,-z
1/2-x,1/2-y,-z
1/2+x,1/2-y,z
loop_
_atom_site_type_symbol
_atom_site_label
_atom_site_fract_x
_atom_site_fract_y
_atom_site_fract_z
Si Si1 0.600364 0.790515 0.334694
Si Si2 0.029012 0.698615 0.184311
Si Si3 0.800850 0.190779 0.430038
Si Si4 0.500000 0.500000 0.000000
Si Si5 0.898556 0.786868 0.244349
Si Si6 0.800753 0.289456 0.832156
O O1 0.597640 0.744933 0.550437
O O2 0.651391 0.737676 0.166375
O O3 0.598882 0.000000 0.322025
O O4 0.557199 0.732996 0.302010
O O5 0.010569 0.500000 0.247995
O O6 0.067159 0.691859 0.953459
O O7 0.996952 0.845799 0.163409
O O8 0.750000 0.250000 0.500000
O O9 0.848032 0.278145 0.285060
O O10 0.804086 0.191371 0.637622
O O11 0.803432 0.000000 0.341396
O O12 0.905120 0.000000 0.201249
O O13 0.802711 0.500000 0.800563
O O14 0.750000 0.250000 0.000000
#
# Coordination Sequence:
#
# PCOD9195340 Si02
#       6
#     8   8   8   2   8   8
#     4   9  21  40  63  91 125 171 220 262 324 395
#     4  11  24  45  72  98 132 173 210 273 341 399
#     4  10  21  35  53  83 122 166 215 265 312 370
#     4  12  26  48  70 110 132 158 230 276 338 414
#     4  10  21  39  64  94 128 171 221 268 325 394
#     4  10  20  35  53  82 121 163 212 264 310 369
#
# _framework density 25.146374000000002
#
# number of rings (size 3 to 8) (size 9 to 14) (size 15 to 20)
#    0.000    1.905    0.952    2.000    4.000    3.048 
#    0.000    1.905    0.000    3.429    0.000    0.000 
#    0.000    0.000    0.000    0.000    0.000    0.000 
#
# Total GULP energy -116941.242841 kJ/mol
# GULP energy per Si atom -5568.630611 kJ/mol
# Density = 2.508914 g / cm^3
# Si number density = 25.146374 Si / 1000 Ang^3
#
#
#
# Elastic Constant Matrix: (Units=GPa)
#
#
# Indices 1 2 3 4 5 6 
#
# 1 126.1355 30.4973 14.9932 0.0000 11.4759 0.0000
# 2 30.4973 97.1653 -19.1004 0.0000 3.9590 0.0000
# 3 14.9932 -19.1004 62.1729 0.0000 -5.7772 0.0000
# 4 0.0000 0.0000 0.0000 15.6848 0.0000 11.3632
# 5 11.4759 3.9590 -5.7772 0.0000 49.3549 0.0000
# 6 0.0000 0.0000 0.0000 11.3632 0.0000 13.2663
#
#
#
# Elastic Compliance Matrix: (Units=1/GPa)
#
#
# Indices 1 2 3 4 5 6 
#
# 1 0.009429 -0.003570 -0.003587 0.000000 -0.002326 0.000000
# 2 -0.003570 0.012316 0.004681 0.000000 0.000390 0.000000
# 3 -0.003587 0.004681 0.018632 0.000000 0.002639 0.000000
# 4 0.000000 0.000000 0.000000 0.168019 0.000000 -0.143917
# 5 -0.002326 0.000390 0.002639 0.000000 0.021080 0.000000
# 6 0.000000 0.000000 0.000000 -0.143917 0.000000 0.198651
#
#
# Mechanical properties :
#
#
# Convention : Reuss Voigt Hill
#
# Bulk Modulus (GPa) = 28.22722 37.58376 32.90549
# Shear Modulus (GPa) = 11.23879 32.93346 22.08613
#
# Velocity S-wave (km/s) = 2.11638 3.62286 2.96683
# Velocity P-wave (km/s) = 4.14989 5.69900 4.98499
#
# Compressibility (1/GPa) = 0.03542680
#
# Stress axis : x y z
#
# Youngs Moduli (GPa) = 106.05546 81.19234 53.66993
#
# Poissons Ratio (x) = 0.28984 0.19249
# Poissons Ratio (y) = 0.37859 -0.25122
# Poissons Ratio (z) = 0.38038 -0.38005
#
# Static dielectric constant tensor:
#      x y z
#    x 2.303510 0.000000 -0.176550 
#    y 0.000000 1.954620 0.000000 
#    z -0.176550 0.000000 2.193160 
# 
# From -- ./inp_files/107930.got.cif
#   From: 2010.05.17/outbox.cif.g08.bks.cpg/sg12_54_cif.got.tgz:107930.got - 2010.06.03 13:09:07.
