data_PCOD9195767
_publ_section_title
;
Structure prediction by ZEFSAII (Michael W. Deem and Ramdas Pophale) SiO2 
 PCOD9195767
Probable space group: C 2/M
;
_chemical_formula_sum "Si O2"
_cell_formula_units_Z 48
_cell_length_a 31.934990
_cell_length_b 8.895213
_cell_length_c 20.602646
_cell_angle_alpha 90.000000
_cell_angle_beta 27.595289
_cell_angle_gamma 90.000000
_cell_volume 2711.043019
_symmetry_space_group_name_H-M "C 2/M"
_symmetry_group_IT_number 12
_symmetry_cell_setting 'monoclinic'
loop_
_space_group_symop_operation_xyz
x,y,z
-x,y,-z
-x,-y,-z
x,-y,z
1/2+x,1/2+y,z
1/2-x,1/2+y,-z
1/2-x,1/2-y,-z
1/2+x,1/2-y,z
loop_
_atom_site_type_symbol
_atom_site_label
_atom_site_fract_x
_atom_site_fract_y
_atom_site_fract_z
Si Si1 0.685847 0.178924 0.034231
Si Si2 0.195753 0.320513 0.634960
Si Si3 0.024298 0.321315 0.679945
Si Si4 0.693788 0.679708 0.385710
Si Si5 0.520991 0.320508 0.826789
Si Si6 0.687823 0.320100 0.889685
O O1 0.579952 0.204833 0.195898
O O2 0.699884 0.000000 0.010705
O O3 0.750000 0.250000 0.000000
O O4 0.702010 0.253261 0.941874
O O5 0.193131 0.500000 0.630813
O O6 0.250000 0.250000 0.500000
O O7 0.247213 0.285100 0.630953
O O8 0.094899 0.254275 0.771422
O O9 0.038528 0.500000 0.667104
O O10 0.095929 0.251722 0.532256
O O11 0.037976 0.243396 0.731143
O O12 0.686714 0.500000 0.389998
O O13 0.744327 0.747812 0.254613
O O14 0.532930 0.500000 0.809748
O O15 0.416592 0.286054 0.986165
O O16 0.697654 0.500000 0.877841
#
# Coordination Sequence:
#
# PCOD9195767 Si02
#       6
#     8   8   8   8   8   8
#     4  10  21  39  64  91 115 144 183 227 278 340
#     4  11  22  34  53  80 112 151 196 242 281 327
#     4  10  20  35  58  84 112 148 188 229 278 335
#     4  11  23  37  55  82 116 152 190 236 286 332
#     4  10  20  35  55  80 110 149 195 237 280 330
#     4  10  22  39  59  83 115 151 187 233 286 337
#
# _framework density 17.705362999999998
#
# number of rings (size 3 to 8) (size 9 to 14) (size 15 to 20)
#    0.000    1.667    1.667    3.000    0.000    6.667 
#    0.000    4.167    0.000    5.000    0.000    0.000 
#    0.000    0.000    0.000    0.000    0.000    0.000 
#
# Total GULP energy -134102.435719 kJ/mol
# GULP energy per Si atom -5587.601488 kJ/mol
# Density = 1.766507 g / cm^3
# Si number density = 17.705363 Si / 1000 Ang^3
#
#
#
# Elastic Constant Matrix: (Units=GPa)
#
#
# Indices 1 2 3 4 5 6 
#
# 1 99.2331 59.6580 59.9218 0.0012 -6.3273 -0.0004
# 2 59.6580 79.4576 67.7861 -0.0005 -1.4875 -0.0008
# 3 59.9218 67.7861 152.7412 0.0002 11.9857 -0.0006
# 4 0.0012 -0.0005 0.0002 31.5959 -0.0010 -1.2874
# 5 -6.3273 -1.4875 11.9857 -0.0010 18.0710 0.0006
# 6 -0.0004 -0.0008 -0.0006 -1.2874 0.0006 32.9093
#
#
#
# Elastic Compliance Matrix: (Units=1/GPa)
#
#
# Indices 1 2 3 4 5 6 
#
# 1 0.019609 -0.012052 -0.002959 -0.000001 0.007837 0.000000
# 2 -0.012052 0.028834 -0.008359 0.000001 0.003698 0.000000
# 3 -0.002959 -0.008359 0.012187 0.000000 -0.009807 0.000000
# 4 -0.000001 0.000001 0.000000 0.031700 0.000002 0.001240
# 5 0.007837 0.003698 -0.009807 0.000002 0.064890 -0.000001
# 6 0.000000 0.000000 0.000000 0.001240 -0.000001 0.030435
#
#
# Mechanical properties :
#
#
# Convention : Reuss Voigt Hill
#
# Bulk Modulus (GPa) = 71.98822 78.46261 75.22542
# Shear Modulus (GPa) = 20.91829 26.11963 23.51896
#
# Velocity S-wave (km/s) = 3.44098 3.84505 3.64861
# Velocity P-wave (km/s) = 7.51893 8.00778 7.76720
#
# Compressibility (1/GPa) = 0.01389116
#
# Stress axis : x y z
#
# Youngs Moduli (GPa) = 50.99625 34.68154 82.05379
#
# Poissons Ratio (x) = 0.41797 0.24283
# Poissons Ratio (y) = 0.61458 0.68585
# Poissons Ratio (z) = 0.15092 0.28989
#
# Static dielectric constant tensor:
#      x y z
#    x 1.576370 0.000000 -0.022120 
#    y 0.000000 1.586830 0.000000 
#    z -0.022120 0.000000 1.597460 
# 
# From -- ./inp_files/249370.got.cif
#   From: 2010.05.17/outbox.cif.g08.bks.cpg/sg12_125_cif.got.tgz:249370.got - 2010.06.03 13:09:07.
