data_PCOD9195941
_publ_section_title
;
Structure prediction by ZEFSAII (Michael W. Deem and Ramdas Pophale) SiO2 
 PCOD9195941
Probable space group: C 2/M
;
_chemical_formula_sum "Si O2"
_cell_formula_units_Z 48
_cell_length_a 16.555995
_cell_length_b 8.896556
_cell_length_c 14.978559
_cell_angle_alpha 90.000000
_cell_angle_beta 79.344580
_cell_angle_gamma 90.000000
_cell_volume 2168.170176
_symmetry_space_group_name_H-M "C 2/M"
_symmetry_group_IT_number 12
_symmetry_cell_setting 'monoclinic'
loop_
_space_group_symop_operation_xyz
x,y,z
-x,y,-z
-x,-y,-z
x,-y,z
1/2+x,1/2+y,z
1/2-x,1/2+y,-z
1/2-x,1/2-y,-z
1/2+x,1/2-y,z
loop_
_atom_site_type_symbol
_atom_site_label
_atom_site_fract_x
_atom_site_fract_y
_atom_site_fract_z
Si Si1 0.320535 0.675503 0.116731
Si Si2 0.424747 0.818629 0.953430
Si Si3 0.688147 0.320079 0.383472
Si Si4 0.427617 0.321587 0.442888
Si Si5 0.368463 0.176370 0.780104
Si Si6 0.127692 0.679039 0.715203
O O1 0.338726 0.500000 0.102493
O O2 0.344944 0.762419 0.022524
O O3 0.224894 0.689882 0.162609
O O4 0.372595 0.744653 0.188217
O O5 0.424617 0.000000 0.951115
O O6 0.500000 0.767806 0.000000
O O7 0.424523 0.768442 0.850545
O O8 0.683301 0.500000 0.386166
O O9 0.651669 0.265595 0.484479
O O10 0.633098 0.262784 0.312459
O O11 0.781758 0.279370 0.342421
O O12 0.500000 0.302014 0.500000
O O13 0.420481 0.500000 0.425425
O O14 0.433985 0.236112 0.348132
O O15 0.384787 0.000000 0.760305
O O16 0.121578 0.500000 0.727368
#
# Coordination Sequence:
#
# PCOD9195941 Si02
#       6
#     8   8   8   8   8   8
#     4  10  20  35  56  79 103 135 176 219 261 308
#     4  10  21  36  53  77 110 142 172 212 261 311
#     4   9  19  35  55  78 103 135 175 218 262 307
#     4  10  21  36  53  77 110 142 172 212 261 311
#     4   9  19  35  55  78 103 135 175 218 262 307
#     4  10  20  35  56  79 103 135 176 219 261 308
#
# _framework density 22.138483000000001
#
# number of rings (size 3 to 8) (size 9 to 14) (size 15 to 20)
#    0.000    2.333    0.000    2.000    0.000    4.667 
#    0.000    3.333    0.000    0.000    0.000    0.000 
#    0.000    0.000    0.000    0.000    0.000    0.000 
#
# Total GULP energy -134116.021953 kJ/mol
# GULP energy per Si atom -5588.167581 kJ/mol
# Density = 2.208809 g / cm^3
# Si number density = 22.138483 Si / 1000 Ang^3
#
#
#
# Elastic Constant Matrix: (Units=GPa)
#
#
# Indices 1 2 3 4 5 6 
#
# 1 47.2919 9.2755 5.6899 0.0000 16.1789 0.0000
# 2 9.2755 -21.2831 5.8291 0.0000 11.3191 0.0000
# 3 5.6899 5.8291 121.4008 0.0000 29.2361 0.0000
# 4 0.0000 0.0000 0.0000 33.3174 0.0000 7.7965
# 5 16.1789 11.3191 29.2361 0.0000 38.6946 0.0000
# 6 0.0000 0.0000 0.0000 7.7965 0.0000 15.3129
#
#
#
# Elastic Compliance Matrix: (Units=1/GPa)
#
#
# Indices 1 2 3 4 5 6 
#
# 1 0.024468 0.004328 0.001729 0.000000 -0.012803 0.000000
# 2 0.004328 -0.039771 -0.000806 0.000000 0.010433 0.000000
# 3 0.001729 -0.000806 0.010161 0.000000 -0.008164 0.000000
# 4 0.000000 0.000000 0.000000 0.034074 0.000000 -0.017349
# 5 -0.012803 0.010433 -0.008164 0.000000 0.034313 0.000000
# 6 0.000000 0.000000 0.000000 -0.017349 0.000000 0.074137
#
#
# Mechanical properties :
#
#
# Convention : Reuss Voigt Hill
#
# Bulk Modulus (GPa) = 186.56877 20.99985 103.78431
# Shear Modulus (GPa) = 38.85990 25.90599 32.38294
#
# Velocity S-wave (km/s) = 4.19419 3.42450 3.82873
# Velocity P-wave (km/s) = 10.38804 5.01423 8.15641
#
# Compressibility (1/GPa) = 0.00535995
#
# Stress axis : x y z
#
# Youngs Moduli (GPa) = 40.86912 -25.14375 98.41554
#
# Poissons Ratio (x) = 0.10883 -0.17012
# Poissons Ratio (y) = -0.17689 0.07930
# Poissons Ratio (z) = -0.07065 -0.02026
#
# Static dielectric constant tensor:
#      x y z
#    x 1.926260 0.000000 -0.016540 
#    y 0.000000 1.732180 0.000000 
#    z -0.016540 0.000000 1.779130 
# 
# From -- ./inp_files/221546.got.cif
#   From: 2010.05.17/outbox.cif.g08.bks.cpg/sg12_111_cif.got.tgz:221546.got - 2010.06.03 13:09:07.
