data_PCOD9195133
_publ_section_title
;
Structure prediction by ZEFSAII (Michael W. Deem and Ramdas Pophale) SiO2 
 PCOD9195133
Probable space group: C 2/M
;
_chemical_formula_sum "Si O2"
_cell_formula_units_Z 58
_cell_length_a 23.765650
_cell_length_b 14.256938
_cell_length_c 12.131640
_cell_angle_alpha 90.000000
_cell_angle_beta 127.294461
_cell_angle_gamma 90.000000
_cell_volume 3270.040706
_symmetry_space_group_name_H-M "C 2/M"
_symmetry_group_IT_number 12
_symmetry_cell_setting 'monoclinic'
loop_
_space_group_symop_operation_xyz
x,y,z
-x,y,-z
-x,-y,-z
x,-y,z
1/2+x,1/2+y,z
1/2-x,1/2+y,-z
1/2-x,1/2-y,-z
1/2+x,1/2-y,z
loop_
_atom_site_type_symbol
_atom_site_label
_atom_site_fract_x
_atom_site_fract_y
_atom_site_fract_z
Si Si1 0.700588 0.246664 0.333789
Si Si2 0.500000 0.500000 0.000000
Si Si3 0.705308 0.608572 0.946295
Si Si4 0.777224 0.390978 0.266211
Si Si5 0.422260 0.892217 0.358762
Si Si6 0.687492 0.888530 0.125676
Si Si7 0.411770 0.761342 0.136801
Si Si8 0.960540 0.805360 0.847088
O O1 0.750000 0.250000 0.500000
O O2 0.729027 0.325657 0.283072
O O3 0.704763 0.150820 0.267423
O O4 0.618633 0.268775 0.262431
O O5 0.537186 0.415612 0.118815
O O6 0.682012 0.500000 0.917483
O O7 0.748134 0.627516 0.884923
O O8 0.641201 0.677802 0.893395
O O9 0.756609 0.619761 0.112911
O O10 0.766490 0.500000 0.282839
O O11 0.860128 0.366371 0.370524
O O12 0.500000 0.888345 0.500000
O O13 0.419406 0.827402 0.250225
O O14 0.406470 0.000000 0.307706
O O15 0.672268 0.000000 0.106944
O O16 0.624689 0.824357 0.001763
O O17 0.486288 0.718635 0.188179
O O18 0.000000 0.759544 0.000000
#
# Coordination Sequence:
#
# PCOD9195133 Si02
#       8
#     8   2   8   8   8   8   8   8
#     4  12  26  41  58  85 128 166 208 248 303 365
#     4   8  20  40  64  84 116 148 212 268 284 338
#     4  10  20  34  65  96 115 142 191 253 311 354
#     4  10  20  37  64  89 110 149 202 248 300 355
#     4  10  22  38  58  88 119 152 191 243 305 365
#     4  11  21  39  60  90 121 155 197 247 305 361
#     4  12  20  36  63  87 120 151 196 248 304 357
#     4  10  22  39  62  87 114 155 210 247 301 347
#
# _framework density 17.736782000000002
#
# number of rings (size 3 to 8) (size 9 to 14) (size 15 to 20)
#    0.414    0.966    4.138    1.655    3.862    0.552 
#    0.000    2.069    0.000    0.414    0.000    0.000 
#    0.000    0.000    0.000    0.000    0.000    0.000 
#
# Total GULP energy -161499.632470 kJ/mol
# GULP energy per Si atom -5568.952844 kJ/mol
# Density = 1.769641 g / cm^3
# Si number density = 17.736782 Si / 1000 Ang^3
#
#
#
# Elastic Constant Matrix: (Units=GPa)
#
#
# Indices 1 2 3 4 5 6 
#
# 1 125.3465 61.9082 44.0264 0.0000 23.0745 0.0000
# 2 61.9082 90.1287 45.5396 0.0000 5.4954 0.0000
# 3 44.0264 45.5396 82.3667 0.0000 9.1235 0.0000
# 4 0.0000 0.0000 0.0000 16.6652 0.0000 3.6451
# 5 23.0745 5.4954 9.1235 0.0000 26.9391 0.0000
# 6 0.0000 0.0000 0.0000 3.6451 0.0000 15.3926
#
#
#
# Elastic Compliance Matrix: (Units=1/GPa)
#
#
# Indices 1 2 3 4 5 6 
#
# 1 0.014776 -0.008475 -0.002080 0.000000 -0.010223 0.000000
# 2 -0.008475 0.020260 -0.007291 0.000000 0.005596 0.000000
# 3 -0.002080 -0.007291 0.017581 0.000000 -0.002685 0.000000
# 4 0.000000 0.000000 0.000000 0.063283 0.000000 -0.014986
# 5 -0.010223 0.005596 -0.002685 0.000000 0.045645 0.000000
# 6 0.000000 0.000000 0.000000 -0.014986 0.000000 0.068515
#
#
# Mechanical properties :
#
#
# Convention : Reuss Voigt Hill
#
# Bulk Modulus (GPa) = 59.08535 66.75446 62.91991
# Shear Modulus (GPa) = 18.42337 21.55723 19.99030
#
# Velocity S-wave (km/s) = 3.22640 3.49004 3.36080
# Velocity P-wave (km/s) = 6.87489 7.34564 7.11416
#
# Compressibility (1/GPa) = 0.01692467
#
# Stress axis : x y z
#
# Youngs Moduli (GPa) = 67.67570 49.35928 56.87949
#
# Poissons Ratio (x) = 0.41834 0.11830
# Poissons Ratio (y) = 0.57358 0.41470
# Poissons Ratio (z) = 0.14075 0.35987
#
# Static dielectric constant tensor:
#      x y z
#    x 1.629820 0.000000 0.003700 
#    y 0.000000 1.606360 0.000000 
#    z 0.003700 0.000000 1.614470 
# 
# From -- ./inp_files/167353.got.cif
#   From: 2010.05.17/outbox.cif.g08.bks.cpg/sg12_84_cif.got.tgz:167353.got - 2010.06.03 13:09:07.
