data_PCOD9195191
_publ_section_title
;
Structure prediction by ZEFSAII (Michael W. Deem and Ramdas Pophale) SiO2 
 PCOD9195191
Probable space group: C 2/M
;
_chemical_formula_sum "Si O2"
_cell_formula_units_Z 64
_cell_length_a 23.669420
_cell_length_b 9.322116
_cell_length_c 18.393362
_cell_angle_alpha 90.000000
_cell_angle_beta 89.902254
_cell_angle_gamma 90.000000
_cell_volume 4058.472477
_symmetry_space_group_name_H-M "C 2/M"
_symmetry_group_IT_number 12
_symmetry_cell_setting 'monoclinic'
loop_
_space_group_symop_operation_xyz
x,y,z
-x,y,-z
-x,-y,-z
x,-y,z
1/2+x,1/2+y,z
1/2-x,1/2+y,-z
1/2-x,1/2-y,-z
1/2+x,1/2-y,z
loop_
_atom_site_type_symbol
_atom_site_label
_atom_site_fract_x
_atom_site_fract_y
_atom_site_fract_z
Si Si1 0.181285 0.334868 0.428371
Si Si2 0.377268 0.829103 0.131200
Si Si3 0.885780 0.828939 0.862188
Si Si4 0.495889 0.171074 0.915120
Si Si5 0.190211 0.828694 0.995424
Si Si6 0.318802 0.664944 0.428281
Si Si7 0.816880 0.171789 0.718712
Si Si8 0.816221 0.329585 0.282213
O O1 0.162863 0.500000 0.428520
O O2 0.250039 0.334428 0.429937
O O3 0.162124 0.251563 0.500579
O O4 0.165508 0.253489 0.354451
O O5 0.443840 0.801267 0.122422
O O6 0.344283 0.737561 0.071481
O O7 0.352766 0.797377 0.210909
O O8 0.368091 0.000000 0.117414
O O9 0.944375 0.749567 0.876417
O O10 0.853965 0.786438 0.788191
O O11 0.895369 0.000000 0.859197
O O12 0.844878 0.801177 0.930773
O O13 0.485675 0.000000 0.914464
O O14 0.500000 0.215739 0.000000
O O15 0.197273 0.000000 0.987668
O O16 0.250000 0.750000 0.000000
O O17 0.337246 0.500000 0.430439
O O18 0.334571 0.742375 0.353227
O O19 0.750212 0.201559 0.732530
O O20 0.821703 0.000000 0.708009
O O21 0.820187 0.500000 0.297324
#
# Coordination Sequence:
#
# PCOD9195191 Si02
#       8
#     8   8   8   8   8   8   8   8
#     4   9  16  26  42  66  95 128 162 192 230 282
#     4  10  20  35  52  71  97 129 165 205 250 293
#     4  10  21  35  51  71  96 128 166 205 248 295
#     4  10  20  35  54  73  94 124 165 212 254 291
#     4  11  22  34  50  72  98 129 163 199 244 297
#     4   9  16  26  42  66  97 129 161 194 230 279
#     4   9  17  30  46  67  96 128 160 197 241 287
#     4   9  17  30  48  68  97 131 161 197 240 289
#
# _framework density 15.76948
#
# number of rings (size 3 to 8) (size 9 to 14) (size 15 to 20)
#    0.000    2.375    1.250    1.875    0.000    7.250 
#    0.000    2.500    0.000    0.000    0.000    0.875 
#    0.000    7.000    0.000    0.000    0.000    0.000 
#
# Total GULP energy -178462.302434 kJ/mol
# GULP energy per Si atom -5576.946951 kJ/mol
# Density = 1.573359 g / cm^3
# Si number density = 15.769480 Si / 1000 Ang^3
#
#
#
# Elastic Constant Matrix: (Units=GPa)
#
#
# Indices 1 2 3 4 5 6 
#
# 1 85.8556 56.1994 69.9601 0.0000 1.1598 0.0000
# 2 56.1994 77.4733 88.1098 0.0000 -0.0115 0.0000
# 3 69.9601 88.1098 172.0538 0.0000 1.2346 0.0000
# 4 0.0000 0.0000 0.0000 30.8486 0.0000 3.8615
# 5 1.1598 -0.0115 1.2346 0.0000 1.8547 0.0000
# 6 0.0000 0.0000 0.0000 3.8615 0.0000 22.5292
#
#
#
# Elastic Compliance Matrix: (Units=1/GPa)
#
#
# Indices 1 2 3 4 5 6 
#
# 1 0.022746 -0.014586 -0.001685 0.000000 -0.013192 0.000000
# 2 -0.014586 0.040480 -0.014938 0.000000 0.019315 0.000000
# 3 -0.001685 -0.014938 0.014208 0.000000 -0.008497 0.000000
# 4 0.000000 0.000000 0.000000 0.033127 0.000000 -0.005678
# 5 -0.013192 0.019315 -0.008497 0.000000 0.553190 0.000000
# 6 0.000000 0.000000 0.000000 -0.005678 0.000000 0.045360
#
#
# Mechanical properties :
#
#
# Convention : Reuss Voigt Hill
#
# Bulk Modulus (GPa) = 66.59147 84.88011 75.73579
# Shear Modulus (GPa) = 6.43887 19.12073 12.77980
#
# Velocity S-wave (km/s) = 2.02287 3.48590 2.84986
# Velocity P-wave (km/s) = 6.91200 8.37522 7.67854
#
# Compressibility (1/GPa) = 0.01501694
#
# Stress axis : x y z
#
# Youngs Moduli (GPa) = 43.96323 24.70369 70.38421
#
# Poissons Ratio (x) = 0.36033 0.11857
# Poissons Ratio (y) = 0.64126 1.05137
# Poissons Ratio (z) = 0.07406 0.36901
#
# Static dielectric constant tensor:
#      x y z
#    x 1.494590 0.000000 -0.005270 
#    y 0.000000 1.528910 0.000000 
#    z -0.005270 0.000000 1.512590 
# 
# From -- ./inp_files/281312.got.cif
#   From: 2010.05.17/outbox.cif.g08.bks.cpg/sg12_141_cif.got.tgz:281312.got - 2010.06.03 13:09:07.
