data_PCOD9195676
_publ_section_title
;
Structure prediction by ZEFSAII (Michael W. Deem and Ramdas Pophale) SiO2 
 PCOD9195676
Probable space group: C 2/M
;
_chemical_formula_sum "Si O2"
_cell_formula_units_Z 64
_cell_length_a 8.652718
_cell_length_b 28.617872
_cell_length_c 14.329032
_cell_angle_alpha 90.000000
_cell_angle_beta 112.774919
_cell_angle_gamma 90.000000
_cell_volume 3271.546228
_symmetry_space_group_name_H-M "C 2/M"
_symmetry_group_IT_number 12
_symmetry_cell_setting 'monoclinic'
loop_
_space_group_symop_operation_xyz
x,y,z
-x,y,-z
-x,-y,-z
x,-y,z
1/2+x,1/2+y,z
1/2-x,1/2+y,-z
1/2-x,1/2-y,-z
1/2+x,1/2-y,z
loop_
_atom_site_type_symbol
_atom_site_label
_atom_site_fract_x
_atom_site_fract_y
_atom_site_fract_z
Si Si1 0.017385 0.865884 0.220207
Si Si2 0.729613 0.888656 0.879584
Si Si3 0.383406 0.789145 0.063084
Si Si4 0.541112 0.737693 0.273367
Si Si5 0.693237 0.095651 0.065791
Si Si6 0.407546 0.052378 0.772779
Si Si7 0.841002 0.790911 0.396008
Si Si8 0.106199 0.101598 0.614499
O O1 0.130186 0.889113 0.166728
O O2 0.090744 0.814044 0.251106
O O3 0.823410 0.866744 0.139226
O O4 0.006342 0.891008 0.318312
O O5 0.702127 0.836307 0.915667
O O6 0.556058 0.909792 0.800481
O O7 0.765865 0.918193 0.982236
O O8 0.491586 0.768671 0.173913
O O9 0.500000 0.796277 0.000000
O O10 0.250000 0.750000 0.000000
O O11 0.672260 0.762749 0.372820
O O12 0.383342 0.726696 0.301852
O O13 0.669966 0.057602 0.141043
O O14 0.500000 0.109313 0.000000
O O15 0.256047 0.066590 0.670553
O O16 0.468208 0.000000 0.771654
O O17 0.818879 0.846619 0.387751
O O18 0.000000 0.782658 0.500000
O O19 0.000000 0.087884 0.500000
#
# Coordination Sequence:
#
# PCOD9195676 Si02
#       8
#     8   8   8   8   8   8   8   8
#     4  10  20  36  56  84 114 149 191 234 287 342
#     4  11  21  35  55  83 120 153 184 235 289 341
#     4  12  23  35  53  82 117 158 200 233 279 342
#     4  11  21  34  51  76 112 148 188 234 274 327
#     4   9  19  35  57  80 109 147 186 229 274 329
#     4  10  21  38  61  86 111 146 191 234 289 355
#     4  10  20  35  55  79 107 143 188 235 287 337
#     4   9  20  39  61  82 108 146 192 242 291 344
#
# _framework density 19.562615000000001
#
# number of rings (size 3 to 8) (size 9 to 14) (size 15 to 20)
#    0.000    1.750    0.000    5.625    0.000    5.500 
#    0.000    3.125    0.000    6.750    0.000    0.000 
#    0.000    0.000    0.000    0.000    0.000    0.000 
#
# Total GULP energy -178396.608326 kJ/mol
# GULP energy per Si atom -5574.894010 kJ/mol
# Density = 1.951809 g / cm^3
# Si number density = 19.562615 Si / 1000 Ang^3
#
#
#
# Elastic Constant Matrix: (Units=GPa)
#
#
# Indices 1 2 3 4 5 6 
#
# 1 64.4418 27.9482 35.0630 0.0000 -3.9322 0.0000
# 2 27.9482 65.3589 29.6449 0.0000 16.0915 0.0000
# 3 35.0630 29.6449 122.7188 0.0000 4.7524 0.0000
# 4 0.0000 0.0000 0.0000 10.1476 0.0000 1.1185
# 5 -3.9322 16.0915 4.7524 0.0000 28.6797 0.0000
# 6 0.0000 0.0000 0.0000 1.1185 0.0000 13.1092
#
#
#
# Elastic Compliance Matrix: (Units=1/GPa)
#
#
# Indices 1 2 3 4 5 6 
#
# 1 0.022931 -0.010132 -0.004475 0.000000 0.009570 0.000000
# 2 -0.010132 0.024333 -0.002416 0.000000 -0.014642 0.000000
# 3 -0.004475 -0.002416 0.010047 0.000000 -0.000923 0.000000
# 4 0.000000 0.000000 0.000000 0.099481 0.000000 -0.008488
# 5 0.009570 -0.014642 -0.000923 0.000000 0.044548 0.000000
# 6 0.000000 0.000000 0.000000 -0.008488 0.000000 0.077006
#
#
# Mechanical properties :
#
#
# Convention : Reuss Voigt Hill
#
# Bulk Modulus (GPa) = 42.98351 48.64795 45.81573
# Shear Modulus (GPa) = 15.61782 21.04488 18.33135
#
# Velocity S-wave (km/s) = 2.82857 3.28345 3.06447
# Velocity P-wave (km/s) = 5.71732 6.26870 5.99935
#
# Compressibility (1/GPa) = 0.02326474
#
# Stress axis : x y z
#
# Youngs Moduli (GPa) = 43.60935 41.09569 99.53556
#
# Poissons Ratio (x) = 0.41638 0.44540
# Poissons Ratio (y) = 0.44185 0.24050
# Poissons Ratio (z) = 0.19514 0.09930
#
# Static dielectric constant tensor:
#      x y z
#    x 1.766030 0.000000 -0.012620 
#    y 0.000000 1.724100 0.000000 
#    z -0.012620 0.000000 1.709840 
# 
# From -- ./inp_files/200963.got.cif
#   From: 2010.05.17/outbox.cif.g08.bks.cpg/sg12_101_cif.got.tgz:200963.got - 2010.06.03 13:09:07.
