data_PCOD9195743
_publ_section_title
;
Structure prediction by ZEFSAII (Michael W. Deem and Ramdas Pophale) SiO2 
 PCOD9195743
Probable space group: C 2/M
;
_chemical_formula_sum "Si O2"
_cell_formula_units_Z 48
_cell_length_a 17.548226
_cell_length_b 13.528391
_cell_length_c 9.750021
_cell_angle_alpha 90.000000
_cell_angle_beta 112.590834
_cell_angle_gamma 90.000000
_cell_volume 2137.048768
_symmetry_space_group_name_H-M "C 2/M"
_symmetry_group_IT_number 12
_symmetry_cell_setting 'monoclinic'
loop_
_space_group_symop_operation_xyz
x,y,z
-x,y,-z
-x,-y,-z
x,-y,z
1/2+x,1/2+y,z
1/2-x,1/2+y,-z
1/2-x,1/2-y,-z
1/2+x,1/2-y,z
loop_
_atom_site_type_symbol
_atom_site_label
_atom_site_fract_x
_atom_site_fract_y
_atom_site_fract_z
Si Si1 0.925187 0.805272 0.258237
Si Si2 0.602052 0.383708 0.479008
Si Si3 0.778604 0.813111 0.676274
Si Si4 0.518466 0.113054 0.849043
Si Si5 0.593412 0.611882 0.032241
Si Si6 0.664095 0.887905 0.401556
O O1 0.878215 0.826386 0.366609
O O2 0.897018 0.880830 0.122808
O O3 0.018383 0.835778 0.362403
O O4 0.926622 0.698276 0.184569
O O5 0.591189 0.500000 0.499002
O O6 0.666262 0.367782 0.402186
O O7 0.689559 0.858582 0.575341
O O8 0.792128 0.697737 0.655332
O O9 0.827908 0.835547 0.847513
O O10 0.431816 0.117636 0.705913
O O11 0.550526 0.000000 0.859209
O O12 0.500000 0.128761 0.000000
O O13 0.593322 0.500000 0.084415
O O14 0.500000 0.651037 0.000000
O O15 0.690429 0.000000 0.390458
#
# Coordination Sequence:
#
# PCOD9195743 Si02
#       6
#     8   8   8   8   8   8
#     4  11  20  33  52  81 113 145 177 224 275 330
#     4  11  21  34  51  81 118 150 179 221 277 338
#     4  11  21  35  56  82 111 145 185 230 277 332
#     4  10  20  37  60  84 109 142 190 241 280 321
#     4  11  19  30  51  79 109 141 181 227 271 321
#     4  10  20  35  55  80 108 143 185 232 281 328
#
# _framework density 22.460882000000002
#
# number of rings (size 3 to 8) (size 9 to 14) (size 15 to 20)
#    0.000    1.333    3.333    5.000    0.000    0.000 
#    0.000    2.500    0.000    9.000    0.000    9.333 
#    0.000    0.000    0.000    0.000    0.000    0.000 
#
# Total GULP energy -133910.732175 kJ/mol
# GULP energy per Si atom -5579.613841 kJ/mol
# Density = 2.240976 g / cm^3
# Si number density = 22.460882 Si / 1000 Ang^3
#
#
#
# Elastic Constant Matrix: (Units=GPa)
#
#
# Indices 1 2 3 4 5 6 
#
# 1 21.4379 4.8103 6.6112 0.0000 -4.3071 0.0000
# 2 4.8103 184.1909 20.6266 0.0000 -7.3933 0.0000
# 3 6.6112 20.6266 144.6402 0.0000 5.8375 0.0000
# 4 0.0000 0.0000 0.0000 31.0880 0.0000 5.2161
# 5 -4.3071 -7.3933 5.8375 0.0000 35.8167 0.0000
# 6 0.0000 0.0000 0.0000 5.2161 0.0000 8.6704
#
#
#
# Elastic Compliance Matrix: (Units=1/GPa)
#
#
# Indices 1 2 3 4 5 6 
#
# 1 0.048772 -0.000764 -0.002366 0.000000 0.006093 0.000000
# 2 -0.000764 0.005588 -0.000810 0.000000 0.001194 0.000000
# 3 -0.002366 -0.000810 0.007203 0.000000 -0.001626 0.000000
# 4 0.000000 0.000000 0.000000 0.035778 0.000000 -0.021524
# 5 0.006093 0.001194 -0.001626 0.000000 0.029164 0.000000
# 6 0.000000 0.000000 0.000000 -0.021524 0.000000 0.128284
#
#
# Mechanical properties :
#
#
# Convention : Reuss Voigt Hill
#
# Bulk Modulus (GPa) = 18.62842 46.04058 32.33450
# Shear Modulus (GPa) = 17.82128 36.32973 27.07551
#
# Velocity S-wave (km/s) = 2.81986 4.02614 3.47573
# Velocity P-wave (km/s) = 4.34900 6.49274 5.52583
#
# Compressibility (1/GPa) = 0.05368142
#
# Stress axis : x y z
#
# Youngs Moduli (GPa) = 20.50376 178.96340 138.83109
#
# Poissons Ratio (x) = 0.13676 0.32850
# Poissons Ratio (y) = 0.01567 0.11247
# Poissons Ratio (z) = 0.04852 0.14498
#
# Static dielectric constant tensor:
#      x y z
#    x 1.971600 0.000000 0.048760 
#    y 0.000000 1.850990 0.000000 
#    z 0.048760 0.000000 1.846780 
# 
# From -- ./inp_files/85964.got.cif
#   From: 2010.05.17/outbox.cif.g08.bks.cpg/sg12_43_cif.got.tgz:85964.got - 2010.06.03 13:09:07.
