data_PCOD9195599
_publ_section_title
;
Structure prediction by ZEFSAII (Michael W. Deem and Ramdas Pophale) SiO2 
 PCOD9195599
Probable space group: C 2/M
;
_chemical_formula_sum "Si O2"
_cell_formula_units_Z 64
_cell_length_a 8.923686
_cell_length_b 22.806069
_cell_length_c 15.832605
_cell_angle_alpha 90.000000
_cell_angle_beta 94.420052
_cell_angle_gamma 90.000000
_cell_volume 3212.576705
_symmetry_space_group_name_H-M "C 2/M"
_symmetry_group_IT_number 12
_symmetry_cell_setting 'monoclinic'
loop_
_space_group_symop_operation_xyz
x,y,z
-x,y,-z
-x,-y,-z
x,-y,z
1/2+x,1/2+y,z
1/2-x,1/2+y,-z
1/2-x,1/2-y,-z
1/2+x,1/2-y,z
loop_
_atom_site_type_symbol
_atom_site_label
_atom_site_fract_x
_atom_site_fract_y
_atom_site_fract_z
Si Si1 0.234642 0.934438 0.656602
Si Si2 0.332721 0.432282 0.529755
Si Si3 0.470830 0.818979 0.097796
Si Si4 0.285118 0.266021 0.811275
Si Si5 0.522295 0.066194 0.791764
Si Si6 0.275162 0.135708 0.313542
Si Si7 0.361743 0.688904 0.334776
Si Si8 0.459059 0.209240 0.594065
O O1 0.271051 0.927181 0.558486
O O2 0.380811 0.931266 0.721420
O O3 0.127415 0.880623 0.675781
O O4 0.168612 0.000000 0.662215
O O5 0.500000 0.421788 0.500000
O O6 0.324639 0.500000 0.557908
O O7 0.289885 0.389382 0.602901
O O8 0.580852 0.772599 0.147661
O O9 0.305998 0.796783 0.117458
O O10 0.495466 0.882949 0.139879
O O11 0.500000 0.819660 0.000000
O O12 0.320807 0.318287 0.746230
O O13 0.180540 0.220977 0.754059
O O14 0.669156 0.083237 0.743884
O O15 0.531015 0.000000 0.825480
O O16 0.428030 0.171533 0.342964
O O17 0.494004 0.723503 0.386662
O O18 0.211835 0.699049 0.386328
O O19 0.500000 0.195211 0.500000
#
# Coordination Sequence:
#
# PCOD9195599 Si02
#       8
#     8   8   8   8   8   8   8   8
#     4  10  20  35  55  77 110 154 193 234 276 319
#     4  10  22  36  50  77 115 156 205 244 272 315
#     4  11  22  40  64  90 115 141 179 232 291 355
#     4  10  21  38  57  87 116 146 182 224 287 351
#     4  10  20  37  59  84 113 146 188 232 285 338
#     4  10  20  35  57  79 113 152 194 231 280 327
#     4  11  20  37  54  77 113 146 189 233 280 333
#     4  11  22  33  50  80 112 152 194 237 278 319
#
# _framework density 19.921702
#
# number of rings (size 3 to 8) (size 9 to 14) (size 15 to 20)
#    0.000    1.625    2.500    3.375    0.000    4.750 
#    0.000    1.875    0.000    0.000    0.000    0.000 
#    0.000    8.250    0.000    0.000    0.000    0.000 
#
# Total GULP energy -178842.717911 kJ/mol
# GULP energy per Si atom -5588.834935 kJ/mol
# Density = 1.987636 g / cm^3
# Si number density = 19.921702 Si / 1000 Ang^3
#
#
#
# Elastic Constant Matrix: (Units=GPa)
#
#
# Indices 1 2 3 4 5 6 
#
# 1 38.6247 29.1089 15.3776 0.0000 -7.7590 0.0000
# 2 29.1089 166.6147 39.5424 0.0000 -10.1372 0.0000
# 3 15.3776 39.5424 100.7757 0.0000 -21.0606 0.0000
# 4 0.0000 0.0000 0.0000 18.1607 0.0000 0.9873
# 5 -7.7590 -10.1372 -21.0606 0.0000 26.2720 0.0000
# 6 0.0000 0.0000 0.0000 0.9873 0.0000 25.4378
#
#
#
# Elastic Compliance Matrix: (Units=1/GPa)
#
#
# Indices 1 2 3 4 5 6 
#
# 1 0.031324 -0.004708 -0.001656 0.000000 0.006107 0.000000
# 2 -0.004708 0.007333 -0.002232 0.000000 -0.000350 0.000000
# 3 -0.001656 -0.002232 0.012937 0.000000 0.009020 0.000000
# 4 0.000000 0.000000 0.000000 0.055181 0.000000 -0.002142
# 5 0.006107 -0.000350 0.009020 0.000000 0.046963 0.000000
# 6 0.000000 0.000000 0.000000 -0.002142 0.000000 0.039395
#
#
# Mechanical properties :
#
#
# Convention : Reuss Voigt Hill
#
# Bulk Modulus (GPa) = 29.06875 52.67476 40.87176
# Shear Modulus (GPa) = 22.54369 28.77316 25.65842
#
# Velocity S-wave (km/s) = 3.36760 3.80453 3.59271
# Velocity P-wave (km/s) = 5.45382 6.76739 6.14580
#
# Compressibility (1/GPa) = 0.03440120
#
# Stress axis : x y z
#
# Youngs Moduli (GPa) = 31.92390 136.37334 77.29974
#
# Poissons Ratio (x) = 0.64204 0.12803
# Poissons Ratio (y) = 0.15030 0.17254
# Poissons Ratio (z) = 0.05288 0.30439
#
# Static dielectric constant tensor:
#      x y z
#    x 1.745250 0.000000 0.000890 
#    y 0.000000 1.747740 0.000000 
#    z 0.000890 0.000000 1.676800 
# 
# From -- ./inp_files/198874.got.cif
#   From: 2010.05.17/outbox.cif.g08.bks.cpg/sg12_100_cif.got.tgz:198874.got - 2010.06.03 13:09:07.
