data_PCOD9195222
_publ_section_title
;
Structure prediction by ZEFSAII (Michael W. Deem and Ramdas Pophale) SiO2 
 PCOD9195222
Probable space group: C 2/M
;
_chemical_formula_sum "Si O2"
_cell_formula_units_Z 50
_cell_length_a 28.510591
_cell_length_b 7.636493
_cell_length_c 12.802381
_cell_angle_alpha 90.000000
_cell_angle_beta 70.568519
_cell_angle_gamma 90.000000
_cell_volume 2628.579065
_symmetry_space_group_name_H-M "C 2/M"
_symmetry_group_IT_number 12
_symmetry_cell_setting 'monoclinic'
loop_
_space_group_symop_operation_xyz
x,y,z
-x,y,-z
-x,-y,-z
x,-y,z
1/2+x,1/2+y,z
1/2-x,1/2+y,-z
1/2-x,1/2-y,-z
1/2+x,1/2-y,z
loop_
_atom_site_type_symbol
_atom_site_label
_atom_site_fract_x
_atom_site_fract_y
_atom_site_fract_z
Si Si1 0.889206 0.291724 0.059132
Si Si2 0.961910 0.287492 0.822057
Si Si3 0.692181 0.707380 0.040822
Si Si4 0.923279 0.288270 0.255169
Si Si5 0.378384 0.705334 0.723985
Si Si6 0.500000 0.500000 0.500000
Si Si7 0.578267 0.799249 0.514921
O O1 0.896808 0.500000 0.057798
O O2 0.836446 0.263413 0.042658
O O3 0.896763 0.221375 0.170151
O O4 0.930985 0.226050 0.946452
O O5 0.960800 0.500000 0.819578
O O6 0.931610 0.222008 0.743868
O O7 0.018926 0.230914 0.784732
O O8 0.686474 0.500000 0.050663
O O9 0.750000 0.750000 0.000000
O O10 0.661601 0.778912 0.163643
O O11 0.924091 0.500000 0.245866
O O12 0.901101 0.251865 0.385538
O O13 0.368970 0.500000 0.713860
O O14 0.382718 0.793900 0.608910
O O15 0.537635 0.654700 0.516419
O O16 0.558184 0.000000 0.536333
#
# Coordination Sequence:
#
# PCOD9195222 Si02
#       7
#     8   8   8   8   8   2   8
#     4   9  17  32  53  77 108 142 178 226 279 331
#     4   9  16  28  49  74 104 145 186 223 266 320
#     4  10  21  37  59  85 108 134 176 233 293 349
#     4   9  18  31  49  76 109 148 191 223 261 326
#     4  10  20  35  52  77 112 143 184 239 283 327
#     4  12  22  36  52  78 114 156 206 240 268 312
#     4  11  22  35  53  78 112 157 198 236 277 323
#
# _framework density 19.021682999999999
#
# number of rings (size 3 to 8) (size 9 to 14) (size 15 to 20)
#    0.000    2.240    0.800    2.640    0.000    5.120 
#    1.440    0.000    0.000    4.800    0.000    0.000 
#    0.000    0.000    0.000    0.000    0.000    0.000 
#
# Total GULP energy -139202.366908 kJ/mol
# GULP energy per Si atom -5568.094676 kJ/mol
# Density = 1.897839 g / cm^3
# Si number density = 19.021683 Si / 1000 Ang^3
#
#
#
# Elastic Constant Matrix: (Units=GPa)
#
#
# Indices 1 2 3 4 5 6 
#
# 1 84.3846 -10.6262 81.1379 0.0000 7.5373 0.0000
# 2 -10.6262 68.4189 12.4019 0.0000 4.4699 0.0000
# 3 81.1379 12.4019 164.1990 0.0000 33.2288 0.0000
# 4 0.0000 0.0000 0.0000 -8.9559 0.0000 -20.5305
# 5 7.5373 4.4699 33.2288 0.0000 18.3773 0.0000
# 6 0.0000 0.0000 0.0000 -20.5305 0.0000 0.8539
#
#
#
# Elastic Compliance Matrix: (Units=1/GPa)
#
#
# Indices 1 2 3 4 5 6 
#
# 1 0.029367 0.006674 -0.019318 0.000000 0.021263 0.000000
# 2 0.006674 0.016408 -0.005008 0.000000 0.002327 0.000000
# 3 -0.019318 -0.005008 0.022339 0.000000 -0.031250 0.000000
# 4 0.000000 0.000000 0.000000 -0.001990 0.000000 -0.047840
# 5 0.021263 0.002327 -0.031250 0.000000 0.101633 0.000000
# 6 0.000000 0.000000 0.000000 -0.047840 0.000000 0.020869
#
#
# Mechanical properties :
#
#
# Convention : Reuss Voigt Hill
#
# Bulk Modulus (GPa) = 30.48049 53.64774 42.06412
# Shear Modulus (GPa) = 21.28863 17.66097 19.47480
#
# Velocity S-wave (km/s) = 3.34904 3.05038 3.20319
# Velocity P-wave (km/s) = 5.56899 6.37739 5.98685
#
# Compressibility (1/GPa) = 0.03280787
#
# Stress axis : x y z
#
# Youngs Moduli (GPa) = 34.05207 60.94573 44.76568
#
# Poissons Ratio (x) = -0.40673 0.86480
# Poissons Ratio (y) = -0.22725 0.22418
# Poissons Ratio (z) = 0.65783 0.30521
#
# Static dielectric constant tensor:
#      x y z
#    x 1.594340 0.000000 0.004740 
#    y 0.000000 1.704380 0.000000 
#    z 0.004740 0.000000 1.736140 
# 
# From -- ./inp_files/179835.got.cif
#   From: 2010.05.17/outbox.cif.g08.bks.cpg/sg12_90_cif.got.tgz:179835.got - 2010.06.03 13:09:07.
