data_PCOD9195818
_publ_section_title
;
Structure prediction by ZEFSAII (Michael W. Deem and Ramdas Pophale) SiO2 
 PCOD9195818
Probable space group: C 2/M
;
_chemical_formula_sum "Si O2"
_cell_formula_units_Z 56
_cell_length_a 13.927727
_cell_length_b 16.779131
_cell_length_c 24.314423
_cell_angle_alpha 90.000000
_cell_angle_beta 150.706768
_cell_angle_gamma 90.000000
_cell_volume 2780.165446
_symmetry_space_group_name_H-M "C 2/M"
_symmetry_group_IT_number 12
_symmetry_cell_setting 'monoclinic'
loop_
_space_group_symop_operation_xyz
x,y,z
-x,y,-z
-x,-y,-z
x,-y,z
1/2+x,1/2+y,z
1/2-x,1/2+y,-z
1/2-x,1/2-y,-z
1/2+x,1/2-y,z
loop_
_atom_site_type_symbol
_atom_site_label
_atom_site_fract_x
_atom_site_fract_y
_atom_site_fract_z
Si Si1 0.006282 0.224948 0.596466
Si Si2 0.030006 0.590494 0.607330
Si Si3 0.964248 0.904081 0.070836
Si Si4 0.318047 0.095515 0.166757
Si Si5 0.062487 0.871281 0.241552
Si Si6 0.682854 0.204046 0.343557
Si Si7 0.568646 0.584524 0.359103
O O1 0.039273 0.316272 0.632675
O O2 0.808615 0.221345 0.461041
O O3 0.168314 0.195603 0.633258
O O4 0.998889 0.160517 0.640590
O O5 0.051531 0.500000 0.644893
O O6 0.806860 0.588421 0.474072
O O7 0.216467 0.595693 0.659806
O O8 0.790605 0.877269 0.943669
O O9 0.960412 0.875546 0.131474
O O10 0.957860 0.000000 0.069575
O O11 0.168902 0.883848 0.142099
O O12 0.531289 0.133331 0.277710
O O13 0.329815 0.000000 0.170401
O O14 0.068220 0.782159 0.267205
O O15 0.983094 0.916104 0.255022
O O16 0.521678 0.500000 0.363721
#
# Coordination Sequence:
#
# PCOD9195818 Si02
#       7
#     8   8   8   8   8   8   8
#     4  10  22  39  52  83 122 157 195 235 272 341
#     4  10  20  35  55  81 115 153 189 236 290 338
#     4   9  19  37  61  89 113 136 185 248 298 341
#     4   9  20  39  62  85 110 146 190 241 295 344
#     4  11  21  34  55  86 117 145 186 236 293 347
#     4  10  22  37  57  78 114 157 191 234 283 332
#     4  11  22  34  54  81 116 158 192 229 282 341
#
# _framework density 20.142686000000001
#
# number of rings (size 3 to 8) (size 9 to 14) (size 15 to 20)
#    0.000    2.000    1.429    3.000    2.000    4.000 
#    0.000    1.429    0.000    0.857    0.000    3.000 
#    0.000    0.000    0.000   18.000    0.000    0.000 
#
# Total GULP energy -155993.477891 kJ/mol
# GULP energy per Si atom -5571.195639 kJ/mol
# Density = 2.009684 g / cm^3
# Si number density = 20.142686 Si / 1000 Ang^3
#
#
#
# Elastic Constant Matrix: (Units=GPa)
#
#
# Indices 1 2 3 4 5 6 
#
# 1 88.0444 52.6076 34.5915 0.0004 -31.5731 0.0001
# 2 52.6076 128.5543 42.6862 0.0008 -14.5544 0.0002
# 3 34.5915 42.6862 69.9729 0.0001 -17.5533 -0.0002
# 4 0.0004 0.0008 0.0001 25.8382 -0.0001 1.7321
# 5 -31.5731 -14.5544 -17.5533 -0.0001 36.2344 -0.0002
# 6 0.0001 0.0002 -0.0002 1.7321 -0.0002 14.9201
#
#
#
# Elastic Compliance Matrix: (Units=1/GPa)
#
#
# Indices 1 2 3 4 5 6 
#
# 1 0.021560 -0.006072 -0.003248 0.000000 0.014774 0.000000
# 2 -0.006072 0.011509 -0.004766 0.000000 -0.002977 0.000000
# 3 -0.003248 -0.004766 0.020051 0.000000 0.004969 0.000000
# 4 0.000000 0.000000 0.000000 0.039006 0.000000 -0.004528
# 5 0.014774 -0.002977 0.004969 0.000000 0.041683 0.000000
# 6 0.000000 0.000000 0.000000 -0.004528 0.000000 0.067549
#
#
# Mechanical properties :
#
#
# Convention : Reuss Voigt Hill
#
# Bulk Modulus (GPa) = 40.08314 60.70470 50.39392
# Shear Modulus (GPa) = 21.02198 25.84429 23.43314
#
# Velocity S-wave (km/s) = 3.23407 3.58587 3.41450
# Velocity P-wave (km/s) = 5.82137 6.88094 6.37322
#
# Compressibility (1/GPa) = 0.02494814
#
# Stress axis : x y z
#
# Youngs Moduli (GPa) = 46.38212 86.88792 49.87298
#
# Poissons Ratio (x) = 0.52756 0.16200
# Poissons Ratio (y) = 0.28162 0.23770
# Poissons Ratio (z) = 0.15066 0.41412
#
# Static dielectric constant tensor:
#      x y z
#    x 1.759150 0.000000 -0.036620 
#    y 0.000000 1.748410 0.000000 
#    z -0.036620 0.000000 1.733790 
# 
# From -- ./inp_files/361469.got.cif
#   From: 2010.05.17/outbox.cif.g08.bks.cpg/sg12_181_cif.got.tgz:361469.got - 2010.06.03 13:09:07.
