data_PCOD9195493
_publ_section_title
;
Structure prediction by ZEFSAII (Michael W. Deem and Ramdas Pophale) SiO2 
 PCOD9195493
Probable space group: C 2/M
;
_chemical_formula_sum "Si O2"
_cell_formula_units_Z 48
_cell_length_a 10.637240
_cell_length_b 15.996929
_cell_length_c 12.537264
_cell_angle_alpha 90.000000
_cell_angle_beta 120.103254
_cell_angle_gamma 90.000000
_cell_volume 1845.636510
_symmetry_space_group_name_H-M "C 2/M"
_symmetry_group_IT_number 12
_symmetry_cell_setting 'monoclinic'
loop_
_space_group_symop_operation_xyz
x,y,z
-x,y,-z
-x,-y,-z
x,-y,z
1/2+x,1/2+y,z
1/2-x,1/2+y,-z
1/2-x,1/2-y,-z
1/2+x,1/2-y,z
loop_
_atom_site_type_symbol
_atom_site_label
_atom_site_fract_x
_atom_site_fract_y
_atom_site_fract_z
Si Si1 0.948464 0.727660 0.365807
Si Si2 0.704411 0.902799 0.421923
Si Si3 0.887440 0.639662 0.828283
Si Si4 0.798829 0.590933 0.025807
Si Si5 0.296958 0.593214 0.685878
Si Si6 0.456601 0.308189 0.137110
O O1 0.811752 0.666942 0.328008
O O2 0.924362 0.778057 0.245451
O O3 0.000000 0.769194 0.500000
O O4 0.080457 0.662882 0.400923
O O5 0.732723 0.875166 0.313037
O O6 0.817997 0.897936 0.566869
O O7 0.658831 0.000000 0.400333
O O8 0.836518 0.598934 0.915866
O O9 0.942301 0.734390 0.865011
O O10 0.041731 0.599951 0.855493
O O11 0.740217 0.500000 0.027625
O O12 0.683621 0.665106 0.990532
O O13 0.238680 0.500000 0.681086
O O14 0.446230 0.609573 0.808869
#
# Coordination Sequence:
#
# PCOD9195493 Si02
#       6
#     8   8   8   8   8   8
#     4   9  19  33  53  78 107 143 180 213 254 313
#     4   9  17  32  55  80 106 139 180 219 256 308
#     4  10  21  37  57  78 103 140 184 221 256 306
#     4  11  22  38  58  79 105 139 180 222 264 310
#     4  10  20  35  54  80 112 141 170 212 267 318
#     4  11  22  35  55  82 111 138 171 218 270 317
#
# _framework density 26.007289
#
# number of rings (size 3 to 8) (size 9 to 14) (size 15 to 20)
#    0.000    2.000    0.000    4.500    0.000    9.333 
#    0.000    0.000    0.000    4.000    0.000   17.500 
#    0.000    0.000    0.000    0.000    0.000    0.000 
#
# Total GULP energy -134181.909936 kJ/mol
# GULP energy per Si atom -5590.912914 kJ/mol
# Density = 2.594810 g / cm^3
# Si number density = 26.007289 Si / 1000 Ang^3
#
#
#
# Elastic Constant Matrix: (Units=GPa)
#
#
# Indices 1 2 3 4 5 6 
#
# 1 24.5964 10.8859 14.7043 0.0000 -11.6084 0.0000
# 2 10.8859 111.4025 15.2225 0.0000 7.4735 0.0000
# 3 14.7043 15.2225 91.7790 0.0000 -12.1690 0.0000
# 4 0.0000 0.0000 0.0000 29.5878 0.0000 5.6368
# 5 -11.6084 7.4735 -12.1690 0.0000 37.5405 0.0000
# 6 0.0000 0.0000 0.0000 5.6368 0.0000 21.3623
#
#
#
# Elastic Compliance Matrix: (Units=1/GPa)
#
#
# Indices 1 2 3 4 5 6 
#
# 1 0.054035 -0.005587 -0.005609 0.000000 0.016003 0.000000
# 2 -0.005587 0.009979 -0.001309 0.000000 -0.004139 0.000000
# 3 -0.005609 -0.001309 0.012347 0.000000 0.002528 0.000000
# 4 0.000000 0.000000 0.000000 0.035587 0.000000 -0.009390
# 5 0.016003 -0.004139 0.002528 0.000000 0.033230 0.000000
# 6 0.000000 0.000000 0.000000 -0.009390 0.000000 0.049289
#
#
# Mechanical properties :
#
#
# Convention : Reuss Voigt Hill
#
# Bulk Modulus (GPa) = 19.47368 34.37813 26.92591
# Shear Modulus (GPa) = 21.13339 30.16248 25.64793
#
# Velocity S-wave (km/s) = 2.85370 3.40923 3.14376
# Velocity P-wave (km/s) = 4.28511 5.36139 4.85318
#
# Compressibility (1/GPa) = 0.05135136
#
# Stress axis : x y z
#
# Youngs Moduli (GPa) = 18.50653 100.21156 80.99387
#
# Poissons Ratio (x) = 0.55991 0.45426
# Poissons Ratio (y) = 0.10340 0.10599
# Poissons Ratio (z) = 0.10380 0.13114
#
# Static dielectric constant tensor:
#      x y z
#    x 2.072370 0.000000 -0.032800 
#    y 0.000000 2.008330 0.000000 
#    z -0.032800 0.000000 2.047200 
# 
# From -- ./inp_files/131060.got.cif
#   From: 2010.05.17/outbox.cif.g08.bks.cpg/sg12_66_cif.got.tgz:131060.got - 2010.06.03 13:09:07.
