data_PCOD9195108
_publ_section_title
;
Structure prediction by ZEFSAII (Michael W. Deem and Ramdas Pophale) SiO2 
 PCOD9195108
Probable space group: C 2/M
;
_chemical_formula_sum "Si O2"
_cell_formula_units_Z 60
_cell_length_a 19.828010
_cell_length_b 9.596785
_cell_length_c 23.264505
_cell_angle_alpha 90.000000
_cell_angle_beta 40.914912
_cell_angle_gamma 90.000000
_cell_volume 2899.336194
_symmetry_space_group_name_H-M "C 2/M"
_symmetry_group_IT_number 12
_symmetry_cell_setting 'monoclinic'
loop_
_space_group_symop_operation_xyz
x,y,z
-x,y,-z
-x,-y,-z
x,-y,z
1/2+x,1/2+y,z
1/2-x,1/2+y,-z
1/2-x,1/2-y,-z
1/2+x,1/2-y,z
loop_
_atom_site_type_symbol
_atom_site_label
_atom_site_fract_x
_atom_site_fract_y
_atom_site_fract_z
Si Si1 0.940606 0.841478 0.258910
Si Si2 0.144534 0.845319 0.202465
Si Si3 0.550144 0.337739 0.885455
Si Si4 0.843463 0.273393 0.002026
Si Si5 0.216363 0.333404 0.256182
Si Si6 0.268201 0.163371 0.430804
Si Si7 0.879136 0.162399 0.579414
Si Si8 0.725400 0.000000 0.034438
O O1 0.947669 0.829897 0.185800
O O2 0.863905 0.729757 0.335102
O O3 0.051211 0.828242 0.218179
O O4 0.903087 0.000000 0.295499
O O5 0.251128 0.837466 0.099113
O O6 0.148761 0.727643 0.247918
O O7 0.134495 0.000000 0.235144
O O8 0.535619 0.500000 0.910709
O O9 0.663995 0.295532 0.832060
O O10 0.450876 0.247846 0.965481
O O11 0.804113 0.122389 0.007216
O O12 0.849725 0.377482 0.944303
O O13 0.210061 0.500000 0.263903
O O14 0.178805 0.261644 0.338689
O O15 0.250000 0.250000 0.500000
O O16 0.170773 0.177026 0.451111
O O17 0.284502 0.000000 0.432259
O O18 0.000000 0.193850 0.500000
O O19 0.866103 0.000000 0.605232
#
# Coordination Sequence:
#
# PCOD9195108 Si02
#       8
#     8   8   8   8   8   8   8   4
#     4  10  21  41  67  90 125 170 211 263 318 373
#     4  11  25  43  62  91 132 170 214 265 323 378
#     4  10  21  41  66  90 126 169 214 263 322 377
#     4  11  21  39  60  95 123 175 214 268 318 379
#     4  11  25  44  66  95 128 169 212 262 318 377
#     4  11  24  42  66 102 133 163 207 261 315 374
#     4  10  23  46  71  93 127 173 211 247 315 389
#     4  10  20  34  62  90 130 152 220 264 322 372
#
# _framework density 20.694392000000001
#
# number of rings (size 3 to 8) (size 9 to 14) (size 15 to 20)
#    0.000    1.467    2.667    2.400    4.667    1.867 
#    6.000    2.000    0.000    0.000    0.000    0.000 
#    0.000    0.000    0.000    0.000    0.000    0.000 
#
# Total GULP energy -167197.092677 kJ/mol
# GULP energy per Si atom -5573.236423 kJ/mol
# Density = 2.064729 g / cm^3
# Si number density = 20.694392 Si / 1000 Ang^3
#
#
#
# Elastic Constant Matrix: (Units=GPa)
#
#
# Indices 1 2 3 4 5 6 
#
# 1 80.6283 39.5500 25.7764 0.0000 -8.0623 0.0000
# 2 39.5500 123.5703 35.3198 0.0000 -4.2230 0.0000
# 3 25.7764 35.3198 66.4126 0.0000 -8.0246 0.0000
# 4 0.0000 0.0000 0.0000 18.6996 0.0000 -2.0022
# 5 -8.0623 -4.2230 -8.0246 0.0000 29.7378 0.0000
# 6 0.0000 0.0000 0.0000 -2.0022 0.0000 28.3303
#
#
#
# Elastic Compliance Matrix: (Units=1/GPa)
#
#
# Indices 1 2 3 4 5 6 
#
# 1 0.015774 -0.003891 -0.003724 0.000000 0.002719 0.000000
# 2 -0.003891 0.010503 -0.004158 0.000000 -0.000686 0.000000
# 3 -0.003724 -0.004158 0.019145 0.000000 0.003566 0.000000
# 4 0.000000 0.000000 0.000000 0.053885 0.000000 0.003808
# 5 0.002719 -0.000686 0.003566 0.000000 0.035229 0.000000
# 6 0.000000 0.000000 0.000000 0.003808 0.000000 0.035567
#
#
# Mechanical properties :
#
#
# Convention : Reuss Voigt Hill
#
# Bulk Modulus (GPa) = 45.71521 52.43373 49.07447
# Shear Modulus (GPa) = 24.88273 26.68453 25.78363
#
# Velocity S-wave (km/s) = 3.47131 3.59480 3.53359
# Velocity P-wave (km/s) = 6.18104 6.52857 6.35718
#
# Compressibility (1/GPa) = 0.02187456
#
# Stress axis : x y z
#
# Youngs Moduli (GPa) = 63.39627 95.20983 52.23222
#
# Poissons Ratio (x) = 0.37048 0.19453
# Poissons Ratio (y) = 0.24668 0.21720
# Poissons Ratio (z) = 0.23611 0.39592
#
# Static dielectric constant tensor:
#      x y z
#    x 1.753430 0.000000 0.020010 
#    y 0.000000 1.705570 0.000000 
#    z 0.020010 0.000000 1.758570 
# 
# From -- ./inp_files/346497.got.cif
#   From: 2010.05.17/outbox.cif.g08.bks.cpg/sg12_174_cif.got.tgz:346497.got - 2010.06.03 13:09:07.
