data_PCOD9195144
_publ_section_title
;
Structure prediction by ZEFSAII (Michael W. Deem and Ramdas Pophale) SiO2 
 PCOD9195144
Probable space group: C 2/M
;
_chemical_formula_sum "Si O2"
_cell_formula_units_Z 60
_cell_length_a 32.195906
_cell_length_b 17.480598
_cell_length_c 5.660048
_cell_angle_alpha 90.000000
_cell_angle_beta 94.395371
_cell_angle_gamma 90.000000
_cell_volume 3176.127189
_symmetry_space_group_name_H-M "C 2/M"
_symmetry_group_IT_number 12
_symmetry_cell_setting 'monoclinic'
loop_
_space_group_symop_operation_xyz
x,y,z
-x,y,-z
-x,-y,-z
x,-y,z
1/2+x,1/2+y,z
1/2-x,1/2+y,-z
1/2-x,1/2-y,-z
1/2+x,1/2-y,z
loop_
_atom_site_type_symbol
_atom_site_label
_atom_site_fract_x
_atom_site_fract_y
_atom_site_fract_z
Si Si1 0.133981 0.371983 0.669315
Si Si2 0.226232 0.585611 0.734315
Si Si3 0.156447 0.204719 0.234361
Si Si4 0.674768 0.294363 0.747693
Si Si5 0.266817 0.173764 0.758284
Si Si6 0.500000 0.839627 0.500000
Si Si7 0.053933 0.584244 0.909265
Si Si8 0.922453 0.299836 0.712506
O O1 0.176386 0.416720 0.681908
O O2 0.148067 0.284651 0.741382
O O3 0.100425 0.409335 0.824065
O O4 0.109370 0.361623 0.414615
O O5 0.243894 0.500000 0.745256
O O6 0.238591 0.628199 0.493211
O O7 0.232324 0.623666 0.998700
O O8 0.163974 0.167046 0.492945
O O9 0.191221 0.274445 0.243009
O O10 0.108889 0.234251 0.220926
O O11 0.165024 0.163769 0.989574
O O12 0.724143 0.277846 0.762129
O O13 0.480417 0.897730 0.301088
O O14 0.459936 0.786839 0.545493
O O15 0.048597 0.500000 0.011192
O O16 0.053170 0.657502 0.074018
#
# Coordination Sequence:
#
# PCOD9195144 Si02
#       8
#     8   8   8   8   8   4   8   8
#     4  10  21  35  48  72  92 123 161 218 268 300
#     4  12  24  36  49  72 104 137 169 202 255 308
#     4  11  19  34  52  77  98 122 156 218 267 307
#     4  11  20  33  56  77  99 119 164 210 272 307
#     4  12  21  36  53  76  98 132 164 211 262 301
#     4  10  23  34  48  66  86 128 168 218 257 308
#     4  11  21  35  50  66  90 124 168 217 267 311
#     4  10  20  35  48  65  93 118 167 208 266 310
#
# _framework density 18.890930000000001
#
# number of rings (size 3 to 8) (size 9 to 14) (size 15 to 20)
#    0.000    1.067    5.333    3.000    0.000    3.733 
#    0.000    0.000    0.000    0.000    0.000    0.000 
#    0.000    0.000    0.000    0.000    0.000    0.000 
#
# Total GULP energy -167036.133813 kJ/mol
# GULP energy per Si atom -5567.871127 kJ/mol
# Density = 1.884793 g / cm^3
# Si number density = 18.890930 Si / 1000 Ang^3
#
#
#
# Elastic Constant Matrix: (Units=GPa)
#
#
# Indices 1 2 3 4 5 6 
#
# 1 114.8435 9.1765 17.4259 0.0000 -0.9820 0.0000
# 2 9.1765 17.9357 18.1039 0.0000 0.3945 0.0000
# 3 17.4259 18.1039 137.7306 0.0000 -1.1690 0.0000
# 4 0.0000 0.0000 0.0000 8.3291 0.0000 0.2944
# 5 -0.9820 0.3945 -1.1690 0.0000 34.6178 0.0000
# 6 0.0000 0.0000 0.0000 0.2944 0.0000 9.3171
#
#
#
# Elastic Compliance Matrix: (Units=1/GPa)
#
#
# Indices 1 2 3 4 5 6 
#
# 1 0.009128 -0.004050 -0.000620 0.000000 0.000284 0.000000
# 2 -0.004050 0.066117 -0.008188 0.000000 -0.001145 0.000000
# 3 -0.000620 -0.008188 0.008418 0.000000 0.000360 0.000000
# 4 0.000000 0.000000 0.000000 0.120195 0.000000 -0.003798
# 5 0.000284 -0.001145 0.000360 0.000000 0.028920 0.000000
# 6 0.000000 0.000000 0.000000 -0.003798 0.000000 0.107450
#
#
# Mechanical properties :
#
#
# Convention : Reuss Voigt Hill
#
# Bulk Modulus (GPa) = 17.25739 39.99138 28.62438
# Shear Modulus (GPa) = 12.97824 25.50636 19.24230
#
# Velocity S-wave (km/s) = 2.62393 3.67848 3.19501
# Velocity P-wave (km/s) = 4.28195 6.26556 5.36621
#
# Compressibility (1/GPa) = 0.05794620
#
# Stress axis : x y z
#
# Youngs Moduli (GPa) = 109.55706 15.12468 118.78852
#
# Poissons Ratio (x) = 0.06126 0.07365
# Poissons Ratio (y) = 0.44375 0.97264
# Poissons Ratio (z) = 0.06793 0.12384
#
# Static dielectric constant tensor:
#      x y z
#    x 1.701680 0.000000 -0.068640 
#    y 0.000000 1.650950 0.000000 
#    z -0.068640 0.000000 1.830800 
# 
# From -- ./inp_files/29215.got.cif
#   From: 2010.05.17/outbox.cif.g08.bks.cpg/sg12_15_cif.got.tgz:29215.got - 2010.06.03 13:09:07.
