data_PCOD9195043
_publ_section_title
;
Structure prediction by ZEFSAII (Michael W. Deem and Ramdas Pophale) SiO2 
 PCOD9195043
Probable space group: C 2/M
;
_chemical_formula_sum "Si O2"
_cell_formula_units_Z 58
_cell_length_a 24.706215
_cell_length_b 9.412334
_cell_length_c 18.412366
_cell_angle_alpha 90.000000
_cell_angle_beta 135.380548
_cell_angle_gamma 90.000000
_cell_volume 3007.422192
_symmetry_space_group_name_H-M "C 2/M"
_symmetry_group_IT_number 12
_symmetry_cell_setting 'monoclinic'
loop_
_space_group_symop_operation_xyz
x,y,z
-x,y,-z
-x,-y,-z
x,-y,z
1/2+x,1/2+y,z
1/2-x,1/2+y,-z
1/2-x,1/2-y,-z
1/2+x,1/2-y,z
loop_
_atom_site_type_symbol
_atom_site_label
_atom_site_fract_x
_atom_site_fract_y
_atom_site_fract_z
Si Si1 0.416149 0.173169 0.732246
Si Si2 0.532818 0.333905 0.949567
Si Si3 0.395085 0.768864 0.440718
Si Si4 0.735440 0.166931 0.334632
Si Si5 0.000000 0.000000 0.500000
Si Si6 0.159808 0.662741 0.769310
Si Si7 0.001734 0.337552 0.672137
Si Si8 0.810218 0.332418 0.878089
O O1 0.474018 0.246535 0.843640
O O2 0.329268 0.215778 0.670451
O O3 0.446339 0.219492 0.681949
O O4 0.418750 0.000000 0.741332
O O5 0.538895 0.500000 0.933893
O O6 0.500000 0.329922 0.000000
O O7 0.614908 0.255273 0.027243
O O8 0.316410 0.746463 0.410492
O O9 0.434768 0.622684 0.454417
O O10 0.370559 0.843370 0.342863
O O11 0.457095 0.836611 0.553502
O O12 0.700581 0.180571 0.219720
O O13 0.750483 0.000000 0.360988
O O14 0.177857 0.500000 0.808719
O O15 0.234172 0.762484 0.840449
O O16 0.086889 0.726445 0.743794
O O17 0.017274 0.500000 0.707080
O O18 0.817004 0.500000 0.901293
#
# Coordination Sequence:
#
# PCOD9195043 Si02
#       8
#     8   8   8   8   2   8   8   8
#     4  10  21  39  59  80 112 152 194 231 277 345
#     4  11  22  38  59  87 117 144 183 233 288 342
#     4  11  20  33  55  82 116 150 195 239 281 328
#     4   9  18  32  52  82 111 142 187 233 278 325
#     4  12  20  32  54  88 112 154 200 248 278 340
#     4  10  20  35  56  84 114 148 187 238 289 334
#     4  10  21  37  56  79 111 155 193 232 283 338
#     4  10  20  34  60  88 112 143 187 235 286 338
#
# _framework density 19.285619000000001
#
# number of rings (size 3 to 8) (size 9 to 14) (size 15 to 20)
#    0.000    1.793    3.448    1.241    0.966    2.207 
#    1.241    1.379    0.000    0.000    0.000    0.000 
#    0.000    0.000    0.000    0.000    0.000    0.000 
#
# Total GULP energy -161450.352994 kJ/mol
# GULP energy per Si atom -5567.253552 kJ/mol
# Density = 1.924172 g / cm^3
# Si number density = 19.285619 Si / 1000 Ang^3
#
#
#
# Elastic Constant Matrix: (Units=GPa)
#
#
# Indices 1 2 3 4 5 6 
#
# 1 108.8825 29.0660 25.3144 0.0000 47.9123 0.0000
# 2 29.0660 70.6122 17.6984 0.0000 19.8056 0.0000
# 3 25.3144 17.6984 48.5876 0.0000 32.8227 0.0000
# 4 0.0000 0.0000 0.0000 14.3647 0.0000 9.3630
# 5 47.9123 19.8056 32.8227 0.0000 40.9799 0.0000
# 6 0.0000 0.0000 0.0000 9.3630 0.0000 17.6995
#
#
#
# Elastic Compliance Matrix: (Units=1/GPa)
#
#
# Indices 1 2 3 4 5 6 
#
# 1 0.022516 -0.002583 0.013401 0.000000 -0.035809 0.000000
# 2 -0.002583 0.016720 -0.002889 0.000000 -0.002747 0.000000
# 3 0.013401 -0.002889 0.052933 0.000000 -0.056668 0.000000
# 4 0.000000 0.000000 0.000000 0.106251 0.000000 -0.056207
# 5 -0.035809 -0.002747 -0.056668 0.000000 0.112985 0.000000
# 6 0.000000 0.000000 0.000000 -0.056207 0.000000 0.086232
#
#
# Mechanical properties :
#
#
# Convention : Reuss Voigt Hill
#
# Bulk Modulus (GPa) = 9.25699 41.35996 25.30847
# Shear Modulus (GPa) = 11.96778 25.00903 18.48841
#
# Velocity S-wave (km/s) = 2.49380 3.60498 3.09959
# Velocity P-wave (km/s) = 3.61972 6.23060 5.09523
#
# Compressibility (1/GPa) = 0.10802649
#
# Stress axis : x y z
#
# Youngs Moduli (GPa) = 44.41363 59.81005 18.89167
#
# Poissons Ratio (x) = 0.15448 -0.25316
# Poissons Ratio (y) = 0.11471 0.05458
# Poissons Ratio (z) = -0.59517 0.17278
#
# Static dielectric constant tensor:
#      x y z
#    x 1.724580 0.000000 0.005610 
#    y 0.000000 1.667220 0.000000 
#    z 0.005610 0.000000 1.648210 
# 
# From -- ./inp_files/324624.got.cif
#   From: 2010.05.17/outbox.cif.g08.bks.cpg/sg12_163_cif.got.tgz:324624.got - 2010.06.03 13:09:07.
