data_PCOD9195964
_publ_section_title
;
Structure prediction by ZEFSAII (Michael W. Deem and Ramdas Pophale) SiO2 
 PCOD9195964
Probable space group: C 2/M
;
_chemical_formula_sum "Si O2"
_cell_formula_units_Z 56
_cell_length_a 8.610681
_cell_length_b 11.849430
_cell_length_c 29.326105
_cell_angle_alpha 90.000000
_cell_angle_beta 61.536772
_cell_angle_gamma 90.000000
_cell_volume 2630.504632
_symmetry_space_group_name_H-M "C 2/M"
_symmetry_group_IT_number 12
_symmetry_cell_setting 'monoclinic'
loop_
_space_group_symop_operation_xyz
x,y,z
-x,y,-z
-x,-y,-z
x,-y,z
1/2+x,1/2+y,z
1/2-x,1/2+y,-z
1/2-x,1/2-y,-z
1/2+x,1/2-y,z
loop_
_atom_site_type_symbol
_atom_site_label
_atom_site_fract_x
_atom_site_fract_y
_atom_site_fract_z
Si Si1 0.795433 0.295490 0.213893
Si Si2 0.527646 0.128028 0.721404
Si Si3 0.442915 0.875959 0.955769
Si Si4 0.937315 0.306265 0.461815
Si Si5 0.250537 0.372238 0.600378
Si Si6 0.410414 0.374397 0.946254
Si Si7 0.393945 0.378071 0.846078
O O1 0.631596 0.215526 0.250493
O O2 0.854110 0.366045 0.249533
O O3 0.741327 0.362130 0.176159
O O4 0.961283 0.217841 0.178562
O O5 0.647291 0.157337 0.661052
O O6 0.462100 0.000000 0.724363
O O7 0.499926 0.749515 0.932650
O O8 0.480448 0.000000 0.928228
O O9 0.500000 0.885115 0.000000
O O10 0.227881 0.870401 0.992523
O O11 0.750000 0.250000 0.500000
O O12 0.889179 0.369269 0.421910
O O13 0.000000 0.365932 0.500000
O O14 0.088141 0.213167 0.430634
O O15 0.319935 0.500000 0.594533
O O16 0.499680 0.500000 0.936508
O O17 0.322920 0.376832 0.907703
O O18 0.481826 0.500000 0.827848
#
# Coordination Sequence:
#
# PCOD9195964 Si02
#       7
#     8   8   8   8   8   8   8
#     4  10  21  36  57  80 110 143 176 228 280 329
#     4  10  20  36  57  81 107 140 184 226 272 326
#     4   9  18  33  53  75 102 136 177 223 271 326
#     4   9  19  34  52  78 111 143 180 222 265 320
#     4  10  20  35  56  79 107 145 184 226 272 320
#     4   9  19  34  51  74 105 138 177 223 274 334
#     4  10  21  37  56  81 111 144 182 225 278 338
#
# _framework density 21.288691
#
# number of rings (size 3 to 8) (size 9 to 14) (size 15 to 20)
#    0.000    2.429    0.000    1.714    2.000    3.143 
#    0.000    5.714    0.000   12.000    0.000    0.000 
#    0.000    0.000    0.000    0.000    0.000    0.000 
#
# Total GULP energy -155984.854050 kJ/mol
# GULP energy per Si atom -5570.887645 kJ/mol
# Density = 2.124024 g / cm^3
# Si number density = 21.288691 Si / 1000 Ang^3
#
#
#
# Elastic Constant Matrix: (Units=GPa)
#
#
# Indices 1 2 3 4 5 6 
#
# 1 59.0003 18.3596 26.3393 0.0000 7.6689 0.0000
# 2 18.3596 141.6675 33.3222 0.0000 -6.2377 0.0000
# 3 26.3393 33.3222 114.5973 0.0000 9.7561 0.0000
# 4 0.0000 0.0000 0.0000 26.2534 0.0000 -13.9348
# 5 7.6689 -6.2377 9.7561 0.0000 31.0172 0.0000
# 6 0.0000 0.0000 0.0000 -13.9348 0.0000 21.2345
#
#
#
# Elastic Compliance Matrix: (Units=1/GPa)
#
#
# Indices 1 2 3 4 5 6 
#
# 1 0.019687 -0.001878 -0.003629 0.000000 -0.004104 0.000000
# 2 -0.001878 0.007916 -0.002101 0.000000 0.002717 0.000000
# 3 -0.003629 -0.002101 0.010410 0.000000 -0.002800 0.000000
# 4 0.000000 0.000000 0.000000 0.058449 0.000000 0.038356
# 5 -0.004104 0.002717 -0.002800 0.000000 0.034682 0.000000
# 6 0.000000 0.000000 0.000000 0.038356 0.000000 0.072264
#
#
# Mechanical properties :
#
#
# Convention : Reuss Voigt Hill
#
# Bulk Modulus (GPa) = 43.86980 52.36745 48.11863
# Shear Modulus (GPa) = 22.10193 31.51729 26.80961
#
# Velocity S-wave (km/s) = 3.22561 3.85186 3.55256
# Velocity P-wave (km/s) = 5.87576 6.66593 6.28328
#
# Compressibility (1/GPa) = 0.02279472
#
# Stress axis : x y z
#
# Youngs Moduli (GPa) = 50.79432 126.32403 96.06347
#
# Poissons Ratio (x) = 0.23729 0.34865
# Poissons Ratio (y) = 0.09541 0.20187
# Poissons Ratio (z) = 0.18435 0.26546
#
# Static dielectric constant tensor:
#      x y z
#    x 1.821930 0.000000 -0.000730 
#    y 0.000000 1.773360 0.000000 
#    z -0.000730 0.000000 1.762970 
# 
# From -- ./inp_files/355751.got.cif
#   From: 2010.05.17/outbox.cif.g08.bks.cpg/sg12_178_cif.got.tgz:355751.got - 2010.06.03 13:09:07.
