data_PCOD9195160
_publ_section_title
;
Structure prediction by ZEFSAII (Michael W. Deem and Ramdas Pophale) SiO2 
 PCOD9195160
Probable space group: C 2/M
;
_chemical_formula_sum "Si O2"
_cell_formula_units_Z 64
_cell_length_a 12.198943
_cell_length_b 18.233036
_cell_length_c 17.059379
_cell_angle_alpha 90.000000
_cell_angle_beta 86.053131
_cell_angle_gamma 90.000000
_cell_volume 3785.412160
_symmetry_space_group_name_H-M "C 2/M"
_symmetry_group_IT_number 12
_symmetry_cell_setting 'monoclinic'
loop_
_space_group_symop_operation_xyz
x,y,z
-x,y,-z
-x,-y,-z
x,-y,z
1/2+x,1/2+y,z
1/2-x,1/2+y,-z
1/2-x,1/2-y,-z
1/2+x,1/2-y,z
loop_
_atom_site_type_symbol
_atom_site_label
_atom_site_fract_x
_atom_site_fract_y
_atom_site_fract_z
Si Si1 0.560599 0.676094 0.922818
Si Si2 0.345590 0.586788 0.344866
Si Si3 0.937383 0.585795 0.895602
Si Si4 0.372783 0.589093 0.513914
Si Si5 0.257419 0.148760 0.804666
Si Si6 0.345570 0.311562 0.833081
Si Si7 0.143746 0.662244 0.943829
Si Si8 0.889032 0.086455 0.684908
O O1 0.657489 0.635671 0.871294
O O2 0.466071 0.695304 0.864609
O O3 0.612464 0.752135 0.952407
O O4 0.500000 0.639180 0.000000
O O5 0.320449 0.500000 0.338404
O O6 0.316526 0.611459 0.435178
O O7 0.285922 0.630273 0.279176
O O8 0.478035 0.593274 0.328656
O O9 0.951570 0.500000 0.908765
O O10 0.861789 0.600760 0.824774
O O11 0.055291 0.625329 0.889780
O O12 0.874982 0.623271 0.972387
O O13 0.500000 0.612009 0.500000
O O14 0.372599 0.500000 0.513322
O O15 0.337838 0.610056 0.603333
O O16 0.295907 0.232857 0.812070
O O17 0.264316 0.343592 0.903127
O O18 0.349860 0.364528 0.758408
O O19 0.865935 0.000000 0.698481
#
# Coordination Sequence:
#
# PCOD9195160 Si02
#       8
#     8   8   8   8   8   8   8   8
#     4  11  19  34  52  69  97 129 170 208 250 299
#     4   9  16  30  51  75 102 127 158 202 246 294
#     4  11  21  36  52  70  99 130 175 215 239 284
#     4   7  12  25  48  73  96 127 159 190 238 298
#     4  11  21  32  51  77  99 132 166 203 256 297
#     4  11  21  33  52  74 102 131 162 211 249 302
#     4  10  20  35  51  69  92 134 178 205 242 288
#     4   9  17  31  51  75 101 126 158 201 250 298
#
# _framework density 16.907008999999999
#
# number of rings (size 3 to 8) (size 9 to 14) (size 15 to 20)
#    0.000    2.125    3.750    3.375    0.000    3.000 
#    0.000    0.625    0.000    1.875    0.000    0.875 
#    0.000    4.000    0.000    0.000    0.000    0.000 
#
# Total GULP energy -178346.637829 kJ/mol
# GULP energy per Si atom -5573.332432 kJ/mol
# Density = 1.686853 g / cm^3
# Si number density = 16.907009 Si / 1000 Ang^3
#
#
#
# Elastic Constant Matrix: (Units=GPa)
#
#
# Indices 1 2 3 4 5 6 
#
# 1 50.8777 2.4953 10.8751 0.0000 10.4309 0.0000
# 2 2.4953 24.8106 6.0760 0.0000 1.4665 0.0000
# 3 10.8751 6.0760 70.2241 0.0000 16.1064 0.0000
# 4 0.0000 0.0000 0.0000 17.1068 0.0000 6.1535
# 5 10.4309 1.4665 16.1064 0.0000 27.1572 0.0000
# 6 0.0000 0.0000 0.0000 6.1535 0.0000 5.3282
#
#
#
# Elastic Compliance Matrix: (Units=1/GPa)
#
#
# Indices 1 2 3 4 5 6 
#
# 1 0.021546 -0.001357 -0.001549 0.000000 -0.007284 0.000000
# 2 -0.001357 0.041264 -0.003436 0.000000 0.000331 0.000000
# 3 -0.001549 -0.003436 0.016897 0.000000 -0.009241 0.000000
# 4 0.000000 0.000000 0.000000 0.099998 0.000000 -0.115486
# 5 -0.007284 0.000331 -0.009241 0.000000 0.045083 0.000000
# 6 0.000000 0.000000 0.000000 -0.115486 0.000000 0.321052
#
#
# Mechanical properties :
#
#
# Convention : Reuss Voigt Hill
#
# Bulk Modulus (GPa) = 14.92030 20.53392 17.72711
# Shear Modulus (GPa) = 8.60788 18.34952 13.47870
#
# Velocity S-wave (km/s) = 2.25884 3.29799 2.82658
# Velocity P-wave (km/s) = 3.95566 5.16468 4.60006
#
# Compressibility (1/GPa) = 0.06702278
#
# Stress axis : x y z
#
# Youngs Moduli (GPa) = 46.41254 24.23439 59.18322
#
# Poissons Ratio (x) = 0.03289 0.09165
# Poissons Ratio (y) = 0.06299 0.20335
# Poissons Ratio (z) = 0.07188 0.08327
#
# Static dielectric constant tensor:
#      x y z
#    x 1.573740 0.000000 0.014900 
#    y 0.000000 1.562020 0.000000 
#    z 0.014900 0.000000 1.605340 
# 
# From -- ./inp_files/263910.got.cif
#   From: 2010.05.17/outbox.cif.g08.bks.cpg/sg12_132_cif.got.tgz:263910.got - 2010.06.03 13:09:07.
