data_PCOD9195354
_publ_section_title
;
Structure prediction by ZEFSAII (Michael W. Deem and Ramdas Pophale) SiO2 
 PCOD9195354
Probable space group: C 2/M
;
_chemical_formula_sum "Si O2"
_cell_formula_units_Z 56
_cell_length_a 20.562157
_cell_length_b 8.943327
_cell_length_c 24.922581
_cell_angle_alpha 90.000000
_cell_angle_beta 132.274736
_cell_angle_gamma 90.000000
_cell_volume 3391.174446
_symmetry_space_group_name_H-M "C 2/M"
_symmetry_group_IT_number 12
_symmetry_cell_setting 'monoclinic'
loop_
_space_group_symop_operation_xyz
x,y,z
-x,y,-z
-x,-y,-z
x,-y,z
1/2+x,1/2+y,z
1/2-x,1/2+y,-z
1/2-x,1/2-y,-z
1/2+x,1/2-y,z
loop_
_atom_site_type_symbol
_atom_site_label
_atom_site_fract_x
_atom_site_fract_y
_atom_site_fract_z
Si Si1 0.809573 0.176982 0.578150
Si Si2 0.963509 0.821832 0.080961
Si Si3 0.369533 0.178715 0.130891
Si Si4 0.464296 0.177624 0.715170
Si Si5 0.178528 0.822522 0.297079
Si Si6 0.156285 0.677663 0.178855
Si Si7 0.310258 0.321558 0.914143
O O1 0.750000 0.250000 0.500000
O O2 0.908020 0.246417 0.636561
O O3 0.772755 0.203334 0.618718
O O4 0.815340 0.000000 0.573618
O O5 0.908540 0.764489 0.101708
O O6 0.056819 0.741355 0.126659
O O7 0.977980 0.000000 0.093410
O O8 0.901806 0.793174 0.995186
O O9 0.433706 0.207248 0.217662
O O10 0.270618 0.218616 0.091751
O O11 0.374071 0.000000 0.122606
O O12 0.415003 0.247440 0.739631
O O13 0.450458 0.000000 0.705546
O O14 0.207628 0.746319 0.258565
O O15 0.169767 0.000000 0.284991
O O16 0.155223 0.500000 0.181792
O O17 0.194715 0.734104 0.144098
O O18 0.304356 0.500000 0.900429
#
# Coordination Sequence:
#
# PCOD9195354 Si02
#       7
#     8   8   8   8   8   8   8
#     4   9  17  27  45  74 106 134 162 201 246 290
#     4  11  21  34  54  73  96 131 169 215 264 309
#     4  10  20  35  54  74 100 133 169 211 255 305
#     4   9  16  28  48  73 100 130 162 197 242 296
#     4   9  18  31  49  72  98 131 164 197 245 296
#     4  12  23  35  52  73  98 132 173 216 258 304
#     4  10  23  38  50  71 101 133 170 213 262 307
#
# _framework density 16.513452999999998
#
# number of rings (size 3 to 8) (size 9 to 14) (size 15 to 20)
#    0.857    1.143    1.429    3.429    0.000    4.000 
#    0.000    0.000    0.000    0.000    0.000    1.000 
#    0.000    8.000    0.000    0.000    0.000    0.000 
#
# Total GULP energy -155894.776571 kJ/mol
# GULP energy per Si atom -5567.670592 kJ/mol
# Density = 1.647587 g / cm^3
# Si number density = 16.513453 Si / 1000 Ang^3
#
#
#
# Elastic Constant Matrix: (Units=GPa)
#
#
# Indices 1 2 3 4 5 6 
#
# 1 23.4305 9.3115 1.7710 0.0000 -11.3908 0.0000
# 2 9.3115 71.0906 39.1181 0.0000 -11.4402 0.0000
# 3 1.7710 39.1181 83.7576 0.0000 -13.1405 0.0000
# 4 0.0000 0.0000 0.0000 25.2096 0.0000 -4.0703
# 5 -11.3908 -11.4402 -13.1405 0.0000 16.5529 0.0000
# 6 0.0000 0.0000 0.0000 -4.0703 0.0000 21.6330
#
#
#
# Elastic Compliance Matrix: (Units=1/GPa)
#
#
# Indices 1 2 3 4 5 6 
#
# 1 0.069026 -0.005993 0.009300 0.000000 0.050740 0.000000
# 2 -0.005993 0.020174 -0.008858 0.000000 0.002787 0.000000
# 3 0.009300 -0.008858 0.018189 0.000000 0.014717 0.000000
# 4 0.000000 0.000000 0.000000 0.040910 0.000000 0.007697
# 5 0.050740 0.002787 0.014717 0.000000 0.108938 0.000000
# 6 0.000000 0.000000 0.000000 0.007697 0.000000 0.047674
#
#
# Mechanical properties :
#
#
# Convention : Reuss Voigt Hill
#
# Bulk Modulus (GPa) = 10.38574 30.96443 20.67508
# Shear Modulus (GPa) = 14.36334 21.21764 17.79049
#
# Velocity S-wave (km/s) = 2.95243 3.58840 3.28584
# Velocity P-wave (km/s) = 4.23384 5.99671 5.19066
#
# Compressibility (1/GPa) = 0.09628588
#
# Stress axis : x y z
#
# Youngs Moduli (GPa) = 14.48737 49.56802 54.97968
#
# Poissons Ratio (x) = 0.29706 -0.51131
# Poissons Ratio (y) = 0.08682 0.48702
# Poissons Ratio (z) = -0.13473 0.43909
#
# Static dielectric constant tensor:
#      x y z
#    x 1.545320 0.000000 -0.000820 
#    y 0.000000 1.546960 0.000000 
#    z -0.000820 0.000000 1.591250 
# 
# From -- ./inp_files/319338.got.cif
#   From: 2010.05.17/outbox.cif.g08.bks.cpg/sg12_160_cif.got.tgz:319338.got - 2010.06.03 13:09:07.
