data_PCOD9195475
_publ_section_title
;
Structure prediction by ZEFSAII (Michael W. Deem and Ramdas Pophale) SiO2 
 PCOD9195475
Probable space group: C 2/M
;
_chemical_formula_sum "Si O2"
_cell_formula_units_Z 56
_cell_length_a 15.267488
_cell_length_b 7.634902
_cell_length_c 25.663699
_cell_angle_alpha 90.000000
_cell_angle_beta 118.244418
_cell_angle_gamma 90.000000
_cell_volume 2635.330466
_symmetry_space_group_name_H-M "C 2/M"
_symmetry_group_IT_number 12
_symmetry_cell_setting 'monoclinic'
loop_
_space_group_symop_operation_xyz
x,y,z
-x,y,-z
-x,-y,-z
x,-y,z
1/2+x,1/2+y,z
1/2-x,1/2+y,-z
1/2-x,1/2-y,-z
1/2+x,1/2-y,z
loop_
_atom_site_type_symbol
_atom_site_label
_atom_site_fract_x
_atom_site_fract_y
_atom_site_fract_z
Si Si1 0.170076 0.710706 0.432630
Si Si2 0.860368 0.291674 0.009396
Si Si3 0.338167 0.797129 0.785098
Si Si4 0.941008 0.202415 0.138900
Si Si5 0.749926 0.293221 0.654039
Si Si6 0.474564 0.787754 0.433925
Si Si7 0.725129 0.215224 0.119593
O O1 0.165591 0.500000 0.427916
O O2 0.250000 0.750000 0.500000
O O3 0.202789 0.781049 0.385723
O O4 0.063062 0.773343 0.421629
O O5 0.877165 0.500000 0.014164
O O6 0.931524 0.215199 0.073442
O O7 0.750000 0.250000 0.000000
O O8 0.853031 0.230567 0.947567
O O9 0.457390 0.791152 0.815267
O O10 0.290059 0.717809 0.719619
O O11 0.304174 0.722350 0.831320
O O12 0.306079 0.000000 0.778176
O O13 0.836885 0.270003 0.133945
O O14 0.948474 0.000000 0.155869
O O15 0.774864 0.500000 0.661781
O O16 0.632219 0.274515 0.614710
O O17 0.500000 0.731005 0.500000
O O18 0.472870 0.000000 0.433734
O O19 0.724353 0.000000 0.117985
#
# Coordination Sequence:
#
# PCOD9195475 Si02
#       7
#     8   8   8   8   8   8   8
#     4  10  20  35  55  81 109 137 170 212 262 313
#     4   9  16  30  53  80 106 139 179 225 272 317
#     4  10  21  38  55  75 105 144 182 218 263 318
#     4  10  20  35  54  79 108 141 180 224 269 318
#     4  10  22  37  55  80 109 138 177 224 263 309
#     4  10  20  35  56  80 107 140 171 208 263 320
#     4   8  17  34  55  75 104 142 179 215 264 326
#
# _framework density 21.249706
#
# number of rings (size 3 to 8) (size 9 to 14) (size 15 to 20)
#    0.000    2.429    1.429    1.714    0.000    3.143 
#    0.000    7.143    0.000    0.000    0.000    0.000 
#    0.000    0.000    0.000    0.000    0.000    0.000 
#
# Total GULP energy -156275.718485 kJ/mol
# GULP energy per Si atom -5581.275660 kJ/mol
# Density = 2.120134 g / cm^3
# Si number density = 21.249706 Si / 1000 Ang^3
#
#
#
# Elastic Constant Matrix: (Units=GPa)
#
#
# Indices 1 2 3 4 5 6 
#
# 1 101.1689 -5.3816 51.6289 0.0000 -8.2240 0.0000
# 2 -5.3816 40.1876 -4.0006 0.0000 -8.4899 0.0000
# 3 51.6289 -4.0006 156.9439 0.0000 -2.3190 0.0000
# 4 0.0000 0.0000 0.0000 16.2893 0.0000 8.7424
# 5 -8.2240 -8.4899 -2.3190 0.0000 27.3120 0.0000
# 6 0.0000 0.0000 0.0000 8.7424 0.0000 16.5266
#
#
#
# Elastic Compliance Matrix: (Units=1/GPa)
#
#
# Indices 1 2 3 4 5 6 
#
# 1 0.012338 0.002112 -0.003945 0.000000 0.004037 0.000000
# 2 0.002112 0.027095 0.000130 0.000000 0.009070 0.000000
# 3 -0.003945 0.000130 0.007666 0.000000 -0.000497 0.000000
# 4 0.000000 0.000000 0.000000 0.085729 0.000000 -0.045349
# 5 0.004037 0.009070 -0.000497 0.000000 0.040607 0.000000
# 6 0.000000 0.000000 0.000000 -0.045349 0.000000 0.084498
#
#
# Mechanical properties :
#
#
# Convention : Reuss Voigt Hill
#
# Bulk Modulus (GPa) = 22.88722 42.53265 32.70994
# Shear Modulus (GPa) = 18.12230 29.09581 23.60905
#
# Velocity S-wave (km/s) = 2.92349 3.70433 3.33683
# Velocity P-wave (km/s) = 4.71059 6.19316 5.50204
#
# Compressibility (1/GPa) = 0.04369251
#
# Stress axis : x y z
#
# Youngs Moduli (GPa) = 81.04763 36.90707 130.45346
#
# Poissons Ratio (x) = -0.07796 0.51469
# Poissons Ratio (y) = -0.17120 -0.01693
# Poissons Ratio (z) = 0.31977 -0.00479
#
# Static dielectric constant tensor:
#      x y z
#    x 1.756000 0.000000 -0.035970 
#    y 0.000000 1.840420 0.000000 
#    z -0.035970 0.000000 1.759410 
# 
# From -- ./inp_files/339066.got.cif
#   From: 2010.05.17/outbox.cif.g08.bks.cpg/sg12_170_cif.got.tgz:339066.got - 2010.06.03 13:09:07.
