data_PCOD9195210
_publ_section_title
;
Structure prediction by ZEFSAII (Michael W. Deem and Ramdas Pophale) SiO2 
 PCOD9195210
Probable space group: C 2/M
;
_chemical_formula_sum "Si O2"
_cell_formula_units_Z 52
_cell_length_a 18.420472
_cell_length_b 9.898518
_cell_length_c 19.441210
_cell_angle_alpha 90.000000
_cell_angle_beta 142.311286
_cell_angle_gamma 90.000000
_cell_volume 2167.200945
_symmetry_space_group_name_H-M "C 2/M"
_symmetry_group_IT_number 12
_symmetry_cell_setting 'monoclinic'
loop_
_space_group_symop_operation_xyz
x,y,z
-x,y,-z
-x,-y,-z
x,-y,z
1/2+x,1/2+y,z
1/2-x,1/2+y,-z
1/2-x,1/2-y,-z
1/2+x,1/2-y,z
loop_
_atom_site_type_symbol
_atom_site_label
_atom_site_fract_x
_atom_site_fract_y
_atom_site_fract_z
Si Si1 0.761614 0.347114 0.226165
Si Si2 0.377815 0.287393 0.669674
Si Si3 0.340683 0.148328 0.034074
Si Si4 0.508145 0.347500 0.097194
Si Si5 0.458653 0.000000 0.736510
Si Si6 0.632332 0.851322 0.539798
Si Si7 0.459192 0.654339 0.337391
O O1 0.782218 0.500000 0.215324
O O2 0.620358 0.327352 0.130869
O O3 0.815234 0.341216 0.344083
O O4 0.836108 0.237920 0.239581
O O5 0.433230 0.339771 0.783055
O O6 0.366632 0.124426 0.658630
O O7 0.243531 0.340939 0.571973
O O8 0.461657 0.338238 0.671754
O O9 0.412411 0.227975 0.029023
O O10 0.439183 0.113030 0.165616
O O11 0.292518 0.000000 0.976769
O O12 0.250000 0.250000 0.000000
O O13 0.460554 0.500000 0.052916
O O14 0.539277 0.736305 0.451931
O O15 0.575971 0.000000 0.487963
O O16 0.436494 0.500000 0.339796
#
# Coordination Sequence:
#
# PCOD9195210 Si02
#       7
#     8   8   8   8   4   8   8
#     4   9  20  37  53  71 102 145 188 226 276 324
#     4  10  20  35  52  75 106 141 183 222 273 327
#     4   9  17  30  51  87 115 135 165 209 261 321
#     4   9  17  34  56  76 105 144 174 215 267 323
#     4   8  20  32  52  84 105 148 165 208 277 310
#     4  10  21  37  55  71 100 145 190 238 279 315
#     4  12  24  33  49  78 105 141 189 240 278 312
#
# _framework density 23.994084000000001
#
# number of rings (size 3 to 8) (size 9 to 14) (size 15 to 20)
#    0.462    1.846    0.000    4.154    3.231    3.077 
#    2.769    0.000    0.000    0.000    0.000    5.385 
#    0.000   11.077    0.000    0.000    0.000    0.000 
#
# Total GULP energy -144865.618845 kJ/mol
# GULP energy per Si atom -5571.754571 kJ/mol
# Density = 2.393947 g / cm^3
# Si number density = 23.994084 Si / 1000 Ang^3
#
#
#
# Elastic Constant Matrix: (Units=GPa)
#
#
# Indices 1 2 3 4 5 6 
#
# 1 106.3667 63.7126 35.4786 0.0000 24.4118 0.0000
# 2 63.7126 243.1301 56.5346 0.0000 35.8727 0.0000
# 3 35.4786 56.5346 69.7231 0.0000 19.0349 0.0000
# 4 0.0000 0.0000 0.0000 45.1805 0.0000 13.6739
# 5 24.4118 35.8727 19.0349 0.0000 48.4635 0.0000
# 6 0.0000 0.0000 0.0000 13.6739 0.0000 18.1751
#
#
#
# Elastic Compliance Matrix: (Units=1/GPa)
#
#
# Indices 1 2 3 4 5 6 
#
# 1 0.012638 -0.001885 -0.003971 0.000000 -0.003411 0.000000
# 2 -0.001885 0.005611 -0.003042 0.000000 -0.002009 0.000000
# 3 -0.003971 -0.003042 0.019791 0.000000 -0.003521 0.000000
# 4 0.000000 0.000000 0.000000 0.028659 0.000000 -0.021561
# 5 -0.003411 -0.002009 -0.003521 0.000000 0.025222 0.000000
# 6 0.000000 0.000000 0.000000 -0.021561 0.000000 0.071242
#
#
# Mechanical properties :
#
#
# Convention : Reuss Voigt Hill
#
# Bulk Modulus (GPa) = 49.39830 81.18571 65.29201
# Shear Modulus (GPa) = 26.63732 39.93009 33.28370
#
# Velocity S-wave (km/s) = 3.33552 4.08384 3.72850
# Velocity P-wave (km/s) = 5.95539 7.49308 6.76805
#
# Compressibility (1/GPa) = 0.02024361
#
# Stress axis : x y z
#
# Youngs Moduli (GPa) = 79.12644 178.23057 50.52827
#
# Poissons Ratio (x) = 0.33599 0.20065
# Poissons Ratio (y) = 0.14917 0.15369
# Poissons Ratio (z) = 0.31422 0.54213
#
# Static dielectric constant tensor:
#      x y z
#    x 1.951830 0.000000 -0.032290 
#    y 0.000000 1.928610 0.000000 
#    z -0.032290 0.000000 2.002570 
# 
# From -- ./inp_files/377460.got.cif
#   From: 2010.05.17/outbox.cif.g08.bks.cpg/sg12_189_cif.got.tgz:377460.got - 2010.06.03 13:09:07.
