data_PCOD9195901
_publ_section_title
;
Structure prediction by ZEFSAII (Michael W. Deem and Ramdas Pophale) SiO2 
 PCOD9195901
Probable space group: C 2/M
;
_chemical_formula_sum "Si O2"
_cell_formula_units_Z 64
_cell_length_a 15.859055
_cell_length_b 8.179849
_cell_length_c 34.360475
_cell_angle_alpha 90.000000
_cell_angle_beta 134.478535
_cell_angle_gamma 90.000000
_cell_volume 3180.413816
_symmetry_space_group_name_H-M "C 2/M"
_symmetry_group_IT_number 12
_symmetry_cell_setting 'monoclinic'
loop_
_space_group_symop_operation_xyz
x,y,z
-x,y,-z
-x,-y,-z
x,-y,z
1/2+x,1/2+y,z
1/2-x,1/2+y,-z
1/2-x,1/2-y,-z
1/2+x,1/2-y,z
loop_
_atom_site_type_symbol
_atom_site_label
_atom_site_fract_x
_atom_site_fract_y
_atom_site_fract_z
Si Si1 0.938976 0.199130 0.940651
Si Si2 0.080861 0.802667 0.635735
Si Si3 0.131524 0.196789 0.940273
Si Si4 0.771818 0.693519 0.760494
Si Si5 0.534464 0.306798 0.828411
Si Si6 0.378472 0.699574 0.439268
Si Si7 0.294194 0.193041 0.175812
Si Si8 0.312719 0.804307 0.560224
O O1 0.807036 0.252281 0.887274
O O2 0.021716 0.247604 0.931504
O O3 0.937704 0.000000 0.942551
O O4 0.000000 0.259001 0.000000
O O5 0.174723 0.745979 0.698187
O O6 0.115502 0.745163 0.603506
O O7 0.947597 0.753687 0.603243
O O8 0.084070 0.000000 0.636129
O O9 0.110082 0.258626 0.889763
O O10 0.130751 0.000000 0.938450
O O11 0.250000 0.250000 0.000000
O O12 0.788073 0.500000 0.760212
O O13 0.726409 0.725085 0.789393
O O14 0.898158 0.775857 0.794091
O O15 0.554231 0.500000 0.831358
O O16 0.581150 0.225929 0.804174
O O17 0.500000 0.748059 0.500000
O O18 0.376512 0.500000 0.438263
O O19 0.266734 0.754326 0.428931
O O20 0.277252 0.000000 0.176040
O O21 0.250000 0.750000 0.500000
O O22 0.312074 0.000000 0.561024
#
# Coordination Sequence:
#
# PCOD9195901 Si02
#       8
#     8   8   8   8   8   8   8   8
#     4   9  17  32  55  83 116 152 194 245 305 366
#     4  10  22  41  62  88 121 158 204 252 299 358
#     4  10  20  35  55  85 121 157 196 250 310 370
#     4  11  24  42  64  90 124 166 210 258 311 371
#     4  11  23  41  63  89 124 162 207 259 310 369
#     4   9  17  34  60  85 117 160 197 236 292 355
#     4  11  22  40  65  89 120 163 207 256 312 374
#     4  11  21  35  60  91 123 162 203 248 302 359
#
# _framework density 20.123169000000001
#
# number of rings (size 3 to 8) (size 9 to 14) (size 15 to 20)
#    0.000    1.750    2.500    2.250    0.000    4.000 
#    0.000    3.125    0.000    2.625    0.000    0.000 
#    0.000    0.000    0.000    0.000    0.000    0.000 
#
# Total GULP energy -178752.870548 kJ/mol
# GULP energy per Si atom -5586.027205 kJ/mol
# Density = 2.007737 g / cm^3
# Si number density = 20.123169 Si / 1000 Ang^3
#
#
#
# Elastic Constant Matrix: (Units=GPa)
#
#
# Indices 1 2 3 4 5 6 
#
# 1 148.5789 -5.1387 57.6759 0.0000 -10.9716 0.0000
# 2 -5.1387 14.7438 1.8926 0.0000 -2.4709 0.0000
# 3 57.6759 1.8926 136.3339 0.0000 -5.9399 0.0000
# 4 0.0000 0.0000 0.0000 21.0663 0.0000 6.7078
# 5 -10.9716 -2.4709 -5.9399 0.0000 28.6164 0.0000
# 6 0.0000 0.0000 0.0000 6.7078 0.0000 25.0042
#
#
#
# Elastic Compliance Matrix: (Units=1/GPa)
#
#
# Indices 1 2 3 4 5 6 
#
# 1 0.008431 0.003863 -0.003497 0.000000 0.002840 0.000000
# 2 0.003863 0.070658 -0.002306 0.000000 0.007104 0.000000
# 3 -0.003497 -0.002306 0.008859 0.000000 0.000299 0.000000
# 4 0.000000 0.000000 0.000000 0.051903 0.000000 -0.013924
# 5 0.002840 0.007104 0.000299 0.000000 0.036709 0.000000
# 6 0.000000 0.000000 0.000000 -0.013924 0.000000 0.043729
#
#
# Mechanical properties :
#
#
# Convention : Reuss Voigt Hill
#
# Bulk Modulus (GPa) = 11.89481 45.39069 28.64275
# Shear Modulus (GPa) = 19.82627 31.28583 25.55605
#
# Velocity S-wave (km/s) = 3.14227 3.94727 3.56755
# Velocity P-wave (km/s) = 4.36909 6.58635 5.58878
#
# Compressibility (1/GPa) = 0.08407028
#
# Stress axis : x y z
#
# Youngs Moduli (GPa) = 118.60802 14.15266 112.87648
#
# Poissons Ratio (x) = -0.05468 0.39469
# Poissons Ratio (y) = -0.45823 0.26027
# Poissons Ratio (z) = 0.41473 0.03263
#
# Static dielectric constant tensor:
#      x y z
#    x 1.702330 0.000000 0.003810 
#    y 0.000000 1.705970 0.000000 
#    z 0.003810 0.000000 1.744950 
# 
# From -- ./inp_files/375673.got.cif
#   From: 2010.05.17/outbox.cif.g08.bks.cpg/sg12_188_cif.got.tgz:375673.got - 2010.06.03 13:09:07.
