data_PCOD9195626
_publ_section_title
;
Structure prediction by ZEFSAII (Michael W. Deem and Ramdas Pophale) SiO2 
 PCOD9195626
Probable space group: C 2/M
;
_chemical_formula_sum "Si O2"
_cell_formula_units_Z 56
_cell_length_a 18.969667
_cell_length_b 9.055183
_cell_length_c 25.320070
_cell_angle_alpha 90.000000
_cell_angle_beta 41.042701
_cell_angle_gamma 90.000000
_cell_volume 2855.859351
_symmetry_space_group_name_H-M "C 2/M"
_symmetry_group_IT_number 12
_symmetry_cell_setting 'monoclinic'
loop_
_space_group_symop_operation_xyz
x,y,z
-x,y,-z
-x,-y,-z
x,-y,z
1/2+x,1/2+y,z
1/2-x,1/2+y,-z
1/2-x,1/2-y,-z
1/2+x,1/2-y,z
loop_
_atom_site_type_symbol
_atom_site_label
_atom_site_fract_x
_atom_site_fract_y
_atom_site_fract_z
Si Si1 0.832683 0.171137 0.830670
Si Si2 0.424359 0.172009 0.491865
Si Si3 0.184683 0.173473 0.760374
Si Si4 0.880119 0.173691 0.080290
Si Si5 0.960849 0.676691 0.245739
Si Si6 0.223211 0.675497 0.570952
Si Si7 0.100170 0.828537 0.330142
O O1 0.713984 0.239957 0.896562
O O2 0.872783 0.178880 0.747087
O O3 0.919913 0.260483 0.814874
O O4 0.830576 0.000000 0.847694
O O5 0.500000 0.185870 0.500000
O O6 0.315721 0.263867 0.557344
O O7 0.494646 0.237508 0.404468
O O8 0.399567 0.000000 0.497324
O O9 0.140932 0.185329 0.845058
O O10 0.102422 0.247791 0.766563
O O11 0.298844 0.255992 0.697008
O O12 0.199922 0.000000 0.739263
O O13 0.873146 0.000000 0.070277
O O14 0.000000 0.226627 0.000000
O O15 0.961825 0.500000 0.238935
O O16 0.890551 0.711711 0.338029
O O17 0.230701 0.500000 0.561219
O O18 0.250000 0.750000 0.500000
O O19 0.086614 0.000000 0.352753
#
# Coordination Sequence:
#
# PCOD9195626 Si02
#       7
#     8   8   8   8   8   8   8
#     4  10  21  36  57  84 111 142 181 223 268 322
#     4  11  23  36  52  76 106 141 183 232 281 327
#     4  10  20  35  58  85 113 146 183 225 274 327
#     4   9  19  38  63  89 116 145 178 218 267 325
#     4  11  23  38  56  80 112 148 187 230 276 328
#     4  11  24  39  56  78 107 146 189 235 284 331
#     4  10  20  35  55  78 106 141 183 229 275 327
#
# _framework density 19.608809000000001
#
# number of rings (size 3 to 8) (size 9 to 14) (size 15 to 20)
#    0.000    1.714    0.000    4.286    0.000   10.571 
#    0.000    0.714    0.000    0.000    0.000    0.000 
#    0.000    0.000    0.000    0.000    0.000    0.000 
#
# Total GULP energy -156532.419477 kJ/mol
# GULP energy per Si atom -5590.443553 kJ/mol
# Density = 1.956418 g / cm^3
# Si number density = 19.608809 Si / 1000 Ang^3
#
#
#
# Elastic Constant Matrix: (Units=GPa)
#
#
# Indices 1 2 3 4 5 6 
#
# 1 94.0069 35.1419 3.7087 0.0000 -25.6954 0.0000
# 2 35.1419 56.8244 11.9094 0.0000 -11.1311 -0.0001
# 3 3.7087 11.9094 53.7298 0.0000 -28.6977 0.0000
# 4 0.0000 0.0000 0.0000 21.1782 0.0000 -5.3191
# 5 -25.6954 -11.1311 -28.6977 0.0000 29.2235 0.0000
# 6 0.0000 -0.0001 0.0000 -5.3191 0.0000 35.0367
#
#
#
# Elastic Compliance Matrix: (Units=1/GPa)
#
#
# Indices 1 2 3 4 5 6 
#
# 1 0.024853 -0.012382 0.021413 0.000000 0.038164 0.000000
# 2 -0.012382 0.025199 -0.011397 0.000000 -0.012480 0.000000
# 3 0.021413 -0.011397 0.057618 0.000000 0.071068 0.000000
# 4 0.000000 0.000000 0.000000 0.049090 0.000000 0.007453
# 5 0.038164 -0.012480 0.071068 0.000000 0.132811 0.000000
# 6 0.000000 0.000000 0.000000 0.007453 0.000000 0.029673
#
#
# Mechanical properties :
#
#
# Convention : Reuss Voigt Hill
#
# Bulk Modulus (GPa) = 9.71455 34.00900 21.86177
# Shear Modulus (GPa) = 13.95525 27.34109 20.64817
#
# Velocity S-wave (km/s) = 2.67063 3.73812 3.24852
# Velocity P-wave (km/s) = 3.80455 6.00106 5.02431
#
# Compressibility (1/GPa) = 0.10293841
#
# Stress axis : x y z
#
# Youngs Moduli (GPa) = 40.23705 39.68398 17.35567
#
# Poissons Ratio (x) = 0.49135 -0.37163
# Poissons Ratio (y) = 0.49820 0.19780
# Poissons Ratio (z) = -0.86158 0.45226
#
# Static dielectric constant tensor:
#      x y z
#    x 1.696190 0.000000 0.011210 
#    y 0.000000 1.657480 0.000000 
#    z 0.011210 0.000000 1.690480 
# 
# From -- ./inp_files/362971.got.cif
#   From: 2010.05.17/outbox.cif.g08.bks.cpg/sg12_182_cif.got.tgz:362971.got - 2010.06.03 13:09:07.
