data_PCOD9195480
_publ_section_title
;
Structure prediction by ZEFSAII (Michael W. Deem and Ramdas Pophale) SiO2 
 PCOD9195480
Probable space group: C 2/M
;
_chemical_formula_sum "Si O2"
_cell_formula_units_Z 64
_cell_length_a 25.664842
_cell_length_b 7.886252
_cell_length_c 15.689831
_cell_angle_alpha 90.000000
_cell_angle_beta 68.931081
_cell_angle_gamma 90.000000
_cell_volume 2963.318681
_symmetry_space_group_name_H-M "C 2/M"
_symmetry_group_IT_number 12
_symmetry_cell_setting 'monoclinic'
loop_
_space_group_symop_operation_xyz
x,y,z
-x,y,-z
-x,-y,-z
x,-y,z
1/2+x,1/2+y,z
1/2-x,1/2+y,-z
1/2-x,1/2-y,-z
1/2+x,1/2-y,z
loop_
_atom_site_type_symbol
_atom_site_label
_atom_site_fract_x
_atom_site_fract_y
_atom_site_fract_z
Si Si1 0.463017 0.793565 0.943875
Si Si2 0.526717 0.202983 0.253534
Si Si3 0.666102 0.201622 0.497638
Si Si4 0.956530 0.291868 0.453151
Si Si5 0.768769 0.195821 0.182228
Si Si6 0.785052 0.793920 0.357934
Si Si7 0.347306 0.692388 0.793426
Si Si8 0.338258 0.196081 0.986334
O O1 0.479399 0.732233 0.839566
O O2 0.467519 0.000000 0.940608
O O3 0.500000 0.729671 0.000000
O O4 0.397601 0.754089 0.992349
O O5 0.481739 0.264842 0.347841
O O6 0.589658 0.240141 0.248490
O O7 0.521541 0.000000 0.252653
O O8 0.607058 0.267451 0.498432
O O9 0.723350 0.268756 0.422876
O O10 0.672254 0.233525 0.595256
O O11 0.666539 0.000000 0.482950
O O12 0.955591 0.500000 0.454207
O O13 0.000000 0.238940 0.500000
O O14 0.794302 0.262203 0.255542
O O15 0.701661 0.209097 0.225902
O O16 0.791461 0.286101 0.084975
O O17 0.784208 0.000000 0.163366
O O18 0.784779 0.000000 0.358555
O O19 0.346037 0.500000 0.764706
O O20 0.331562 0.702129 0.903213
O O21 0.342284 0.000000 0.956282
#
# Coordination Sequence:
#
# PCOD9195480 Si02
#       8
#     8   8   8   8   8   8   8   8
#     4   8  15  29  50  75 103 134 172 216 262 312
#     4   9  18  33  53  78 106 140 179 223 276 325
#     4   9  18  35  57  81 109 142 184 230 274 323
#     4   9  18  31  55  85 110 140 186 234 274 324
#     4  11  22  35  54  79 107 141 182 224 271 325
#     4   9  20  36  55  79 109 147 183 223 279 330
#     4  11  22  36  54  76 108 144 180 221 270 328
#     4  10  20  35  54  79 110 142 178 222 269 318
#
# _framework density 21.597408000000001
#
# number of rings (size 3 to 8) (size 9 to 14) (size 15 to 20)
#    0.000    2.500    0.000    3.000    1.750    2.000 
#    0.000    3.125    0.000   11.625    0.000    0.000 
#    0.000    0.000    0.000    0.000    0.000    0.000 
#
# Total GULP energy -178645.709587 kJ/mol
# GULP energy per Si atom -5582.678425 kJ/mol
# Density = 2.154825 g / cm^3
# Si number density = 21.597408 Si / 1000 Ang^3
#
#
#
# Elastic Constant Matrix: (Units=GPa)
#
#
# Indices 1 2 3 4 5 6 
#
# 1 104.6015 -2.5214 8.1421 0.0000 8.4451 0.0000
# 2 -2.5214 25.9174 -3.1302 0.0000 -1.5653 0.0000
# 3 8.1421 -3.1302 19.5838 0.0000 -5.2978 0.0000
# 4 0.0000 0.0000 0.0000 9.3816 0.0000 2.4732
# 5 8.4451 -1.5653 -5.2978 0.0000 21.6910 0.0000
# 6 0.0000 0.0000 0.0000 2.4732 0.0000 11.7927
#
#
#
# Elastic Compliance Matrix: (Units=1/GPa)
#
#
# Indices 1 2 3 4 5 6 
#
# 1 0.010458 -0.000020 -0.005839 0.000000 -0.005499 0.000000
# 2 -0.000020 0.039793 0.007653 0.000000 0.004749 0.000000
# 3 -0.005839 0.007653 0.059402 0.000000 0.017334 0.000000
# 4 0.000000 0.000000 0.000000 0.112830 0.000000 -0.023663
# 5 -0.005499 0.004749 0.017334 0.000000 0.052819 0.000000
# 6 0.000000 0.000000 0.000000 -0.023663 0.000000 0.089761
#
#
# Mechanical properties :
#
#
# Convention : Reuss Voigt Hill
#
# Bulk Modulus (GPa) = 8.83057 17.23151 13.03104
# Shear Modulus (GPa) = 12.52435 18.41388 15.46911
#
# Velocity S-wave (km/s) = 2.41073 2.92309 2.67919
# Velocity P-wave (km/s) = 3.44186 4.40323 3.95189
#
# Compressibility (1/GPa) = 0.11324302
#
# Stress axis : x y z
#
# Youngs Moduli (GPa) = 95.61985 25.12984 16.83431
#
# Poissons Ratio (x) = 0.00050 0.09829
# Poissons Ratio (y) = 0.00190 -0.12884
# Poissons Ratio (z) = 0.55831 -0.19233
#
# Static dielectric constant tensor:
#      x y z
#    x 1.782160 0.000000 -0.004240 
#    y 0.000000 1.777600 0.000000 
#    z -0.004240 0.000000 1.791930 
# 
# From -- ./inp_files/243786.got.cif
#   From: 2010.05.17/outbox.cif.g08.bks.cpg/sg12_122_cif.got.tgz:243786.got - 2010.06.03 13:09:07.
