data_PCOD9195876
_publ_section_title
;
Structure prediction by ZEFSAII (Michael W. Deem and Ramdas Pophale) SiO2 
 PCOD9195876
Probable space group: C 2/M
;
_chemical_formula_sum "Si O2"
_cell_formula_units_Z 64
_cell_length_a 24.920373
_cell_length_b 8.826201
_cell_length_c 16.571114
_cell_angle_alpha 90.000000
_cell_angle_beta 88.517571
_cell_angle_gamma 90.000000
_cell_volume 3643.633419
_symmetry_space_group_name_H-M "C 2/M"
_symmetry_group_IT_number 12
_symmetry_cell_setting 'monoclinic'
loop_
_space_group_symop_operation_xyz
x,y,z
-x,y,-z
-x,-y,-z
x,-y,z
1/2+x,1/2+y,z
1/2-x,1/2+y,-z
1/2-x,1/2-y,-z
1/2+x,1/2-y,z
loop_
_atom_site_type_symbol
_atom_site_label
_atom_site_fract_x
_atom_site_fract_y
_atom_site_fract_z
Si Si1 0.214311 0.181111 0.263795
Si Si2 0.823250 0.180309 0.205852
Si Si3 0.305614 0.180111 0.030352
Si Si4 0.118220 0.817702 0.380136
Si Si5 0.365474 0.319660 0.883786
Si Si6 0.960989 0.182262 0.763150
Si Si7 0.058743 0.682427 0.528573
Si Si8 0.072340 0.318375 0.714907
O O1 0.269941 0.267655 0.255510
O O2 0.175313 0.225887 0.338987
O O3 0.179639 0.207238 0.183516
O O4 0.223928 0.000000 0.267994
O O5 0.818399 0.251379 0.116948
O O6 0.875985 0.243696 0.247004
O O7 0.825223 0.000000 0.200018
O O8 0.300244 0.000000 0.036497
O O9 0.250000 0.250000 0.000000
O O10 0.350320 0.227069 0.963293
O O11 0.072746 0.774704 0.315891
O O12 0.102726 0.746895 0.465666
O O13 0.117640 0.000000 0.385517
O O14 0.364580 0.500000 0.901326
O O15 0.422227 0.282161 0.839992
O O16 0.017815 0.263337 0.759665
O O17 0.968004 0.000000 0.761200
O O18 0.059662 0.500000 0.524537
O O19 0.067716 0.726965 0.620801
O O20 0.000000 0.733845 0.500000
O O21 0.076391 0.500000 0.718942
#
# Coordination Sequence:
#
# PCOD9195876 Si02
#       8
#     8   8   8   8   8   8   8   8
#     4   9  18  35  57  83 116 150 186 231 285 339
#     4  12  25  40  59  84 114 152 194 236 287 342
#     4  12  23  37  59  88 118 149 191 236 281 334
#     4   9  18  32  56  87 115 147 186 234 285 333
#     4   9  18  34  58  86 117 149 184 233 287 335
#     4   9  18  34  56  85 117 150 187 230 284 339
#     4  10  20  35  55  84 116 149 190 237 284 333
#     4  11  23  39  58  81 116 157 192 234 288 341
#
# _framework density 17.564885
#
# number of rings (size 3 to 8) (size 9 to 14) (size 15 to 20)
#    0.000    1.875    2.500    4.125    0.000    2.250 
#    0.000    3.750    0.000    3.750    0.000    0.000 
#    0.000    0.000    0.000    0.000    0.000    0.000 
#
# Total GULP energy -178695.103892 kJ/mol
# GULP energy per Si atom -5584.221997 kJ/mol
# Density = 1.752491 g / cm^3
# Si number density = 17.564885 Si / 1000 Ang^3
#
#
#
# Elastic Constant Matrix: (Units=GPa)
#
#
# Indices 1 2 3 4 5 6 
#
# 1 153.4627 71.8940 81.9818 0.0000 -8.3009 0.0000
# 2 71.8940 76.2718 53.5363 0.0000 -2.4596 0.0000
# 3 81.9818 53.5363 109.5780 0.0000 -6.8315 0.0000
# 4 0.0000 0.0000 0.0000 28.6161 0.0000 -5.6932
# 5 -8.3009 -2.4596 -6.8315 0.0000 28.2277 0.0000
# 6 0.0000 0.0000 0.0000 -5.6932 0.0000 33.2285
#
#
#
# Elastic Compliance Matrix: (Units=1/GPa)
#
#
# Indices 1 2 3 4 5 6 
#
# 1 0.014007 -0.008932 -0.005998 0.000000 0.001889 0.000000
# 2 -0.008932 0.025661 -0.005969 0.000000 -0.001835 0.000000
# 3 -0.005998 -0.005969 0.016638 0.000000 0.001743 0.000000
# 4 0.000000 0.000000 0.000000 0.036179 0.000000 0.006199
# 5 0.001889 -0.001835 0.001743 0.000000 0.036244 0.000000
# 6 0.000000 0.000000 0.000000 0.006199 0.000000 0.031157
#
#
# Mechanical properties :
#
#
# Convention : Reuss Voigt Hill
#
# Bulk Modulus (GPa) = 68.92525 83.79297 76.35911
# Shear Modulus (GPa) = 24.21087 26.80781 25.50934
#
# Velocity S-wave (km/s) = 3.71667 3.91092 3.81503
# Velocity P-wave (km/s) = 7.59893 8.25846 7.93555
#
# Compressibility (1/GPa) = 0.01450847
#
# Stress axis : x y z
#
# Youngs Moduli (GPa) = 71.39249 38.96962 60.10352
#
# Poissons Ratio (x) = 0.34809 0.36048
# Poissons Ratio (y) = 0.63770 0.35874
# Poissons Ratio (z) = 0.42819 0.23260
#
# Static dielectric constant tensor:
#      x y z
#    x 1.586470 0.000000 -0.015100 
#    y 0.000000 1.586480 0.000000 
#    z -0.015100 0.000000 1.585770 
# 
# From -- ./inp_files/238788.got.cif
#   From: 2010.05.17/outbox.cif.g08.bks.cpg/sg12_120_cif.got.tgz:238788.got - 2010.06.03 13:09:07.
