data_PCOD9195710
_publ_section_title
;
Structure prediction by ZEFSAII (Michael W. Deem and Ramdas Pophale) SiO2 
 PCOD9195710
Probable space group: C 2/M
;
_chemical_formula_sum "Si O2"
_cell_formula_units_Z 56
_cell_length_a 25.716641
_cell_length_b 8.639965
_cell_length_c 15.524529
_cell_angle_alpha 90.000000
_cell_angle_beta 105.766943
_cell_angle_gamma 90.000000
_cell_volume 3319.624474
_symmetry_space_group_name_H-M "C 2/M"
_symmetry_group_IT_number 12
_symmetry_cell_setting 'monoclinic'
loop_
_space_group_symop_operation_xyz
x,y,z
-x,y,-z
-x,-y,-z
x,-y,z
1/2+x,1/2+y,z
1/2-x,1/2+y,-z
1/2-x,1/2-y,-z
1/2+x,1/2-y,z
loop_
_atom_site_type_symbol
_atom_site_label
_atom_site_fract_x
_atom_site_fract_y
_atom_site_fract_z
Si Si1 0.949670 0.187415 0.790174
Si Si2 0.542036 0.687706 0.398934
Si Si3 0.349553 0.815147 0.220830
Si Si4 0.257963 0.815840 0.907350
Si Si5 0.626104 0.685781 0.088208
Si Si6 0.433339 0.814310 0.106066
Si Si7 0.920754 0.187180 0.400845
O O1 0.940122 0.239579 0.687443
O O2 0.903385 0.232649 0.836600
O O3 0.007223 0.251681 0.847068
O O4 0.952975 0.000000 0.791808
O O5 0.543204 0.500000 0.400396
O O6 0.479387 0.730422 0.387321
O O7 0.576243 0.736829 0.497777
O O8 0.292771 0.738451 0.171965
O O9 0.392700 0.771445 0.165598
O O10 0.374454 0.760595 0.322228
O O11 0.343644 0.000000 0.216608
O O12 0.314268 0.753650 0.895664
O O13 0.259758 0.000000 0.913317
O O14 0.250000 0.750000 0.000000
O O15 0.628929 0.500000 0.086212
O O16 0.590150 0.744603 0.992261
O O17 0.434507 0.000000 0.100236
O O18 0.916599 0.000000 0.395387
#
# Coordination Sequence:
#
# PCOD9195710 Si02
#       7
#     8   8   8   8   8   8   8
#     4  10  20  35  55  79 110 146 182 219 265 321
#     4   8  15  29  52  80 108 138 176 218 262 316
#     4  11  22  35  53  80 112 142 175 220 270 316
#     4  12  24  39  59  79 103 139 180 226 268 315
#     4  11  23  37  55  78 107 145 183 222 266 318
#     4  11  22  34  51  77 111 148 180 218 266 317
#     4   9  16  30  54  80 106 140 178 218 264 316
#
# _framework density 16.869378999999999
#
# number of rings (size 3 to 8) (size 9 to 14) (size 15 to 20)
#    0.000    1.714    2.857    3.857    0.000    4.000 
#    0.000    2.143    0.000    0.857    0.000    0.000 
#    0.000    0.000    0.000    0.000    0.000    0.000 
#
# Total GULP energy -156347.536793 kJ/mol
# GULP energy per Si atom -5583.840600 kJ/mol
# Density = 1.683098 g / cm^3
# Si number density = 16.869379 Si / 1000 Ang^3
#
#
#
# Elastic Constant Matrix: (Units=GPa)
#
#
# Indices 1 2 3 4 5 6 
#
# 1 128.4250 40.0327 93.9638 0.0000 -13.8200 0.0000
# 2 40.0327 39.2043 39.4931 0.0000 -6.6407 0.0000
# 3 93.9638 39.4931 172.1388 0.0000 -1.2960 0.0000
# 4 0.0000 0.0000 0.0000 21.0211 0.0000 6.0751
# 5 -13.8200 -6.6407 -1.2960 0.0000 17.9301 0.0000
# 6 0.0000 0.0000 0.0000 6.0751 0.0000 24.3711
#
#
#
# Elastic Compliance Matrix: (Units=1/GPa)
#
#
# Indices 1 2 3 4 5 6 
#
# 1 0.016480 -0.008172 -0.007052 0.000000 0.009166 0.000000
# 2 -0.008172 0.039897 -0.004631 0.000000 0.008143 0.000000
# 3 -0.007052 -0.004631 0.010673 0.000000 -0.006379 0.000000
# 4 0.000000 0.000000 0.000000 0.051264 0.000000 -0.012779
# 5 0.009166 0.008143 -0.006379 0.000000 0.065392 0.000000
# 6 0.000000 0.000000 0.000000 -0.012779 0.000000 0.044218
#
#
# Mechanical properties :
#
#
# Convention : Reuss Voigt Hill
#
# Bulk Modulus (GPa) = 36.57683 76.30524 56.44103
# Shear Modulus (GPa) = 18.06704 23.74970 20.90837
#
# Velocity S-wave (km/s) = 3.27616 3.75621 3.52437
# Velocity P-wave (km/s) = 6.00337 8.00896 7.07756
#
# Compressibility (1/GPa) = 0.02733972
#
# Stress axis : x y z
#
# Youngs Moduli (GPa) = 60.67977 25.06477 93.69260
#
# Poissons Ratio (x) = 0.20482 0.66072
# Poissons Ratio (y) = 0.49585 0.43393
# Poissons Ratio (z) = 0.42791 0.11609
#
# Static dielectric constant tensor:
#      x y z
#    x 1.544060 0.000000 -0.018360 
#    y 0.000000 1.569540 0.000000 
#    z -0.018360 0.000000 1.570790 
# 
# From -- ./inp_files/237887.got.cif
#   From: 2010.05.17/outbox.cif.g08.bks.cpg/sg12_119_cif.got.tgz:237887.got - 2010.06.03 13:09:07.
