data_PCOD9195352
_publ_section_title
;
Structure prediction by ZEFSAII (Michael W. Deem and Ramdas Pophale) SiO2 
 PCOD9195352
Probable space group: C 2/M
;
_chemical_formula_sum "Si O2"
_cell_formula_units_Z 48
_cell_length_a 28.497848
_cell_length_b 8.940764
_cell_length_c 11.584634
_cell_angle_alpha 90.000000
_cell_angle_beta 102.701608
_cell_angle_gamma 90.000000
_cell_volume 2879.445879
_symmetry_space_group_name_H-M "C 2/M"
_symmetry_group_IT_number 12
_symmetry_cell_setting 'monoclinic'
loop_
_space_group_symop_operation_xyz
x,y,z
-x,y,-z
-x,-y,-z
x,-y,z
1/2+x,1/2+y,z
1/2-x,1/2+y,-z
1/2-x,1/2-y,-z
1/2+x,1/2-y,z
loop_
_atom_site_type_symbol
_atom_site_label
_atom_site_fract_x
_atom_site_fract_y
_atom_site_fract_z
Si Si1 0.676148 0.678185 0.409318
Si Si2 0.777924 0.321749 0.343285
Si Si3 0.495102 0.671780 0.137082
Si Si4 0.791538 0.820837 0.100927
Si Si5 0.093398 0.677717 0.214613
Si Si6 0.108482 0.179994 0.971813
O O1 0.670760 0.500000 0.418814
O O2 0.722682 0.705731 0.352737
O O3 0.689130 0.752006 0.538592
O O4 0.629664 0.748909 0.325024
O O5 0.784789 0.500000 0.340700
O O6 0.787926 0.246561 0.226461
O O7 0.501421 0.500000 0.179022
O O8 0.538375 0.771536 0.206753
O O9 0.500000 0.672427 0.000000
O O10 0.439987 0.720538 0.124947
O O11 0.785981 0.000000 0.101785
O O12 0.750000 0.750000 0.000000
O O13 0.843075 0.787243 0.070804
O O14 0.097452 0.500000 0.218404
O O15 0.107167 0.739785 0.094840
O O16 0.105871 0.000000 0.990817
#
# Coordination Sequence:
#
# PCOD9195352 Si02
#       6
#     8   8   8   8   8   8
#     4  10  20  35  54  73  98 133 168 202 243 295
#     4  10  21  36  53  75 101 129 165 207 249 291
#     4   8  15  30  49  68  95 131 167 203 245 293
#     4  11  22  35  52  75 103 135 169 202 242 293
#     4  11  20  29  48  78 105 128 162 208 253 293
#     4   9  19  34  50  70 100 137 171 202 241 295
#
# _framework density 16.669874
#
# number of rings (size 3 to 8) (size 9 to 14) (size 15 to 20)
#    0.000    2.167    0.000    5.000    0.000   10.333 
#    0.000    0.000    0.000    1.000    0.000    7.000 
#    0.000    0.000    0.000    0.000    0.000    0.000 
#
# Total GULP energy -133935.246991 kJ/mol
# GULP energy per Si atom -5580.635291 kJ/mol
# Density = 1.663193 g / cm^3
# Si number density = 16.669874 Si / 1000 Ang^3
#
#
#
# Elastic Constant Matrix: (Units=GPa)
#
#
# Indices 1 2 3 4 5 6 
#
# 1 144.5746 74.3770 84.6100 0.0000 20.1270 0.0000
# 2 74.3770 82.1998 60.7918 0.0000 12.2297 0.0000
# 3 84.6100 60.7918 106.5597 0.0000 14.9444 0.0000
# 4 0.0000 0.0000 0.0000 30.9777 0.0000 3.5762
# 5 20.1270 12.2297 14.9444 0.0000 29.1380 0.0000
# 6 0.0000 0.0000 0.0000 3.5762 0.0000 25.7421
#
#
#
# Elastic Compliance Matrix: (Units=1/GPa)
#
#
# Indices 1 2 3 4 5 6 
#
# 1 0.016234 -0.008625 -0.007440 0.000000 -0.003778 0.000000
# 2 -0.008625 0.025854 -0.007774 0.000000 -0.000907 0.000000
# 3 -0.007440 -0.007774 0.019986 0.000000 -0.001849 0.000000
# 4 0.000000 0.000000 0.000000 0.032807 0.000000 -0.004558
# 5 -0.003778 -0.000907 -0.001849 0.000000 0.038258 0.000000
# 6 0.000000 0.000000 0.000000 -0.004558 0.000000 0.039480
#
#
# Mechanical properties :
#
#
# Convention : Reuss Voigt Hill
#
# Bulk Modulus (GPa) = 69.46163 85.87684 77.66924
# Shear Modulus (GPa) = 22.21291 24.74190 23.47740
#
# Velocity S-wave (km/s) = 3.65433 3.85675 3.75690
# Velocity P-wave (km/s) = 7.71783 8.45344 8.09400
#
# Compressibility (1/GPa) = 0.01439644
#
# Stress axis : x y z
#
# Youngs Moduli (GPa) = 61.60021 38.67925 50.03489
#
# Poissons Ratio (x) = 0.33359 0.37225
# Poissons Ratio (y) = 0.53128 0.38898
# Poissons Ratio (z) = 0.45829 0.30070
#
# Static dielectric constant tensor:
#      x y z
#    x 1.578900 0.000000 0.008240 
#    y 0.000000 1.553150 0.000000 
#    z 0.008240 0.000000 1.524860 
# 
# From -- ./inp_files/172396.got.cif
#   From: 2010.05.17/outbox.cif.g08.bks.cpg/sg12_87_cif.got.tgz:172396.got - 2010.06.03 13:09:07.
