data_PCOD9195830
_publ_section_title
;
Structure prediction by ZEFSAII (Michael W. Deem and Ramdas Pophale) SiO2 
 PCOD9195830
Probable space group: C 2/M
;
_chemical_formula_sum "Si O2"
_cell_formula_units_Z 48
_cell_length_a 8.356450
_cell_length_b 20.005099
_cell_length_c 14.731636
_cell_angle_alpha 90.000000
_cell_angle_beta 68.786197
_cell_angle_gamma 90.000000
_cell_volume 2295.829748
_symmetry_space_group_name_H-M "C 2/M"
_symmetry_group_IT_number 12
_symmetry_cell_setting 'monoclinic'
loop_
_space_group_symop_operation_xyz
x,y,z
-x,y,-z
-x,-y,-z
x,-y,z
1/2+x,1/2+y,z
1/2-x,1/2+y,-z
1/2-x,1/2-y,-z
1/2+x,1/2-y,z
loop_
_atom_site_type_symbol
_atom_site_label
_atom_site_fract_x
_atom_site_fract_y
_atom_site_fract_z
Si Si1 0.250556 0.922007 0.215858
Si Si2 0.855133 0.122009 0.144424
Si Si3 0.088216 0.296673 0.395434
Si Si4 0.227338 0.075916 0.022602
Si Si5 0.527365 0.691272 0.717644
Si Si6 0.527529 0.075052 0.316866
O O1 0.316327 0.906864 0.099781
O O2 0.398440 0.915235 0.259507
O O3 0.094777 0.872620 0.271285
O O4 0.197532 0.000000 0.225510
O O5 0.924996 0.186753 0.184650
O O6 0.718887 0.087277 0.238585
O O7 0.025478 0.078368 0.092464
O O8 0.765181 0.125415 0.064556
O O9 0.288773 0.309364 0.369233
O O10 0.996411 0.367054 0.395431
O O11 0.000000 0.263060 0.500000
O O12 0.066772 0.254081 0.307560
O O13 0.274506 0.000000 0.984896
O O14 0.509606 0.000000 0.355074
#
# Coordination Sequence:
#
# PCOD9195830 Si02
#       6
#     8   8   8   8   8   8
#     4   9  19  34  55  83 115 150 180 216 262 311
#     4   9  17  29  51  79 109 145 177 217 259 305
#     4  11  23  39  61  81 101 137 181 227 277 333
#     4   9  15  27  50  80 113 147 185 216 251 310
#     4  10  21  37  58  80 108 139 179 224 270 324
#     4  10  20  35  55  82 114 142 177 224 274 321
#
# _framework density 20.907475000000002
#
# number of rings (size 3 to 8) (size 9 to 14) (size 15 to 20)
#    0.000    2.333    0.000    3.500    0.000    5.667 
#    0.000    2.500    0.000   68.500    0.000    0.000 
#    0.000    0.000    0.000    0.000    0.000    0.000 
#
# Total GULP energy -133728.609520 kJ/mol
# GULP energy per Si atom -5572.025397 kJ/mol
# Density = 2.085989 g / cm^3
# Si number density = 20.907475 Si / 1000 Ang^3
#
#
#
# Elastic Constant Matrix: (Units=GPa)
#
#
# Indices 1 2 3 4 5 6 
#
# 1 59.2991 35.0405 12.7159 0.0000 11.3456 0.0000
# 2 35.0405 78.8488 31.0776 0.0000 18.5569 0.0000
# 3 12.7159 31.0776 62.2714 0.0000 11.7589 0.0000
# 4 0.0000 0.0000 0.0000 20.2424 0.0000 7.3740
# 5 11.3456 18.5569 11.7589 0.0000 30.1839 0.0000
# 6 0.0000 0.0000 0.0000 7.3740 0.0000 30.8035
#
#
#
# Elastic Compliance Matrix: (Units=1/GPa)
#
#
# Indices 1 2 3 4 5 6 
#
# 1 0.023094 -0.009881 0.000764 0.000000 -0.002904 0.000000
# 2 -0.009881 0.021594 -0.007506 0.000000 -0.006638 0.000000
# 3 0.000764 -0.007506 0.020327 0.000000 -0.003591 0.000000
# 4 0.000000 0.000000 0.000000 0.054121 0.000000 -0.012956
# 5 -0.002904 -0.006638 -0.003591 0.000000 0.039702 0.000000
# 6 0.000000 0.000000 0.000000 -0.012956 0.000000 0.035565
#
#
# Mechanical properties :
#
#
# Convention : Reuss Voigt Hill
#
# Bulk Modulus (GPa) = 31.47697 39.78746 35.63222
# Shear Modulus (GPa) = 20.98740 24.35165 22.66953
#
# Velocity S-wave (km/s) = 3.17175 3.41652 3.29641
# Velocity P-wave (km/s) = 5.33867 5.88516 5.61856
#
# Compressibility (1/GPa) = 0.03176925
#
# Stress axis : x y z
#
# Youngs Moduli (GPa) = 43.30121 46.30919 49.19595
#
# Poissons Ratio (x) = 0.45756 -0.03756
# Poissons Ratio (y) = 0.42784 0.36925
# Poissons Ratio (z) = -0.03306 0.34759
#
# Static dielectric constant tensor:
#      x y z
#    x 1.795870 0.000000 0.033030 
#    y 0.000000 1.752560 0.000000 
#    z 0.033030 0.000000 1.778890 
# 
# From -- ./inp_files/196936.got.cif
#   From: 2010.05.17/outbox.cif.g08.bks.cpg/sg12_99_cif.got.tgz:196936.got - 2010.06.03 13:09:07.
