data_PCOD9195076
_publ_section_title
;
Structure prediction by ZEFSAII (Michael W. Deem and Ramdas Pophale) SiO2 
 PCOD9195076
Probable space group: C 2/M
;
_chemical_formula_sum "Si O2"
_cell_formula_units_Z 58
_cell_length_a 19.230687
_cell_length_b 7.903962
_cell_length_c 20.602753
_cell_angle_alpha 90.000000
_cell_angle_beta 68.175932
_cell_angle_gamma 90.000000
_cell_volume 2907.148158
_symmetry_space_group_name_H-M "C 2/M"
_symmetry_group_IT_number 12
_symmetry_cell_setting 'monoclinic'
loop_
_space_group_symop_operation_xyz
x,y,z
-x,y,-z
-x,-y,-z
x,-y,z
1/2+x,1/2+y,z
1/2-x,1/2+y,-z
1/2-x,1/2-y,-z
1/2+x,1/2-y,z
loop_
_atom_site_type_symbol
_atom_site_label
_atom_site_fract_x
_atom_site_fract_y
_atom_site_fract_z
Si Si1 0.666092 0.696096 0.197570
Si Si2 0.000000 0.500000 0.000000
Si Si3 0.581430 0.708424 0.901760
Si Si4 0.872204 0.198831 0.263279
Si Si5 0.795972 0.798014 0.669175
Si Si6 0.282254 0.310498 0.056644
Si Si7 0.985518 0.696550 0.710265
Si Si8 0.454048 0.798876 0.576813
O O1 0.687887 0.500000 0.182809
O O2 0.686630 0.755939 0.262759
O O3 0.713415 0.799169 0.130033
O O4 0.576930 0.712790 0.224211
O O5 0.016832 0.344674 0.939897
O O6 0.566327 0.500000 0.912386
O O7 0.614038 0.736430 0.817909
O O8 0.646043 0.765917 0.931208
O O9 0.788315 0.242370 0.314481
O O10 0.933772 0.287974 0.286121
O O11 0.883912 0.000000 0.266837
O O12 0.864885 0.729995 0.603004
O O13 0.799828 0.000000 0.665769
O O14 0.306882 0.500000 0.036401
O O15 0.250000 0.250000 0.000000
O O16 0.963452 0.500000 0.715543
O O17 0.980052 0.767107 0.638598
O O18 0.500000 0.727912 0.500000
O O19 0.467772 0.000000 0.573574
#
# Coordination Sequence:
#
# PCOD9195076 Si02
#       8
#     8   2   8   8   8   8   8   8
#     4  10  20  36  59  84 114 148 197 244 299 361
#     4  12  26  40  72  82 128 168 206 258 328 390
#     4  10  25  44  63  90 119 163 212 260 315 382
#     4  11  22  39  62  86 122 156 204 257 303 359
#     4  10  20  34  61  91 117 155 201 245 294 360
#     4  11  23  39  60  84 115 149 197 255 308 368
#     4  10  21  36  59  90 120 154 199 247 297 357
#     4   9  19  38  62  90 126 163 198 241 298 359
#
# _framework density 19.950824000000001
#
# number of rings (size 3 to 8) (size 9 to 14) (size 15 to 20)
#    0.000    1.793    1.379    2.276    3.862    3.034 
#    0.000    2.069    0.000    0.000    0.000    0.000 
#    0.000    0.000    0.000    0.000    0.000    0.000 
#
# Total GULP energy -161451.417476 kJ/mol
# GULP energy per Si atom -5567.290258 kJ/mol
# Density = 1.990542 g / cm^3
# Si number density = 19.950824 Si / 1000 Ang^3
#
#
#
# Elastic Constant Matrix: (Units=GPa)
#
#
# Indices 1 2 3 4 5 6 
#
# 1 70.8752 7.8786 1.1755 -0.0002 -4.0049 -0.0003
# 2 7.8786 34.9770 14.5930 -0.0003 5.2296 -0.0006
# 3 1.1755 14.5930 66.7643 -0.0001 -9.8013 -0.0001
# 4 -0.0002 -0.0003 -0.0001 12.9241 -0.0001 -2.5474
# 5 -4.0049 5.2296 -9.8013 -0.0001 19.5282 -0.0001
# 6 -0.0003 -0.0006 -0.0001 -2.5474 -0.0001 24.3466
#
#
#
# Elastic Compliance Matrix: (Units=1/GPa)
#
#
# Indices 1 2 3 4 5 6 
#
# 1 0.014900 -0.004754 0.001525 0.000000 0.005094 0.000000
# 2 -0.004754 0.036260 -0.010159 0.000001 -0.015784 0.000001
# 3 0.001525 -0.010159 0.019018 0.000000 0.012579 0.000000
# 4 0.000000 0.000001 0.000000 0.079004 0.000000 0.008266
# 5 0.005094 -0.015784 0.012579 0.000000 0.062793 0.000000
# 6 0.000000 0.000001 0.000000 0.008266 0.000000 0.041938
#
#
# Mechanical properties :
#
#
# Convention : Reuss Voigt Hill
#
# Bulk Modulus (GPa) = 23.04068 24.43450 23.73759
# Shear Modulus (GPa) = 16.94009 21.29106 19.11558
#
# Velocity S-wave (km/s) = 2.91708 3.27031 3.09873
# Velocity P-wave (km/s) = 4.78744 5.15110 4.97260
#
# Compressibility (1/GPa) = 0.04340150
#
# Stress axis : x y z
#
# Youngs Moduli (GPa) = 67.11251 27.57898 52.58095
#
# Poissons Ratio (x) = 0.13111 -0.08017
# Poissons Ratio (y) = 0.31906 0.53416
# Poissons Ratio (z) = -0.10232 0.28017
#
# Static dielectric constant tensor:
#      x y z
#    x 1.815900 0.000000 0.004290 
#    y 0.000000 1.729760 0.000000 
#    z 0.004290 0.000000 1.710970 
# 
# From -- ./inp_files/314304.got.cif
#   From: 2010.05.17/outbox.cif.g08.bks.cpg/sg12_158_cif.got.tgz:314304.got - 2010.06.03 13:09:07.
