data_PCOD9195948
_publ_section_title
;
Structure prediction by ZEFSAII (Michael W. Deem and Ramdas Pophale) SiO2 
 PCOD9195948
Probable space group: C 2/M
;
_chemical_formula_sum "Si O2"
_cell_formula_units_Z 56
_cell_length_a 7.886033
_cell_length_b 12.699017
_cell_length_c 28.395944
_cell_angle_alpha 90.000000
_cell_angle_beta 114.258202
_cell_angle_gamma 90.000000
_cell_volume 2592.617830
_symmetry_space_group_name_H-M "C 2/M"
_symmetry_group_IT_number 12
_symmetry_cell_setting 'monoclinic'
loop_
_space_group_symop_operation_xyz
x,y,z
-x,y,-z
-x,-y,-z
x,-y,z
1/2+x,1/2+y,z
1/2-x,1/2+y,-z
1/2-x,1/2-y,-z
1/2+x,1/2-y,z
loop_
_atom_site_type_symbol
_atom_site_label
_atom_site_fract_x
_atom_site_fract_y
_atom_site_fract_z
Si Si1 0.421583 0.117184 0.402460
Si Si2 0.673557 0.386328 0.951893
Si Si3 0.153698 0.118758 0.283064
Si Si4 0.684446 0.307299 0.539803
Si Si5 0.622156 0.788575 0.774935
Si Si6 0.766365 0.836722 0.932032
Si Si7 0.101933 0.381710 0.167104
O O1 0.308840 0.127320 0.341142
O O2 0.362806 0.213630 0.429128
O O3 0.643401 0.126745 0.421201
O O4 0.380167 0.000000 0.417588
O O5 0.729991 0.500000 0.939903
O O6 0.768963 0.289582 0.937042
O O7 0.449489 0.374104 0.925331
O O8 0.720886 0.377474 0.012806
O O9 0.247652 0.141892 0.243299
O O10 0.997605 0.207908 0.270486
O O11 0.078249 0.000000 0.276183
O O12 0.500000 0.365751 0.500000
O O13 0.750000 0.250000 0.500000
O O14 0.745993 0.710231 0.821506
O O15 0.486337 0.857549 0.791460
O O16 0.574349 0.871063 0.887206
O O17 0.177643 0.500000 0.172867
#
# Coordination Sequence:
#
# PCOD9195948 Si02
#       7
#     8   8   8   8   8   8   8
#     4  10  20  35  57  79 105 145 182 217 264 311
#     4  10  20  37  55  76 107 139 172 218 263 306
#     4  10  20  37  57  79 106 138 179 222 263 310
#     4   9  19  34  52  79 112 141 176 218 258 307
#     4  10  22  36  55  80 107 137 174 220 268 318
#     4  10  20  35  56  79 104 138 179 213 259 323
#     4  11  21  36  55  78 107 139 173 215 268 319
#
# _framework density 21.599789999999999
#
# number of rings (size 3 to 8) (size 9 to 14) (size 15 to 20)
#    0.000    2.000    0.000    4.286    0.000    2.857 
#    0.000   14.286    0.000   12.000    0.000    0.000 
#    0.000    0.000    0.000    0.000    0.000    0.000 
#
# Total GULP energy -156466.348237 kJ/mol
# GULP energy per Si atom -5588.083866 kJ/mol
# Density = 2.155063 g / cm^3
# Si number density = 21.599790 Si / 1000 Ang^3
#
#
#
# Elastic Constant Matrix: (Units=GPa)
#
#
# Indices 1 2 3 4 5 6 
#
# 1 30.6193 0.5304 10.3549 0.0000 10.0170 0.0000
# 2 0.5304 120.3689 22.1231 0.0000 0.7931 0.0000
# 3 10.3549 22.1231 88.7108 0.0000 32.4225 0.0000
# 4 0.0000 0.0000 0.0000 -11.2939 0.0000 -24.1579
# 5 10.0170 0.7931 32.4225 0.0000 40.0468 0.0000
# 6 0.0000 0.0000 0.0000 -24.1579 0.0000 -13.6869
#
#
#
# Elastic Compliance Matrix: (Units=1/GPa)
#
#
# Indices 1 2 3 4 5 6 
#
# 1 0.035674 0.000139 -0.001330 0.000000 -0.007849 0.000000
# 2 0.000139 0.008853 -0.003050 0.000000 0.002259 0.000000
# 3 -0.001330 -0.003050 0.017107 0.000000 -0.013457 0.000000
# 4 0.000000 0.000000 0.000000 0.031902 0.000000 -0.056309
# 5 -0.007849 0.002259 -0.013457 0.000000 0.037784 0.000000
# 6 0.000000 0.000000 0.000000 -0.056309 0.000000 0.026325
#
#
# Mechanical properties :
#
#
# Convention : Reuss Voigt Hill
#
# Bulk Modulus (GPa) = 18.81377 33.96844 26.39110
# Shear Modulus (GPa) = 27.19702 16.79256 21.99479
#
# Velocity S-wave (km/s) = 3.55228 2.79129 3.19452
# Velocity P-wave (km/s) = 5.05509 5.11359 5.08443
#
# Compressibility (1/GPa) = 0.05315256
#
# Stress axis : x y z
#
# Youngs Moduli (GPa) = 28.03130 112.95874 58.45702
#
# Poissons Ratio (x) = -0.01570 0.07775
# Poissons Ratio (y) = -0.00390 0.17827
# Poissons Ratio (z) = 0.03728 0.34448
#
# Static dielectric constant tensor:
#      x y z
#    x 1.789550 0.000000 0.033340 
#    y 0.000000 1.769810 0.000000 
#    z 0.033340 0.000000 1.780030 
# 
# From -- ./inp_files/355768.got.cif
#   From: 2010.05.17/outbox.cif.g08.bks.cpg/sg12_178_cif.got.tgz:355768.got - 2010.06.03 13:09:07.
