data_PCOD9195385
_publ_section_title
;
Structure prediction by ZEFSAII (Michael W. Deem and Ramdas Pophale) SiO2 
 PCOD9195385
Probable space group: C 2/M
;
_chemical_formula_sum "Si O2"
_cell_formula_units_Z 64
_cell_length_a 14.691636
_cell_length_b 9.157411
_cell_length_c 24.626818
_cell_angle_alpha 90.000000
_cell_angle_beta 89.005165
_cell_angle_gamma 90.000000
_cell_volume 3312.727389
_symmetry_space_group_name_H-M "C 2/M"
_symmetry_group_IT_number 12
_symmetry_cell_setting 'monoclinic'
loop_
_space_group_symop_operation_xyz
x,y,z
-x,y,-z
-x,-y,-z
x,-y,z
1/2+x,1/2+y,z
1/2-x,1/2+y,-z
1/2-x,1/2-y,-z
1/2+x,1/2-y,z
loop_
_atom_site_type_symbol
_atom_site_label
_atom_site_fract_x
_atom_site_fract_y
_atom_site_fract_z
Si Si1 0.316491 0.825970 0.732750
Si Si2 0.539677 0.675191 0.200793
Si Si3 0.498643 0.824414 0.088156
Si Si4 0.355499 0.834651 0.400732
Si Si5 0.892766 0.826153 0.294167
Si Si6 0.895381 0.335565 0.517079
Si Si7 0.847836 0.325068 0.002523
Si Si8 0.856643 0.835320 0.625620
O O1 0.364738 0.746056 0.782217
O O2 0.209120 0.791984 0.726885
O O3 0.366248 0.764242 0.678391
O O4 0.326676 0.000000 0.736542
O O5 0.546539 0.500000 0.198705
O O6 0.507395 0.739948 0.144138
O O7 0.466338 0.715165 0.248237
O O8 0.585783 0.791043 0.048981
O O9 0.497735 0.000000 0.096770
O O10 0.407835 0.785747 0.055007
O O11 0.406157 0.747570 0.352878
O O12 0.352258 0.772749 0.461966
O O13 0.251859 0.844338 0.382532
O O14 0.392869 0.000000 0.404617
O O15 0.896148 0.000000 0.301829
O O16 0.858293 0.500000 0.528026
O O17 0.891007 0.238128 0.570357
O O18 0.000000 0.347662 0.500000
O O19 0.835782 0.500000 0.003433
O O20 0.750000 0.250000 0.000000
O O21 0.891916 0.000000 0.633931
#
# Coordination Sequence:
#
# PCOD9195385 Si02
#       8
#     8   8   8   8   8   8   8   8
#     4  10  21  39  60  80 108 150 190 228 284 348
#     4  11  23  38  58  87 119 150 190 243 284 324
#     4   9  20  39  58  84 121 161 197 231 279 342
#     4   9  19  35  54  75 101 135 176 222 274 336
#     4   9  21  39  57  79 109 145 186 231 283 339
#     4  10  21  34  49  75 105 133 173 220 271 341
#     4   9  19  37  62  89 121 158 199 239 281 330
#     4  10  20  35  54  76 102 134 176 227 279 332
#
# _framework density 19.319429
#
# number of rings (size 3 to 8) (size 9 to 14) (size 15 to 20)
#    0.000    2.375    0.000    2.250    1.750    4.750 
#    0.000    5.000    0.000    0.000    0.000    0.000 
#    0.000    0.000    0.000    0.000    0.000    0.000 
#
# Total GULP energy -178578.163051 kJ/mol
# GULP energy per Si atom -5580.567595 kJ/mol
# Density = 1.927546 g / cm^3
# Si number density = 19.319429 Si / 1000 Ang^3
#
#
#
# Elastic Constant Matrix: (Units=GPa)
#
#
# Indices 1 2 3 4 5 6 
#
# 1 88.0703 32.4557 38.6929 0.0000 12.4349 0.0000
# 2 32.4557 48.0227 33.7648 0.0000 5.8160 0.0000
# 3 38.6929 33.7648 100.1403 0.0000 18.7412 0.0000
# 4 0.0000 0.0000 0.0000 32.0441 0.0000 -1.5325
# 5 12.4349 5.8160 18.7412 0.0000 20.4268 0.0000
# 6 0.0000 0.0000 0.0000 -1.5325 0.0000 21.8695
#
#
#
# Elastic Compliance Matrix: (Units=1/GPa)
#
#
# Indices 1 2 3 4 5 6 
#
# 1 0.016373 -0.008747 -0.002388 0.000000 -0.005286 0.000000
# 2 -0.008747 0.031978 -0.008083 0.000000 0.003636 0.000000
# 3 -0.002388 -0.008083 0.015612 0.000000 -0.010569 0.000000
# 4 0.000000 0.000000 0.000000 0.031312 0.000000 0.002194
# 5 -0.005286 0.003636 -0.010569 0.000000 0.060835 0.000000
# 6 0.000000 0.000000 0.000000 0.002194 0.000000 0.045879
#
#
# Mechanical properties :
#
#
# Convention : Reuss Voigt Hill
#
# Bulk Modulus (GPa) = 39.17288 49.56221 44.36754
# Shear Modulus (GPa) = 20.08571 23.62274 21.85423
#
# Velocity S-wave (km/s) = 3.22788 3.50057 3.36699
# Velocity P-wave (km/s) = 5.84916 6.48448 6.17500
#
# Compressibility (1/GPa) = 0.02552787
#
# Stress axis : x y z
#
# Youngs Moduli (GPa) = 61.07480 31.27197 64.05346
#
# Poissons Ratio (x) = 0.27352 0.15296
# Poissons Ratio (y) = 0.53419 0.51774
# Poissons Ratio (z) = 0.14585 0.25277
#
# Static dielectric constant tensor:
#      x y z
#    x 1.701800 0.000000 0.024350 
#    y 0.000000 1.672040 0.000000 
#    z 0.024350 0.000000 1.676510 
# 
# From -- ./inp_files/338822.got.cif
#   From: 2010.05.17/outbox.cif.g08.bks.cpg/sg12_170_cif.got.tgz:338822.got - 2010.06.03 13:09:07.
