data_PCOD9195979
_publ_section_title
;
Structure prediction by ZEFSAII (Michael W. Deem and Ramdas Pophale) SiO2 
 PCOD9195979
Probable space group: C 2/M
;
_chemical_formula_sum "Si O2"
_cell_formula_units_Z 36
_cell_length_a 11.779356
_cell_length_b 31.225055
_cell_length_c 4.987251
_cell_angle_alpha 90.000000
_cell_angle_beta 79.626661
_cell_angle_gamma 90.000000
_cell_volume 1804.383928
_symmetry_space_group_name_H-M "C 2/M"
_symmetry_group_IT_number 12
_symmetry_cell_setting 'monoclinic'
loop_
_space_group_symop_operation_xyz
x,y,z
-x,y,-z
-x,-y,-z
x,-y,z
1/2+x,1/2+y,z
1/2-x,1/2+y,-z
1/2-x,1/2-y,-z
1/2+x,1/2-y,z
loop_
_atom_site_type_symbol
_atom_site_label
_atom_site_fract_x
_atom_site_fract_y
_atom_site_fract_z
Si Si1 0.388846 0.327150 0.370021
Si Si2 0.231119 0.915022 0.538423
Si Si3 0.413048 0.500000 0.290403
Si Si4 0.132052 0.615210 0.028490
Si Si5 0.766392 0.200911 0.918713
O O1 0.500000 0.316917 0.500000
O O2 0.364039 0.377653 0.390380
O O3 0.290478 0.304641 0.593360
O O4 0.370829 0.313888 0.071081
O O5 0.284463 0.908935 0.220126
O O6 0.169756 0.958846 0.644636
O O7 0.334508 0.903872 0.698556
O O8 0.500000 0.500000 0.500000
O O9 0.500000 0.500000 0.000000
O O10 0.167373 0.665648 0.019650
O O11 0.000000 0.610248 0.000000
O O12 0.750000 0.250000 0.000000
#
# Coordination Sequence:
#
# PCOD9195979 Si02
#       5
#     8   8   4   8   8
#     4  10  20  35  56  79 111 147 178 229 293 343
#     4  10  22  39  58  87 116 145 194 237 283 355
#     4  12  24  40  65  92 119 150 186 242 304 354
#     4  10  21  39  60  81 117 161 194 235 289 339
#     4  10  21  36  54  83 113 144 195 241 276 337
#
# _framework density 19.951408000000001
#
# number of rings (size 3 to 8) (size 9 to 14) (size 15 to 20)
#    0.000    1.778    0.000    4.000    0.000    5.333 
#    0.000    3.333    0.000    0.000    0.000    0.000 
#    0.000    0.000    0.000    0.000    0.000    0.000 
#
# Total GULP energy -100387.623306 kJ/mol
# GULP energy per Si atom -5577.090184 kJ/mol
# Density = 1.990600 g / cm^3
# Si number density = 19.951408 Si / 1000 Ang^3
#
#
#
# Elastic Constant Matrix: (Units=GPa)
#
#
# Indices 1 2 3 4 5 6 
#
# 1 71.3821 8.3600 -10.9969 0.0000 11.3683 0.0000
# 2 8.3600 138.1008 14.5601 0.0000 -23.6886 0.0000
# 3 -10.9969 14.5601 95.7577 0.0000 10.5069 0.0000
# 4 0.0000 0.0000 0.0000 13.3870 0.0000 7.5954
# 5 11.3683 -23.6886 10.5069 0.0000 27.4714 0.0000
# 6 0.0000 0.0000 0.0000 7.5954 0.0000 1.7121
#
#
#
# Elastic Compliance Matrix: (Units=1/GPa)
#
#
# Indices 1 2 3 4 5 6 
#
# 1 0.016742 -0.003318 0.003655 0.000000 -0.011187 0.000000
# 2 -0.003318 0.009619 -0.003031 0.000000 0.010827 0.000000
# 3 0.003655 -0.003031 0.012292 0.000000 -0.008828 0.000000
# 4 0.000000 0.000000 0.000000 -0.049240 0.000000 0.218445
# 5 -0.011187 0.010827 -0.008828 0.000000 0.053743 0.000000
# 6 0.000000 0.000000 0.000000 0.218445 0.000000 -0.385013
#
#
# Mechanical properties :
#
#
# Convention : Reuss Voigt Hill
#
# Bulk Modulus (GPa) = 30.06242 36.56524 33.31383
# Shear Modulus (GPa) = -15.36665 28.06858 6.35096
#
# Velocity S-wave (km/s) = -2.77827 3.75487 1.78609
# Velocity P-wave (km/s) = 2.19291 6.09636 4.58118
#
# Compressibility (1/GPa) = 0.03326412
#
# Stress axis : x y z
#
# Youngs Moduli (GPa) = 59.72877 103.96482 81.35186
#
# Poissons Ratio (x) = 0.34493 -0.29731
# Poissons Ratio (y) = 0.19817 0.24662
# Poissons Ratio (z) = -0.21829 0.31517
#
# Static dielectric constant tensor:
#      x y z
#    x 1.715380 0.000000 -0.015740 
#    y 0.000000 1.697600 0.000000 
#    z -0.015740 0.000000 1.695930 
# 
# From -- ./inp_files/7399.got.cif
#   From: 2010.05.17/outbox.cif.g08.bks.cpg/sg12_4_cif.got.tgz:7399.got - 2010.06.03 13:09:07.
