data_PCOD9195920
_publ_section_title
;
Structure prediction by ZEFSAII (Michael W. Deem and Ramdas Pophale) SiO2 
 PCOD9195920
Probable space group: C 2/M
;
_chemical_formula_sum "Si O2"
_cell_formula_units_Z 56
_cell_length_a 25.277659
_cell_length_b 20.744923
_cell_length_c 13.165469
_cell_angle_alpha 90.000000
_cell_angle_beta 27.100802
_cell_angle_gamma 90.000000
_cell_volume 3145.053865
_symmetry_space_group_name_H-M "C 2/M"
_symmetry_group_IT_number 12
_symmetry_cell_setting 'monoclinic'
loop_
_space_group_symop_operation_xyz
x,y,z
-x,y,-z
-x,-y,-z
x,-y,z
1/2+x,1/2+y,z
1/2-x,1/2+y,-z
1/2-x,1/2-y,-z
1/2+x,1/2-y,z
loop_
_atom_site_type_symbol
_atom_site_label
_atom_site_fract_x
_atom_site_fract_y
_atom_site_fract_z
Si Si1 0.363931 0.572870 0.709222
Si Si2 0.672010 0.364137 0.449020
Si Si3 0.478073 0.571591 0.918152
Si Si4 0.951794 0.727629 0.378272
Si Si5 0.407095 0.796116 0.068398
Si Si6 0.210957 0.170941 0.802245
Si Si7 0.350159 0.703055 0.863087
O O1 0.500000 0.566544 0.500000
O O2 0.314079 0.500000 0.813402
O O3 0.339654 0.594667 0.634726
O O4 0.337283 0.636751 0.822169
O O5 0.587337 0.394474 0.677503
O O6 0.618207 0.293274 0.524862
O O7 0.806624 0.350399 0.245367
O O8 0.471721 0.500000 0.886064
O O9 0.500000 0.570221 0.000000
O O10 0.355301 0.606350 0.112653
O O11 0.849867 0.675696 0.568870
O O12 0.033271 0.752828 0.330874
O O13 0.027501 0.704216 0.152492
O O14 0.341817 0.726664 0.180827
O O15 0.500000 0.800756 0.000000
O O16 0.167254 0.185766 0.989901
O O17 0.250000 0.750000 0.000000
#
# Coordination Sequence:
#
# PCOD9195920 Si02
#       7
#     8   8   8   8   8   8   8
#     4  11  21  35  59  86 116 152 194 244 298 349
#     4  11  21  37  58  86 122 148 195 250 290 355
#     4  11  23  39  60  85 114 154 200 242 292 351
#     4  10  20  35  55  88 123 152 191 243 297 359
#     4  10  21  34  57  90 116 156 193 239 307 361
#     4  10  21  35  56  83 123 151 189 247 293 353
#     4  11  21  35  56  88 121 156 200 240 301 361
#
# _framework density 17.805736
#
# number of rings (size 3 to 8) (size 9 to 14) (size 15 to 20)
#    0.000    1.429    4.286    3.429    2.000    2.857 
#    0.000    0.000    0.000    6.000    0.000    5.000 
#    0.000    0.000    0.000    0.000    0.000    0.000 
#
# Total GULP energy -155915.358757 kJ/mol
# GULP energy per Si atom -5568.405670 kJ/mol
# Density = 1.776521 g / cm^3
# Si number density = 17.805736 Si / 1000 Ang^3
#
#
#
# Elastic Constant Matrix: (Units=GPa)
#
#
# Indices 1 2 3 4 5 6 
#
# 1 97.6435 42.0687 36.8420 -0.0002 -8.9275 0.0002
# 2 42.0687 101.7972 36.0391 -0.0001 -10.4166 0.0001
# 3 36.8420 36.0391 81.8537 -0.0003 -14.0872 0.0002
# 4 -0.0002 -0.0001 -0.0003 17.0098 0.0002 -8.3718
# 5 -8.9275 -10.4166 -14.0872 0.0002 25.3894 -0.0001
# 6 0.0002 0.0001 0.0002 -8.3718 -0.0001 40.7690
#
#
#
# Elastic Compliance Matrix: (Units=1/GPa)
#
#
# Indices 1 2 3 4 5 6 
#
# 1 0.013659 -0.004070 -0.004220 0.000000 0.000792 0.000000
# 2 -0.004070 0.012956 -0.003542 0.000000 0.001919 0.000000
# 3 -0.004220 -0.003542 0.016772 0.000000 0.006369 0.000000
# 4 0.000000 0.000000 0.000000 0.065399 0.000000 0.013430
# 5 0.000792 0.001919 0.006369 0.000000 0.043986 0.000000
# 6 0.000000 0.000000 0.000000 0.013430 0.000000 0.027286
#
#
# Mechanical properties :
#
#
# Convention : Reuss Voigt Hill
#
# Bulk Modulus (GPa) = 50.70152 56.79933 53.75042
# Shear Modulus (GPa) = 23.77591 27.72327 25.74959
#
# Velocity S-wave (km/s) = 3.65813 3.95015 3.80694
# Velocity P-wave (km/s) = 6.81023 7.26454 7.04105
#
# Compressibility (1/GPa) = 0.01972328
#
# Stress axis : x y z
#
# Youngs Moduli (GPa) = 73.20967 77.18568 59.62363
#
# Poissons Ratio (x) = 0.31414 0.25160
# Poissons Ratio (y) = 0.29796 0.21120
# Poissons Ratio (z) = 0.30893 0.27340
#
# Static dielectric constant tensor:
#      x y z
#    x 1.598070 0.000000 -0.012430 
#    y 0.000000 1.627450 0.000000 
#    z -0.012430 0.000000 1.672340 
# 
# From -- ./inp_files/177902.got.cif
#   From: 2010.05.17/outbox.cif.g08.bks.cpg/sg12_89_cif.got.tgz:177902.got - 2010.06.03 13:09:07.
