data_PCOD9195197
_publ_section_title
;
Structure prediction by ZEFSAII (Michael W. Deem and Ramdas Pophale) SiO2 
 PCOD9195197
Probable space group: C 2/M
;
_chemical_formula_sum "Si O2"
_cell_formula_units_Z 64
_cell_length_a 23.697604
_cell_length_b 7.620866
_cell_length_c 20.351686
_cell_angle_alpha 90.000000
_cell_angle_beta 123.435594
_cell_angle_gamma 90.000000
_cell_volume 3067.174448
_symmetry_space_group_name_H-M "C 2/M"
_symmetry_group_IT_number 12
_symmetry_cell_setting 'monoclinic'
loop_
_space_group_symop_operation_xyz
x,y,z
-x,y,-z
-x,-y,-z
x,-y,z
1/2+x,1/2+y,z
1/2-x,1/2+y,-z
1/2-x,1/2-y,-z
1/2+x,1/2-y,z
loop_
_atom_site_type_symbol
_atom_site_label
_atom_site_fract_x
_atom_site_fract_y
_atom_site_fract_z
Si Si1 0.943678 0.711598 0.162880
Si Si2 0.277295 0.206129 0.225801
Si Si3 0.020583 0.792486 0.084832
Si Si4 0.560835 0.786304 0.450826
Si Si5 0.591809 0.785247 0.615208
Si Si6 0.292644 0.210729 0.092240
Si Si7 0.842774 0.299802 0.756630
Si Si8 0.582367 0.215188 0.320689
O O1 0.943023 0.500000 0.166177
O O2 0.961720 0.763614 0.100115
O O3 0.869981 0.775756 0.136111
O O4 0.007428 0.769498 0.247966
O O5 0.345695 0.280133 0.301874
O O6 0.263178 0.275054 0.143258
O O7 0.215898 0.220156 0.237067
O O8 0.290677 0.000000 0.226101
O O9 0.087644 0.706419 0.157436
O O10 0.034783 0.000000 0.088952
O O11 0.000000 0.726944 0.000000
O O12 0.595173 0.730261 0.540966
O O13 0.481803 0.734685 0.404675
O O14 0.592028 0.728421 0.401832
O O15 0.561820 0.000000 0.451209
O O16 0.592636 0.000000 0.616007
O O17 0.295358 0.000000 0.095730
O O18 0.250000 0.250000 0.000000
O O19 0.822496 0.500000 0.732565
O O20 0.863802 0.222628 0.699207
O O21 0.583309 0.000000 0.319284
#
# Coordination Sequence:
#
# PCOD9195197 Si02
#       8
#     8   8   8   8   8   8   8   8
#     4   9  18  33  51  73  98 128 165 203 248 302
#     4  10  20  35  52  72 105 139 168 209 259 303
#     4  10  21  35  53  75  98 125 161 210 262 302
#     4   8  12  22  45  76 104 126 162 210 251 298
#     4   8  14  24  44  76 105 131 161 202 256 305
#     4  10  22  36  51  72  99 132 168 207 252 301
#     4  10  21  35  51  72  98 136 178 210 248 302
#     4   8  14  27  47  69  95 126 163 207 249 290
#
# _framework density 20.866111
#
# number of rings (size 3 to 8) (size 9 to 14) (size 15 to 20)
#    0.000    2.875    0.000    3.000    1.750    5.000 
#    0.000    0.625    0.000    0.000    0.000    5.250 
#    0.000    0.000    0.000    0.000    0.000    0.000 
#
# Total GULP energy -178484.071177 kJ/mol
# GULP energy per Si atom -5577.627224 kJ/mol
# Density = 2.081862 g / cm^3
# Si number density = 20.866111 Si / 1000 Ang^3
#
#
#
# Elastic Constant Matrix: (Units=GPa)
#
#
# Indices 1 2 3 4 5 6 
#
# 1 111.8160 4.2255 75.3484 0.0000 -25.7700 0.0000
# 2 4.2255 39.9093 6.2468 0.0000 -0.8732 -0.0001
# 3 75.3484 6.2468 113.1823 0.0000 -35.1859 0.0000
# 4 0.0000 0.0000 0.0000 1.8554 0.0000 3.0475
# 5 -25.7700 -0.8732 -35.1859 0.0000 34.8591 0.0000
# 6 0.0000 -0.0001 0.0000 3.0475 0.0000 14.0587
#
#
#
# Elastic Compliance Matrix: (Units=1/GPa)
#
#
# Indices 1 2 3 4 5 6 
#
# 1 0.016280 -0.000071 -0.010337 0.000000 0.001600 0.000000
# 2 -0.000071 0.025306 -0.001703 0.000000 -0.001138 0.000000
# 3 -0.010337 -0.001703 0.019560 0.000000 0.012059 0.000000
# 4 0.000000 0.000000 0.000000 0.836962 0.000000 -0.181425
# 5 0.001600 -0.001138 0.012059 0.000000 0.042013 0.000000
# 6 0.000000 0.000000 0.000000 -0.181425 0.000000 0.110457
#
#
# Mechanical properties :
#
#
# Convention : Reuss Voigt Hill
#
# Bulk Modulus (GPa) = 27.08261 48.50545 37.79403
# Shear Modulus (GPa) = 4.59936 22.09376 13.34656
#
# Velocity S-wave (km/s) = 1.48627 3.25750 2.53183
# Velocity P-wave (km/s) = 3.99409 6.11923 5.16709
#
# Compressibility (1/GPa) = 0.03692407
#
# Stress axis : x y z
#
# Youngs Moduli (GPa) = 61.42387 39.51626 51.12550
#
# Poissons Ratio (x) = 0.00280 0.52848
# Poissons Ratio (y) = 0.00434 0.08708
# Poissons Ratio (z) = 0.63494 0.06731
#
# Static dielectric constant tensor:
#      x y z
#    x 1.740930 0.000000 -0.032140 
#    y 0.000000 1.799200 0.000000 
#    z -0.032140 0.000000 1.742690 
# 
# From -- ./inp_files/324257.got.cif
#   From: 2010.05.17/outbox.cif.g08.bks.cpg/sg12_163_cif.got.tgz:324257.got - 2010.06.03 13:09:07.
