data_PCOD9195961
_publ_section_title
;
Structure prediction by ZEFSAII (Michael W. Deem and Ramdas Pophale) SiO2 
 PCOD9195961
Probable space group: C 2/M
;
_chemical_formula_sum "Si O2"
_cell_formula_units_Z 64
_cell_length_a 20.781789
_cell_length_b 8.948202
_cell_length_c 19.809243
_cell_angle_alpha 90.000000
_cell_angle_beta 90.055870
_cell_angle_gamma 90.000000
_cell_volume 3683.718062
_symmetry_space_group_name_H-M "C 2/M"
_symmetry_group_IT_number 12
_symmetry_cell_setting 'monoclinic'
loop_
_space_group_symop_operation_xyz
x,y,z
-x,y,-z
-x,-y,-z
x,-y,z
1/2+x,1/2+y,z
1/2-x,1/2+y,-z
1/2-x,1/2-y,-z
1/2+x,1/2-y,z
loop_
_atom_site_type_symbol
_atom_site_label
_atom_site_fract_x
_atom_site_fract_y
_atom_site_fract_z
Si Si1 0.698814 0.677427 0.204374
Si Si2 0.440655 0.821107 0.452960
Si Si3 0.555494 0.178265 0.705525
Si Si4 0.807222 0.821883 0.295587
Si Si5 0.557257 0.821194 0.052277
Si Si6 0.550906 0.679231 0.198916
Si Si7 0.195941 0.178091 0.546555
Si Si8 0.194242 0.821494 0.044756
O O1 0.708066 0.500000 0.215383
O O2 0.749445 0.766911 0.248754
O O3 0.624442 0.714314 0.220627
O O4 0.707052 0.706474 0.124397
O O5 0.500000 0.775876 0.500000
O O6 0.454548 0.790033 0.374155
O O7 0.374474 0.740374 0.471577
O O8 0.431631 0.000000 0.459736
O O9 0.625975 0.241599 0.723302
O O10 0.500915 0.255654 0.749826
O O11 0.554012 0.000000 0.715321
O O12 0.793480 0.784890 0.374213
O O13 0.815498 0.000000 0.290488
O O14 0.541797 0.750745 0.125093
O O15 0.624923 0.750627 0.029080
O O16 0.564208 0.000000 0.058532
O O17 0.500000 0.789597 0.000000
O O18 0.545782 0.500000 0.193887
O O19 0.250000 0.250000 0.500000
O O20 0.197138 0.000000 0.539585
O O21 0.191369 0.000000 0.035152
O O22 0.250000 0.750000 0.000000
#
# Coordination Sequence:
#
# PCOD9195961 Si02
#       8
#     8   8   8   8   8   8   8   8
#     4   9  20  37  55  78 108 140 175 217 264 312
#     4   9  19  36  56  79 107 138 175 219 265 313
#     4  10  20  35  56  79 107 142 176 216 265 314
#     4  10  21  36  55  79 106 138 178 221 262 311
#     4  10  21  37  57  81 109 140 176 219 265 314
#     4  10  21  37  56  79 109 141 176 219 262 312
#     4  10  21  36  54  78 107 139 177 218 262 314
#     4  10  21  37  57  81 109 141 178 219 263 314
#
# _framework density 17.373750999999999
#
# number of rings (size 3 to 8) (size 9 to 14) (size 15 to 20)
#    0.000    2.250    0.000    3.000    0.000    8.250 
#    0.000    5.000    0.000    0.000    0.000    0.000 
#    0.000    0.000    0.000    0.000    0.000    0.000 
#
# Total GULP energy -178656.390534 kJ/mol
# GULP energy per Si atom -5583.012204 kJ/mol
# Density = 1.733421 g / cm^3
# Si number density = 17.373751 Si / 1000 Ang^3
#
#
#
# Elastic Constant Matrix: (Units=GPa)
#
#
# Indices 1 2 3 4 5 6 
#
# 1 183.2228 90.8326 110.7619 0.0000 -7.0461 0.0000
# 2 90.8326 76.6409 63.8639 0.0000 -0.3742 0.0000
# 3 110.7619 63.8639 80.7666 0.0000 -4.0427 0.0000
# 4 0.0000 0.0000 0.0000 29.0157 0.0000 -2.8079
# 5 -7.0461 -0.3742 -4.0427 0.0000 41.0697 0.0000
# 6 0.0000 0.0000 0.0000 -2.8079 0.0000 38.9244
#
#
#
# Elastic Compliance Matrix: (Units=1/GPa)
#
#
# Indices 1 2 3 4 5 6 
#
# 1 0.032429 -0.004192 -0.041083 0.000000 0.001481 0.000000
# 2 -0.004192 0.039081 -0.025296 0.000000 -0.002853 0.000000
# 3 -0.041083 -0.025296 0.088797 0.000000 0.001462 0.000000
# 4 0.000000 0.000000 0.000000 0.034706 0.000000 0.002504
# 5 0.001481 -0.002853 0.001462 0.000000 0.024721 0.000000
# 6 0.000000 0.000000 0.000000 0.002504 0.000000 0.025871
#
#
# Mechanical properties :
#
#
# Convention : Reuss Voigt Hill
#
# Bulk Modulus (GPa) = 52.17980 96.83854 74.50917
# Shear Modulus (GPa) = 12.71825 26.81341 19.76583
#
# Velocity S-wave (km/s) = 2.70856 3.93278 3.37662
# Velocity P-wave (km/s) = 6.31511 8.74539 7.62766
#
# Compressibility (1/GPa) = 0.01916450
#
# Stress axis : x y z
#
# Youngs Moduli (GPa) = 30.83702 25.58760 11.26167
#
# Poissons Ratio (x) = 0.10727 0.46266
# Poissons Ratio (y) = 0.12928 0.28487
# Poissons Ratio (z) = 1.26687 0.64726
#
# Static dielectric constant tensor:
#      x y z
#    x 1.559050 0.000000 0.002660 
#    y 0.000000 1.576870 0.000000 
#    z 0.002660 0.000000 1.570860 
# 
# From -- ./inp_files/314119.got.cif
#   From: 2010.05.17/outbox.cif.g08.bks.cpg/sg12_158_cif.got.tgz:314119.got - 2010.06.03 13:09:07.
