data_PCOD9195048
_publ_section_title
;
Structure prediction by ZEFSAII (Michael W. Deem and Ramdas Pophale) SiO2 
 PCOD9195048
Probable space group: C 2/M
;
_chemical_formula_sum "Si O2"
_cell_formula_units_Z 48
_cell_length_a 21.594366
_cell_length_b 19.081664
_cell_length_c 9.044152
_cell_angle_alpha 90.000000
_cell_angle_beta 36.686285
_cell_angle_gamma 90.000000
_cell_volume 2226.454956
_symmetry_space_group_name_H-M "C 2/M"
_symmetry_group_IT_number 12
_symmetry_cell_setting 'monoclinic'
loop_
_space_group_symop_operation_xyz
x,y,z
-x,y,-z
-x,-y,-z
x,-y,z
1/2+x,1/2+y,z
1/2-x,1/2+y,-z
1/2-x,1/2-y,-z
1/2+x,1/2-y,z
loop_
_atom_site_type_symbol
_atom_site_label
_atom_site_fract_x
_atom_site_fract_y
_atom_site_fract_z
Si Si1 0.234252 0.925291 0.513197
Si Si2 0.645494 0.832897 0.118362
Si Si3 0.165760 0.200921 0.461574
Si Si4 0.730774 0.856370 0.270903
Si Si5 0.552213 0.318568 0.260389
Si Si6 0.449654 0.078774 0.944723
O O1 0.178474 0.853439 0.572445
O O2 0.283659 0.915257 0.579929
O O3 0.329962 0.929070 0.218820
O O4 0.176473 0.000000 0.615476
O O5 0.670320 0.862993 0.232201
O O6 0.603318 0.754146 0.218281
O O7 0.754922 0.826297 0.819412
O O8 0.560668 0.873505 0.180889
O O9 0.199482 0.282097 0.406960
O O10 0.044965 0.198894 0.655289
O O11 0.852925 0.856462 0.998801
O O12 0.500000 0.356727 0.500000
O O13 0.491189 0.000000 0.839498
O O14 0.500000 0.108793 0.000000
#
# Coordination Sequence:
#
# PCOD9195048 Si02
#       6
#     8   8   8   8   8   8
#     4  10  23  41  58  82 123 157 191 243 290 341
#     4  10  20  34  60  89 115 147 193 242 295 341
#     4  10  20  39  60  84 119 152 192 239 292 350
#     4  11  21  36  60  94 116 149 195 245 293 344
#     4  11  19  35  60  86 115 149 188 247 294 339
#     4   9  20  38  57  81 117 160 195 226 284 363
#
# _framework density 21.558935000000002
#
# number of rings (size 3 to 8) (size 9 to 14) (size 15 to 20)
#    0.000    1.833    3.333    1.500    2.333    1.333 
#    0.000    1.667    0.000    4.500    0.000    0.000 
#    0.000    0.000    0.000    0.000    0.000    0.000 
#
# Total GULP energy -133790.760827 kJ/mol
# GULP energy per Si atom -5574.615034 kJ/mol
# Density = 2.150987 g / cm^3
# Si number density = 21.558935 Si / 1000 Ang^3
#
#
#
# Elastic Constant Matrix: (Units=GPa)
#
#
# Indices 1 2 3 4 5 6 
#
# 1 120.6165 42.7083 16.0824 0.0000 0.3637 0.0000
# 2 42.7083 63.0485 12.7229 0.0000 16.1941 0.0000
# 3 16.0824 12.7229 61.7078 0.0000 -6.5334 0.0000
# 4 0.0000 0.0000 0.0000 1.6070 0.0000 -11.1738
# 5 0.3637 16.1941 -6.5334 0.0000 33.8406 0.0000
# 6 0.0000 0.0000 0.0000 -11.1738 0.0000 12.1753
#
#
#
# Elastic Compliance Matrix: (Units=1/GPa)
#
#
# Indices 1 2 3 4 5 6 
#
# 1 0.011413 -0.008547 -0.000809 0.000000 0.003811 0.000000
# 2 -0.008547 0.025953 -0.004521 0.000000 -0.013201 0.000000
# 3 -0.000809 -0.004521 0.017945 0.000000 0.005637 0.000000
# 4 0.000000 0.000000 0.000000 -0.115639 0.000000 -0.106126
# 5 0.003811 -0.013201 0.005637 0.000000 0.036915 0.000000
# 6 0.000000 0.000000 0.000000 -0.106126 0.000000 -0.015263
#
#
# Mechanical properties :
#
#
# Convention : Reuss Voigt Hill
#
# Bulk Modulus (GPa) = 36.28714 43.15554 39.72134
# Shear Modulus (GPa) = -2882.23838 21.11520 -1430.56159
#
# Velocity S-wave (km/s) = -36.60346 3.13296 -25.78758
# Velocity P-wave (km/s) = 42.06602 5.75745 29.46525
#
# Compressibility (1/GPa) = 0.02755797
#
# Stress axis : x y z
#
# Youngs Moduli (GPa) = 87.61583 38.53048 55.72522
#
# Poissons Ratio (x) = 0.32932 0.04507
# Poissons Ratio (y) = 0.74886 0.25194
# Poissons Ratio (z) = 0.07087 0.17420
#
# Static dielectric constant tensor:
#      x y z
#    x 1.818010 0.000000 0.007570 
#    y 0.000000 1.817560 0.000000 
#    z 0.007570 0.000000 1.837570 
# 
# From -- ./inp_files/89423.got.cif
#   From: 2010.05.17/outbox.cif.g08.bks.cpg/sg12_45_cif.got.tgz:89423.got - 2010.06.03 13:09:07.
