data_PCOD9195628
_publ_section_title
;
Structure prediction by ZEFSAII (Michael W. Deem and Ramdas Pophale) SiO2 
 PCOD9195628
Probable space group: C 2/M
;
_chemical_formula_sum "Si O2"
_cell_formula_units_Z 64
_cell_length_a 18.455196
_cell_length_b 7.599685
_cell_length_c 31.506436
_cell_angle_alpha 90.000000
_cell_angle_beta 42.750410
_cell_angle_gamma 90.000000
_cell_volume 2999.571404
_symmetry_space_group_name_H-M "C 2/M"
_symmetry_group_IT_number 12
_symmetry_cell_setting 'monoclinic'
loop_
_space_group_symop_operation_xyz
x,y,z
-x,y,-z
-x,-y,-z
x,-y,z
1/2+x,1/2+y,z
1/2-x,1/2+y,-z
1/2-x,1/2-y,-z
1/2+x,1/2-y,z
loop_
_atom_site_type_symbol
_atom_site_label
_atom_site_fract_x
_atom_site_fract_y
_atom_site_fract_z
Si Si1 0.940248 0.296430 0.687904
Si Si2 0.788157 0.211027 0.936206
Si Si3 0.829504 0.285431 0.567920
Si Si4 0.120303 0.284484 0.937684
Si Si5 0.200196 0.708115 0.811230
Si Si6 0.526553 0.713106 0.814330
Si Si7 0.992594 0.285222 0.571827
Si Si8 0.400572 0.704804 0.308325
O O1 0.972334 0.500000 0.674521
O O2 0.813616 0.285635 0.748905
O O3 0.972427 0.221851 0.628070
O O4 0.003489 0.212896 0.699646
O O5 0.703146 0.275009 0.938036
O O6 0.907701 0.277761 0.876322
O O7 0.791483 0.000000 0.930259
O O8 0.750000 0.250000 0.000000
O O9 0.829880 0.500000 0.565857
O O10 0.897949 0.235382 0.580108
O O11 0.708748 0.221587 0.624847
O O12 0.897059 0.228057 0.497776
O O13 0.119493 0.500000 0.937908
O O14 0.159018 0.226593 0.874596
O O15 0.000000 0.228131 0.000000
O O16 0.217806 0.500000 0.807762
O O17 0.110762 0.739876 0.814337
O O18 0.521343 0.500000 0.814796
O O19 0.565250 0.780189 0.751806
O O20 0.991497 0.500000 0.573411
O O21 0.376657 0.500000 0.310176
#
# Coordination Sequence:
#
# PCOD9195628 Si02
#       8
#     8   8   8   8   8   8   8   8
#     4  11  22  35  52  77 111 144 175 217 268 317
#     4  10  20  35  55  79 109 142 176 216 263 314
#     4   8  14  28  52  77 100 132 178 222 259 311
#     4   9  18  34  56  80 106 137 173 214 260 310
#     4  11  22  37  59  82 104 136 180 223 266 321
#     4  10  21  37  56  79 109 142 177 222 273 318
#     4   8  15  29  50  76 103 135 175 218 265 313
#     4  10  20  35  55  78 106 142 181 219 263 315
#
# _framework density 21.336380999999999
#
# number of rings (size 3 to 8) (size 9 to 14) (size 15 to 20)
#    0.000    2.375    0.000    3.750    0.000    6.500 
#    0.000    2.500    0.000    4.125    0.000    5.250 
#    0.000    0.000    0.000    0.000    0.000    0.000 
#
# Total GULP energy -178763.730378 kJ/mol
# GULP energy per Si atom -5586.366574 kJ/mol
# Density = 2.128782 g / cm^3
# Si number density = 21.336381 Si / 1000 Ang^3
#
#
#
# Elastic Constant Matrix: (Units=GPa)
#
#
# Indices 1 2 3 4 5 6 
#
# 1 163.5824 -12.3404 112.4163 0.0092 5.7577 -0.0077
# 2 -12.3404 43.7953 -2.8802 0.0212 1.0404 -0.0272
# 3 112.4163 -2.8802 196.1401 0.0068 7.7470 -0.0016
# 4 0.0092 0.0212 0.0068 -14.1924 0.0008 2.8952
# 5 5.7577 1.0404 7.7470 0.0008 46.1285 -0.0007
# 6 -0.0077 -0.0272 -0.0016 2.8952 -0.0007 16.5102
#
#
#
# Elastic Compliance Matrix: (Units=1/GPa)
#
#
# Indices 1 2 3 4 5 6 
#
# 1 0.010364 0.002542 -0.005889 0.000009 -0.000362 0.000007
# 2 0.002542 0.023494 -0.001086 0.000043 -0.000665 0.000032
# 3 -0.005889 -0.001086 0.008484 -0.000002 -0.000665 -0.000003
# 4 0.000009 0.000043 -0.000002 -0.068027 0.000000 0.011929
# 5 -0.000362 -0.000665 -0.000665 0.000000 0.021850 0.000000
# 6 0.000007 0.000032 -0.000003 0.011929 0.000000 0.058477
#
#
# Mechanical properties :
#
#
# Convention : Reuss Voigt Hill
#
# Bulk Modulus (GPa) = 29.87088 66.43435 48.15261
# Shear Modulus (GPa) = 66.96398 30.11073 48.53735
#
# Velocity S-wave (km/s) = 5.60830 3.76072 4.77473
# Velocity P-wave (km/s) = 7.48116 7.07542 7.28112
#
# Compressibility (1/GPa) = 0.03347742
#
# Stress axis : x y z
#
# Youngs Moduli (GPa) = 96.48424 42.56383 117.87211
#
# Poissons Ratio (x) = -0.10819 0.69411
# Poissons Ratio (y) = -0.24524 0.12795
# Poissons Ratio (z) = 0.56816 0.04620
#
# Static dielectric constant tensor:
#      x y z
#    x 1.711680 0.000000 0.002140 
#    y 0.000000 1.851100 0.000000 
#    z 0.002140 0.000000 1.759520 
# 
# From -- ./inp_files/377988.got.cif
#   From: 2010.05.17/outbox.cif.g08.bks.cpg/sg12_189_cif.got.tgz:377988.got - 2010.06.03 13:09:07.
