data_PCOD9195827
_publ_section_title
;
Structure prediction by ZEFSAII (Michael W. Deem and Ramdas Pophale) SiO2 
 PCOD9195827
Probable space group: C 2/M
;
_chemical_formula_sum "Si O2"
_cell_formula_units_Z 56
_cell_length_a 22.873694
_cell_length_b 7.564239
_cell_length_c 15.169225
_cell_angle_alpha 90.000000
_cell_angle_beta 111.337267
_cell_angle_gamma 90.000000
_cell_volume 2444.706397
_symmetry_space_group_name_H-M "C 2/M"
_symmetry_group_IT_number 12
_symmetry_cell_setting 'monoclinic'
loop_
_space_group_symop_operation_xyz
x,y,z
-x,y,-z
-x,-y,-z
x,-y,z
1/2+x,1/2+y,z
1/2-x,1/2+y,-z
1/2-x,1/2-y,-z
1/2+x,1/2-y,z
loop_
_atom_site_type_symbol
_atom_site_label
_atom_site_fract_x
_atom_site_fract_y
_atom_site_fract_z
Si Si1 0.986593 0.713955 0.591567
Si Si2 0.075195 0.298734 0.789567
Si Si3 0.177423 0.287985 0.971447
Si Si4 0.156375 0.714600 0.157090
Si Si5 0.983551 0.207670 0.892430
Si Si6 0.751325 0.297668 0.649654
Si Si7 0.342516 0.709934 0.543245
O O1 0.989267 0.500000 0.594596
O O2 0.916476 0.761929 0.582647
O O3 0.000000 0.774438 0.500000
O O4 0.039528 0.783306 0.687343
O O5 0.091610 0.500000 0.773145
O O6 0.136218 0.215524 0.868228
O O7 0.024484 0.300664 0.840830
O O8 0.167791 0.500000 0.967110
O O9 0.250000 0.250000 0.000000
O O10 0.156531 0.222522 0.056204
O O11 0.158563 0.500000 0.158776
O O12 0.090391 0.768716 0.163127
O O13 0.216066 0.780980 0.245786
O O14 0.999091 0.000000 0.897389
O O15 0.000000 0.273221 0.000000
O O16 0.735094 0.500000 0.662849
O O17 0.691100 0.221895 0.565155
O O18 0.806309 0.293990 0.605804
O O19 0.329822 0.500000 0.541819
#
# Coordination Sequence:
#
# PCOD9195827 Si02
#       7
#     8   8   8   8   8   8   8
#     4  10  22  39  58  80 109 147 191 232 272 323
#     4  10  21  39  60  81 109 148 188 226 272 331
#     4  10  22  38  56  78 106 142 182 222 267 322
#     4  10  20  36  57  80 108 146 186 220 265 332
#     4  11  22  34  54  86 118 143 176 228 281 324
#     4   9  19  35  56  81 110 144 180 222 274 329
#     4  10  20  35  55  82 113 142 180 228 278 326
#
# _framework density 22.906637
#
# number of rings (size 3 to 8) (size 9 to 14) (size 15 to 20)
#    0.000    2.000    1.429    1.714    0.000    8.286 
#    0.000    0.000    0.000    0.000    0.000    0.000 
#    0.000    0.000    0.000    0.000    0.000    0.000 
#
# Total GULP energy -156470.422805 kJ/mol
# GULP energy per Si atom -5588.229386 kJ/mol
# Density = 2.285450 g / cm^3
# Si number density = 22.906637 Si / 1000 Ang^3
#
#
#
# Elastic Constant Matrix: (Units=GPa)
#
#
# Indices 1 2 3 4 5 6 
#
# 1 73.5854 -13.1113 35.6053 0.0000 26.8943 0.0000
# 2 -13.1113 66.3050 5.2416 0.0000 0.3217 0.0000
# 3 35.6053 5.2416 190.1698 0.0000 37.6018 0.0000
# 4 0.0000 0.0000 0.0000 -3.4564 0.0000 21.0645
# 5 26.8943 0.3217 37.6018 0.0000 34.8607 0.0000
# 6 0.0000 0.0000 0.0000 21.0645 0.0000 4.1479
#
#
#
# Elastic Compliance Matrix: (Units=1/GPa)
#
#
# Indices 1 2 3 4 5 6 
#
# 1 0.020097 0.004125 -0.001021 0.000000 -0.014441 0.000000
# 2 0.004125 0.015966 -0.000704 0.000000 -0.002570 0.000000
# 3 -0.001021 -0.000704 0.006752 0.000000 -0.006489 0.000000
# 4 0.000000 0.000000 0.000000 -0.009056 0.000000 0.045987
# 5 -0.014441 -0.002570 -0.006489 0.000000 0.046849 0.000000
# 6 0.000000 0.000000 0.000000 0.045987 0.000000 0.007546
#
#
# Mechanical properties :
#
#
# Convention : Reuss Voigt Hill
#
# Bulk Modulus (GPa) = 21.00257 42.83683 31.91970
# Shear Modulus (GPa) = 50.39023 27.26541 38.82782
#
# Velocity S-wave (km/s) = 4.69530 3.45379 4.12156
# Velocity P-wave (km/s) = 6.21153 5.88610 6.05100
#
# Compressibility (1/GPa) = 0.04761322
#
# Stress axis : x y z
#
# Youngs Moduli (GPa) = 49.75989 62.63474 148.10345
#
# Poissons Ratio (x) = -0.25835 0.15121
# Poissons Ratio (y) = -0.20525 0.10429
# Poissons Ratio (z) = 0.05080 0.04411
#
# Static dielectric constant tensor:
#      x y z
#    x 1.786410 0.000000 0.026210 
#    y 0.000000 1.924050 0.000000 
#    z 0.026210 0.000000 1.909750 
# 
# From -- ./inp_files/238954.got.cif
#   From: 2010.05.17/outbox.cif.g08.bks.cpg/sg12_120_cif.got.tgz:238954.got - 2010.06.03 13:09:07.
