data_PCOD9195824
_publ_section_title
;
Structure prediction by ZEFSAII (Michael W. Deem and Ramdas Pophale) SiO2 
 PCOD9195824
Probable space group: C 2/M
;
_chemical_formula_sum "Si O2"
_cell_formula_units_Z 56
_cell_length_a 20.364873
_cell_length_b 8.335651
_cell_length_c 24.937348
_cell_angle_alpha 90.000000
_cell_angle_beta 135.020718
_cell_angle_gamma 90.000000
_cell_volume 2992.260508
_symmetry_space_group_name_H-M "C 2/M"
_symmetry_group_IT_number 12
_symmetry_cell_setting 'monoclinic'
loop_
_space_group_symop_operation_xyz
x,y,z
-x,y,-z
-x,-y,-z
x,-y,z
1/2+x,1/2+y,z
1/2-x,1/2+y,-z
1/2-x,1/2-y,-z
1/2+x,1/2-y,z
loop_
_atom_site_type_symbol
_atom_site_label
_atom_site_fract_x
_atom_site_fract_y
_atom_site_fract_z
Si Si1 0.835919 0.691276 0.297157
Si Si2 0.477693 0.804077 0.547583
Si Si3 0.673101 0.308469 0.998135
Si Si4 0.804525 0.691034 0.697723
Si Si5 0.819571 0.805353 0.874517
Si Si6 0.269710 0.192176 0.452124
Si Si7 0.464518 0.192003 0.871830
O O1 0.841517 0.500000 0.293081
O O2 0.780331 0.725761 0.319872
O O3 0.769479 0.753281 0.211395
O O4 0.940416 0.752632 0.365539
O O5 0.500000 0.755044 0.500000
O O6 0.374403 0.751401 0.500629
O O7 0.478763 0.000000 0.549599
O O8 0.678775 0.500000 0.002279
O O9 0.567572 0.258783 0.923871
O O10 0.750000 0.250000 0.000000
O O11 0.687237 0.250719 0.067930
O O12 0.794613 0.500000 0.697432
O O13 0.798540 0.738817 0.632511
O O14 0.897353 0.739124 0.783499
O O15 0.911296 0.750694 0.894926
O O16 0.820563 0.000000 0.874635
O O17 0.250000 0.250000 0.500000
O O18 0.266594 0.000000 0.447045
O O19 0.469474 0.000000 0.876847
#
# Coordination Sequence:
#
# PCOD9195824 Si02
#       7
#     8   8   8   8   8   8   8
#     4   9  16  32  57  82 107 139 181 227 275 324
#     4   9  16  30  55  82 104 138 184 222 263 324
#     4  11  23  39  57  82 116 150 187 228 279 340
#     4  10  20  35  55  82 112 142 182 229 278 329
#     4   9  19  35  58  85 111 143 185 229 275 335
#     4  11  22  37  55  78 112 149 190 230 276 331
#     4  10  21  37  60  86 110 143 187 232 281 335
#
# _framework density 18.714946999999999
#
# number of rings (size 3 to 8) (size 9 to 14) (size 15 to 20)
#    0.000    2.143    1.429    2.143    0.000    4.571 
#    2.571    2.143    0.000    0.000    0.000    0.000 
#    0.000    0.000    0.000    0.000    0.000    0.000 
#
# Total GULP energy -156202.248422 kJ/mol
# GULP energy per Si atom -5578.651729 kJ/mol
# Density = 1.867235 g / cm^3
# Si number density = 18.714947 Si / 1000 Ang^3
#
#
#
# Elastic Constant Matrix: (Units=GPa)
#
#
# Indices 1 2 3 4 5 6 
#
# 1 141.8572 16.0016 82.8160 0.0000 -3.7485 0.0000
# 2 16.0016 16.5968 15.1654 0.0000 4.1860 0.0000
# 3 82.8160 15.1654 132.6935 0.0000 -1.5962 0.0000
# 4 0.0000 0.0000 0.0000 20.1695 0.0000 -4.1207
# 5 -3.7485 4.1860 -1.5962 0.0000 26.3949 0.0000
# 6 0.0000 0.0000 0.0000 -4.1207 0.0000 25.1842
#
#
#
# Elastic Compliance Matrix: (Units=1/GPa)
#
#
# Indices 1 2 3 4 5 6 
#
# 1 0.011571 -0.005722 -0.006542 0.000000 0.002155 0.000000
# 2 -0.005722 0.073551 -0.004989 0.000000 -0.012779 0.000000
# 3 -0.006542 -0.004989 0.012196 0.000000 0.000600 0.000000
# 4 0.000000 0.000000 0.000000 0.051295 0.000000 0.008393
# 5 0.002155 -0.012779 0.000600 0.000000 0.040255 0.000000
# 6 0.000000 0.000000 0.000000 0.008393 0.000000 0.041081
#
#
# Mechanical properties :
#
#
# Convention : Reuss Voigt Hill
#
# Bulk Modulus (GPa) = 15.92014 57.67927 36.79971
# Shear Modulus (GPa) = 17.51987 26.16066 21.84026
#
# Velocity S-wave (km/s) = 3.06296 3.74284 3.41984
# Velocity P-wave (km/s) = 4.58630 7.04026 5.94135
#
# Compressibility (1/GPa) = 0.06281351
#
# Stress axis : x y z
#
# Youngs Moduli (GPa) = 86.42528 13.59604 81.99259
#
# Poissons Ratio (x) = 0.07780 0.53636
# Poissons Ratio (y) = 0.49452 0.40903
# Poissons Ratio (z) = 0.56536 0.06783
#
# Static dielectric constant tensor:
#      x y z
#    x 1.590570 0.000000 0.003050 
#    y 0.000000 1.650920 0.000000 
#    z 0.003050 0.000000 1.682020 
# 
# From -- ./inp_files/342616.got.cif
#   From: 2010.05.17/outbox.cif.g08.bks.cpg/sg12_172_cif.got.tgz:342616.got - 2010.06.03 13:09:07.
