data_PCOD9195645
_publ_section_title
;
Structure prediction by ZEFSAII (Michael W. Deem and Ramdas Pophale) SiO2 
 PCOD9195645
Probable space group: C 2/M
;
_chemical_formula_sum "Si O2"
_cell_formula_units_Z 40
_cell_length_a 13.579273
_cell_length_b 20.661483
_cell_length_c 9.938610
_cell_angle_alpha 90.000000
_cell_angle_beta 42.489661
_cell_angle_gamma 90.000000
_cell_volume 1883.481961
_symmetry_space_group_name_H-M "C 2/M"
_symmetry_group_IT_number 12
_symmetry_cell_setting 'monoclinic'
loop_
_space_group_symop_operation_xyz
x,y,z
-x,y,-z
-x,-y,-z
x,-y,z
1/2+x,1/2+y,z
1/2-x,1/2+y,-z
1/2-x,1/2-y,-z
1/2+x,1/2-y,z
loop_
_atom_site_type_symbol
_atom_site_label
_atom_site_fract_x
_atom_site_fract_y
_atom_site_fract_z
Si Si1 0.183879 0.321095 0.446292
Si Si2 0.185070 0.074805 0.183035
Si Si3 0.460451 0.238739 0.177123
Si Si4 0.164078 0.924563 0.512889
Si Si5 0.235396 0.183058 0.931276
O O1 0.293879 0.260132 0.329029
O O2 0.045394 0.298621 0.674964
O O3 0.262289 0.377962 0.452165
O O4 0.178216 0.333355 0.292767
O O5 0.213066 0.091165 0.310875
O O6 0.258217 0.124898 0.010458
O O7 0.011728 0.080126 0.323875
O O8 0.226104 0.000000 0.120963
O O9 0.562996 0.302693 0.071623
O O10 0.500000 0.201560 0.000000
O O11 0.197781 0.000000 0.507086
O O12 0.250000 0.250000 0.000000
#
# Coordination Sequence:
#
# PCOD9195645 Si02
#       5
#     8   8   8   8   8
#     4  10  20  35  55  78 109 145 177 230 272 326
#     4   9  19  34  52  80 116 145 179 230 280 330
#     4   9  20  35  51  78 109 139 179 223 276 323
#     4   9  18  33  56  80 107 148 187 224 277 332
#     4  11  23  34  54  85 113 148 184 224 281 329
#
# _framework density 21.237262000000001
#
# number of rings (size 3 to 8) (size 9 to 14) (size 15 to 20)
#    0.000    2.400    2.000    1.200    8.400    1.600 
#    0.000    2.000    0.000    1.800    0.000    2.800 
#    0.000    0.000    0.000    0.000    0.000    0.000 
#
# Total GULP energy -111343.258356 kJ/mol
# GULP energy per Si atom -5567.162918 kJ/mol
# Density = 2.118892 g / cm^3
# Si number density = 21.237262 Si / 1000 Ang^3
#
#
#
# Elastic Constant Matrix: (Units=GPa)
#
#
# Indices 1 2 3 4 5 6 
#
# 1 68.5060 45.4620 43.9407 0.0000 36.5920 0.0000
# 2 45.4620 103.3934 90.3604 0.0000 40.3079 0.0000
# 3 43.9407 90.3604 206.7831 0.0000 49.9616 0.0000
# 4 0.0000 0.0000 0.0000 37.0626 0.0000 6.0175
# 5 36.5920 40.3079 49.9616 0.0000 42.0078 0.0000
# 6 0.0000 0.0000 0.0000 6.0175 0.0000 38.4257
#
#
#
# Elastic Compliance Matrix: (Units=1/GPa)
#
#
# Indices 1 2 3 4 5 6 
#
# 1 0.028871 -0.005625 0.001537 0.000000 -0.021579 0.000000
# 2 -0.005625 0.020142 -0.005782 0.000000 -0.007550 0.000000
# 3 0.001537 -0.005782 0.008446 0.000000 -0.005836 0.000000
# 4 0.000000 0.000000 0.000000 0.027685 0.000000 -0.004336
# 5 -0.021579 -0.007550 -0.005836 0.000000 0.056788 0.000000
# 6 0.000000 0.000000 0.000000 -0.004336 0.000000 0.026703
#
#
# Mechanical properties :
#
#
# Convention : Reuss Voigt Hill
#
# Bulk Modulus (GPa) = 26.51245 82.02320 54.26782
# Shear Modulus (GPa) = 24.88213 36.76052 30.82132
#
# Velocity S-wave (km/s) = 3.42662 4.16498 3.81371
# Velocity P-wave (km/s) = 5.30722 7.86356 6.70828
#
# Compressibility (1/GPa) = 0.03771813
#
# Stress axis : x y z
#
# Youngs Moduli (GPa) = 34.63728 49.64831 118.39776
#
# Poissons Ratio (x) = 0.27927 -0.18196
# Poissons Ratio (y) = 0.19483 0.68458
# Poissons Ratio (z) = -0.05323 0.28707
#
# Static dielectric constant tensor:
#      x y z
#    x 1.922000 0.000000 -0.009050 
#    y 0.000000 1.733440 0.000000 
#    z -0.009050 0.000000 1.951770 
# 
# From -- ./inp_files/48892.got.cif
#   From: 2010.05.17/outbox.cif.g08.bks.cpg/sg12_25_cif.got.tgz:48892.got - 2010.06.03 13:09:07.
