data_PCOD9195366
_publ_section_title
;
Structure prediction by ZEFSAII (Michael W. Deem and Ramdas Pophale) SiO2 
 PCOD9195366
Probable space group: C 2/M
;
_chemical_formula_sum "Si O2"
_cell_formula_units_Z 56
_cell_length_a 20.412444
_cell_length_b 7.369733
_cell_length_c 16.508160
_cell_angle_alpha 90.000000
_cell_angle_beta 76.484707
_cell_angle_gamma 90.000000
_cell_volume 2414.621701
_symmetry_space_group_name_H-M "C 2/M"
_symmetry_group_IT_number 12
_symmetry_cell_setting 'monoclinic'
loop_
_space_group_symop_operation_xyz
x,y,z
-x,y,-z
-x,-y,-z
x,-y,z
1/2+x,1/2+y,z
1/2-x,1/2+y,-z
1/2-x,1/2-y,-z
1/2+x,1/2-y,z
loop_
_atom_site_type_symbol
_atom_site_label
_atom_site_fract_x
_atom_site_fract_y
_atom_site_fract_z
Si Si1 0.606755 0.779374 0.697304
Si Si2 0.244338 0.710112 0.736188
Si Si3 0.388402 0.720898 0.720485
Si Si4 0.888667 0.221576 0.906651
Si Si5 0.176048 0.219424 0.918828
Si Si6 0.520347 0.209189 0.580050
Si Si7 0.036913 0.789643 0.880578
O O1 0.679324 0.712847 0.708516
O O2 0.580891 0.715232 0.617595
O O3 0.552376 0.722212 0.780545
O O4 0.607122 0.000000 0.697595
O O5 0.246505 0.500000 0.712229
O O6 0.318612 0.784116 0.699949
O O7 0.229951 0.716913 0.837393
O O8 0.390020 0.500000 0.719592
O O9 0.384847 0.779713 0.815157
O O10 0.454244 0.785931 0.655423
O O11 0.962362 0.282249 0.917440
O O12 0.889136 0.000000 0.906569
O O13 0.829909 0.277314 0.985823
O O14 0.104263 0.284285 0.902118
O O15 0.178926 0.000000 0.915541
O O16 0.500000 0.292934 0.500000
O O17 0.539237 0.000000 0.558199
O O18 0.035267 0.000000 0.905098
#
# Coordination Sequence:
#
# PCOD9195366 Si02
#       7
#     8   8   8   8   8   8   8
#     4   9  17  32  52  72  98 131 162 196 246 300
#     4   9  19  34  50  71 103 138 167 198 242 292
#     4  10  20  35  54  75 101 133 166 202 245 294
#     4   9  16  27  45  70 100 131 168 209 244 278
#     4   9  17  28  45  70  99 135 174 207 238 278
#     4  10  21  37  57  79 100 123 157 204 254 301
#     4   9  15  26  46  70  97 129 168 208 243 280
#
# _framework density 23.192038
#
# number of rings (size 3 to 8) (size 9 to 14) (size 15 to 20)
#    0.000    2.714    1.429    0.429    0.000    3.143 
#    0.000    2.143    0.000    3.429    0.000    0.000 
#    0.000    0.000    0.000    0.000    0.000    0.000 
#
# Total GULP energy -156289.140129 kJ/mol
# GULP energy per Si atom -5581.755005 kJ/mol
# Density = 2.313925 g / cm^3
# Si number density = 23.192038 Si / 1000 Ang^3
#
#
#
# Elastic Constant Matrix: (Units=GPa)
#
#
# Indices 1 2 3 4 5 6 
#
# 1 70.1669 -7.4160 23.6361 0.0000 -11.4054 0.0000
# 2 -7.4160 87.9290 -9.9257 0.0000 1.7112 0.0000
# 3 23.6361 -9.9257 63.7744 0.0000 31.3151 0.0000
# 4 0.0000 0.0000 0.0000 12.3722 0.0000 -3.2289
# 5 -11.4054 1.7112 31.3151 0.0000 29.0647 0.0000
# 6 0.0000 0.0000 0.0000 -3.2289 0.0000 2.2726
#
#
#
# Elastic Compliance Matrix: (Units=1/GPa)
#
#
# Indices 1 2 3 4 5 6 
#
# 1 0.045299 -0.003992 -0.055747 0.000000 0.078075 0.000000
# 2 -0.003992 0.012369 0.009621 0.000000 -0.012661 0.000000
# 3 -0.055747 0.009621 0.103745 0.000000 -0.134220 0.000000
# 4 0.000000 0.000000 0.000000 0.128459 0.000000 0.182512
# 5 0.078075 -0.012661 -0.134220 0.000000 0.210401 0.000000
# 6 0.000000 0.000000 0.000000 0.182512 0.000000 0.699332
#
#
# Mechanical properties :
#
#
# Convention : Reuss Voigt Hill
#
# Bulk Modulus (GPa) = 16.34585 26.05103 21.19844
# Shear Modulus (GPa) = 3.78721 23.11364 13.45042
#
# Velocity S-wave (km/s) = 1.27927 3.16035 2.41085
# Velocity P-wave (km/s) = 3.04062 4.95724 4.11215
#
# Compressibility (1/GPa) = 0.06117760
#
# Stress axis : x y z
#
# Youngs Moduli (GPa) = 22.07532 80.84969 9.63904
#
# Poissons Ratio (x) = 0.32273 0.53735
# Poissons Ratio (y) = 0.08812 -0.09274
# Poissons Ratio (z) = 1.23064 -0.77789
#
# Static dielectric constant tensor:
#      x y z
#    x 1.906870 0.000000 0.048720 
#    y 0.000000 1.869380 0.000000 
#    z 0.048720 0.000000 1.841600 
# 
# From -- ./inp_files/280888.got.cif
#   From: 2010.05.17/outbox.cif.g08.bks.cpg/sg12_141_cif.got.tgz:280888.got - 2010.06.03 13:09:07.
