data_PCOD9195952
_publ_section_title
;
Structure prediction by ZEFSAII (Michael W. Deem and Ramdas Pophale) SiO2 
 PCOD9195952
Probable space group: C 2/M
;
_chemical_formula_sum "Si O2"
_cell_formula_units_Z 64
_cell_length_a 14.875805
_cell_length_b 7.757089
_cell_length_c 26.679917
_cell_angle_alpha 90.000000
_cell_angle_beta 108.883721
_cell_angle_gamma 90.000000
_cell_volume 2912.971758
_symmetry_space_group_name_H-M "C 2/M"
_symmetry_group_IT_number 12
_symmetry_cell_setting 'monoclinic'
loop_
_space_group_symop_operation_xyz
x,y,z
-x,y,-z
-x,-y,-z
x,-y,z
1/2+x,1/2+y,z
1/2-x,1/2+y,-z
1/2-x,1/2-y,-z
1/2+x,1/2-y,z
loop_
_atom_site_type_symbol
_atom_site_label
_atom_site_fract_x
_atom_site_fract_y
_atom_site_fract_z
Si Si1 0.556462 0.700412 0.963644
Si Si2 0.549197 0.293649 0.582939
Si Si3 0.355072 0.793329 0.767646
Si Si4 0.355571 0.292799 0.501670
Si Si5 0.428635 0.209931 0.207389
Si Si6 0.344634 0.797280 0.296846
Si Si7 0.698062 0.294504 0.912440
Si Si8 0.871185 0.290357 0.881965
O O1 0.575202 0.500000 0.979295
O O2 0.648776 0.778789 0.953597
O O3 0.474695 0.711886 0.906881
O O4 0.500000 0.783789 0.000000
O O5 0.546079 0.500000 0.578029
O O6 0.441483 0.231089 0.553319
O O7 0.615331 0.230479 0.548848
O O8 0.593571 0.255467 0.644521
O O9 0.461210 0.733014 0.774266
O O10 0.267012 0.741649 0.717531
O O11 0.332368 0.738362 0.820696
O O12 0.358598 0.000000 0.768064
O O13 0.359871 0.500000 0.501524
O O14 0.250000 0.250000 0.500000
O O15 0.381730 0.275985 0.250472
O O16 0.369703 0.266433 0.147962
O O17 0.427846 0.000000 0.206111
O O18 0.354741 0.000000 0.293961
O O19 0.705819 0.500000 0.921008
O O20 0.801118 0.230515 0.913579
O O21 0.877686 0.500000 0.884503
#
# Coordination Sequence:
#
# PCOD9195952 Si02
#       8
#     8   8   8   8   8   8   8   8
#     4  10  22  38  55  79 111 142 175 225 282 328
#     4   9  20  39  58  80 116 156 187 223 277 335
#     4  10  20  36  56  78 108 146 182 221 275 333
#     4   9  19  37  62  87 112 149 193 232 277 328
#     4  10  21  36  54  78 108 142 181 223 271 325
#     4  11  23  36  54  84 116 144 184 233 275 320
#     4  10  20  35  56  79 105 138 179 221 267 328
#     4  10  20  35  57  81 104 138 182 222 267 329
#
# _framework density 21.970690999999999
#
# number of rings (size 3 to 8) (size 9 to 14) (size 15 to 20)
#    0.000    2.125    2.500    1.125    0.000    4.750 
#    0.000    5.000    0.000    0.000    0.000    0.000 
#    0.000    0.000    0.000    0.000    0.000    0.000 
#
# Total GULP energy -178653.628053 kJ/mol
# GULP energy per Si atom -5582.925877 kJ/mol
# Density = 2.192068 g / cm^3
# Si number density = 21.970691 Si / 1000 Ang^3
#
#
#
# Elastic Constant Matrix: (Units=GPa)
#
#
# Indices 1 2 3 4 5 6 
#
# 1 140.1333 5.4553 24.1498 0.0000 2.8012 0.0000
# 2 5.4553 34.7665 -4.4181 0.0000 -0.4887 0.0000
# 3 24.1498 -4.4181 72.6813 0.0000 8.3986 0.0000
# 4 0.0000 0.0000 0.0000 20.8764 0.0000 4.1757
# 5 2.8012 -0.4887 8.3986 0.0000 22.1905 0.0000
# 6 0.0000 0.0000 0.0000 4.1757 0.0000 19.1142
#
#
#
# Elastic Compliance Matrix: (Units=1/GPa)
#
#
# Indices 1 2 3 4 5 6 
#
# 1 0.007650 -0.001535 -0.002635 0.000000 -0.000002 0.000000
# 2 -0.001535 0.029295 0.002294 0.000000 -0.000029 0.000000
# 3 -0.002635 0.002294 0.015403 0.000000 -0.005447 0.000000
# 4 0.000000 0.000000 0.000000 0.050090 0.000000 -0.010942
# 5 -0.000002 -0.000029 -0.005447 0.000000 0.047125 0.000000
# 6 0.000000 0.000000 0.000000 -0.010942 0.000000 0.054707
#
#
# Mechanical properties :
#
#
# Convention : Reuss Voigt Hill
#
# Bulk Modulus (GPa) = 20.57753 33.10611 26.84182
# Shear Modulus (GPa) = 22.29935 27.26248 24.78092
#
# Velocity S-wave (km/s) = 3.18930 3.52640 3.36208
# Velocity P-wave (km/s) = 4.79045 5.62865 5.22638
#
# Compressibility (1/GPa) = 0.04859670
#
# Stress axis : x y z
#
# Youngs Moduli (GPa) = 130.71956 34.13504 64.92221
#
# Poissons Ratio (x) = 0.05241 0.17106
# Poissons Ratio (y) = 0.20069 -0.14895
# Poissons Ratio (z) = 0.34444 -0.07832
#
# Static dielectric constant tensor:
#      x y z
#    x 1.834970 0.000000 -0.011200 
#    y 0.000000 1.795520 0.000000 
#    z -0.011200 0.000000 1.839770 
# 
# From -- ./inp_files/359959.got.cif
#   From: 2010.05.17/outbox.cif.g08.bks.cpg/sg12_180_cif.got.tgz:359959.got - 2010.06.03 13:09:07.
