data_PCOD9195942
_publ_section_title
;
Structure prediction by ZEFSAII (Michael W. Deem and Ramdas Pophale) SiO2 
 PCOD9195942
Probable space group: C 2/M
;
_chemical_formula_sum "Si O2"
_cell_formula_units_Z 40
_cell_length_a 7.440326
_cell_length_b 12.709774
_cell_length_c 18.209646
_cell_angle_alpha 90.000000
_cell_angle_beta 105.531138
_cell_angle_gamma 90.000000
_cell_volume 1659.114231
_symmetry_space_group_name_H-M "C 2/M"
_symmetry_group_IT_number 12
_symmetry_cell_setting 'monoclinic'
loop_
_space_group_symop_operation_xyz
x,y,z
-x,y,-z
-x,-y,-z
x,-y,z
1/2+x,1/2+y,z
1/2-x,1/2+y,-z
1/2-x,1/2-y,-z
1/2+x,1/2-y,z
loop_
_atom_site_type_symbol
_atom_site_label
_atom_site_fract_x
_atom_site_fract_y
_atom_site_fract_z
Si Si1 0.452960 0.118137 0.080601
Si Si2 0.066815 0.160808 0.398660
Si Si3 0.330652 0.292536 0.166707
Si Si4 0.691564 0.112320 0.431677
Si Si5 0.708707 0.382748 0.252379
O O1 0.326129 0.211808 0.097606
O O2 0.647142 0.136999 0.145178
O O3 0.380196 0.000000 0.085348
O O4 0.500000 0.127380 0.000000
O O5 0.201537 0.121449 0.478834
O O6 0.064037 0.286788 0.408420
O O7 0.150037 0.128689 0.330332
O O8 0.859308 0.119628 0.391069
O O9 0.515150 0.362363 0.187198
O O10 0.334870 0.212866 0.236709
O O11 0.594999 0.000000 0.415750
O O12 0.781972 0.500000 0.246601
#
# Coordination Sequence:
#
# PCOD9195942 Si02
#       5
#     8   8   8   8   8
#     4  10  20  37  59  81 108 141 175 215 261 306
#     4  10  20  35  56  79 103 141 183 219 268 322
#     4  10  22  36  54  83 110 138 178 216 256 319
#     4  10  20  37  55  76 107 137 179 231 269 309
#     4  11  21  36  55  77 110 144 175 217 268 315
#
# _framework density 24.109252000000001
#
# number of rings (size 3 to 8) (size 9 to 14) (size 15 to 20)
#    0.000    1.800    0.000    5.400    0.000    0.000 
#    0.000   17.000    0.000    9.600    0.000    0.000 
#    0.000    0.000    0.000    0.000    0.000    0.000 
#
# Total GULP energy -111996.323806 kJ/mol
# GULP energy per Si atom -5599.816190 kJ/mol
# Density = 2.405438 g / cm^3
# Si number density = 24.109252 Si / 1000 Ang^3
#
#
#
# Elastic Constant Matrix: (Units=GPa)
#
#
# Indices 1 2 3 4 5 6 
#
# 1 39.7692 -0.9158 -3.3202 0.0000 1.3220 0.0000
# 2 -0.9158 153.9070 16.3031 0.0000 3.6609 0.0000
# 3 -3.3202 16.3031 103.3463 0.0000 -29.6332 0.0000
# 4 0.0000 0.0000 0.0000 32.9038 0.0000 -54.1268
# 5 1.3220 3.6609 -29.6332 0.0000 35.5182 0.0000
# 6 0.0000 0.0000 0.0000 -54.1268 0.0000 124.7377
#
#
#
# Elastic Compliance Matrix: (Units=1/GPa)
#
#
# Indices 1 2 3 4 5 6 
#
# 1 0.025217 0.000086 0.000690 0.000000 -0.000372 0.000000
# 2 0.000086 0.006722 -0.001653 0.000000 -0.002075 0.000000
# 3 0.000690 -0.001653 0.013145 0.000000 0.011112 0.000000
# 4 0.000000 0.000000 0.000000 0.106192 0.000000 0.046079
# 5 -0.000372 -0.002075 0.011112 0.000000 0.037653 0.000000
# 6 0.000000 0.000000 0.000000 0.046079 0.000000 0.028012
#
#
# Mechanical properties :
#
#
# Convention : Reuss Voigt Hill
#
# Bulk Modulus (GPa) = 23.07819 35.68408 29.38114
# Shear Modulus (GPa) = 21.44643 57.62898 39.53771
#
# Velocity S-wave (km/s) = 2.98577 4.89440 4.05401
# Velocity P-wave (km/s) = 4.63460 6.83910 5.84178
#
# Compressibility (1/GPa) = 0.04333096
#
# Stress axis : x y z
#
# Youngs Moduli (GPa) = 39.65579 148.75731 76.07289
#
# Poissons Ratio (x) = -0.01276 -0.05249
# Poissons Ratio (y) = -0.00340 0.12572
# Poissons Ratio (z) = -0.02736 0.24585
#
# Static dielectric constant tensor:
#      x y z
#    x 1.878880 0.000000 -0.013440 
#    y 0.000000 1.905510 0.000000 
#    z -0.013440 0.000000 1.934790 
# 
# From -- ./inp_files/254600.got.cif
#   From: 2010.05.17/outbox.cif.g08.bks.cpg/sg12_128_cif.got.tgz:254600.got - 2010.06.03 13:09:07.
