data_PCOD9195167
_publ_section_title
;
Structure prediction by ZEFSAII (Michael W. Deem and Ramdas Pophale) SiO2 
 PCOD9195167
Probable space group: C 2/M
;
_chemical_formula_sum "Si O2"
_cell_formula_units_Z 56
_cell_length_a 18.587091
_cell_length_b 14.720331
_cell_length_c 30.901472
_cell_angle_alpha 90.000000
_cell_angle_beta 161.369093
_cell_angle_gamma 90.000000
_cell_volume 2701.089362
_symmetry_space_group_name_H-M "C 2/M"
_symmetry_group_IT_number 12
_symmetry_cell_setting 'monoclinic'
loop_
_space_group_symop_operation_xyz
x,y,z
-x,y,-z
-x,-y,-z
x,-y,z
1/2+x,1/2+y,z
1/2-x,1/2+y,-z
1/2-x,1/2-y,-z
1/2+x,1/2-y,z
loop_
_atom_site_type_symbol
_atom_site_label
_atom_site_fract_x
_atom_site_fract_y
_atom_site_fract_z
Si Si1 0.245994 0.849378 0.631855
Si Si2 0.874129 0.892361 0.064778
Si Si3 0.459942 0.109756 0.598529
Si Si4 0.405728 0.897518 0.809836
Si Si5 0.580357 0.610098 0.092759
Si Si6 0.166541 0.653415 0.628249
Si Si7 0.403153 0.389892 0.543405
O O1 0.405421 0.897607 0.756965
O O2 0.229423 0.746938 0.639895
O O3 0.258298 0.856818 0.587732
O O4 0.000000 0.892414 0.500000
O O5 0.937189 0.857270 0.052793
O O6 0.095860 0.885062 0.220589
O O7 0.830493 0.000000 0.035198
O O8 0.646574 0.852433 0.956378
O O9 0.660770 0.129135 0.747012
O O10 0.521295 0.160141 0.589353
O O11 0.220258 0.133899 0.482457
O O12 0.467405 0.000000 0.594551
O O13 0.163035 0.858229 0.685877
O O14 0.403585 0.000000 0.825925
O O15 0.560590 0.500000 0.080665
O O16 0.500000 0.643751 0.000000
O O17 0.000000 0.603605 0.500000
O O18 0.404937 0.500000 0.541321
#
# Coordination Sequence:
#
# PCOD9195167 Si02
#       7
#     8   8   8   8   8   8   8
#     4   9  18  31  47  73 104 138 173 200 250 312
#     4   9  18  30  48  75 100 133 175 213 260 304
#     4   9  18  31  51  78 102 131 172 216 264 305
#     4   9  17  30  49  73 102 132 167 212 259 311
#     4   8  14  24  40  67 102 129 155 200 256 308
#     4  10  20  35  51  72 103 139 181 217 250 299
#     4   9  17  31  53  81 107 130 165 213 263 315
#
# _framework density 20.732377
#
# number of rings (size 3 to 8) (size 9 to 14) (size 15 to 20)
#    0.000    3.000    0.000    1.714    2.000    3.429 
#    0.000    6.429    0.000    0.857    0.000    4.000 
#    0.000    0.000    0.000    0.000    0.000    0.000 
#
# Total GULP energy -155873.860666 kJ/mol
# GULP energy per Si atom -5566.923595 kJ/mol
# Density = 2.068519 g / cm^3
# Si number density = 20.732377 Si / 1000 Ang^3
#
#
#
# Elastic Constant Matrix: (Units=GPa)
#
#
# Indices 1 2 3 4 5 6 
#
# 1 109.7238 23.4473 74.3415 0.0055 11.6287 -0.0041
# 2 23.4473 51.8527 11.2592 0.0228 4.6123 -0.0051
# 3 74.3415 11.2592 132.7827 0.0712 9.1490 -0.0196
# 4 0.0055 0.0228 0.0712 18.9027 -0.0185 -14.2881
# 5 11.6287 4.6123 9.1490 -0.0185 39.2162 -0.0014
# 6 -0.0041 -0.0051 -0.0196 -14.2881 -0.0014 27.5482
#
#
#
# Elastic Compliance Matrix: (Units=1/GPa)
#
#
# Indices 1 2 3 4 5 6 
#
# 1 0.016229 -0.005300 -0.008485 0.000046 -0.002210 0.000019
# 2 -0.005300 0.021526 0.001228 -0.000045 -0.001247 -0.000019
# 3 -0.008485 0.001228 0.012210 -0.000065 -0.000477 -0.000026
# 4 0.000046 -0.000045 -0.000065 0.087017 0.000050 0.045132
# 5 -0.002210 -0.001247 -0.000477 0.000050 0.026413 0.000026
# 6 0.000019 -0.000019 -0.000026 0.045132 0.000026 0.059708
#
#
# Mechanical properties :
#
#
# Convention : Reuss Voigt Hill
#
# Bulk Modulus (GPa) = 40.23764 56.93947 48.58856
# Shear Modulus (GPa) = 19.49314 29.48750 24.49032
#
# Velocity S-wave (km/s) = 3.06964 3.77542 3.44067
# Velocity P-wave (km/s) = 5.65808 6.82120 6.26668
#
# Compressibility (1/GPa) = 0.02485235
#
# Stress axis : x y z
#
# Youngs Moduli (GPa) = 61.61759 46.45501 81.89861
#
# Poissons Ratio (x) = 0.24620 0.69488
# Poissons Ratio (y) = 0.32656 -0.10056
# Poissons Ratio (z) = 0.52280 -0.05704
#
# Static dielectric constant tensor:
#      x y z
#    x 1.781000 0.000000 0.012290 
#    y 0.000000 1.787810 -0.000010 
#    z 0.012290 -0.000010 1.810210 
# 
# From -- ./inp_files/379680.got.cif
#   From: 2010.05.17/outbox.cif.g08.bks.cpg/sg12_190_cif.got.tgz:379680.got - 2010.06.03 13:09:07.
