data_PCOD9195330
_publ_section_title
;
Structure prediction by ZEFSAII (Michael W. Deem and Ramdas Pophale) SiO2 
 PCOD9195330
Probable space group: C 2/M
;
_chemical_formula_sum "Si O2"
_cell_formula_units_Z 48
_cell_length_a 27.273667
_cell_length_b 14.892745
_cell_length_c 6.448288
_cell_angle_alpha 90.000000
_cell_angle_beta 109.758396
_cell_angle_gamma 90.000000
_cell_volume 2464.964731
_symmetry_space_group_name_H-M "C 2/M"
_symmetry_group_IT_number 12
_symmetry_cell_setting 'monoclinic'
loop_
_space_group_symop_operation_xyz
x,y,z
-x,y,-z
-x,-y,-z
x,-y,z
1/2+x,1/2+y,z
1/2-x,1/2+y,-z
1/2-x,1/2-y,-z
1/2+x,1/2-y,z
loop_
_atom_site_type_symbol
_atom_site_label
_atom_site_fract_x
_atom_site_fract_y
_atom_site_fract_z
Si Si1 0.940824 0.605311 0.842579
Si Si2 0.620380 0.235495 0.528422
Si Si3 0.641575 0.098155 0.911168
Si Si4 0.804862 0.816304 0.714910
Si Si5 0.644901 0.396951 0.823206
Si Si6 0.251666 0.861551 0.738244
O O1 0.933709 0.500000 0.769401
O O2 0.924696 0.676638 0.643414
O O3 0.903142 0.620678 0.986328
O O4 0.000000 0.616474 0.000000
O O5 0.645204 0.171026 0.736950
O O6 0.660584 0.262511 0.404620
O O7 0.609835 0.327824 0.639673
O O8 0.629970 0.000000 0.805439
O O9 0.695493 0.094416 0.112246
O O10 0.767474 0.879300 0.524109
O O11 0.767337 0.743969 0.769963
O O12 0.844111 0.863732 0.927826
O O13 0.627694 0.500000 0.789812
O O14 0.702777 0.388446 0.806775
#
# Coordination Sequence:
#
# PCOD9195330 Si02
#       6
#     8   8   8   8   8   8
#     4  10  22  40  62  89 118 148 184 229 288 352
#     4  11  21  39  59  82 115 154 189 239 286 339
#     4  11  22  36  56  87 118 151 191 231 280 341
#     4  10  21  35  58  75 117 159 196 235 279 329
#     4  11  23  36  55  83 115 156 200 239 278 327
#     4  10  20  35  53  80 114 157 193 235 274 327
#
# _framework density 19.472894
#
# number of rings (size 3 to 8) (size 9 to 14) (size 15 to 20)
#    0.000    1.500    3.333    1.500    4.667    4.000 
#    0.000    2.500    0.000    0.500    0.000    4.667 
#    0.000    0.000    0.000    0.000    0.000    0.000 
#
# Total GULP energy -133897.653524 kJ/mol
# GULP energy per Si atom -5579.068897 kJ/mol
# Density = 1.942857 g / cm^3
# Si number density = 19.472894 Si / 1000 Ang^3
#
#
#
# Elastic Constant Matrix: (Units=GPa)
#
#
# Indices 1 2 3 4 5 6 
#
# 1 51.0373 20.0119 40.7255 0.0000 13.9485 0.0000
# 2 20.0119 141.9024 78.2322 0.0000 1.6339 0.0000
# 3 40.7255 78.2322 118.9765 0.0000 8.2582 0.0000
# 4 0.0000 0.0000 0.0000 20.6074 0.0000 5.6909
# 5 13.9485 1.6339 8.2582 0.0000 20.1858 0.0000
# 6 0.0000 0.0000 0.0000 5.6909 0.0000 60.8300
#
#
#
# Elastic Compliance Matrix: (Units=1/GPa)
#
#
# Indices 1 2 3 4 5 6 
#
# 1 0.032730 0.001683 -0.011045 0.000000 -0.018234 0.000000
# 2 0.001683 0.011232 -0.008046 0.000000 0.001220 0.000000
# 3 -0.011045 -0.008046 0.017395 0.000000 0.001167 0.000000
# 4 0.000000 0.000000 0.000000 0.049813 0.000000 -0.004660
# 5 -0.018234 0.001220 0.001167 0.000000 0.061564 0.000000
# 6 0.000000 0.000000 0.000000 -0.004660 0.000000 0.016875
#
#
# Mechanical properties :
#
#
# Convention : Reuss Voigt Hill
#
# Bulk Modulus (GPa) = 37.67617 65.53948 51.60782
# Shear Modulus (GPa) = 21.43427 31.85441 26.64434
#
# Velocity S-wave (km/s) = 3.32131 4.04893 3.70304
# Velocity P-wave (km/s) = 5.83936 7.45576 6.69651
#
# Compressibility (1/GPa) = 0.02654198
#
# Stress axis : x y z
#
# Youngs Moduli (GPa) = 30.55293 89.03498 57.48716
#
# Poissons Ratio (x) = -0.14986 0.63492
# Poissons Ratio (y) = -0.05142 0.46254
# Poissons Ratio (z) = 0.33744 0.71638
#
# Static dielectric constant tensor:
#      x y z
#    x 1.648690 0.000000 -0.012290 
#    y 0.000000 1.736080 0.000000 
#    z -0.012290 0.000000 1.723710 
# 
# From -- ./inp_files/31322.got.cif
#   From: 2010.05.17/outbox.cif.g08.bks.cpg/sg12_16_cif.got.tgz:31322.got - 2010.06.03 13:09:07.
