data_PCOD9195163
_publ_section_title
;
Structure prediction by ZEFSAII (Michael W. Deem and Ramdas Pophale) SiO2 
 PCOD9195163
Probable space group: C 2/M
;
_chemical_formula_sum "Si O2"
_cell_formula_units_Z 48
_cell_length_a 9.744575
_cell_length_b 13.757582
_cell_length_c 28.606139
_cell_angle_alpha 90.000000
_cell_angle_beta 35.556483
_cell_angle_gamma 90.000000
_cell_volume 2230.066890
_symmetry_space_group_name_H-M "C 2/M"
_symmetry_group_IT_number 12
_symmetry_cell_setting 'monoclinic'
loop_
_space_group_symop_operation_xyz
x,y,z
-x,y,-z
-x,-y,-z
x,-y,z
1/2+x,1/2+y,z
1/2-x,1/2+y,-z
1/2-x,1/2-y,-z
1/2+x,1/2-y,z
loop_
_atom_site_type_symbol
_atom_site_label
_atom_site_fract_x
_atom_site_fract_y
_atom_site_fract_z
Si Si1 0.829001 0.380980 0.588622
Si Si2 0.163193 0.387957 0.310784
Si Si3 0.730913 0.609634 0.152130
Si Si4 0.119815 0.617558 0.219606
Si Si5 0.501981 0.286125 0.948659
Si Si6 0.215652 0.117714 0.262281
O O1 0.836884 0.500000 0.588066
O O2 0.900299 0.345950 0.620901
O O3 0.556446 0.355589 0.654643
O O4 0.000000 0.348014 0.500000
O O5 0.076753 0.500000 0.335054
O O6 0.448048 0.391657 0.230128
O O7 0.093053 0.345828 0.280099
O O8 0.814066 0.500000 0.119936
O O9 0.838708 0.689512 0.089041
O O10 0.795628 0.639975 0.187320
O O11 0.117919 0.500000 0.221482
O O12 0.359609 0.650368 0.128000
O O13 0.902502 0.654223 0.248194
O O14 0.500000 0.336281 0.000000
O O15 0.250000 0.250000 0.000000
O O16 0.220098 0.000000 0.263341
#
# Coordination Sequence:
#
# PCOD9195163 Si02
#       6
#     8   8   8   8   8   8
#     4   8  13  24  46  78 109 133 168 215 249 285
#     4   8  15  29  50  72  96 133 173 205 247 300
#     4   9  18  35  54  71  96 130 169 210 251 306
#     4  10  20  35  51  70 102 139 174 210 249 305
#     4  12  25  36  51  77 101 127 170 218 267 311
#     4   8  15  29  50  72  97 135 173 202 246 305
#
# _framework density 21.524018000000002
#
# number of rings (size 3 to 8) (size 9 to 14) (size 15 to 20)
#    0.000    2.833    0.000    4.000    0.000    1.333 
#    0.000    0.833    0.000    5.000    0.000   18.667 
#    0.000    0.000    0.000    0.000    0.000    0.333 
#
# Total GULP energy -133995.439907 kJ/mol
# GULP energy per Si atom -5583.143329 kJ/mol
# Density = 2.147503 g / cm^3
# Si number density = 21.524018 Si / 1000 Ang^3
#
#
#
# Elastic Constant Matrix: (Units=GPa)
#
#
# Indices 1 2 3 4 5 6 
#
# 1 143.8550 -8.8662 39.5675 0.0083 23.5943 -0.0085
# 2 -8.8662 62.4869 10.4052 0.0023 6.2215 -0.0030
# 3 39.5675 10.4052 97.9138 0.0017 20.8773 -0.0052
# 4 0.0083 0.0023 0.0017 23.2008 -0.0054 4.9377
# 5 23.5943 6.2215 20.8773 -0.0054 28.3553 0.0078
# 6 -0.0085 -0.0030 -0.0052 4.9377 0.0078 0.3032
#
#
#
# Elastic Compliance Matrix: (Units=1/GPa)
#
#
# Indices 1 2 3 4 5 6 
#
# 1 0.008753 0.002251 -0.002513 0.000034 -0.005927 -0.000183
# 2 0.002251 0.017050 -0.001808 0.000028 -0.004282 -0.000149
# 3 -0.002513 -0.001808 0.012918 0.000028 -0.007024 -0.000136
# 4 0.000034 0.000028 0.000028 -0.017477 -0.000136 0.284641
# 5 -0.005927 -0.004282 -0.007024 -0.000136 0.046310 0.000707
# 6 -0.000183 -0.000149 -0.000136 0.284641 0.000707 -1.337439
#
#
# Mechanical properties :
#
#
# Convention : Reuss Voigt Hill
#
# Bulk Modulus (GPa) = 28.91758 42.94097 35.92928
# Shear Modulus (GPa) = -3.98655 27.91515 11.96430
#
# Velocity S-wave (km/s) = -1.36241 3.60520 2.36022
# Velocity P-wave (km/s) = 3.31501 6.10930 4.91492
#
# Compressibility (1/GPa) = 0.03458104
#
# Stress axis : x y z
#
# Youngs Moduli (GPa) = 114.24089 58.65051 77.41009
#
# Poissons Ratio (x) = -0.13200 0.19450
# Poissons Ratio (y) = -0.25711 0.13998
# Poissons Ratio (z) = 0.28705 0.10606
#
# Static dielectric constant tensor:
#      x y z
#    x 1.822260 0.000000 0.036870 
#    y 0.000000 1.815940 0.000000 
#    z 0.036870 0.000000 1.748610 
# 
# From -- ./inp_files/356281.got.cif
#   From: 2010.05.17/outbox.cif.g08.bks.cpg/sg12_179_cif.got.tgz:356281.got - 2010.06.03 13:09:07.
