data_PCOD9195398
_publ_section_title
;
Structure prediction by ZEFSAII (Michael W. Deem and Ramdas Pophale) SiO2 
 PCOD9195398
Probable space group: C 2/M
;
_chemical_formula_sum "Si O2"
_cell_formula_units_Z 64
_cell_length_a 19.459995
_cell_length_b 7.693580
_cell_length_c 18.943326
_cell_angle_alpha 90.000000
_cell_angle_beta 120.958623
_cell_angle_gamma 90.000000
_cell_volume 2432.099408
_symmetry_space_group_name_H-M "C 2/M"
_symmetry_group_IT_number 12
_symmetry_cell_setting 'monoclinic'
loop_
_space_group_symop_operation_xyz
x,y,z
-x,y,-z
-x,-y,-z
x,-y,z
1/2+x,1/2+y,z
1/2-x,1/2+y,-z
1/2-x,1/2-y,-z
1/2+x,1/2-y,z
loop_
_atom_site_type_symbol
_atom_site_label
_atom_site_fract_x
_atom_site_fract_y
_atom_site_fract_z
Si Si1 0.871943 0.705571 0.029660
Si Si2 0.457636 0.790555 0.369200
Si Si3 0.218140 0.287308 0.223331
Si Si4 0.877930 0.708852 0.464989
Si Si5 0.793858 0.294145 0.621342
Si Si6 0.042745 0.301588 0.118663
Si Si7 0.794107 0.789595 0.127664
Si Si8 0.033130 0.193629 0.269707
O O1 0.873580 0.500000 0.016375
O O2 0.860184 0.728461 0.107551
O O3 0.957787 0.778232 0.051513
O O4 0.790748 0.771834 0.951361
O O5 0.542627 0.741418 0.450557
O O6 0.392624 0.725728 0.392081
O O7 0.466728 0.727236 0.294096
O O8 0.453444 0.000000 0.364527
O O9 0.217722 0.500000 0.223722
O O10 0.221530 0.231239 0.305815
O O11 0.130352 0.227713 0.149587
O O12 0.286236 0.230580 0.204513
O O13 0.877659 0.500000 0.462524
O O14 0.794391 0.761711 0.456242
O O15 0.807739 0.500000 0.625892
O O16 0.878894 0.211020 0.647796
O O17 0.045224 0.500000 0.094380
O O18 0.037547 0.308003 0.201795
O O19 0.796678 0.000000 0.128337
O O20 0.022452 0.000000 0.236735
#
# Coordination Sequence:
#
# PCOD9195398 Si02
#       8
#     8   8   8   8   8   8   8   8
#     4   9  18  31  49  73  99 130 165 202 248 300
#     4   9  19  37  57  77 105 137 167 206 256 303
#     4   8  16  31  50  71  95 127 165 204 246 291
#     4   9  19  36  57  79 103 134 171 208 250 303
#     4  10  20  35  54  76 105 137 169 210 258 303
#     4   9  18  34  52  71  98 130 167 209 254 301
#     4   9  17  31  50  72 100 130 163 205 248 294
#     4  11  22  35  53  77 103 134 174 213 252 302
#
# _framework density 26.314713999999999
#
# number of rings (size 3 to 8) (size 9 to 14) (size 15 to 20)
#    0.000    2.750    0.000    3.000    0.000    3.500 
#    0.000    9.375    0.000    0.000    0.000    7.000 
#    0.000    0.000    0.000    0.000    0.000    0.000 
#
# Total GULP energy -178868.819747 kJ/mol
# GULP energy per Si atom -5589.650617 kJ/mol
# Density = 2.625482 g / cm^3
# Si number density = 26.314714 Si / 1000 Ang^3
#
#
#
# Elastic Constant Matrix: (Units=GPa)
#
#
# Indices 1 2 3 4 5 6 
#
# 1 184.8157 0.4638 6.9731 0.0000 -5.4841 0.0000
# 2 0.4638 62.5333 -4.5232 0.0000 -5.1836 0.0000
# 3 6.9731 -4.5232 57.3579 0.0000 -6.5149 0.0000
# 4 0.0000 0.0000 0.0000 5.0696 0.0000 2.9041
# 5 -5.4841 -5.1836 -6.5149 0.0000 56.9839 0.0000
# 6 0.0000 0.0000 0.0000 2.9041 0.0000 16.2992
#
#
#
# Elastic Compliance Matrix: (Units=1/GPa)
#
#
# Indices 1 2 3 4 5 6 
#
# 1 0.005447 -0.000048 -0.000615 0.000000 0.000450 0.000000
# 2 -0.000048 0.016234 0.001472 0.000000 0.001641 0.000000
# 3 -0.000615 0.001472 0.017866 0.000000 0.002117 0.000000
# 4 0.000000 0.000000 0.000000 0.219674 0.000000 -0.039140
# 5 0.000450 0.001641 0.002117 0.000000 0.017983 0.000000
# 6 0.000000 0.000000 0.000000 -0.039140 0.000000 0.068326
#
#
# Mechanical properties :
#
#
# Convention : Reuss Voigt Hill
#
# Bulk Modulus (GPa) = 24.29121 34.50380 29.39751
# Shear Modulus (GPa) = 13.98076 35.79009 24.88543
#
# Velocity S-wave (km/s) = 2.30748 3.69193 3.07854
# Velocity P-wave (km/s) = 4.04355 5.59591 4.88183
#
# Compressibility (1/GPa) = 0.04116716
#
# Stress axis : x y z
#
# Youngs Moduli (GPa) = 183.57182 61.59790 55.97297
#
# Poissons Ratio (x) = 0.00293 0.03442
# Poissons Ratio (y) = 0.00874 -0.08241
# Poissons Ratio (z) = 0.11289 -0.09069
#
# Static dielectric constant tensor:
#      x y z
#    x 2.045790 0.000000 0.025830 
#    y 0.000000 1.976800 0.000000 
#    z 0.025830 0.000000 2.206160 
# 
# From -- ./inp_files/320058.got.cif
#   From: 2010.05.17/outbox.cif.g08.bks.cpg/sg12_161_cif.got.tgz:320058.got - 2010.06.03 13:09:07.
