data_PCOD9195713
_publ_section_title
;
Structure prediction by ZEFSAII (Michael W. Deem and Ramdas Pophale) SiO2 
 PCOD9195713
Probable space group: C 2/M
;
_chemical_formula_sum "Si O2"
_cell_formula_units_Z 64
_cell_length_a 28.327814
_cell_length_b 9.403866
_cell_length_c 18.427883
_cell_angle_alpha 90.000000
_cell_angle_beta 135.570085
_cell_angle_gamma 90.000000
_cell_volume 3436.493210
_symmetry_space_group_name_H-M "C 2/M"
_symmetry_group_IT_number 12
_symmetry_cell_setting 'monoclinic'
loop_
_space_group_symop_operation_xyz
x,y,z
-x,y,-z
-x,-y,-z
x,-y,z
1/2+x,1/2+y,z
1/2-x,1/2+y,-z
1/2-x,1/2-y,-z
1/2+x,1/2-y,z
loop_
_atom_site_type_symbol
_atom_site_label
_atom_site_fract_x
_atom_site_fract_y
_atom_site_fract_z
Si Si1 0.327173 0.669013 0.963395
Si Si2 0.409875 0.671141 0.198160
Si Si3 0.952349 0.833817 0.720459
Si Si4 0.947479 0.843276 0.877172
Si Si5 0.158285 0.332823 0.164768
Si Si6 0.815925 0.332363 0.541881
Si Si7 0.167588 0.666434 0.765191
Si Si8 0.709166 0.835482 0.654671
O O1 0.338046 0.500000 0.964101
O O2 0.361704 0.709721 0.077035
O O3 0.356527 0.755377 0.927851
O O4 0.246272 0.694018 0.872640
O O5 0.408830 0.500000 0.202258
O O6 0.486574 0.714143 0.263737
O O7 0.380360 0.740214 0.237815
O O8 0.979185 0.829386 0.832732
O O9 0.884496 0.742642 0.643105
O O10 0.936644 0.000000 0.687296
O O11 0.895346 0.719432 0.835522
O O12 0.913155 0.000000 0.840711
O O13 0.000000 0.841412 0.000000
O O14 0.158978 0.500000 0.156493
O O15 0.229484 0.272088 0.269059
O O16 0.812556 0.500000 0.557898
O O17 0.750000 0.250000 0.500000
O O18 0.817850 0.323503 0.456122
O O19 0.154821 0.500000 0.764951
O O20 0.161652 0.691755 0.672056
O O21 0.732948 0.000000 0.690609
#
# Coordination Sequence:
#
# PCOD9195713 Si02
#       8
#     8   8   8   8   8   8   8   8
#     4   9  18  34  54  77 111 154 192 220 259 326
#     4  10  20  35  55  79 110 148 187 227 272 322
#     4  10  22  38  56  81 111 144 184 226 270 326
#     4  10  20  36  56  74 102 149 189 212 253 324
#     4  11  21  31  50  82 112 136 172 227 279 316
#     4  11  23  40  63  86 109 140 178 224 276 329
#     4   9  18  33  55  81 108 141 184 232 273 314
#     4   9  20  39  58  77 105 142 181 217 264 331
#
# _framework density 18.623636999999999
#
# number of rings (size 3 to 8) (size 9 to 14) (size 15 to 20)
#    0.000    2.125    0.000    4.125    0.000    9.750 
#    0.000    1.875    0.000    3.750    0.000    0.000 
#    0.000    0.000    0.000    0.000    0.000    0.000 
#
# Total GULP energy -178570.738665 kJ/mol
# GULP energy per Si atom -5580.335583 kJ/mol
# Density = 1.858125 g / cm^3
# Si number density = 18.623637 Si / 1000 Ang^3
#
#
#
# Elastic Constant Matrix: (Units=GPa)
#
#
# Indices 1 2 3 4 5 6 
#
# 1 110.4225 49.3069 32.3412 0.0000 -2.2709 0.0000
# 2 49.3069 72.7017 30.0346 0.0000 3.6027 0.0000
# 3 32.3412 30.0346 63.3701 0.0000 -5.2376 0.0000
# 4 0.0000 0.0000 0.0000 15.4824 0.0000 -5.0589
# 5 -2.2709 3.6027 -5.2376 0.0000 21.0239 0.0000
# 6 0.0000 0.0000 0.0000 -5.0589 0.0000 30.4480
#
#
#
# Elastic Compliance Matrix: (Units=1/GPa)
#
#
# Indices 1 2 3 4 5 6 
#
# 1 0.013573 -0.008110 -0.002907 0.000000 0.002132 0.000000
# 2 -0.008110 0.022492 -0.007058 0.000000 -0.006489 0.000000
# 3 -0.002907 -0.007058 0.021118 0.000000 0.006156 0.000000
# 4 0.000000 0.000000 0.000000 0.068297 0.000000 0.011347
# 5 0.002132 -0.006489 0.006156 0.000000 0.050441 0.000000
# 6 0.000000 0.000000 0.000000 0.011347 0.000000 0.034728
#
#
# Mechanical properties :
#
#
# Convention : Reuss Voigt Hill
#
# Bulk Modulus (GPa) = 47.54294 52.20665 49.87480
# Shear Modulus (GPa) = 19.69986 22.37831 21.03909
#
# Velocity S-wave (km/s) = 3.25589 3.47018 3.36474
# Velocity P-wave (km/s) = 6.30223 6.64451 6.47564
#
# Compressibility (1/GPa) = 0.02103362
#
# Stress axis : x y z
#
# Youngs Moduli (GPa) = 73.67770 44.45991 47.35346
#
# Poissons Ratio (x) = 0.36056 0.13766
# Poissons Ratio (y) = 0.59751 0.33421
# Poissons Ratio (z) = 0.21418 0.31379
#
# Static dielectric constant tensor:
#      x y z
#    x 1.644590 0.000000 -0.010990 
#    y 0.000000 1.628170 0.000000 
#    z -0.010990 0.000000 1.660450 
# 
# From -- ./inp_files/295845.got.cif
#   From: 2010.05.17/outbox.cif.g08.bks.cpg/sg12_148_cif.got.tgz:295845.got - 2010.06.03 13:09:07.
