data_PCOD9195175
_publ_section_title
;
Structure prediction by ZEFSAII (Michael W. Deem and Ramdas Pophale) SiO2 
 PCOD9195175
Probable space group: C 2/M
;
_chemical_formula_sum "Si O2"
_cell_formula_units_Z 56
_cell_length_a 31.222032
_cell_length_b 8.396665
_cell_length_c 17.377150
_cell_angle_alpha 90.000000
_cell_angle_beta 134.366517
_cell_angle_gamma 90.000000
_cell_volume 3256.721030
_symmetry_space_group_name_H-M "C 2/M"
_symmetry_group_IT_number 12
_symmetry_cell_setting 'monoclinic'
loop_
_space_group_symop_operation_xyz
x,y,z
-x,y,-z
-x,-y,-z
x,-y,z
1/2+x,1/2+y,z
1/2-x,1/2+y,-z
1/2-x,1/2-y,-z
1/2+x,1/2-y,z
loop_
_atom_site_type_symbol
_atom_site_label
_atom_site_fract_x
_atom_site_fract_y
_atom_site_fract_z
Si Si1 0.326012 0.692172 0.241074
Si Si2 0.194286 0.810049 0.104523
Si Si3 0.490218 0.809130 0.698543
Si Si4 0.443326 0.307703 0.480134
Si Si5 0.873034 0.807107 0.134688
Si Si6 0.405745 0.192201 0.912424
Si Si7 0.472802 0.193826 0.847597
O O1 0.326224 0.500000 0.241580
O O2 0.261937 0.749562 0.189214
O O3 0.381541 0.746676 0.363598
O O4 0.339005 0.744151 0.169561
O O5 0.154862 0.756167 0.127389
O O6 0.194818 0.000000 0.102235
O O7 0.160700 0.751184 0.984611
O O8 0.453381 0.746892 0.579671
O O9 0.558952 0.752915 0.777699
O O10 0.466386 0.752549 0.751904
O O11 0.489332 0.000000 0.696832
O O12 0.500000 0.253124 0.500000
O O13 0.443754 0.500000 0.479141
O O14 0.874700 0.000000 0.136232
O O15 0.423703 0.244617 0.848812
O O16 0.403695 0.000000 0.910534
O O17 0.461961 0.240952 0.037211
O O18 0.472320 0.000000 0.847104
#
# Coordination Sequence:
#
# PCOD9195175 Si02
#       7
#     8   8   8   8   8   8   8
#     4  10  21  37  55  70  97 145 185 205 244 312
#     4  11  22  33  50  79 111 135 167 218 265 299
#     4  11  20  31  53  82 108 132 168 217 262 297
#     4  10  20  37  56  73 100 139 178 214 252 305
#     4  10  20  35  51  73 106 143 173 204 253 312
#     4   9  16  32  54  73 102 139 174 204 247 317
#     4   8  16  30  51  78 103 134 171 210 252 304
#
# _framework density 17.195208000000001
#
# number of rings (size 3 to 8) (size 9 to 14) (size 15 to 20)
#    0.000    2.143    2.857    2.143    0.000    2.000 
#    0.000    2.857    0.000    0.857    0.000    0.000 
#    0.000    0.000    0.000    0.000    0.000    0.000 
#
# Total GULP energy -156234.320929 kJ/mol
# GULP energy per Si atom -5579.797176 kJ/mol
# Density = 1.715607 g / cm^3
# Si number density = 17.195208 Si / 1000 Ang^3
#
#
#
# Elastic Constant Matrix: (Units=GPa)
#
#
# Indices 1 2 3 4 5 6 
#
# 1 168.9753 18.3858 77.9794 0.0000 -8.2881 0.0000
# 2 18.3858 8.6902 12.4242 0.0000 0.8521 0.0000
# 3 77.9794 12.4242 85.8645 0.0000 -4.2533 0.0000
# 4 0.0000 0.0000 0.0000 22.2907 0.0000 1.8349
# 5 -8.2881 0.8521 -4.2533 0.0000 31.8484 0.0000
# 6 0.0000 0.0000 0.0000 1.8349 0.0000 20.7549
#
#
#
# Elastic Compliance Matrix: (Units=1/GPa)
#
#
# Indices 1 2 3 4 5 6 
#
# 1 0.011147 -0.011936 -0.008291 0.000000 0.002113 0.000000
# 2 -0.011936 0.159315 -0.012661 0.000000 -0.009060 0.000000
# 3 -0.008291 -0.012661 0.021057 0.000000 0.000993 0.000000
# 4 0.000000 0.000000 0.000000 0.045191 0.000000 -0.003995
# 5 0.002113 -0.009060 0.000993 0.000000 0.032324 0.000000
# 6 0.000000 0.000000 0.000000 -0.003995 0.000000 0.048535
#
#
# Mechanical properties :
#
#
# Convention : Reuss Voigt Hill
#
# Bulk Modulus (GPa) = 7.95275 53.45651 30.70463
# Shear Modulus (GPa) = 11.75753 25.29484 18.52619
#
# Velocity S-wave (km/s) = 2.61773 3.83958 3.28594
# Velocity P-wave (km/s) = 3.71103 7.12825 5.68259
#
# Compressibility (1/GPa) = 0.12574269
#
# Stress axis : x y z
#
# Youngs Moduli (GPa) = 89.71247 6.27685 47.48952
#
# Poissons Ratio (x) = 0.07492 0.39375
# Poissons Ratio (y) = 1.07084 0.60125
# Poissons Ratio (z) = 0.74383 0.07947
#
# Static dielectric constant tensor:
#      x y z
#    x 1.575370 0.000000 -0.023330 
#    y 0.000000 1.591810 0.000000 
#    z -0.023330 0.000000 1.571500 
# 
# From -- ./inp_files/238873.got.cif
#   From: 2010.05.17/outbox.cif.g08.bks.cpg/sg12_120_cif.got.tgz:238873.got - 2010.06.03 13:09:07.
