data_PCOD9195602
_publ_section_title
;
Structure prediction by ZEFSAII (Michael W. Deem and Ramdas Pophale) SiO2 
 PCOD9195602
Probable space group: C 2/M
;
_chemical_formula_sum "Si O2"
_cell_formula_units_Z 64
_cell_length_a 21.124456
_cell_length_b 7.369158
_cell_length_c 21.849219
_cell_angle_alpha 90.000000
_cell_angle_beta 130.702762
_cell_angle_gamma 90.000000
_cell_volume 2578.502031
_symmetry_space_group_name_H-M "C 2/M"
_symmetry_group_IT_number 12
_symmetry_cell_setting 'monoclinic'
loop_
_space_group_symop_operation_xyz
x,y,z
-x,y,-z
-x,-y,-z
x,-y,z
1/2+x,1/2+y,z
1/2-x,1/2+y,-z
1/2-x,1/2-y,-z
1/2+x,1/2-y,z
loop_
_atom_site_type_symbol
_atom_site_label
_atom_site_fract_x
_atom_site_fract_y
_atom_site_fract_z
Si Si1 0.085490 0.281013 0.262632
Si Si2 0.755239 0.289944 0.316581
Si Si3 0.917646 0.279842 0.486369
Si Si4 0.499224 0.783598 0.079924
Si Si5 0.151952 0.716163 0.944109
Si Si6 0.993144 0.278624 0.659155
Si Si7 0.839952 0.721161 0.184305
Si Si8 0.174393 0.783450 0.139195
O O1 0.081145 0.500000 0.259008
O O2 0.180811 0.220698 0.318277
O O3 0.042105 0.223905 0.171607
O O4 0.045208 0.221012 0.300451
O O5 0.774292 0.500000 0.313371
O O6 0.837352 0.210708 0.399225
O O7 0.714159 0.213783 0.228553
O O8 0.908511 0.500000 0.483986
O O9 0.937898 0.216093 0.567568
O O10 0.000000 0.240561 0.500000
O O11 0.404649 0.712630 0.035404
O O12 0.574159 0.749389 0.077902
O O13 0.492427 0.000000 0.072698
O O14 0.141661 0.500000 0.938930
O O15 0.124561 0.779409 0.859203
O O16 0.250000 0.750000 0.000000
O O17 0.992980 0.500000 0.657521
O O18 0.091443 0.226827 0.721751
O O19 0.837319 0.500000 0.181459
O O20 0.744997 0.784365 0.136149
O O21 0.179167 0.000000 0.141224
#
# Coordination Sequence:
#
# PCOD9195602 Si02
#       8
#     8   8   8   8   8   8   8   8
#     4   9  16  28  47  68  88 122 165 196 227 278
#     4   9  17  28  42  67 100 125 152 197 247 281
#     4   9  16  25  39  63  94 124 155 197 245 282
#     4   9  17  32  51  71  98 129 161 194 234 288
#     4  10  20  35  55  77  99 125 157 197 242 286
#     4   9  15  25  45  68  90 122 164 201 232 275
#     4   9  16  30  51  74  97 123 164 207 236 276
#     4   9  17  29  50  75  98 128 163 201 241 278
#
# _framework density 24.820613000000002
#
# number of rings (size 3 to 8) (size 9 to 14) (size 15 to 20)
#    0.000    2.875    1.250    0.750    0.000    4.000 
#    0.000    1.250    0.000    4.875    0.000    0.000 
#    0.000    0.000    0.000    0.000    0.000    0.000 
#
# Total GULP energy -178545.079189 kJ/mol
# GULP energy per Si atom -5579.533725 kJ/mol
# Density = 2.476412 g / cm^3
# Si number density = 24.820613 Si / 1000 Ang^3
#
#
#
# Elastic Constant Matrix: (Units=GPa)
#
#
# Indices 1 2 3 4 5 6 
#
# 1 190.5780 5.1014 45.7860 0.0000 19.9591 0.0000
# 2 5.1014 88.8125 -9.7992 0.0001 1.0080 -0.0001
# 3 45.7860 -9.7992 80.5745 0.0000 38.1790 0.0000
# 4 0.0000 0.0001 0.0000 -18.7695 0.0000 2.3406
# 5 19.9591 1.0080 38.1790 0.0000 43.2098 0.0000
# 6 0.0000 -0.0001 0.0000 2.3406 0.0000 8.3661
#
#
#
# Elastic Compliance Matrix: (Units=1/GPa)
#
#
# Indices 1 2 3 4 5 6 
#
# 1 0.006134 -0.000786 -0.003866 0.000000 0.000601 0.000000
# 2 -0.000786 0.011682 0.003138 0.000000 -0.002682 0.000000
# 3 -0.003866 0.003138 0.024388 0.000000 -0.019837 0.000000
# 4 0.000000 0.000000 0.000000 -0.051482 0.000000 0.014403
# 5 0.000601 -0.002682 -0.019837 0.000000 0.040455 0.000000
# 6 0.000000 0.000000 0.000000 0.014403 0.000000 0.115501
#
#
# Mechanical properties :
#
#
# Convention : Reuss Voigt Hill
#
# Bulk Modulus (GPa) = 25.52500 49.12681 37.32590
# Shear Modulus (GPa) = 30.71932 27.81972 29.26952
#
# Velocity S-wave (km/s) = 3.52185 3.35151 3.43774
# Velocity P-wave (km/s) = 5.18112 5.90022 5.55232
#
# Compressibility (1/GPa) = 0.03917728
#
# Stress axis : x y z
#
# Youngs Moduli (GPa) = 163.02374 85.60543 41.00294
#
# Poissons Ratio (x) = 0.06726 0.15851
# Poissons Ratio (y) = 0.12809 -0.12867
# Poissons Ratio (z) = 0.63022 -0.26864
#
# Static dielectric constant tensor:
#      x y z
#    x 1.878020 0.000000 -0.009130 
#    y 0.000000 1.947480 0.000000 
#    z -0.009130 0.000000 2.028600 
# 
# From -- ./inp_files/276527.got.cif
#   From: 2010.05.17/outbox.cif.g08.bks.cpg/sg12_139_cif.got.tgz:276527.got - 2010.06.03 13:09:07.
