data_PCOD9195000
_publ_section_title
;
Structure prediction by ZEFSAII (Michael W. Deem and Ramdas Pophale) SiO2 
 PCOD9195000
Probable space group: C 2/M
;
_chemical_formula_sum "Si O2"
_cell_formula_units_Z 36
_cell_length_a 14.795644
_cell_length_b 29.751718
_cell_length_c 5.809935
_cell_angle_alpha 90.000000
_cell_angle_beta 38.867971
_cell_angle_gamma 90.000000
_cell_volume 1604.908377
_symmetry_space_group_name_H-M "C 2/M"
_symmetry_group_IT_number 12
_symmetry_cell_setting 'monoclinic'
loop_
_space_group_symop_operation_xyz
x,y,z
-x,y,-z
-x,-y,-z
x,-y,z
1/2+x,1/2+y,z
1/2-x,1/2+y,-z
1/2-x,1/2-y,-z
1/2+x,1/2-y,z
loop_
_atom_site_type_symbol
_atom_site_label
_atom_site_fract_x
_atom_site_fract_y
_atom_site_fract_z
Si Si1 0.500000 0.815964 0.500000
Si Si2 0.354497 0.121156 0.169695
Si Si3 0.171956 0.447435 0.133083
Si Si4 0.436271 0.445700 0.880184
Si Si5 0.160111 0.290177 0.576804
O O1 0.623169 0.787815 0.382088
O O2 0.416019 0.848094 0.839860
O O3 0.283571 0.159558 0.471429
O O4 0.500000 0.103339 0.000000
O O5 0.278391 0.081073 0.186750
O O6 0.197989 0.500000 0.036984
O O7 0.000000 0.441583 0.500000
O O8 0.265822 0.435126 0.172934
O O9 0.500000 0.432114 0.500000
O O10 0.451116 0.500000 0.859415
O O11 0.500000 0.428880 0.000000
O O12 0.250000 0.250000 0.500000
O O13 0.000000 0.286713 0.000000
#
# Coordination Sequence:
#
# PCOD9195000 Si02
#       5
#     4   8   8   8   8
#     4   8  16  34  55  76 114 148 173 228 298 354
#     4   9  18  32  54  81 116 151 184 235 305 350
#     4  10  20  34  59  90 115 154 213 261 292 351
#     4   9  19  37  57  79 116 165 209 256 319 376
#     4   9  19  34  59  85 107 148 188 232 299 360
#
# _framework density 22.431184999999999
#
# number of rings (size 3 to 8) (size 9 to 14) (size 15 to 20)
#    0.000    3.333    1.111    0.000    0.000    5.778 
#    0.000    4.444    7.333    0.000    0.000    0.000 
#    0.000    0.000    0.000    0.000    0.000    0.000 
#
# Total GULP energy -100218.168167 kJ/mol
# GULP energy per Si atom -5567.676009 kJ/mol
# Density = 2.238013 g / cm^3
# Si number density = 22.431185 Si / 1000 Ang^3
#
#
#
# Elastic Constant Matrix: (Units=GPa)
#
#
# Indices 1 2 3 4 5 6 
#
# 1 229.8684 71.3098 41.2034 0.0000 25.7230 0.0000
# 2 71.3098 110.3473 2.1791 0.0000 4.9990 0.0000
# 3 41.2034 2.1791 58.4155 0.0000 -2.0281 0.0000
# 4 0.0000 0.0000 0.0000 10.9694 0.0000 6.3806
# 5 25.7230 4.9990 -2.0281 0.0000 29.1839 0.0000
# 6 0.0000 0.0000 0.0000 6.3806 0.0000 38.4997
#
#
#
# Elastic Compliance Matrix: (Units=1/GPa)
#
#
# Indices 1 2 3 4 5 6 
#
# 1 0.007310 -0.004346 -0.005204 0.000000 -0.006060 0.000000
# 2 -0.004346 0.011727 0.002698 0.000000 0.002010 0.000000
# 3 -0.005204 0.002698 0.020882 0.000000 0.005576 0.000000
# 4 0.000000 0.000000 0.000000 0.100888 0.000000 -0.016720
# 5 -0.006060 0.002010 0.005576 0.000000 0.039650 0.000000
# 6 0.000000 0.000000 0.000000 -0.016720 0.000000 0.028745
#
#
# Mechanical properties :
#
#
# Convention : Reuss Voigt Hill
#
# Bulk Modulus (GPa) = 38.14776 69.77954 53.96365
# Shear Modulus (GPa) = 21.58473 34.65986 28.12230
#
# Velocity S-wave (km/s) = 3.10540 3.93512 3.54462
# Velocity P-wave (km/s) = 5.46823 7.19880 6.39235
#
# Compressibility (1/GPa) = 0.02621386
#
# Stress axis : x y z
#
# Youngs Moduli (GPa) = 136.80658 85.27525 47.88728
#
# Poissons Ratio (x) = 0.37064 0.24921
# Poissons Ratio (y) = 0.59461 -0.12920
# Poissons Ratio (z) = 0.71195 -0.23008
#
# Static dielectric constant tensor:
#      x y z
#    x 2.035670 0.000000 0.055690 
#    y 0.000000 1.867510 0.000000 
#    z 0.055690 0.000000 1.997790 
# 
# From -- ./inp_files/12600.got.cif
#   From: 2010.05.17/outbox.cif.g08.bks.cpg/sg12_7_cif.got.tgz:12600.got - 2010.06.03 13:09:07.
