data_PCOD9195765
_publ_section_title
;
Structure prediction by ZEFSAII (Michael W. Deem and Ramdas Pophale) SiO2 
 PCOD9195765
Probable space group: C 2/M
;
_chemical_formula_sum "Si O2"
_cell_formula_units_Z 56
_cell_length_a 23.402883
_cell_length_b 8.797773
_cell_length_c 15.611560
_cell_angle_alpha 90.000000
_cell_angle_beta 86.715898
_cell_angle_gamma 90.000000
_cell_volume 3209.036153
_symmetry_space_group_name_H-M "C 2/M"
_symmetry_group_IT_number 12
_symmetry_cell_setting 'monoclinic'
loop_
_space_group_symop_operation_xyz
x,y,z
-x,y,-z
-x,-y,-z
x,-y,z
1/2+x,1/2+y,z
1/2-x,1/2+y,-z
1/2-x,1/2-y,-z
1/2+x,1/2-y,z
loop_
_atom_site_type_symbol
_atom_site_label
_atom_site_fract_x
_atom_site_fract_y
_atom_site_fract_z
Si Si1 0.501269 0.183453 0.601427
Si Si2 0.387364 0.318822 0.318420
Si Si3 0.665223 0.817432 0.842109
Si Si4 0.313717 0.317507 0.985076
Si Si5 0.688678 0.817768 0.528645
Si Si6 0.873695 0.681893 0.642065
Si Si7 0.297756 0.682131 0.798087
O O1 0.500000 0.218757 0.500000
O O2 0.553616 0.261931 0.644762
O O3 0.439729 0.229046 0.645069
O O4 0.507916 0.000000 0.607591
O O5 0.385483 0.500000 0.315353
O O6 0.376330 0.249124 0.225949
O O7 0.337254 0.255829 0.384307
O O8 0.652816 0.753624 0.938092
O O9 0.730898 0.770847 0.811522
O O10 0.663418 0.000000 0.843415
O O11 0.312198 0.500000 0.992914
O O12 0.250000 0.250000 0.000000
O O13 0.328964 0.278900 0.885537
O O14 0.750000 0.750000 0.500000
O O15 0.647327 0.782245 0.452104
O O16 0.691792 0.000000 0.538634
O O17 0.871705 0.500000 0.650204
O O18 0.830957 0.750485 0.715110
O O19 0.297381 0.500000 0.790700
#
# Coordination Sequence:
#
# PCOD9195765 Si02
#       7
#     8   8   8   8   8   8   8
#     4  10  20  40  60  74 100 141 185 230 274 317
#     4  12  24  36  54  81 108 141 181 226 273 327
#     4  10  20  35  55  80 110 147 182 221 272 324
#     4   9  17  31  51  78 111 146 180 218 266 323
#     4  11  22  37  53  77 110 145 179 220 270 322
#     4  10  21  35  55  77 102 140 182 221 266 317
#     4   9  19  33  52  80 113 143 173 215 269 320
#
# _framework density 17.450721999999999
#
# number of rings (size 3 to 8) (size 9 to 14) (size 15 to 20)
#    0.000    1.857    1.429    4.286    0.000    7.714 
#    0.000    0.000    0.000    0.857    0.000    6.000 
#    0.000    0.000    0.000    0.000    0.000    0.000 
#
# Total GULP energy -156282.102949 kJ/mol
# GULP energy per Si atom -5581.503677 kJ/mol
# Density = 1.741100 g / cm^3
# Si number density = 17.450722 Si / 1000 Ang^3
#
#
#
# Elastic Constant Matrix: (Units=GPa)
#
#
# Indices 1 2 3 4 5 6 
#
# 1 55.1133 19.1440 2.4355 0.0000 20.7931 0.0000
# 2 19.1440 58.5915 32.7906 0.0000 16.5555 0.0000
# 3 2.4355 32.7906 80.0649 0.0000 28.9271 0.0000
# 4 0.0000 0.0000 0.0000 32.1398 0.0000 1.2714
# 5 20.7931 16.5555 28.9271 0.0000 27.8830 0.0000
# 6 0.0000 0.0000 0.0000 1.2714 0.0000 24.9030
#
#
#
# Elastic Compliance Matrix: (Units=1/GPa)
#
#
# Indices 1 2 3 4 5 6 
#
# 1 0.034993 -0.010180 0.016554 0.000000 -0.037225 0.000000
# 2 -0.010180 0.025745 -0.011923 0.000000 0.004675 0.000000
# 3 0.016554 -0.011923 0.030026 0.000000 -0.036416 0.000000
# 4 0.000000 0.000000 0.000000 0.031177 0.000000 -0.001592
# 5 -0.037225 0.004675 -0.036416 0.000000 0.098627 0.000000
# 6 0.000000 0.000000 0.000000 -0.001592 0.000000 0.040237
#
#
# Mechanical properties :
#
#
# Convention : Reuss Voigt Hill
#
# Bulk Modulus (GPa) = 12.55234 33.61220 23.08227
# Shear Modulus (GPa) = 16.75267 26.27846 21.51557
#
# Velocity S-wave (km/s) = 3.10175 3.88476 3.51512
# Velocity P-wave (km/s) = 4.47620 6.27892 5.45258
#
# Compressibility (1/GPa) = 0.07966641
#
# Stress axis : x y z
#
# Youngs Moduli (GPa) = 28.57713 38.84202 33.30413
#
# Poissons Ratio (x) = 0.39539 -0.55131
# Poissons Ratio (y) = 0.29090 0.39709
# Poissons Ratio (z) = -0.47306 0.46312
#
# Static dielectric constant tensor:
#      x y z
#    x 1.543450 0.000000 -0.022080 
#    y 0.000000 1.582530 0.000000 
#    z -0.022080 0.000000 1.563330 
# 
# From -- ./inp_files/231008.got.cif
#   From: 2010.05.17/outbox.cif.g08.bks.cpg/sg12_116_cif.got.tgz:231008.got - 2010.06.03 13:09:07.
