data_PCOD9195186
_publ_section_title
;
Structure prediction by ZEFSAII (Michael W. Deem and Ramdas Pophale) SiO2 
 PCOD9195186
Probable space group: C 2/M
;
_chemical_formula_sum "Si O2"
_cell_formula_units_Z 56
_cell_length_a 36.059120
_cell_length_b 7.780766
_cell_length_c 15.199444
_cell_angle_alpha 90.000000
_cell_angle_beta 49.177156
_cell_angle_gamma 90.000000
_cell_volume 3227.072330
_symmetry_space_group_name_H-M "C 2/M"
_symmetry_group_IT_number 12
_symmetry_cell_setting 'monoclinic'
loop_
_space_group_symop_operation_xyz
x,y,z
-x,y,-z
-x,-y,-z
x,-y,z
1/2+x,1/2+y,z
1/2-x,1/2+y,-z
1/2-x,1/2-y,-z
1/2+x,1/2-y,z
loop_
_atom_site_type_symbol
_atom_site_label
_atom_site_fract_x
_atom_site_fract_y
_atom_site_fract_z
Si Si1 0.113701 0.289609 0.842601
Si Si2 0.432629 0.789277 0.912418
Si Si3 0.693421 0.204660 0.579431
Si Si4 0.954698 0.290294 0.686279
Si Si5 0.933621 0.707253 0.525668
Si Si6 0.114108 0.195305 0.571192
Si Si7 0.535518 0.803573 0.826985
O O1 0.886650 0.500000 0.159197
O O2 0.160763 0.233090 0.713347
O O3 0.065710 0.229665 0.862222
O O4 0.107873 0.238044 0.952968
O O5 0.430224 0.732171 0.815015
O O6 0.484932 0.728934 0.870472
O O7 0.433254 0.000000 0.908961
O O8 0.750000 0.250000 0.500000
O O9 0.666774 0.272286 0.532884
O O10 0.688959 0.000000 0.584000
O O11 0.954508 0.500000 0.686173
O O12 0.930463 0.234883 0.631905
O O13 0.012170 0.239911 0.592827
O O14 0.932809 0.500000 0.526412
O O15 0.893045 0.769698 0.520384
O O16 0.074613 0.305116 0.686835
O O17 0.100260 0.000000 0.610737
O O18 0.523899 0.000000 0.868967
#
# Coordination Sequence:
#
# PCOD9195186 Si02
#       7
#     8   8   8   8   8   8   8
#     4   8  15  24  40  67  91 111 143 183 221 261
#     4   9  13  21  40  66  90 117 152 185 214 252
#     4  10  20  35  52  70  90 113 142 184 229 273
#     4   8  14  22  40  64  89 120 156 191 218 249
#     4   9  15  27  42  62  88 120 158 191 220 253
#     4  11  20  29  44  66  91 121 153 186 224 265
#     4   9  15  25  41  61  88 121 153 184 213 251
#
# _framework density 17.353190999999999
#
# number of rings (size 3 to 8) (size 9 to 14) (size 15 to 20)
#    0.000    2.857    1.429    3.857    0.000    1.714 
#    0.000    1.429    0.000    7.714    0.000    1.000 
#    0.000    0.000    0.000    0.000    0.000    0.000 
#
# Total GULP energy -155986.838174 kJ/mol
# GULP energy per Si atom -5570.958506 kJ/mol
# Density = 1.731369 g / cm^3
# Si number density = 17.353191 Si / 1000 Ang^3
#
#
#
# Elastic Constant Matrix: (Units=GPa)
#
#
# Indices 1 2 3 4 5 6 
#
# 1 114.9722 7.1557 79.9498 0.0000 19.5556 0.0000
# 2 7.1557 33.7893 7.0479 -0.0001 2.8839 0.0002
# 3 79.9498 7.0479 111.3555 0.0000 32.8041 0.0000
# 4 0.0000 -0.0001 0.0000 -1.0294 0.0000 -6.0691
# 5 19.5556 2.8839 32.8041 0.0000 28.9501 0.0000
# 6 0.0000 0.0002 0.0000 -6.0691 0.0000 6.3326
#
#
#
# Elastic Compliance Matrix: (Units=1/GPa)
#
#
# Indices 1 2 3 4 5 6 
#
# 1 0.017671 -0.001201 -0.013705 0.000000 0.003712 0.000000
# 2 -0.001201 0.030103 -0.000599 0.000001 -0.001509 0.000000
# 3 -0.013705 -0.000599 0.024187 0.000000 -0.018089 0.000000
# 4 0.000000 0.000001 0.000000 -0.146071 0.000000 -0.139993
# 5 0.003712 -0.001509 -0.018089 0.000000 0.052683 0.000000
# 6 0.000000 0.000000 0.000000 -0.139993 0.000000 0.023745
#
#
# Mechanical properties :
#
#
# Convention : Reuss Voigt Hill
#
# Bulk Modulus (GPa) = 24.41836 49.82487 37.12161
# Shear Modulus (GPa) = 106.43411 17.91490 62.17450
#
# Velocity S-wave (km/s) = 7.84010 3.21654 5.99221
# Velocity P-wave (km/s) = 9.80093 6.52452 8.32549
#
# Compressibility (1/GPa) = 0.04095279
#
# Stress axis : x y z
#
# Youngs Moduli (GPa) = 56.58877 33.21913 41.34468
#
# Poissons Ratio (x) = 0.03988 0.56663
# Poissons Ratio (y) = 0.06794 0.02475
# Poissons Ratio (z) = 0.77555 0.01989
#
# Static dielectric constant tensor:
#      x y z
#    x 1.587600 0.000000 0.033660 
#    y 0.000000 1.646360 0.000000 
#    z 0.033660 0.000000 1.619420 
# 
# From -- ./inp_files/247931.got.cif
#   From: 2010.05.17/outbox.cif.g08.bks.cpg/sg12_124_cif.got.tgz:247931.got - 2010.06.03 13:09:07.
