data_PCOD9195253
_publ_section_title
;
Structure prediction by ZEFSAII (Michael W. Deem and Ramdas Pophale) SiO2 
 PCOD9195253
Probable space group: C 2/M
;
_chemical_formula_sum "Si O2"
_cell_formula_units_Z 64
_cell_length_a 23.326780
_cell_length_b 7.770660
_cell_length_c 17.777938
_cell_angle_alpha 90.000000
_cell_angle_beta 77.767493
_cell_angle_gamma 90.000000
_cell_volume 3149.344273
_symmetry_space_group_name_H-M "C 2/M"
_symmetry_group_IT_number 12
_symmetry_cell_setting 'monoclinic'
loop_
_space_group_symop_operation_xyz
x,y,z
-x,y,-z
-x,-y,-z
x,-y,z
1/2+x,1/2+y,z
1/2-x,1/2+y,-z
1/2-x,1/2-y,-z
1/2+x,1/2-y,z
loop_
_atom_site_type_symbol
_atom_site_label
_atom_site_fract_x
_atom_site_fract_y
_atom_site_fract_z
Si Si1 0.466843 0.207127 0.203189
Si Si2 0.182045 0.299028 0.019694
Si Si3 0.852217 0.289445 0.674398
Si Si4 0.387394 0.206962 0.363735
Si Si5 0.360960 0.704399 0.132321
Si Si6 0.567767 0.210754 0.487116
Si Si7 0.899692 0.711539 0.824473
Si Si8 0.218479 0.206927 0.707607
O O1 0.433025 0.271020 0.287415
O O2 0.425623 0.252800 0.144502
O O3 0.533460 0.268418 0.180750
O O4 0.468511 0.000000 0.207477
O O5 0.181364 0.500000 0.034143
O O6 0.143618 0.222838 0.098319
O O7 0.250000 0.250000 0.000000
O O8 0.153564 0.267044 0.946549
O O9 0.852008 0.500000 0.673450
O O10 0.893914 0.233193 0.594798
O O11 0.877131 0.237120 0.748478
O O12 0.785039 0.231048 0.683695
O O13 0.404075 0.268678 0.441915
O O14 0.322875 0.250861 0.351456
O O15 0.392020 0.000000 0.363664
O O16 0.354484 0.500000 0.132981
O O17 0.315383 0.772883 0.208292
O O18 0.500000 0.263942 0.500000
O O19 0.568041 0.000000 0.486916
O O20 0.900251 0.500000 0.824877
O O21 0.220816 0.000000 0.713011
#
# Coordination Sequence:
#
# PCOD9195253 Si02
#       8
#     8   8   8   8   8   8   8   8
#     4   9  17  32  53  75 100 131 165 201 244 292
#     4  11  22  36  54  76 101 130 167 208 250 295
#     4   9  16  28  47  70  96 128 165 201 239 287
#     4   9  17  29  48  75 102 126 158 202 246 286
#     4  10  20  35  53  74 101 132 167 205 247 295
#     4   9  16  26  44  72 101 125 155 201 249 286
#     4   9  18  32  51  73  98 130 167 204 242 295
#     4   9  18  32  50  70  96 133 169 198 236 293
#
# _framework density 20.321691999999999
#
# number of rings (size 3 to 8) (size 9 to 14) (size 15 to 20)
#    0.000    2.625    0.000    2.250    0.000    6.500 
#    0.000    3.750    0.000    1.125    0.000    0.000 
#    0.000    0.000    0.000    0.000    0.000    0.000 
#
# Total GULP energy -178631.959074 kJ/mol
# GULP energy per Si atom -5582.248721 kJ/mol
# Density = 2.027544 g / cm^3
# Si number density = 20.321692 Si / 1000 Ang^3
#
#
#
# Elastic Constant Matrix: (Units=GPa)
#
#
# Indices 1 2 3 4 5 6 
#
# 1 325.3691 27.3450 213.0961 0.0000 31.6338 0.0000
# 2 27.3450 29.6950 18.9032 0.0000 2.3514 0.0000
# 3 213.0961 18.9032 251.8643 0.0000 39.1827 0.0000
# 4 0.0000 0.0000 0.0000 9.0052 0.0000 5.1856
# 5 31.6338 2.3514 39.1827 0.0000 35.4483 0.0000
# 6 0.0000 0.0000 0.0000 5.1856 0.0000 22.1972
#
#
#
# Elastic Compliance Matrix: (Units=1/GPa)
#
#
# Indices 1 2 3 4 5 6 
#
# 1 0.007119 -0.002852 -0.005858 0.000000 0.000311 0.000000
# 2 -0.002852 0.036522 -0.000420 0.000000 0.000586 0.000000
# 3 -0.005858 -0.000420 0.009831 0.000000 -0.005611 0.000000
# 4 0.000000 0.000000 0.000000 0.128308 0.000000 -0.029974
# 5 0.000311 0.000586 -0.005611 0.000000 0.034096 0.000000
# 6 0.000000 0.000000 0.000000 -0.029974 0.000000 0.052053
#
#
# Mechanical properties :
#
#
# Convention : Reuss Voigt Hill
#
# Bulk Modulus (GPa) = 28.39731 125.06858 76.73295
# Shear Modulus (GPa) = 16.78266 36.50240 26.64253
#
# Velocity S-wave (km/s) = 2.87688 4.24279 3.62476
# Velocity P-wave (km/s) = 5.00394 9.25633 7.44040
#
# Compressibility (1/GPa) = 0.03521461
#
# Stress axis : x y z
#
# Youngs Moduli (GPa) = 140.46081 27.38053 101.71821
#
# Poissons Ratio (x) = 0.07808 0.59586
# Poissons Ratio (y) = 0.40054 0.04268
# Poissons Ratio (z) = 0.82281 0.01149
#
# Static dielectric constant tensor:
#      x y z
#    x 1.692050 0.000000 -0.024800 
#    y 0.000000 1.876990 0.000000 
#    z -0.024800 0.000000 1.707580 
# 
# From -- ./inp_files/281340.got.cif
#   From: 2010.05.17/outbox.cif.g08.bks.cpg/sg12_141_cif.got.tgz:281340.got - 2010.06.03 13:09:07.
