data_PCOD9195849
_publ_section_title
;
Structure prediction by ZEFSAII (Michael W. Deem and Ramdas Pophale) SiO2 
 PCOD9195849
Probable space group: C 2/M
;
_chemical_formula_sum "Si O2"
_cell_formula_units_Z 56
_cell_length_a 22.985812
_cell_length_b 8.204443
_cell_length_c 32.065992
_cell_angle_alpha 90.000000
_cell_angle_beta 153.751961
_cell_angle_gamma 90.000000
_cell_volume 2674.418229
_symmetry_space_group_name_H-M "C 2/M"
_symmetry_group_IT_number 12
_symmetry_cell_setting 'monoclinic'
loop_
_space_group_symop_operation_xyz
x,y,z
-x,y,-z
-x,-y,-z
x,-y,z
1/2+x,1/2+y,z
1/2-x,1/2+y,-z
1/2-x,1/2-y,-z
1/2+x,1/2-y,z
loop_
_atom_site_type_symbol
_atom_site_label
_atom_site_fract_x
_atom_site_fract_y
_atom_site_fract_z
Si Si1 0.896954 0.687619 0.746343
Si Si2 0.936682 0.190884 0.608197
Si Si3 0.611195 0.313377 0.604153
Si Si4 0.709237 0.810194 0.406193
Si Si5 0.869718 0.809981 0.047682
Si Si6 0.008742 0.800900 0.054366
Si Si7 0.194169 0.686138 0.742355
O O1 0.947118 0.500000 0.775336
O O2 0.752364 0.681747 0.673029
O O3 0.868579 0.763766 0.682684
O O4 0.998463 0.781885 0.840519
O O5 0.853493 0.247440 0.513804
O O6 0.878856 0.289448 0.609590
O O7 0.091411 0.215276 0.703963
O O8 0.905663 0.000000 0.594004
O O9 0.500000 0.264025 0.500000
O O10 0.578962 0.500000 0.597553
O O11 0.631757 0.199375 0.656605
O O12 0.725788 0.000000 0.405404
O O13 0.905350 0.742835 0.023702
O O14 0.845092 0.000000 0.025657
O O15 0.750000 0.750000 0.000000
O O16 0.156506 0.752839 0.163111
O O17 0.001526 0.000000 0.050063
O O18 0.000000 0.750500 0.000000
O O19 0.197214 0.500000 0.759075
#
# Coordination Sequence:
#
# PCOD9195849 Si02
#       7
#     8   8   8   8   8   8   8
#     4  10  20  36  59  84 115 154 195 240 299 362
#     4  10  20  35  55  82 118 157 198 244 295 352
#     4  10  20  35  57  85 119 157 193 234 291 356
#     4   9  19  36  56  80 114 158 202 239 288 360
#     4  11  23  41  64  90 120 154 203 259 316 378
#     4   9  20  40  63  85 114 155 201 252 308 368
#     4  11  21  35  57  85 114 149 196 245 297 357
#
# _framework density 20.939133999999999
#
# number of rings (size 3 to 8) (size 9 to 14) (size 15 to 20)
#    0.000    2.000    1.429    2.143    0.000    4.857 
#    0.000    4.286    0.000    6.000    0.000    0.000 
#    0.000    0.000    0.000    0.000    0.000    0.000 
#
# Total GULP energy -156094.398594 kJ/mol
# GULP energy per Si atom -5574.799950 kJ/mol
# Density = 2.089148 g / cm^3
# Si number density = 20.939134 Si / 1000 Ang^3
#
#
#
# Elastic Constant Matrix: (Units=GPa)
#
#
# Indices 1 2 3 4 5 6 
#
# 1 124.7937 12.0715 57.7343 0.0001 4.4940 0.0000
# 2 12.0715 12.9731 2.5906 -0.0001 4.9837 -0.0004
# 3 57.7343 2.5906 87.2479 -0.0001 9.5706 0.0000
# 4 0.0001 -0.0001 -0.0001 22.6465 -0.0004 1.0307
# 5 4.4940 4.9837 9.5706 -0.0004 35.9372 0.0000
# 6 0.0000 -0.0004 0.0000 1.0307 0.0000 17.8328
#
#
#
# Elastic Compliance Matrix: (Units=1/GPa)
#
#
# Indices 1 2 3 4 5 6 
#
# 1 0.012933 -0.011184 -0.008466 0.000000 0.002188 0.000000
# 2 -0.011184 0.091218 0.006105 0.000000 -0.012877 0.000002
# 3 -0.008466 0.006105 0.017367 0.000000 -0.004413 0.000000
# 4 0.000000 0.000000 0.000000 0.044273 0.000000 -0.002559
# 5 0.002188 -0.012877 -0.004413 0.000000 0.030514 0.000000
# 6 0.000000 0.000002 0.000000 -0.002559 0.000000 0.056224
#
#
# Mechanical properties :
#
#
# Convention : Reuss Voigt Hill
#
# Bulk Modulus (GPa) = 10.59023 41.08970 25.83997
# Shear Modulus (GPa) = 16.07226 25.45786 20.76506
#
# Velocity S-wave (km/s) = 2.77351 3.49062 3.15252
# Velocity P-wave (km/s) = 3.91473 5.99265 5.06147
#
# Compressibility (1/GPa) = 0.09442665
#
# Stress axis : x y z
#
# Youngs Moduli (GPa) = 77.32134 10.96279 57.58160
#
# Poissons Ratio (x) = 0.12261 0.48749
# Poissons Ratio (y) = 0.86479 -0.35154
# Poissons Ratio (z) = 0.65461 -0.06693
#
# Static dielectric constant tensor:
#      x y z
#    x 1.802490 0.000000 -0.007790 
#    y 0.000000 1.773680 0.000000 
#    z -0.007790 0.000000 1.749080 
# 
# From -- ./inp_files/329647.got.cif
#   From: 2010.05.17/outbox.cif.g08.bks.cpg/sg12_165_cif.got.tgz:329647.got - 2010.06.03 13:09:07.
