data_PCOD9195973
_publ_section_title
;
Structure prediction by ZEFSAII (Michael W. Deem and Ramdas Pophale) SiO2 
 PCOD9195973
Probable space group: C 2/M
;
_chemical_formula_sum "Si O2"
_cell_formula_units_Z 56
_cell_length_a 15.289967
_cell_length_b 8.738461
_cell_length_c 25.071493
_cell_angle_alpha 90.000000
_cell_angle_beta 117.368154
_cell_angle_gamma 90.000000
_cell_volume 2974.879663
_symmetry_space_group_name_H-M "C 2/M"
_symmetry_group_IT_number 12
_symmetry_cell_setting 'monoclinic'
loop_
_space_group_symop_operation_xyz
x,y,z
-x,y,-z
-x,-y,-z
x,-y,z
1/2+x,1/2+y,z
1/2-x,1/2+y,-z
1/2-x,1/2-y,-z
1/2+x,1/2-y,z
loop_
_atom_site_type_symbol
_atom_site_label
_atom_site_fract_x
_atom_site_fract_y
_atom_site_fract_z
Si Si1 0.676687 0.182215 0.135612
Si Si2 0.884501 0.684608 0.210521
Si Si3 0.886647 0.174536 0.989321
Si Si4 0.224933 0.816035 0.434667
Si Si5 0.922397 0.685918 0.433390
Si Si6 0.040029 0.315363 0.884759
Si Si7 0.985975 0.314566 0.652437
O O1 0.774360 0.254329 0.187665
O O2 0.573515 0.230335 0.134499
O O3 0.681995 0.000000 0.139892
O O4 0.671044 0.234183 0.072245
O O5 0.881131 0.500000 0.209518
O O6 0.924895 0.733598 0.163856
O O7 0.957272 0.733011 0.278272
O O8 0.892382 0.248332 0.049165
O O9 0.851221 0.000000 0.981670
O O10 0.000000 0.173982 0.000000
O O11 0.250000 0.750000 0.500000
O O12 0.313810 0.768835 0.420702
O O13 0.122313 0.753050 0.384437
O O14 0.222396 0.000000 0.437368
O O15 0.925575 0.500000 0.434784
O O16 0.000000 0.738766 0.500000
O O17 0.954170 0.734191 0.383562
O O18 0.044044 0.500000 0.888939
O O19 0.979344 0.500000 0.650462
#
# Coordination Sequence:
#
# PCOD9195973 Si02
#       7
#     8   8   8   8   8   8   8
#     4  10  20  35  56  79 109 145 181 226 278 326
#     4  10  22  38  56  78 108 147 187 224 267 326
#     4   9  17  31  54  83 109 138 182 232 274 321
#     4  11  21  35  58  85 111 141 177 220 269 321
#     4   9  17  33  57  81 109 143 174 211 267 326
#     4   9  19  36  55  78 110 146 181 224 280 329
#     4  10  21  39  58  79 110 147 184 223 269 323
#
# _framework density 18.824290999999999
#
# number of rings (size 3 to 8) (size 9 to 14) (size 15 to 20)
#    0.000    2.286    1.429    1.286    0.000    5.143 
#    0.000    2.143    0.000    0.000    0.000    0.000 
#    0.000    0.000    0.000    0.000    0.000    0.000 
#
# Total GULP energy -156318.022875 kJ/mol
# GULP energy per Si atom -5582.786531 kJ/mol
# Density = 1.878145 g / cm^3
# Si number density = 18.824291 Si / 1000 Ang^3
#
#
#
# Elastic Constant Matrix: (Units=GPa)
#
#
# Indices 1 2 3 4 5 6 
#
# 1 95.6802 13.9940 29.7346 0.0000 4.6205 0.0000
# 2 13.9940 16.8507 14.1727 0.0000 2.1137 0.0000
# 3 29.7346 14.1727 88.3505 0.0000 9.1674 0.0000
# 4 0.0000 0.0000 0.0000 22.1739 0.0000 10.4835
# 5 4.6205 2.1137 9.1674 0.0000 34.2820 0.0000
# 6 0.0000 0.0000 0.0000 10.4835 0.0000 23.5469
#
#
#
# Elastic Compliance Matrix: (Units=1/GPa)
#
#
# Indices 1 2 3 4 5 6 
#
# 1 0.012532 -0.007911 -0.002904 0.000000 -0.000425 0.000000
# 2 -0.007911 0.073653 -0.009043 0.000000 -0.001057 0.000000
# 3 -0.002904 -0.009043 0.014038 0.000000 -0.002805 0.000000
# 4 0.000000 0.000000 0.000000 0.057122 0.000000 -0.025432
# 5 -0.000425 -0.001057 -0.002805 0.000000 0.030042 0.000000
# 6 0.000000 0.000000 0.000000 -0.025432 0.000000 0.053791
#
#
# Mechanical properties :
#
#
# Convention : Reuss Voigt Hill
#
# Bulk Modulus (GPa) = 16.52739 35.18710 25.85724
# Shear Modulus (GPa) = 16.60780 25.53254 21.07017
#
# Velocity S-wave (km/s) = 2.97350 3.68688 3.34923
# Velocity P-wave (km/s) = 4.53738 6.07100 5.35933
#
# Compressibility (1/GPa) = 0.06050562
#
# Stress axis : x y z
#
# Youngs Moduli (GPa) = 79.79781 13.57717 71.23681
#
# Poissons Ratio (x) = 0.10741 0.20690
# Poissons Ratio (y) = 0.63129 0.64418
# Poissons Ratio (z) = 0.23177 0.12278
#
# Static dielectric constant tensor:
#      x y z
#    x 1.659980 0.000000 -0.004120 
#    y 0.000000 1.639070 0.000000 
#    z -0.004120 0.000000 1.622320 
# 
# From -- ./inp_files/308926.got.cif
#   From: 2010.05.17/outbox.cif.g08.bks.cpg/sg12_155_cif.got.tgz:308926.got - 2010.06.03 13:09:07.
