data_PCOD9195967
_publ_section_title
;
Structure prediction by ZEFSAII (Michael W. Deem and Ramdas Pophale) SiO2 
 PCOD9195967
Probable space group: C 2/M
;
_chemical_formula_sum "Si O2"
_cell_formula_units_Z 40
_cell_length_a 21.480435
_cell_length_b 7.540298
_cell_length_c 32.121377
_cell_angle_alpha 90.000000
_cell_angle_beta 160.390835
_cell_angle_gamma 90.000000
_cell_volume 1746.025607
_symmetry_space_group_name_H-M "C 2/M"
_symmetry_group_IT_number 12
_symmetry_cell_setting 'monoclinic'
loop_
_space_group_symop_operation_xyz
x,y,z
-x,y,-z
-x,-y,-z
x,-y,z
1/2+x,1/2+y,z
1/2-x,1/2+y,-z
1/2-x,1/2-y,-z
1/2+x,1/2-y,z
loop_
_atom_site_type_symbol
_atom_site_label
_atom_site_fract_x
_atom_site_fract_y
_atom_site_fract_z
Si Si1 0.937813 0.285294 0.392747
Si Si2 0.966612 0.801223 0.639403
Si Si3 0.181008 0.281950 0.089112
Si Si4 0.281993 0.284134 0.667472
Si Si5 0.309080 0.711881 0.083912
O O1 0.936027 0.500000 0.387757
O O2 0.772735 0.230917 0.319955
O O3 0.948900 0.208830 0.353798
O O4 0.122394 0.232969 0.534638
O O5 0.750000 0.750000 0.500000
O O6 0.124735 0.716937 0.768247
O O7 0.954884 0.000000 0.648177
O O8 0.178901 0.500000 0.089878
O O9 0.180508 0.225914 0.040559
O O10 0.000000 0.221888 0.000000
O O11 0.280659 0.500000 0.666935
O O12 0.481552 0.219829 0.779412
O O13 0.317471 0.500000 0.093271
O O14 0.250000 0.750000 0.000000
#
# Coordination Sequence:
#
# PCOD9195967 Si02
#       5
#     8   8   8   8   8
#     4   9  17  33  57  81 107 143 185 229 275 332
#     4  11  22  36  58  84 112 147 189 233 284 338
#     4   9  20  38  58  81 113 154 193 228 276 342
#     4   8  16  32  54  79 109 146 184 220 274 340
#     4  10  20  35  56  79 107 145 188 229 273 331
#
# _framework density 22.909172000000002
#
# number of rings (size 3 to 8) (size 9 to 14) (size 15 to 20)
#    0.000    2.600    0.000    3.000    2.800    3.200 
#    0.000    7.000    0.000    3.000    0.000    0.000 
#    0.000    0.000    0.000    0.000    0.000    0.000 
#
# Total GULP energy -111628.723841 kJ/mol
# GULP energy per Si atom -5581.436192 kJ/mol
# Density = 2.285703 g / cm^3
# Si number density = 22.909172 Si / 1000 Ang^3
#
#
#
# Elastic Constant Matrix: (Units=GPa)
#
#
# Indices 1 2 3 4 5 6 
#
# 1 174.5955 -6.6952 68.8008 0.0028 5.5377 -0.0026
# 2 -6.6952 50.6903 7.4627 -0.0007 8.9302 -0.0033
# 3 68.8008 7.4627 89.4975 -0.0225 9.7603 0.0096
# 4 0.0028 -0.0007 -0.0225 7.2357 0.0097 -3.7037
# 5 5.5377 8.9302 9.7603 0.0097 37.2785 0.0003
# 6 -0.0026 -0.0033 0.0096 -3.7037 0.0003 19.6750
#
#
#
# Elastic Compliance Matrix: (Units=1/GPa)
#
#
# Indices 1 2 3 4 5 6 
#
# 1 0.008430 0.002095 -0.006654 -0.000024 -0.000012 0.000000
# 2 0.002095 0.021247 -0.002875 0.000001 -0.004648 0.000006
# 3 -0.006654 -0.002875 0.016826 0.000059 -0.002728 0.000002
# 4 -0.000024 0.000001 0.000059 0.152940 -0.000052 0.028790
# 5 -0.000012 -0.004648 -0.002728 -0.000052 0.028655 -0.000010
# 6 0.000000 0.000006 0.000002 0.028790 -0.000010 0.056246
#
#
# Mechanical properties :
#
#
# Convention : Reuss Voigt Hill
#
# Bulk Modulus (GPa) = 31.61124 50.43554 41.02339
# Shear Modulus (GPa) = 16.14166 29.18551 22.66358
#
# Velocity S-wave (km/s) = 2.65730 3.57314 3.14869
# Velocity P-wave (km/s) = 4.82115 6.25191 5.58255
#
# Compressibility (1/GPa) = 0.03163432
#
# Stress axis : x y z
#
# Youngs Moduli (GPa) = 118.61806 47.06648 59.43098
#
# Poissons Ratio (x) = -0.09862 0.39547
# Poissons Ratio (y) = -0.24853 0.17089
# Poissons Ratio (z) = 0.78932 0.13534
#
# Static dielectric constant tensor:
#      x y z
#    x 1.866260 -0.000020 -0.011610 
#    y -0.000020 1.881850 0.000010 
#    z -0.011610 0.000010 1.869630 
# 
# From -- ./inp_files/229661.got.cif
#   From: 2010.05.17/outbox.cif.g08.bks.cpg/sg12_115_cif.got.tgz:229661.got - 2010.06.03 13:09:07.
