data_PCOD9195798
_publ_section_title
;
Structure prediction by ZEFSAII (Michael W. Deem and Ramdas Pophale) SiO2 
 PCOD9195798
Probable space group: C 2/M
;
_chemical_formula_sum "Si O2"
_cell_formula_units_Z 64
_cell_length_a 24.784430
_cell_length_b 7.735820
_cell_length_c 22.493024
_cell_angle_alpha 90.000000
_cell_angle_beta 133.618924
_cell_angle_gamma 90.000000
_cell_volume 3122.037685
_symmetry_space_group_name_H-M "C 2/M"
_symmetry_group_IT_number 12
_symmetry_cell_setting 'monoclinic'
loop_
_space_group_symop_operation_xyz
x,y,z
-x,y,-z
-x,-y,-z
x,-y,z
1/2+x,1/2+y,z
1/2-x,1/2+y,-z
1/2-x,1/2-y,-z
1/2+x,1/2-y,z
loop_
_atom_site_type_symbol
_atom_site_label
_atom_site_fract_x
_atom_site_fract_y
_atom_site_fract_z
Si Si1 0.442655 0.799632 0.908810
Si Si2 0.036820 0.200526 0.870687
Si Si3 0.133417 0.790865 0.422632
Si Si4 0.531081 0.288322 0.729550
Si Si5 0.316115 0.711205 0.212982
Si Si6 0.796547 0.293659 0.976303
Si Si7 0.218912 0.294226 0.243752
Si Si8 0.735665 0.296504 0.392933
O O1 0.482431 0.793593 0.875128
O O2 0.360350 0.722225 0.839536
O O3 0.432432 0.000000 0.919518
O O4 0.500000 0.719825 0.000000
O O5 0.035026 0.266110 0.801598
O O6 0.013683 0.000000 0.852112
O O7 0.121630 0.214031 0.957739
O O8 0.184000 0.737091 0.516541
O O9 0.175531 0.726302 0.394946
O O10 0.047972 0.734043 0.357527
O O11 0.133921 0.000000 0.421463
O O12 0.532886 0.500000 0.731455
O O13 0.603422 0.228515 0.748430
O O14 0.319598 0.500000 0.214841
O O15 0.253053 0.761841 0.117311
O O16 0.287170 0.769730 0.255229
O O17 0.806213 0.500000 0.980105
O O18 0.750000 0.250000 0.000000
O O19 0.215824 0.500000 0.231853
O O20 0.228021 0.269387 0.320637
O O21 0.723138 0.500000 0.380310
#
# Coordination Sequence:
#
# PCOD9195798 Si02
#       8
#     8   8   8   8   8   8   8   8
#     4  10  21  37  54  77 109 145 183 226 272 321
#     4  11  21  34  54  81 110 142 181 228 279 327
#     4   9  18  34  58  82 104 134 174 219 268 326
#     4   9  17  32  54  80 106 133 174 226 273 315
#     4   9  18  34  55  77 105 143 184 226 265 314
#     4  11  20  34  54  78 110 147 187 229 272 320
#     4  10  20  35  57  79 104 144 188 219 259 324
#     4  10  20  35  55  81 111 139 169 216 275 326
#
# _framework density 20.499433
#
# number of rings (size 3 to 8) (size 9 to 14) (size 15 to 20)
#    0.000    2.125    1.250    2.625    0.000    4.250 
#    0.000    4.375    0.000    3.750    0.000    0.000 
#    0.000    0.000    0.000    0.000    0.000    0.000 
#
# Total GULP energy -178718.757195 kJ/mol
# GULP energy per Si atom -5584.961162 kJ/mol
# Density = 2.045278 g / cm^3
# Si number density = 20.499433 Si / 1000 Ang^3
#
#
#
# Elastic Constant Matrix: (Units=GPa)
#
#
# Indices 1 2 3 4 5 6 
#
# 1 118.4478 -3.6748 71.0329 0.0000 2.9946 0.0000
# 2 -3.6748 31.8115 -5.3103 0.0000 -2.5847 0.0002
# 3 71.0329 -5.3103 102.4540 0.0000 -1.5915 0.0000
# 4 0.0000 0.0000 0.0000 16.7166 0.0000 -3.5920
# 5 2.9946 -2.5847 -1.5915 0.0000 31.8293 0.0000
# 6 0.0000 0.0002 0.0000 -3.5920 0.0000 18.8530
#
#
#
# Elastic Compliance Matrix: (Units=1/GPa)
#
#
# Indices 1 2 3 4 5 6 
#
# 1 0.014563 -0.000163 -0.010134 0.000000 -0.001890 0.000000
# 2 -0.000163 0.031938 0.001810 0.000000 0.002699 0.000000
# 3 -0.010134 0.001810 0.016911 0.000000 0.001946 0.000000
# 4 0.000000 0.000000 0.000000 0.062374 0.000000 0.011884
# 5 -0.001890 0.002699 0.001946 0.000000 0.031912 0.000000
# 6 0.000000 0.000000 0.000000 0.011884 0.000000 0.055306
#
#
# Mechanical properties :
#
#
# Convention : Reuss Voigt Hill
#
# Bulk Modulus (GPa) = 21.53442 41.86765 31.70103
# Shear Modulus (GPa) = 20.37011 26.19082 23.28047
#
# Velocity S-wave (km/s) = 3.15571 3.57828 3.37362
# Velocity P-wave (km/s) = 4.87911 6.12701 5.53832
#
# Compressibility (1/GPa) = 0.04643728
#
# Stress axis : x y z
#
# Youngs Moduli (GPa) = 68.66763 31.31084 59.13333
#
# Poissons Ratio (x) = 0.00510 0.59929
# Poissons Ratio (y) = 0.01120 -0.10705
# Poissons Ratio (z) = 0.69591 -0.05668
#
# Static dielectric constant tensor:
#      x y z
#    x 1.723240 0.000000 0.002110 
#    y 0.000000 1.763970 0.000000 
#    z 0.002110 0.000000 1.702920 
# 
# From -- ./inp_files/324329.got.cif
#   From: 2010.05.17/outbox.cif.g08.bks.cpg/sg12_163_cif.got.tgz:324329.got - 2010.06.03 13:09:07.
