data_PCOD9195695
_publ_section_title
;
Structure prediction by ZEFSAII (Michael W. Deem and Ramdas Pophale) SiO2 
 PCOD9195695
Probable space group: C 2/M
;
_chemical_formula_sum "Si O2"
_cell_formula_units_Z 40
_cell_length_a 23.155797
_cell_length_b 8.739728
_cell_length_c 29.102452
_cell_angle_alpha 90.000000
_cell_angle_beta 157.329145
_cell_angle_gamma 90.000000
_cell_volume 2270.075585
_symmetry_space_group_name_H-M "C 2/M"
_symmetry_group_IT_number 12
_symmetry_cell_setting 'monoclinic'
loop_
_space_group_symop_operation_xyz
x,y,z
-x,y,-z
-x,-y,-z
x,-y,z
1/2+x,1/2+y,z
1/2-x,1/2+y,-z
1/2-x,1/2-y,-z
1/2+x,1/2-y,z
loop_
_atom_site_type_symbol
_atom_site_label
_atom_site_fract_x
_atom_site_fract_y
_atom_site_fract_z
Si Si1 0.717980 0.317791 0.547529
Si Si2 0.992980 0.317984 0.683487
Si Si3 0.170246 0.315994 0.611975
Si Si4 0.122055 0.816486 0.149214
Si Si5 0.692358 0.181995 0.101865
O O1 0.695321 0.500000 0.527934
O O2 0.874574 0.281645 0.636907
O O3 0.588069 0.235566 0.422879
O O4 0.715596 0.262880 0.597901
O O5 0.016487 0.500000 0.699303
O O6 0.150825 0.234468 0.804198
O O7 0.175670 0.500000 0.609783
O O8 0.279528 0.276078 0.734284
O O9 0.000000 0.274590 0.500000
O O10 0.187017 0.740616 0.150685
O O11 0.124261 0.000000 0.145046
O O12 0.951527 0.758808 0.027661
O O13 0.676713 0.000000 0.089549
#
# Coordination Sequence:
#
# PCOD9195695 Si02
#       5
#     8   8   8   8   8
#     4  10  21  35  55  82 108 137 175 220 265 311
#     4  10  20  36  56  78 107 141 177 216 263 318
#     4  10  21  36  55  79 108 142 175 211 261 319
#     4  10  20  35  55  79 109 144 178 214 263 319
#     4  11  21  34  55  81 107 138 179 224 265 306
#
# _framework density 17.620559
#
# number of rings (size 3 to 8) (size 9 to 14) (size 15 to 20)
#    0.000    1.800    0.000    6.000    0.000    6.000 
#    0.000    1.000    0.000    0.000    0.000    0.000 
#    0.000    0.000    0.000    0.000    0.000    0.000 
#
# Total GULP energy -111741.397852 kJ/mol
# GULP energy per Si atom -5587.069893 kJ/mol
# Density = 1.758045 g / cm^3
# Si number density = 17.620559 Si / 1000 Ang^3
#
#
#
# Elastic Constant Matrix: (Units=GPa)
#
#
# Indices 1 2 3 4 5 6 
#
# 1 73.7412 27.7091 60.6042 0.0001 -12.8629 -0.0001
# 2 27.7091 54.8396 36.7550 0.0004 -2.3379 0.0002
# 3 60.6042 36.7550 112.2529 0.0012 -2.0111 0.0002
# 4 0.0001 0.0004 0.0012 20.7210 0.0003 3.3305
# 5 -12.8629 -2.3379 -2.0111 0.0003 26.2272 0.0001
# 6 -0.0001 0.0002 0.0002 3.3305 0.0001 29.2798
#
#
#
# Elastic Compliance Matrix: (Units=1/GPa)
#
#
# Indices 1 2 3 4 5 6 
#
# 1 0.028950 -0.004821 -0.013824 0.000001 0.012709 0.000000
# 2 -0.004821 0.024224 -0.005340 0.000000 -0.000615 0.000000
# 3 -0.013824 -0.005340 0.018015 -0.000001 -0.005874 0.000000
# 4 0.000001 0.000000 -0.000001 0.049159 0.000000 -0.005592
# 5 0.012709 -0.000615 -0.005874 0.000000 0.043856 0.000000
# 6 0.000000 0.000000 0.000000 -0.005592 0.000000 0.034789
#
#
# Mechanical properties :
#
#
# Convention : Reuss Voigt Hill
#
# Bulk Modulus (GPa) = 43.06670 54.55224 48.80947
# Shear Modulus (GPa) = 19.63076 22.96327 21.29701
#
# Velocity S-wave (km/s) = 3.34141 3.61391 3.48033
# Velocity P-wave (km/s) = 6.27542 6.95992 6.62651
#
# Compressibility (1/GPa) = 0.02321979
#
# Stress axis : x y z
#
# Youngs Moduli (GPa) = 34.54186 41.28208 55.50962
#
# Poissons Ratio (x) = 0.19902 0.76735
# Poissons Ratio (y) = 0.16653 0.29640
# Poissons Ratio (z) = 0.47750 0.22043
#
# Static dielectric constant tensor:
#      x y z
#    x 1.575910 0.000000 0.014840 
#    y 0.000000 1.590470 0.000000 
#    z 0.014840 0.000000 1.587230 
# 
# From -- ./inp_files/162365.got.cif
#   From: 2010.05.17/outbox.cif.g08.bks.cpg/sg12_82_cif.got.tgz:162365.got - 2010.06.03 13:09:07.
