data_PCOD9195712
_publ_section_title
;
Structure prediction by ZEFSAII (Michael W. Deem and Ramdas Pophale) SiO2 
 PCOD9195712
Probable space group: C 2/M
;
_chemical_formula_sum "Si O2"
_cell_formula_units_Z 56
_cell_length_a 18.451965
_cell_length_b 8.851654
_cell_length_c 19.073824
_cell_angle_alpha 90.000000
_cell_angle_beta 76.161247
_cell_angle_gamma 90.000000
_cell_volume 3024.905780
_symmetry_space_group_name_H-M "C 2/M"
_symmetry_group_IT_number 12
_symmetry_cell_setting 'monoclinic'
loop_
_space_group_symop_operation_xyz
x,y,z
-x,y,-z
-x,-y,-z
x,-y,z
1/2+x,1/2+y,z
1/2-x,1/2+y,-z
1/2-x,1/2-y,-z
1/2+x,1/2-y,z
loop_
_atom_site_type_symbol
_atom_site_label
_atom_site_fract_x
_atom_site_fract_y
_atom_site_fract_z
Si Si1 0.900532 0.818909 0.223431
Si Si2 0.269232 0.818781 0.777376
Si Si3 0.557456 0.820668 0.928376
Si Si4 0.620101 0.680581 0.360690
Si Si5 0.229565 0.679072 0.930522
Si Si6 0.829191 0.319573 0.503809
Si Si7 0.553044 0.318308 0.631137
O O1 0.813297 0.777218 0.233250
O O2 0.945908 0.752568 0.147479
O O3 0.929685 0.772104 0.292831
O O4 0.904802 0.000000 0.218668
O O5 0.331398 0.743454 0.714720
O O6 0.271563 0.758582 0.856236
O O7 0.275804 0.000000 0.774408
O O8 0.641500 0.797564 0.936601
O O9 0.545031 0.000000 0.923453
O O10 0.500000 0.762022 0.000000
O O11 0.629487 0.500000 0.364057
O O12 0.648048 0.758340 0.425200
O O13 0.532657 0.711935 0.368547
O O14 0.244316 0.500000 0.926538
O O15 0.250000 0.750000 0.000000
O O16 0.824273 0.500000 0.506011
O O17 0.750000 0.250000 0.500000
O O18 0.891258 0.264385 0.434346
O O19 0.565298 0.500000 0.622850
#
# Coordination Sequence:
#
# PCOD9195712 Si02
#       7
#     8   8   8   8   8   8   8
#     4   9  19  36  57  80 107 144 187 229 276 332
#     4  10  20  36  58  82 111 149 194 238 280 337
#     4   9  19  35  54  78 108 142 181 228 279 330
#     4  11  23  39  60  87 120 154 188 233 287 338
#     4  10  20  35  55  79 110 146 186 234 287 343
#     4  12  25  41  63  88 115 151 194 236 282 339
#     4  10  22  40  60  86 120 152 186 233 286 338
#
# _framework density 18.512975000000001
#
# number of rings (size 3 to 8) (size 9 to 14) (size 15 to 20)
#    0.000    1.857    0.000    3.857    0.000    7.143 
#    0.000    2.857    0.000    0.000    0.000    0.000 
#    0.000    0.000    0.000    0.000    0.000    0.000 
#
# Total GULP energy -156460.703478 kJ/mol
# GULP energy per Si atom -5587.882267 kJ/mol
# Density = 1.847084 g / cm^3
# Si number density = 18.512975 Si / 1000 Ang^3
#
#
#
# Elastic Constant Matrix: (Units=GPa)
#
#
# Indices 1 2 3 4 5 6 
#
# 1 103.0445 73.8863 98.3446 0.0000 1.5147 0.0000
# 2 73.8863 80.8526 84.3070 0.0000 -2.8039 0.0000
# 3 98.3446 84.3070 202.5615 0.0000 -3.3125 0.0000
# 4 0.0000 0.0000 0.0000 39.6397 0.0000 -1.6776
# 5 1.5147 -2.8039 -3.3125 0.0000 40.7434 0.0000
# 6 0.0000 0.0000 0.0000 -1.6776 0.0000 22.6802
#
#
#
# Elastic Compliance Matrix: (Units=1/GPa)
#
#
# Indices 1 2 3 4 5 6 
#
# 1 0.032110 -0.023225 -0.005977 0.000000 -0.003278 0.000000
# 2 -0.023225 0.038674 -0.004769 0.000000 0.003137 0.000000
# 3 -0.005977 -0.004769 0.009835 0.000000 0.000694 0.000000
# 4 0.000000 0.000000 0.000000 0.025306 0.000000 0.001872
# 5 -0.003278 0.003137 0.000694 0.000000 0.024938 0.000000
# 6 0.000000 0.000000 0.000000 0.001872 0.000000 0.044230
#
#
# Mechanical properties :
#
#
# Convention : Reuss Voigt Hill
#
# Bulk Modulus (GPa) = 78.88384 99.94825 89.41605
# Shear Modulus (GPa) = 20.22167 29.27403 24.74785
#
# Velocity S-wave (km/s) = 3.30858 3.98083 3.66017
# Velocity P-wave (km/s) = 7.56955 8.67380 8.14042
#
# Compressibility (1/GPa) = 0.01267687
#
# Stress axis : x y z
#
# Youngs Moduli (GPa) = 31.14304 25.85749 101.67965
#
# Poissons Ratio (x) = 0.60053 0.60773
# Poissons Ratio (y) = 0.72329 0.48492
# Poissons Ratio (z) = 0.18614 0.12332
#
# Static dielectric constant tensor:
#      x y z
#    x 1.621720 0.000000 0.001260 
#    y 0.000000 1.621450 0.000000 
#    z 0.001260 0.000000 1.611750 
# 
# From -- ./inp_files/275033.got.cif
#   From: 2010.05.17/outbox.cif.g08.bks.cpg/sg12_138_cif.got.tgz:275033.got - 2010.06.03 13:09:07.
