data_PCOD9195707
_publ_section_title
;
Structure prediction by ZEFSAII (Michael W. Deem and Ramdas Pophale) SiO2 
 PCOD9195707
Probable space group: C 2/M
;
_chemical_formula_sum "Si O2"
_cell_formula_units_Z 56
_cell_length_a 30.301494
_cell_length_b 8.483273
_cell_length_c 12.286923
_cell_angle_alpha 90.000000
_cell_angle_beta 68.866505
_cell_angle_gamma 90.000000
_cell_volume 2945.998923
_symmetry_space_group_name_H-M "C 2/M"
_symmetry_group_IT_number 12
_symmetry_cell_setting 'monoclinic'
loop_
_space_group_symop_operation_xyz
x,y,z
-x,y,-z
-x,-y,-z
x,-y,z
1/2+x,1/2+y,z
1/2-x,1/2+y,-z
1/2-x,1/2-y,-z
1/2+x,1/2-y,z
loop_
_atom_site_type_symbol
_atom_site_label
_atom_site_fract_x
_atom_site_fract_y
_atom_site_fract_z
Si Si1 0.161691 0.188280 0.383791
Si Si2 0.702629 0.189370 0.983962
Si Si3 0.567264 0.190557 0.852831
Si Si4 0.614419 0.809871 0.214216
Si Si5 0.232609 0.811414 0.731083
Si Si6 0.537306 0.191924 0.118637
Si Si7 0.344993 0.309947 0.364232
O O1 0.126172 0.248945 0.323323
O O2 0.215030 0.241225 0.308449
O O3 0.150904 0.247032 0.515461
O O4 0.160298 0.000000 0.385076
O O5 0.703015 0.258286 0.862676
O O6 0.703518 0.000000 0.977196
O O7 0.750000 0.250000 0.000000
O O8 0.657654 0.236718 0.096106
O O9 0.517319 0.240089 0.842935
O O10 0.611560 0.256351 0.748723
O O11 0.569547 0.000000 0.848858
O O12 0.563614 0.238487 0.983011
O O13 0.566380 0.755321 0.198084
O O14 0.613916 0.000000 0.218815
O O15 0.203817 0.758234 0.650022
O O16 0.236674 0.000000 0.727479
O O17 0.537326 0.000000 0.118858
O O18 0.344314 0.500000 0.366698
#
# Coordination Sequence:
#
# PCOD9195707 Si02
#       7
#     8   8   8   8   8   8   8
#     4  11  23  38  54  74 106 146 186 227 268 318
#     4  11  21  33  53  81 112 142 175 219 266 317
#     4   9  17  34  61  86 107 136 175 221 269 321
#     4  10  20  35  55  79 110 145 178 217 267 321
#     4  11  22  37  56  78 106 142 183 227 274 323
#     4   8  16  33  58  87 112 134 171 221 269 319
#     4  10  23  39  54  77 109 142 180 228 275 320
#
# _framework density 19.008832000000002
#
# number of rings (size 3 to 8) (size 9 to 14) (size 15 to 20)
#    0.000    2.000    1.429    3.429    0.000    4.000 
#    0.000    3.571    0.000    4.286    0.000    0.000 
#    0.000    0.000    0.000    0.000    0.000    0.000 
#
# Total GULP energy -156352.875346 kJ/mol
# GULP energy per Si atom -5584.031262 kJ/mol
# Density = 1.896557 g / cm^3
# Si number density = 19.008832 Si / 1000 Ang^3
#
#
#
# Elastic Constant Matrix: (Units=GPa)
#
#
# Indices 1 2 3 4 5 6 
#
# 1 106.3714 13.8425 38.5136 0.0000 40.0498 0.0000
# 2 13.8425 6.8282 4.9290 0.0000 8.5536 0.0000
# 3 38.5136 4.9290 75.8531 0.0000 31.0887 0.0000
# 4 0.0000 0.0000 0.0000 26.1661 0.0000 -0.9191
# 5 40.0498 8.5536 31.0887 0.0000 34.8772 0.0000
# 6 0.0000 0.0000 0.0000 -0.9191 0.0000 16.9230
#
#
#
# Elastic Compliance Matrix: (Units=1/GPa)
#
#
# Indices 1 2 3 4 5 6 
#
# 1 0.017729 -0.016174 -0.001942 0.000000 -0.014660 0.000000
# 2 -0.016174 0.233120 0.013998 0.000000 -0.051077 0.000000
# 3 -0.001942 0.013998 0.021669 0.000000 -0.020519 0.000000
# 4 0.000000 0.000000 0.000000 0.038290 0.000000 0.002080
# 5 -0.014660 -0.051077 -0.020519 0.000000 0.076323 0.000000
# 6 0.000000 0.000000 0.000000 0.002080 0.000000 0.059204
#
#
# Mechanical properties :
#
#
# Convention : Reuss Voigt Hill
#
# Bulk Modulus (GPa) = 3.78382 33.73588 18.75985
# Shear Modulus (GPa) = 9.21377 24.37778 16.79577
#
# Velocity S-wave (km/s) = 2.20400 3.58501 2.97573
# Velocity P-wave (km/s) = 2.91062 5.90952 4.65801
#
# Compressibility (1/GPa) = 0.26428303
#
# Stress axis : x y z
#
# Youngs Moduli (GPa) = 56.40579 4.28963 46.14791
#
# Poissons Ratio (x) = 0.06938 0.08962
# Poissons Ratio (y) = 0.91231 -0.64599
# Poissons Ratio (z) = 0.10954 -0.06005
#
# Static dielectric constant tensor:
#      x y z
#    x 1.659470 0.000000 0.024480 
#    y 0.000000 1.652620 0.000000 
#    z 0.024480 0.000000 1.650250 
# 
# From -- ./inp_files/186468.got.cif
#   From: 2010.05.17/outbox.cif.g08.bks.cpg/sg12_94_cif.got.tgz:186468.got - 2010.06.03 13:09:07.
