data_PCOD9195470
_publ_section_title
;
Structure prediction by ZEFSAII (Michael W. Deem and Ramdas Pophale) SiO2 
 PCOD9195470
Probable space group: C 2/M
;
_chemical_formula_sum "Si O2"
_cell_formula_units_Z 60
_cell_length_a 9.231916
_cell_length_b 26.406091
_cell_length_c 17.471211
_cell_angle_alpha 90.000000
_cell_angle_beta 44.217261
_cell_angle_gamma 90.000000
_cell_volume 2970.223363
_symmetry_space_group_name_H-M "C 2/M"
_symmetry_group_IT_number 12
_symmetry_cell_setting 'monoclinic'
loop_
_space_group_symop_operation_xyz
x,y,z
-x,y,-z
-x,-y,-z
x,-y,z
1/2+x,1/2+y,z
1/2-x,1/2+y,-z
1/2-x,1/2-y,-z
1/2+x,1/2-y,z
loop_
_atom_site_type_symbol
_atom_site_label
_atom_site_fract_x
_atom_site_fract_y
_atom_site_fract_z
Si Si1 0.951800 0.789260 0.689669
Si Si2 0.041988 0.329329 0.670458
Si Si3 0.366729 0.355949 0.248936
Si Si4 0.548118 0.558705 0.066227
Si Si5 0.539953 0.842922 0.846807
Si Si6 0.033541 0.446536 0.897393
Si Si7 0.500000 0.324324 0.500000
Si Si8 0.123093 0.800506 0.033413
O O1 0.031250 0.732321 0.673755
O O2 0.073735 0.833898 0.689726
O O3 0.966665 0.795268 0.592483
O O4 0.708955 0.799993 0.802245
O O5 0.982725 0.342188 0.779607
O O6 0.276045 0.349596 0.571648
O O7 0.879039 0.353318 0.673457
O O8 0.464359 0.406237 0.168795
O O9 0.459747 0.311486 0.160630
O O10 0.469181 0.500000 0.103706
O O11 0.500000 0.580903 0.000000
O O12 0.795193 0.553502 0.963081
O O13 0.643158 0.896491 0.826979
O O14 0.316683 0.839186 0.971022
O O15 0.135477 0.500000 0.838398
O O16 0.000000 0.443713 0.000000
O O17 0.250000 0.750000 0.000000
O O18 0.000000 0.800863 0.000000
#
# Coordination Sequence:
#
# PCOD9195470 Si02
#       8
#     8   8   8   8   8   8   4   8
#     4  11  24  39  59  86 114 153 194 245 293 352
#     4  11  22  40  59  84 115 148 194 240 294 359
#     4  12  22  35  58  87 117 154 197 237 284 346
#     4  10  20  36  56  82 118 160 200 240 280 329
#     4  11  22  36  53  82 122 158 194 239 281 343
#     4  10  20  35  54  78 113 162 208 243 277 326
#     4  10  24  44  62  80 113 148 191 252 308 340
#     4  12  24  35  52  80 126 171 197 223 280 347
#
# _framework density 20.200500999999999
#
# number of rings (size 3 to 8) (size 9 to 14) (size 15 to 20)
#    0.000    1.067    2.667    5.600    1.867    0.533 
#    0.000    0.000    0.000    0.000    0.000   17.733 
#    0.000    0.000    0.000    0.000    0.000    0.000 
#
# Total GULP energy -167082.854251 kJ/mol
# GULP energy per Si atom -5569.428475 kJ/mol
# Density = 2.015452 g / cm^3
# Si number density = 20.200501 Si / 1000 Ang^3
#
#
#
# Elastic Constant Matrix: (Units=GPa)
#
#
# Indices 1 2 3 4 5 6 
#
# 1 73.2504 0.1275 15.5402 0.0000 -4.6502 0.0000
# 2 0.1275 109.4323 3.9724 0.0000 9.0068 0.0000
# 3 15.5402 3.9724 48.7724 0.0000 -8.7469 0.0000
# 4 0.0000 0.0000 0.0000 3.1795 0.0000 -0.1133
# 5 -4.6502 9.0068 -8.7469 0.0000 41.4232 0.0000
# 6 0.0000 0.0000 0.0000 -0.1133 0.0000 17.0123
#
#
#
# Elastic Compliance Matrix: (Units=1/GPa)
#
#
# Indices 1 2 3 4 5 6 
#
# 1 0.014661 0.000094 -0.004560 0.000000 0.000663 0.000000
# 2 0.000094 0.009369 -0.001202 0.000000 -0.002280 0.000000
# 3 -0.004560 -0.001202 0.022876 0.000000 0.004580 0.000000
# 4 0.000000 0.000000 0.000000 0.314590 0.000000 0.002095
# 5 0.000663 -0.002280 0.004580 0.000000 0.025678 0.000000
# 6 0.000000 0.000000 0.000000 0.002095 0.000000 0.058795
#
#
# Mechanical properties :
#
#
# Convention : Reuss Voigt Hill
#
# Bulk Modulus (GPa) = 28.11402 30.08167 29.09785
# Shear Modulus (GPa) = 10.65730 26.44402 18.55066
#
# Velocity S-wave (km/s) = 2.29939 3.62204 3.03368
# Velocity P-wave (km/s) = 4.58228 5.69352 5.16785
#
# Compressibility (1/GPa) = 0.03556944
#
# Stress axis : x y z
#
# Youngs Moduli (GPa) = 68.20741 106.73170 43.71449
#
# Poissons Ratio (x) = -0.01003 0.19935
# Poissons Ratio (y) = -0.00641 0.05255
# Poissons Ratio (z) = 0.31104 0.12829
#
# Static dielectric constant tensor:
#      x y z
#    x 1.804130 0.000000 -0.016550 
#    y 0.000000 1.840840 0.000000 
#    z -0.016550 0.000000 1.717200 
# 
# From -- ./inp_files/259706.got.cif
#   From: 2010.05.17/outbox.cif.g08.bks.cpg/sg12_130_cif.got.tgz:259706.got - 2010.06.03 13:09:07.
