data_PCOD9195629
_publ_section_title
;
Structure prediction by ZEFSAII (Michael W. Deem and Ramdas Pophale) SiO2 
 PCOD9195629
Probable space group: C 2/M
;
_chemical_formula_sum "Si O2"
_cell_formula_units_Z 64
_cell_length_a 19.388014
_cell_length_b 9.338149
_cell_length_c 20.254228
_cell_angle_alpha 90.000000
_cell_angle_beta 113.634120
_cell_angle_gamma 90.000000
_cell_volume 3359.418839
_symmetry_space_group_name_H-M "C 2/M"
_symmetry_group_IT_number 12
_symmetry_cell_setting 'monoclinic'
loop_
_space_group_symop_operation_xyz
x,y,z
-x,y,-z
-x,-y,-z
x,-y,z
1/2+x,1/2+y,z
1/2-x,1/2+y,-z
1/2-x,1/2-y,-z
1/2+x,1/2-y,z
loop_
_atom_site_type_symbol
_atom_site_label
_atom_site_fract_x
_atom_site_fract_y
_atom_site_fract_z
Si Si1 0.343985 0.834592 0.107373
Si Si2 0.047369 0.165029 0.344133
Si Si3 0.939107 0.338142 0.918985
Si Si4 0.198789 0.330110 0.427371
Si Si5 0.662757 0.663305 0.028615
Si Si6 0.916299 0.836579 0.796201
Si Si7 0.619081 0.672097 0.742871
Si Si8 0.234045 0.669160 0.288332
O O1 0.252648 0.838102 0.071868
O O2 0.370695 0.757100 0.184556
O O3 0.370781 0.000000 0.113433
O O4 0.359903 0.745808 0.046922
O O5 0.114478 0.264315 0.395805
O O6 0.055277 0.166636 0.267629
O O7 0.960778 0.207874 0.322270
O O8 0.058959 0.000000 0.370616
O O9 0.916654 0.500000 0.895987
O O10 0.871448 0.247132 0.923137
O O11 0.965704 0.260071 0.863316
O O12 0.000000 0.338913 0.000000
O O13 0.196456 0.500000 0.438487
O O14 0.250000 0.250000 0.500000
O O15 0.233479 0.307280 0.367188
O O16 0.635504 0.500000 0.015574
O O17 0.833763 0.765997 0.764116
O O18 0.914486 0.000000 0.818246
O O19 0.617780 0.500000 0.756031
O O20 0.688843 0.701007 0.720574
O O21 0.217523 0.500000 0.272063
#
# Coordination Sequence:
#
# PCOD9195629 Si02
#       8
#     8   8   8   8   8   8   8   8
#     4  10  21  35  53  77 105 139 178 226 281 337
#     4   9  20  37  57  84 114 145 183 226 273 328
#     4  11  24  37  50  72 103 139 181 233 287 335
#     4  10  20  37  62  89 116 151 186 222 267 320
#     4  10  21  37  54  73  99 136 185 233 282 338
#     4  10  20  35  55  78 106 142 185 231 278 334
#     4  10  20  35  56  82 111 144 183 228 277 327
#     4   9  19  36  59  85 112 145 186 226 269 325
#
# _framework density 19.050915
#
# number of rings (size 3 to 8) (size 9 to 14) (size 15 to 20)
#    0.000    2.125    0.000    2.625    1.750    6.500 
#    0.000    0.625    0.000    3.750    0.000    0.000 
#    0.000    0.000    0.000    0.000    0.000    0.000 
#
# Total GULP energy -178680.946751 kJ/mol
# GULP energy per Si atom -5583.779586 kJ/mol
# Density = 1.900755 g / cm^3
# Si number density = 19.050915 Si / 1000 Ang^3
#
#
#
# Elastic Constant Matrix: (Units=GPa)
#
#
# Indices 1 2 3 4 5 6 
#
# 1 67.1518 22.7800 15.9185 0.0000 14.1530 0.0000
# 2 22.7800 112.3461 49.1820 0.0000 6.8046 0.0000
# 3 15.9185 49.1820 93.9044 0.0000 11.9374 0.0000
# 4 0.0000 0.0000 0.0000 34.7828 0.0000 2.6501
# 5 14.1530 6.8046 11.9374 0.0000 18.1938 0.0000
# 6 0.0000 0.0000 0.0000 2.6501 0.0000 18.9133
#
#
#
# Elastic Compliance Matrix: (Units=1/GPa)
#
#
# Indices 1 2 3 4 5 6 
#
# 1 0.018743 -0.003040 0.000135 0.000000 -0.013532 0.000000
# 2 -0.003040 0.012045 -0.006023 0.000000 0.001812 0.000000
# 3 0.000135 -0.006023 0.014737 0.000000 -0.007522 0.000000
# 4 0.000000 0.000000 0.000000 0.029060 0.000000 -0.004072
# 5 -0.013532 0.001812 -0.007522 0.000000 0.069748 0.000000
# 6 0.000000 0.000000 0.000000 -0.004072 0.000000 0.053443
#
#
# Mechanical properties :
#
#
# Convention : Reuss Voigt Hill
#
# Bulk Modulus (GPa) = 36.14260 49.90702 43.02481
# Shear Modulus (GPa) = 22.23656 26.74608 24.49132
#
# Velocity S-wave (km/s) = 3.42016 3.75097 3.58938
# Velocity P-wave (km/s) = 5.88298 6.70919 6.30962
#
# Compressibility (1/GPa) = 0.02766818
#
# Stress axis : x y z
#
# Youngs Moduli (GPa) = 53.35370 83.02507 67.85597
#
# Poissons Ratio (x) = 0.25239 -0.00917
# Poissons Ratio (y) = 0.16219 0.40872
# Poissons Ratio (z) = -0.00721 0.50009
#
# Static dielectric constant tensor:
#      x y z
#    x 1.682620 0.000000 0.002030 
#    y 0.000000 1.655250 0.000000 
#    z 0.002030 0.000000 1.656660 
# 
# From -- ./inp_files/320089.got.cif
#   From: 2010.05.17/outbox.cif.g08.bks.cpg/sg12_161_cif.got.tgz:320089.got - 2010.06.03 13:09:07.
