data_PCOD9195878
_publ_section_title
;
Structure prediction by ZEFSAII (Michael W. Deem and Ramdas Pophale) SiO2 
 PCOD9195878
Probable space group: C 2/M
;
_chemical_formula_sum "Si O2"
_cell_formula_units_Z 56
_cell_length_a 22.894427
_cell_length_b 7.454514
_cell_length_c 15.033582
_cell_angle_alpha 90.000000
_cell_angle_beta 69.524923
_cell_angle_gamma 90.000000
_cell_volume 2403.642059
_symmetry_space_group_name_H-M "C 2/M"
_symmetry_group_IT_number 12
_symmetry_cell_setting 'monoclinic'
loop_
_space_group_symop_operation_xyz
x,y,z
-x,y,-z
-x,-y,-z
x,-y,z
1/2+x,1/2+y,z
1/2-x,1/2+y,-z
1/2-x,1/2-y,-z
1/2+x,1/2-y,z
loop_
_atom_site_type_symbol
_atom_site_label
_atom_site_fract_x
_atom_site_fract_y
_atom_site_fract_z
Si Si1 0.185844 0.287259 0.584607
Si Si2 0.946600 0.293498 0.963334
Si Si3 0.937715 0.203399 0.444556
Si Si4 0.303784 0.215064 0.044771
Si Si5 0.738682 0.780902 0.737899
Si Si6 0.379280 0.282020 0.651619
Si Si7 0.968270 0.783259 0.752947
O O1 0.174256 0.500000 0.590233
O O2 0.250000 0.250000 0.500000
O O3 0.130726 0.197389 0.560811
O O4 0.193277 0.226112 0.682439
O O5 0.938926 0.500000 0.997657
O O6 0.972093 0.289988 0.849388
O O7 0.875507 0.217914 0.994764
O O8 0.000000 0.213918 0.000000
O O9 0.925915 0.282195 0.548937
O O10 0.980338 0.284001 0.344673
O O11 0.961295 0.000000 0.442831
O O12 0.280729 0.277907 0.153919
O O13 0.307844 0.000000 0.044782
O O14 0.250000 0.250000 0.000000
O O15 0.808753 0.720796 0.677541
O O16 0.739656 0.000000 0.737362
O O17 0.379417 0.500000 0.644372
O O18 0.404016 0.238329 0.736415
O O19 0.972743 0.000000 0.758106
#
# Coordination Sequence:
#
# PCOD9195878 Si02
#       7
#     8   8   8   8   8   8   8
#     4  11  21  35  56  82 113 152 190 231 278 335
#     4  10  23  41  60  83 118 158 196 242 296 354
#     4  10  20  35  55  84 117 148 187 230 277 338
#     4  10  21  39  62  88 114 148 196 245 294 347
#     4   9  18  32  56  82 107 144 188 226 275 341
#     4   9  16  32  56  83 113 145 181 226 279 338
#     4  10  21  36  60  86 111 147 192 238 280 332
#
# _framework density 23.297978000000001
#
# number of rings (size 3 to 8) (size 9 to 14) (size 15 to 20)
#    0.000    2.143    1.429    1.714    2.000    4.286 
#    0.000    2.143    0.000    1.714    0.000    0.000 
#    0.000    0.000    0.000    0.000    0.000    0.000 
#
# Total GULP energy -156375.310628 kJ/mol
# GULP energy per Si atom -5584.832522 kJ/mol
# Density = 2.324495 g / cm^3
# Si number density = 23.297978 Si / 1000 Ang^3
#
#
#
# Elastic Constant Matrix: (Units=GPa)
#
#
# Indices 1 2 3 4 5 6 
#
# 1 141.4023 6.5342 61.3153 0.0000 17.0201 0.0000
# 2 6.5342 76.0803 -1.6210 0.0000 1.1421 0.0000
# 3 61.3153 -1.6210 159.2350 0.0000 23.0929 0.0000
# 4 0.0000 0.0000 0.0000 8.7959 0.0000 -0.1689
# 5 17.0201 1.1421 23.0929 0.0000 46.4729 0.0000
# 6 0.0000 0.0000 0.0000 -0.1689 0.0000 10.4648
#
#
#
# Elastic Compliance Matrix: (Units=1/GPa)
#
#
# Indices 1 2 3 4 5 6 
#
# 1 0.008648 -0.000785 -0.003105 0.000000 -0.001605 0.000000
# 2 -0.000785 0.013226 0.000477 0.000000 -0.000274 0.000000
# 3 -0.003105 0.000477 0.007886 0.000000 -0.002793 0.000000
# 4 0.000000 0.000000 0.000000 0.113724 0.000000 0.001835
# 5 -0.001605 -0.000274 -0.002793 0.000000 0.023500 0.000000
# 6 0.000000 0.000000 0.000000 0.001835 0.000000 0.095588
#
#
# Mechanical properties :
#
#
# Convention : Reuss Voigt Hill
#
# Bulk Modulus (GPa) = 43.60636 56.57499 50.09068
# Shear Modulus (GPa) = 18.04773 33.84598 25.94686
#
# Velocity S-wave (km/s) = 2.78627 3.81562 3.34083
# Velocity P-wave (km/s) = 5.39523 6.61422 6.03558
#
# Compressibility (1/GPa) = 0.02293243
#
# Stress axis : x y z
#
# Youngs Moduli (GPa) = 115.63412 75.61048 126.81301
#
# Poissons Ratio (x) = 0.05934 0.39379
# Poissons Ratio (y) = 0.09075 -0.06044
# Poissons Ratio (z) = 0.35907 -0.03604
#
# Static dielectric constant tensor:
#      x y z
#    x 1.870680 0.000000 -0.017010 
#    y 0.000000 1.914640 0.000000 
#    z -0.017010 0.000000 1.840280 
# 
# From -- ./inp_files/237496.got.cif
#   From: 2010.05.17/outbox.cif.g08.bks.cpg/sg12_119_cif.got.tgz:237496.got - 2010.06.03 13:09:07.
