data_PCOD9195995
_publ_section_title
;
Structure prediction by ZEFSAII (Michael W. Deem and Ramdas Pophale) SiO2 
 PCOD9195995
Probable space group: C 2/M
;
_chemical_formula_sum "Si O2"
_cell_formula_units_Z 56
_cell_length_a 16.839881
_cell_length_b 9.181511
_cell_length_c 18.150268
_cell_angle_alpha 90.000000
_cell_angle_beta 67.405110
_cell_angle_gamma 90.000000
_cell_volume 2590.913669
_symmetry_space_group_name_H-M "C 2/M"
_symmetry_group_IT_number 12
_symmetry_cell_setting 'monoclinic'
loop_
_space_group_symop_operation_xyz
x,y,z
-x,y,-z
-x,-y,-z
x,-y,z
1/2+x,1/2+y,z
1/2-x,1/2+y,-z
1/2-x,1/2-y,-z
1/2+x,1/2-y,z
loop_
_atom_site_type_symbol
_atom_site_label
_atom_site_fract_x
_atom_site_fract_y
_atom_site_fract_z
Si Si1 0.233373 0.828430 0.754482
Si Si2 0.341528 0.327266 0.463298
Si Si3 0.849236 0.171608 0.836161
Si Si4 0.382460 0.172128 0.593268
Si Si5 0.885460 0.328936 0.967169
Si Si6 0.495805 0.327386 0.675731
Si Si7 0.090478 0.329050 0.875033
O O1 0.289081 0.749470 0.797997
O O2 0.286045 0.806588 0.660387
O O3 0.139017 0.762343 0.796137
O O4 0.231204 0.000000 0.768969
O O5 0.328994 0.500000 0.472143
O O6 0.250000 0.250000 0.500000
O O7 0.391509 0.266209 0.516868
O O8 0.403401 0.296550 0.371457
O O9 0.839805 0.236831 0.920547
O O10 0.946560 0.195354 0.770209
O O11 0.831877 0.000000 0.842669
O O12 0.444973 0.229952 0.634632
O O13 0.395081 0.000000 0.575154
O O14 0.863719 0.500000 0.968325
O O15 0.987988 0.314379 0.915543
O O16 0.874431 0.285050 0.056190
O O17 0.484110 0.500000 0.662039
O O18 0.109481 0.500000 0.858261
#
# Coordination Sequence:
#
# PCOD9195995 Si02
#       7
#     8   8   8   8   8   8   8
#     4  10  21  36  55  80 109 139 175 221 265 310
#     4  11  23  38  56  80 111 143 177 219 264 311
#     4  10  20  35  56  80 106 138 177 219 264 315
#     4  10  21  37  57  81 108 139 177 219 264 316
#     4   9  19  36  55  77 107 140 176 219 266 315
#     4   9  20  38  57  78 106 140 177 218 264 313
#     4   9  19  36  56  77 105 142 179 217 264 318
#
# _framework density 21.613997000000001
#
# number of rings (size 3 to 8) (size 9 to 14) (size 15 to 20)
#    0.000    2.286    0.000    3.000    0.000    8.000 
#    0.000    5.714    0.000    0.000    0.000    0.000 
#    0.000    0.000    0.000    0.000    0.000    0.000 
#
# Total GULP energy -156460.881031 kJ/mol
# GULP energy per Si atom -5587.888608 kJ/mol
# Density = 2.156480 g / cm^3
# Si number density = 21.613997 Si / 1000 Ang^3
#
#
#
# Elastic Constant Matrix: (Units=GPa)
#
#
# Indices 1 2 3 4 5 6 
#
# 1 41.3899 14.9798 17.5902 0.0000 -17.5785 0.0000
# 2 14.9798 49.3965 43.3507 0.0000 -12.5737 0.0000
# 3 17.5902 43.3507 90.3930 0.0000 -19.2525 0.0000
# 4 0.0000 0.0000 0.0000 27.3053 0.0000 -3.4636
# 5 -17.5785 -12.5737 -19.2525 0.0000 43.4694 0.0000
# 6 0.0000 0.0000 0.0000 -3.4636 0.0000 26.7496
#
#
#
# Elastic Compliance Matrix: (Units=1/GPa)
#
#
# Indices 1 2 3 4 5 6 
#
# 1 0.031163 -0.005909 -0.001005 0.000000 0.010448 0.000000
# 2 -0.005909 0.036428 -0.016104 0.000000 0.001015 0.000000
# 3 -0.001005 -0.016104 0.019768 0.000000 0.003690 0.000000
# 4 0.000000 0.000000 0.000000 0.037234 0.000000 0.004821
# 5 0.010448 0.001015 0.003690 0.000000 0.029158 0.000000
# 6 0.000000 0.000000 0.000000 0.004821 0.000000 0.038008
#
#
# Mechanical properties :
#
#
# Convention : Reuss Voigt Hill
#
# Bulk Modulus (GPa) = 24.19993 37.00233 30.60113
# Shear Modulus (GPa) = 19.87527 26.52210 23.19869
#
# Velocity S-wave (km/s) = 3.03571 3.50677 3.27971
# Velocity P-wave (km/s) = 4.84851 5.79253 5.34142
#
# Compressibility (1/GPa) = 0.04132243
#
# Stress axis : x y z
#
# Youngs Moduli (GPa) = 32.08889 27.45177 50.58794
#
# Poissons Ratio (x) = 0.16221 0.05086
# Poissons Ratio (y) = 0.18960 0.81466
# Poissons Ratio (z) = 0.03226 0.44208
#
# Static dielectric constant tensor:
#      x y z
#    x 1.844340 0.000000 -0.041950 
#    y 0.000000 1.709510 0.000000 
#    z -0.041950 0.000000 1.801650 
# 
# From -- ./inp_files/275230.got.cif
#   From: 2010.05.17/outbox.cif.g08.bks.cpg/sg12_138_cif.got.tgz:275230.got - 2010.06.03 13:09:07.
