data_PCOD9195785
_publ_section_title
;
Structure prediction by ZEFSAII (Michael W. Deem and Ramdas Pophale) SiO2 
 PCOD9195785
Probable space group: C 2/M
;
_chemical_formula_sum "Si O2"
_cell_formula_units_Z 56
_cell_length_a 16.334181
_cell_length_b 8.684863
_cell_length_c 26.769736
_cell_angle_alpha 90.000000
_cell_angle_beta 38.743679
_cell_angle_gamma 90.000000
_cell_volume 2376.653984
_symmetry_space_group_name_H-M "C 2/M"
_symmetry_group_IT_number 12
_symmetry_cell_setting 'monoclinic'
loop_
_space_group_symop_operation_xyz
x,y,z
-x,y,-z
-x,-y,-z
x,-y,z
1/2+x,1/2+y,z
1/2-x,1/2+y,-z
1/2-x,1/2-y,-z
1/2+x,1/2-y,z
loop_
_atom_site_type_symbol
_atom_site_label
_atom_site_fract_x
_atom_site_fract_y
_atom_site_fract_z
Si Si1 0.440664 0.680034 0.875275
Si Si2 0.665254 0.313501 0.972279
Si Si3 0.970988 0.675659 0.264390
Si Si4 0.766148 0.178933 0.167044
Si Si5 0.618634 0.318397 0.539987
Si Si6 0.331266 0.316637 0.689207
Si Si7 0.288198 0.178597 0.601079
O O1 0.471189 0.500000 0.852018
O O2 0.290160 0.715246 0.931090
O O3 0.519005 0.784973 0.799385
O O4 0.443733 0.711292 0.933221
O O5 0.694304 0.500000 0.960210
O O6 0.647581 0.276175 0.922309
O O7 0.926918 0.500000 0.292513
O O8 0.864251 0.787862 0.338774
O O9 0.117055 0.690643 0.216302
O O10 0.760746 0.269537 0.221180
O O11 0.793005 0.000000 0.165395
O O12 0.625639 0.500000 0.541587
O O13 0.750000 0.250000 0.500000
O O14 0.481524 0.266518 0.628866
O O15 0.622984 0.271191 0.479813
O O16 0.328102 0.500000 0.684026
O O17 0.301719 0.235559 0.651073
O O18 0.317968 0.000000 0.582340
#
# Coordination Sequence:
#
# PCOD9195785 Si02
#       7
#     8   8   8   8   8   8   8
#     4   9  15  25  45  74 107 142 184 230 276 328
#     4   8  15  27  44  71 108 146 182 227 281 328
#     4  10  20  35  55  80 113 148 184 230 282 333
#     4   9  18  33  54  80 110 146 186 227 274 326
#     4  11  24  42  64  89 117 147 182 225 272 323
#     4  11  24  40  58  82 113 148 184 224 273 327
#     4  12  25  40  60  84 111 146 187 228 275 330
#
# _framework density 23.562538
#
# number of rings (size 3 to 8) (size 9 to 14) (size 15 to 20)
#    0.000    2.000    0.000    5.143    0.000    9.714 
#    0.000    0.000    0.000    0.857    0.000    6.000 
#    0.000    0.000    0.000    0.000    0.000    0.000 
#
# Total GULP energy -156603.082485 kJ/mol
# GULP energy per Si atom -5592.967232 kJ/mol
# Density = 2.350891 g / cm^3
# Si number density = 23.562538 Si / 1000 Ang^3
#
#
#
# Elastic Constant Matrix: (Units=GPa)
#
#
# Indices 1 2 3 4 5 6 
#
# 1 89.5829 7.4239 18.1151 0.0000 10.0766 0.0001
# 2 7.4239 28.2968 4.4551 0.0000 -3.2435 0.0002
# 3 18.1151 4.4551 107.3707 0.0000 4.0694 0.0000
# 4 0.0000 0.0000 0.0000 34.9778 0.0000 10.4987
# 5 10.0766 -3.2435 4.0694 0.0000 39.5354 0.0000
# 6 0.0001 0.0002 0.0000 10.4987 0.0000 25.7808
#
#
#
# Elastic Compliance Matrix: (Units=1/GPa)
#
#
# Indices 1 2 3 4 5 6 
#
# 1 0.012155 -0.003271 -0.001794 0.000000 -0.003182 0.000000
# 2 -0.003271 0.036831 -0.001127 0.000000 0.003971 0.000000
# 3 -0.001794 -0.001127 0.009687 0.000000 -0.000632 0.000000
# 4 0.000000 0.000000 0.000000 0.032571 0.000000 -0.013264
# 5 -0.003182 0.003971 -0.000632 0.000000 0.026496 0.000000
# 6 0.000000 0.000000 0.000000 -0.013264 0.000000 0.044190
#
#
# Mechanical properties :
#
#
# Convention : Reuss Voigt Hill
#
# Bulk Modulus (GPa) = 21.60404 31.69317 26.64860
# Shear Modulus (GPa) = 26.35155 33.07590 29.71372
#
# Velocity S-wave (km/s) = 3.34783 3.75073 3.55499
# Velocity P-wave (km/s) = 4.91250 5.67778 5.30894
#
# Compressibility (1/GPa) = 0.04628765
#
# Stress axis : x y z
#
# Youngs Moduli (GPa) = 82.27308 27.15138 103.23130
#
# Poissons Ratio (x) = 0.08881 0.18523
# Poissons Ratio (y) = 0.26912 0.11633
# Poissons Ratio (z) = 0.14763 0.03060
#
# Static dielectric constant tensor:
#      x y z
#    x 1.987990 0.000000 -0.025820 
#    y 0.000000 1.790920 0.000000 
#    z -0.025820 0.000000 1.929350 
# 
# From -- ./inp_files/362979.got.cif
#   From: 2010.05.17/outbox.cif.g08.bks.cpg/sg12_182_cif.got.tgz:362979.got - 2010.06.03 13:09:07.
