data_PCOD9195183
_publ_section_title
;
Structure prediction by ZEFSAII (Michael W. Deem and Ramdas Pophale) SiO2 
 PCOD9195183
Probable space group: C 2/M
;
_chemical_formula_sum "Si O2"
_cell_formula_units_Z 48
_cell_length_a 24.961448
_cell_length_b 9.057813
_cell_length_c 14.435293
_cell_angle_alpha 90.000000
_cell_angle_beta 70.925296
_cell_angle_gamma 90.000000
_cell_volume 3084.561309
_symmetry_space_group_name_H-M "C 2/M"
_symmetry_group_IT_number 12
_symmetry_cell_setting 'monoclinic'
loop_
_space_group_symop_operation_xyz
x,y,z
-x,y,-z
-x,-y,-z
x,-y,z
1/2+x,1/2+y,z
1/2-x,1/2+y,-z
1/2-x,1/2-y,-z
1/2+x,1/2-y,z
loop_
_atom_site_type_symbol
_atom_site_label
_atom_site_fract_x
_atom_site_fract_y
_atom_site_fract_z
Si Si1 0.120775 0.678572 0.831980
Si Si2 0.224205 0.323447 0.652731
Si Si3 0.019454 0.824281 0.771744
Si Si4 0.446903 0.830252 0.958120
Si Si5 0.830295 0.676691 0.515440
Si Si6 0.039277 0.322774 0.565898
O O1 0.113762 0.500000 0.826392
O O2 0.183154 0.717613 0.760623
O O3 0.074545 0.755211 0.791967
O O4 0.105346 0.715461 0.946831
O O5 0.231306 0.500000 0.649276
O O6 0.190280 0.284367 0.577177
O O7 0.285185 0.248570 0.610214
O O8 0.018352 0.759111 0.669489
O O9 0.965710 0.770519 0.862679
O O10 0.023308 0.000000 0.769225
O O11 0.439653 0.000000 0.931533
O O12 0.500000 0.828717 0.000000
O O13 0.826935 0.500000 0.525728
O O14 0.895479 0.720853 0.490269
O O15 0.038841 0.500000 0.583464
O O16 0.000000 0.292492 0.500000
#
# Coordination Sequence:
#
# PCOD9195183 Si02
#       6
#     8   8   8   8   8   8
#     4   9  16  29  46  65  90 123 157 183 214 267
#     4   9  16  27  45  66  92 120 146 180 223 270
#     4  11  20  28  42  65  95 121 146 187 234 272
#     4   8  15  27  44  62  86 120 154 184 217 265
#     4   9  17  29  44  65  90 115 149 187 223 268
#     4  10  20  35  52  65  84 121 163 194 220 260
#
# _framework density 15.561370999999999
#
# number of rings (size 3 to 8) (size 9 to 14) (size 15 to 20)
#    0.000    2.667    1.667    2.500    0.000    4.667 
#    0.000    0.000    0.000    0.000    0.000    1.167 
#    0.000    0.000    0.000    0.000    0.000    0.000 
#
# Total GULP energy -133692.456185 kJ/mol
# GULP energy per Si atom -5570.519008 kJ/mol
# Density = 1.552595 g / cm^3
# Si number density = 15.561371 Si / 1000 Ang^3
#
#
#
# Elastic Constant Matrix: (Units=GPa)
#
#
# Indices 1 2 3 4 5 6 
#
# 1 67.6802 31.1468 60.3333 0.0000 -15.5133 0.0000
# 2 31.1468 42.4635 57.1795 0.0000 -4.5343 0.0000
# 3 60.3333 57.1795 142.6571 0.0000 -33.7805 0.0000
# 4 0.0000 0.0000 0.0000 16.4041 0.0000 -9.4005
# 5 -15.5133 -4.5343 -33.7805 0.0000 26.1470 0.0000
# 6 0.0000 0.0000 0.0000 -9.4005 0.0000 13.6702
#
#
#
# Elastic Compliance Matrix: (Units=1/GPa)
#
#
# Indices 1 2 3 4 5 6 
#
# 1 0.026125 -0.013123 -0.003829 0.000000 0.008278 0.000000
# 2 -0.013123 0.072922 -0.032457 0.000000 -0.037073 0.000000
# 3 -0.003829 -0.032457 0.028481 0.000000 0.028895 0.000000
# 4 0.000000 0.000000 0.000000 0.100606 0.000000 0.069183
# 5 0.008278 -0.037073 0.028895 0.000000 0.074058 0.000000
# 6 0.000000 0.000000 0.000000 0.069183 0.000000 0.120727
#
#
# Mechanical properties :
#
#
# Convention : Reuss Voigt Hill
#
# Bulk Modulus (GPa) = 34.83096 61.12444 47.97770
# Shear Modulus (GPa) = 9.41076 18.18702 13.79889
#
# Velocity S-wave (km/s) = 2.46184 3.42238 2.98105
# Velocity P-wave (km/s) = 5.52380 7.41497 6.53813
#
# Compressibility (1/GPa) = 0.02871009
#
# Stress axis : x y z
#
# Youngs Moduli (GPa) = 38.27686 13.71335 35.11145
#
# Poissons Ratio (x) = 0.17996 0.13444
# Poissons Ratio (y) = 0.50230 1.13961
# Poissons Ratio (z) = 0.14656 0.44509
#
# Static dielectric constant tensor:
#      x y z
#    x 1.499040 0.000000 -0.030740 
#    y 0.000000 1.520410 0.000000 
#    z -0.030740 0.000000 1.539980 
# 
# From -- ./inp_files/179329.got.cif
#   From: 2010.05.17/outbox.cif.g08.bks.cpg/sg12_90_cif.got.tgz:179329.got - 2010.06.03 13:09:07.
