data_PCOD9195434
_publ_section_title
;
Structure prediction by ZEFSAII (Michael W. Deem and Ramdas Pophale) SiO2 
 PCOD9195434
Probable space group: C 2/M
;
_chemical_formula_sum "Si O2"
_cell_formula_units_Z 64
_cell_length_a 31.000381
_cell_length_b 7.681295
_cell_length_c 12.297953
_cell_angle_alpha 90.000000
_cell_angle_beta 102.019736
_cell_angle_gamma 90.000000
_cell_volume 2864.223306
_symmetry_space_group_name_H-M "C 2/M"
_symmetry_group_IT_number 12
_symmetry_cell_setting 'monoclinic'
loop_
_space_group_symop_operation_xyz
x,y,z
-x,y,-z
-x,-y,-z
x,-y,z
1/2+x,1/2+y,z
1/2-x,1/2+y,-z
1/2-x,1/2-y,-z
1/2+x,1/2-y,z
loop_
_atom_site_type_symbol
_atom_site_label
_atom_site_fract_x
_atom_site_fract_y
_atom_site_fract_z
Si Si1 0.194394 0.797390 0.656403
Si Si2 0.793395 0.208391 0.092977
Si Si3 0.031543 0.702447 0.422726
Si Si4 0.566059 0.288171 0.043371
Si Si5 0.711172 0.296029 0.326106
Si Si6 0.508357 0.289156 0.823626
Si Si7 0.662123 0.287101 0.092948
Si Si8 0.630766 0.198958 0.439852
O O1 0.201861 0.724161 0.782185
O O2 0.241874 0.787826 0.620698
O O3 0.155966 0.706927 0.568473
O O4 0.181954 0.000000 0.656383
O O5 0.794908 0.000000 0.103594
O O6 0.750000 0.250000 0.000000
O O7 0.830464 0.266477 0.027141
O O8 0.039492 0.500000 0.457133
O O9 0.002977 0.712944 0.298210
O O10 0.081108 0.775812 0.425143
O O11 0.000000 0.780106 0.500000
O O12 0.565802 0.500000 0.042436
O O13 0.551555 0.236162 0.914343
O O14 0.530642 0.237298 0.114240
O O15 0.613984 0.229145 0.102159
O O16 0.720734 0.500000 0.324020
O O17 0.697462 0.225930 0.199454
O O18 0.667734 0.277384 0.378038
O O19 0.508501 0.500000 0.813179
O O20 0.663926 0.500000 0.096785
O O21 0.625431 0.000000 0.400953
#
# Coordination Sequence:
#
# PCOD9195434 Si02
#       8
#     8   8   8   8   8   8   8   8
#     4  11  23  38  58  85 119 154 192 238 282 332
#     4  10  20  35  54  77 108 146 184 223 268 321
#     4  10  23  42  60  79 111 152 188 231 289 345
#     4   8  15  29  51  83 116 141 174 223 278 329
#     4  11  21  36  61  87 116 152 192 236 284 340
#     4   9  17  32  57  84 110 142 180 227 276 329
#     4   9  17  30  52  81 112 148 183 219 271 330
#     4  11  24  41  60  82 111 148 193 241 287 340
#
# _framework density 22.344626999999999
#
# number of rings (size 3 to 8) (size 9 to 14) (size 15 to 20)
#    0.000    2.125    1.250    3.000    0.000    3.750 
#    0.000    2.500    0.000    2.250    0.000    0.000 
#    0.000    0.000    0.000    0.000    0.000    0.000 
#
# Total GULP energy -178513.213708 kJ/mol
# GULP energy per Si atom -5578.537928 kJ/mol
# Density = 2.229377 g / cm^3
# Si number density = 22.344627 Si / 1000 Ang^3
#
#
#
# Elastic Constant Matrix: (Units=GPa)
#
#
# Indices 1 2 3 4 5 6 
#
# 1 43.5009 -2.0832 -1.3475 0.0000 7.4878 0.0000
# 2 -2.0832 45.3836 -8.0937 0.0000 -3.7860 0.0000
# 3 -1.3475 -8.0937 110.7233 0.0000 1.2555 0.0000
# 4 0.0000 0.0000 0.0000 51.7221 0.0000 9.6121
# 5 7.4878 -3.7860 1.2555 0.0000 28.9078 0.0000
# 6 0.0000 0.0000 0.0000 9.6121 0.0000 8.5946
#
#
#
# Elastic Compliance Matrix: (Units=1/GPa)
#
#
# Indices 1 2 3 4 5 6 
#
# 1 0.024095 0.000665 0.000412 0.000000 -0.006172 0.000000
# 2 0.000665 0.022582 0.001628 0.000000 0.002715 0.000000
# 3 0.000412 0.001628 0.009159 0.000000 -0.000291 0.000000
# 4 0.000000 0.000000 0.000000 0.024407 0.000000 -0.027296
# 5 -0.006172 0.002715 -0.000291 0.000000 0.036560 0.000000
# 6 0.000000 0.000000 0.000000 -0.027296 0.000000 0.146880
#
#
# Mechanical properties :
#
#
# Convention : Reuss Voigt Hill
#
# Bulk Modulus (GPa) = 16.32806 19.61766 17.97286
# Shear Modulus (GPa) = 17.94118 31.92038 24.93078
#
# Velocity S-wave (km/s) = 2.83668 3.78371 3.34389
# Velocity P-wave (km/s) = 4.24879 5.28084 4.79268
#
# Compressibility (1/GPa) = 0.06124428
#
# Stress axis : x y z
#
# Youngs Moduli (GPa) = 41.50238 44.28369 109.18409
#
# Poissons Ratio (x) = -0.02943 -0.04496
# Poissons Ratio (y) = -0.02758 -0.17775
# Poissons Ratio (z) = -0.01709 -0.07209
#
# Static dielectric constant tensor:
#      x y z
#    x 1.857910 0.000000 -0.026420 
#    y 0.000000 1.824220 0.000000 
#    z -0.026420 0.000000 1.849490 
# 
# From -- ./inp_files/187410.got.cif
#   From: 2010.05.17/outbox.cif.g08.bks.cpg/sg12_94_cif.got.tgz:187410.got - 2010.06.03 13:09:07.
