data_PCOD9195569
_publ_section_title
;
Structure prediction by ZEFSAII (Michael W. Deem and Ramdas Pophale) SiO2 
 PCOD9195569
Probable space group: C 2/M
;
_chemical_formula_sum "Si O2"
_cell_formula_units_Z 56
_cell_length_a 18.221432
_cell_length_b 7.450662
_cell_length_c 29.539122
_cell_angle_alpha 90.000000
_cell_angle_beta 40.450511
_cell_angle_gamma 90.000000
_cell_volume 2601.835120
_symmetry_space_group_name_H-M "C 2/M"
_symmetry_group_IT_number 12
_symmetry_cell_setting 'monoclinic'
loop_
_space_group_symop_operation_xyz
x,y,z
-x,y,-z
-x,-y,-z
x,-y,z
1/2+x,1/2+y,z
1/2-x,1/2+y,-z
1/2-x,1/2-y,-z
1/2+x,1/2-y,z
loop_
_atom_site_type_symbol
_atom_site_label
_atom_site_fract_x
_atom_site_fract_y
_atom_site_fract_z
Si Si1 0.361222 0.216205 0.845746
Si Si2 0.472067 0.713852 0.148504
Si Si3 0.121170 0.292577 0.429998
Si Si4 0.953986 0.280759 0.705737
Si Si5 0.333966 0.285369 0.002827
Si Si6 0.789970 0.286739 0.430358
Si Si7 0.277836 0.780193 0.711231
O O1 0.452685 0.258588 0.841753
O O2 0.403920 0.280432 0.777232
O O3 0.238037 0.282314 0.920578
O O4 0.354195 0.000000 0.846618
O O5 0.462508 0.500000 0.146208
O O6 0.346421 0.783888 0.215829
O O7 0.545364 0.784731 0.071470
O O8 0.097340 0.500000 0.428862
O O9 0.202993 0.288394 0.434568
O O10 0.184306 0.217519 0.356292
O O11 0.000000 0.210740 0.500000
O O12 0.955625 0.500000 0.705458
O O13 0.872241 0.227879 0.703260
O O14 0.082512 0.220473 0.637773
O O15 0.345376 0.500000 0.002978
O O16 0.250000 0.250000 0.000000
O O17 0.790643 0.500000 0.423334
O O18 0.750000 0.250000 0.500000
O O19 0.272127 0.000000 0.713330
#
# Coordination Sequence:
#
# PCOD9195569 Si02
#       7
#     8   8   8   8   8   8   8
#     4   9  16  28  47  68  92 122 156 194 235 280
#     4   9  16  27  45  68  93 121 156 196 236 280
#     4  10  20  35  55  76  99 129 164 200 241 290
#     4   9  18  32  49  70  96 127 160 194 236 284
#     4   8  14  24  40  65  92 118 151 191 234 278
#     4  11  22  36  55  77 101 128 161 200 241 288
#     4   9  17  30  48  69  95 127 160 195 237 284
#
# _framework density 21.523268999999999
#
# number of rings (size 3 to 8) (size 9 to 14) (size 15 to 20)
#    0.000    2.714    0.000    2.143    0.000    2.571 
#    0.000    1.429    0.000    7.714    0.000    0.000 
#    0.000   11.429    0.000    0.000    0.000    0.000 
#
# Total GULP energy -156252.525233 kJ/mol
# GULP energy per Si atom -5580.447330 kJ/mol
# Density = 2.147428 g / cm^3
# Si number density = 21.523269 Si / 1000 Ang^3
#
#
#
# Elastic Constant Matrix: (Units=GPa)
#
#
# Indices 1 2 3 4 5 6 
#
# 1 105.9950 -13.6160 103.0543 0.0009 -12.4614 -0.0057
# 2 -13.6160 67.8668 4.4364 -0.0003 -5.0120 -0.0093
# 3 103.0543 4.4364 271.4654 0.0007 -12.3421 0.0001
# 4 0.0009 -0.0003 0.0007 -2.9243 0.0003 2.0592
# 5 -12.4614 -5.0120 -12.3421 0.0003 30.0242 -0.0004
# 6 -0.0057 -0.0093 0.0001 2.0592 -0.0004 12.3043
#
#
#
# Elastic Compliance Matrix: (Units=1/GPa)
#
#
# Indices 1 2 3 4 5 6 
#
# 1 0.016468 0.004072 -0.006090 0.000010 0.005011 0.000009
# 2 0.004072 0.015930 -0.001639 0.000008 0.003676 0.000013
# 3 -0.006090 -0.001639 0.006007 -0.000003 -0.000332 -0.000004
# 4 0.000010 0.000008 -0.000003 -0.305910 0.000008 0.051195
# 5 0.005011 0.003676 -0.000332 0.000008 0.035864 0.000005
# 6 0.000009 0.000013 -0.000004 0.051195 0.000005 0.072705
#
#
# Mechanical properties :
#
#
# Convention : Reuss Voigt Hill
#
# Bulk Modulus (GPa) = 32.16341 70.34184 51.25262
# Shear Modulus (GPa) = -35.39636 31.31099 -2.04268
#
# Velocity S-wave (km/s) = -4.05972 3.81826 -0.97525
# Velocity P-wave (km/s) = 2.64558 7.22437 4.75355
#
# Compressibility (1/GPa) = 0.03109123
#
# Stress axis : x y z
#
# Youngs Moduli (GPa) = 60.72364 62.77331 166.46017
#
# Poissons Ratio (x) = -0.25562 1.01380
# Poissons Ratio (y) = -0.24728 0.27285
# Poissons Ratio (z) = 0.36983 0.10289
#
# Static dielectric constant tensor:
#      x y z
#    x 1.489170 -0.000320 -0.111420 
#    y -0.000320 1.829590 -0.000160 
#    z -0.111420 -0.000160 1.759760 
# 
# From -- ./inp_files/377665.got.cif
#   From: 2010.05.17/outbox.cif.g08.bks.cpg/sg12_189_cif.got.tgz:377665.got - 2010.06.03 13:09:07.
