data_PCOD9195114
_publ_section_title
;
Structure prediction by ZEFSAII (Michael W. Deem and Ramdas Pophale) SiO2 
 PCOD9195114
Probable space group: C 2/M
;
_chemical_formula_sum "Si O2"
_cell_formula_units_Z 38
_cell_length_a 11.597476
_cell_length_b 20.694046
_cell_length_c 10.744726
_cell_angle_alpha 90.000000
_cell_angle_beta 41.327871
_cell_angle_gamma 90.000000
_cell_volume 1702.901874
_symmetry_space_group_name_H-M "C 2/M"
_symmetry_group_IT_number 12
_symmetry_cell_setting 'monoclinic'
loop_
_space_group_symop_operation_xyz
x,y,z
-x,y,-z
-x,-y,-z
x,-y,z
1/2+x,1/2+y,z
1/2-x,1/2+y,-z
1/2-x,1/2-y,-z
1/2+x,1/2-y,z
loop_
_atom_site_type_symbol
_atom_site_label
_atom_site_fract_x
_atom_site_fract_y
_atom_site_fract_z
Si Si1 0.047871 0.740031 0.187511
Si Si2 0.684026 0.500000 0.732174
Si Si3 0.000000 0.500000 0.000000
Si Si4 0.340740 0.629368 0.333762
Si Si5 0.000000 0.684395 0.500000
Si Si6 0.609861 0.892026 0.753839
Si Si7 0.549295 0.000000 0.276656
O O1 0.949657 0.805961 0.236216
O O2 0.019417 0.724220 0.357046
O O3 0.969803 0.679600 0.173052
O O4 0.250000 0.750000 0.000000
O O5 0.579359 0.563885 0.782697
O O6 0.772964 0.500000 0.793575
O O7 0.865731 0.500000 0.501934
O O8 0.862558 0.440628 0.154083
O O9 0.274429 0.617660 0.528656
O O10 0.168157 0.640597 0.389173
O O11 0.469454 0.936871 0.793333
#
# Coordination Sequence:
#
# PCOD9195114 Si02
#       7
#     8   4   2   8   4   8   4
#     4  11  24  39  59  89 125 167 220 267 314 383
#     4   9  14  28  56  84 112 145 191 252 313 360
#     4  10  20  34  62  94 126 166 202 266 334 388
#     4  10  20  36  61  90 121 162 211 261 315 381
#     4  10  20  39  64  87 120 164 208 268 326 373
#     4   9  18  34  56  84 118 158 209 251 309 384
#     4   8  14  28  53  82 109 145 192 245 304 372
#
# _framework density 22.31485
#
# number of rings (size 3 to 8) (size 9 to 14) (size 15 to 20)
#    0.000    2.316    0.000    6.947    0.000    4.211 
#    0.000    2.105    0.000    4.421    0.000    0.000 
#    0.000    0.000    0.000    0.000    0.000    0.000 
#
# Total GULP energy -105779.865823 kJ/mol
# GULP energy per Si atom -5567.361359 kJ/mol
# Density = 2.226406 g / cm^3
# Si number density = 22.314850 Si / 1000 Ang^3
#
#
#
# Elastic Constant Matrix: (Units=GPa)
#
#
# Indices 1 2 3 4 5 6 
#
# 1 30.5824 31.8185 24.4007 0.0000 11.5116 0.0000
# 2 31.8185 237.8012 54.0701 0.0000 -7.9006 0.0000
# 3 24.4007 54.0701 60.0349 0.0000 -4.0715 0.0000
# 4 0.0000 0.0000 0.0000 71.6606 0.0000 9.0719
# 5 11.5116 -7.9006 -4.0715 0.0000 18.6161 0.0000
# 6 0.0000 0.0000 0.0000 9.0719 0.0000 20.6571
#
#
#
# Elastic Compliance Matrix: (Units=1/GPa)
#
#
# Indices 1 2 3 4 5 6 
#
# 1 0.096801 -0.006628 -0.038191 0.000000 -0.071024 0.000000
# 2 -0.006628 0.005769 -0.002089 0.000000 0.006090 0.000000
# 3 -0.038191 -0.002089 0.036139 0.000000 0.030633 0.000000
# 4 0.000000 0.000000 0.000000 0.014776 0.000000 -0.006489
# 5 -0.071024 0.006090 0.030633 0.000000 0.106920 0.000000
# 6 0.000000 0.000000 0.000000 -0.006489 0.000000 0.051259
#
#
# Mechanical properties :
#
#
# Convention : Reuss Voigt Hill
#
# Bulk Modulus (GPa) = 22.27578 60.99969 41.63774
# Shear Modulus (GPa) = 11.89215 36.72870 24.31042
#
# Velocity S-wave (km/s) = 2.31102 4.06141 3.30423
# Velocity P-wave (km/s) = 4.13827 7.02771 5.76688
#
# Compressibility (1/GPa) = 0.04489180
#
# Stress axis : x y z
#
# Youngs Moduli (GPa) = 10.33050 173.32702 27.67122
#
# Poissons Ratio (x) = 1.14885 1.05679
# Poissons Ratio (y) = 0.06847 0.05781
# Poissons Ratio (z) = 0.39453 0.36211
#
# Static dielectric constant tensor:
#      x y z
#    x 1.923140 0.000000 0.137460 
#    y 0.000000 1.845280 0.000000 
#    z 0.137460 0.000000 1.930470 
# 
# From -- ./inp_files/48564.got.cif
#   From: 2010.05.17/outbox.cif.g08.bks.cpg/sg12_25_cif.got.tgz:48564.got - 2010.06.03 13:09:07.
