data_PCOD9195661
_publ_section_title
;
Structure prediction by ZEFSAII (Michael W. Deem and Ramdas Pophale) SiO2 
 PCOD9195661
Probable space group: C 2/M
;
_chemical_formula_sum "Si O2"
_cell_formula_units_Z 56
_cell_length_a 15.696250
_cell_length_b 7.371011
_cell_length_c 22.462104
_cell_angle_alpha 90.000000
_cell_angle_beta 69.550012
_cell_angle_gamma 90.000000
_cell_volume 2435.020217
_symmetry_space_group_name_H-M "C 2/M"
_symmetry_group_IT_number 12
_symmetry_cell_setting 'monoclinic'
loop_
_space_group_symop_operation_xyz
x,y,z
-x,y,-z
-x,-y,-z
x,-y,z
1/2+x,1/2+y,z
1/2-x,1/2+y,-z
1/2-x,1/2-y,-z
1/2+x,1/2-y,z
loop_
_atom_site_type_symbol
_atom_site_label
_atom_site_fract_x
_atom_site_fract_y
_atom_site_fract_z
Si Si1 0.173664 0.283808 0.841437
Si Si2 0.863440 0.218399 0.568118
Si Si3 0.568441 0.718399 0.568119
Si Si4 0.287343 0.717128 0.925316
Si Si5 0.501968 0.720437 0.294767
Si Si6 0.703266 0.720437 0.294768
Si Si7 0.015101 0.216192 0.158561
O O1 0.187601 0.500000 0.836949
O O2 0.222619 0.213461 0.888416
O O3 0.220215 0.213630 0.769278
O O4 0.067256 0.250001 0.865489
O O5 0.864268 0.287236 0.499999
O O6 0.797283 0.285180 0.636585
O O7 0.965645 0.251051 0.568709
O O8 0.853421 0.000000 0.567524
O O9 0.579054 0.500000 0.567525
O O10 0.566130 0.785180 0.636586
O O11 0.290846 0.500000 0.918309
O O12 0.388966 0.786539 0.888418
O O13 0.250000 0.750000 0.000000
O O14 0.496578 0.500000 0.296203
O O15 0.605161 0.764892 0.289681
O O16 0.489495 0.786370 0.230720
O O17 0.707221 0.500000 0.296204
O O18 0.024549 0.000000 0.163050
#
# Coordination Sequence:
#
# PCOD9195661 Si02
#       7
#     8   8   8   8   8   8   8
#     4  10  20  35  55  79 105 136 171 207 249 299
#     4   7   9  13  26  54  88 119 156 203 248 285
#     4   7   9  13  26  54  88 119 156 203 248 285
#     4  10  22  40  60  80 105 135 167 203 250 304
#     4   8  12  22  42  64  91 129 168 205 246 292
#     4   8  12  22  42  64  91 129 168 205 246 292
#     4  10  20  35  55  79 105 136 171 207 249 299
#
# _framework density 22.997754
#
# number of rings (size 3 to 8) (size 9 to 14) (size 15 to 20)
#    0.000    3.429    1.429    2.571    0.000    1.714 
#    0.000    2.857    0.000    0.857    0.000    0.000 
#    0.000    0.000    0.000    7.143    0.000    6.286 
#
# Total GULP energy -156182.161118 kJ/mol
# GULP energy per Si atom -5577.934326 kJ/mol
# Density = 2.294541 g / cm^3
# Si number density = 22.997754 Si / 1000 Ang^3
#
#
#
# Elastic Constant Matrix: (Units=GPa)
#
#
# Indices 1 2 3 4 5 6 
#
# 1 112.9129 -0.7141 91.7742 0.0000 0.4104 0.0000
# 2 -0.7141 82.9285 10.7536 0.0000 -0.0919 0.0000
# 3 91.7742 10.7536 224.8812 0.0000 -1.3123 0.0000
# 4 0.0000 0.0000 0.0000 -7.1170 0.0000 0.0442
# 5 0.4104 -0.0919 -1.3123 0.0000 -15.4764 0.0000
# 6 0.0000 0.0000 0.0000 0.0442 0.0000 -1.5539
#
#
#
# Elastic Compliance Matrix: (Units=1/GPa)
#
#
# Indices 1 2 3 4 5 6 
#
# 1 0.013298 0.000824 -0.005461 0.000000 0.000811 0.000000
# 2 0.000824 0.012185 -0.000919 0.000000 0.000027 0.000000
# 3 -0.005461 -0.000919 0.006715 0.000000 -0.000709 0.000000
# 4 0.000000 0.000000 0.000000 -0.140533 0.000000 -0.003994
# 5 0.000811 0.000027 -0.000709 0.000000 -0.064533 -0.000001
# 6 0.000000 0.000000 0.000000 -0.003994 -0.000001 -0.643642
#
#
# Mechanical properties :
#
#
# Convention : Reuss Voigt Hill
#
# Bulk Modulus (GPa) = 47.42719 69.37223 58.39971
# Shear Modulus (GPa) = -6.26277 16.43112 5.08418
#
# Velocity S-wave (km/s) = -1.65201 2.67585 1.48846
# Velocity P-wave (km/s) = 4.12656 6.30691 5.32943
#
# Compressibility (1/GPa) = 0.02108495
#
# Stress axis : x y z
#
# Youngs Moduli (GPa) = 75.20144 82.06936 148.91160
#
# Poissons Ratio (x) = -0.06759 0.81327
# Poissons Ratio (y) = -0.06194 0.13679
# Poissons Ratio (z) = 0.41071 0.07539
#
# Static dielectric constant tensor:
#      x y z
#    x 1.830060 0.000000 -0.000450 
#    y 0.000000 3.674250 0.000000 
#    z -0.000450 0.000000 1.886390 
# 
# From -- ./inp_files/309448.got.cif
#   From: 2010.05.17/outbox.cif.g08.bks.cpg/sg12_155_cif.got.tgz:309448.got - 2010.06.03 13:09:07.
