data_PCOD9195328
_publ_section_title
;
Structure prediction by ZEFSAII (Michael W. Deem and Ramdas Pophale) SiO2 
 PCOD9195328
Probable space group: C 2/M
;
_chemical_formula_sum "Si O2"
_cell_formula_units_Z 48
_cell_length_a 28.559582
_cell_length_b 7.467626
_cell_length_c 21.036905
_cell_angle_alpha 90.000000
_cell_angle_beta 151.398128
_cell_angle_gamma 90.000000
_cell_volume 2147.822149
_symmetry_space_group_name_H-M "C 2/M"
_symmetry_group_IT_number 12
_symmetry_cell_setting 'monoclinic'
loop_
_space_group_symop_operation_xyz
x,y,z
-x,y,-z
-x,-y,-z
x,-y,z
1/2+x,1/2+y,z
1/2-x,1/2+y,-z
1/2-x,1/2-y,-z
1/2+x,1/2-y,z
loop_
_atom_site_type_symbol
_atom_site_label
_atom_site_fract_x
_atom_site_fract_y
_atom_site_fract_z
Si Si1 0.218545 0.281315 0.146817
Si Si2 0.745514 0.285146 0.570038
Si Si3 0.463001 0.293624 0.629818
Si Si4 0.573730 0.297628 0.644754
Si Si5 0.654183 0.786781 0.930841
Si Si6 0.388467 0.781131 0.852421
O O1 0.217615 0.500000 0.149178
O O2 0.328419 0.216815 0.266219
O O3 0.173478 0.223190 0.159652
O O4 0.167960 0.230321 0.020312
O O5 0.745958 0.500000 0.576199
O O6 0.750000 0.250000 0.500000
O O7 0.639797 0.217961 0.469141
O O8 0.833683 0.222562 0.721875
O O9 0.440116 0.500000 0.584165
O O10 0.515520 0.206383 0.631945
O O11 0.551829 0.292478 0.785268
O O12 0.500000 0.315591 0.500000
O O13 0.602496 0.500000 0.702216
O O14 0.643491 0.000000 0.917025
O O15 0.750000 0.750000 0.000000
O O16 0.389986 0.000000 0.852217
O O17 0.500000 0.724924 0.000000
#
# Coordination Sequence:
#
# PCOD9195328 Si02
#       6
#     8   8   8   8   8   8
#     4   9  17  29  48  77 106 136 180 230 276 323
#     4  10  22  38  59  85 115 149 189 239 292 344
#     4  10  20  35  53  80 113 145 185 232 282 337
#     4   9  15  26  48  74 101 133 174 226 279 326
#     4  11  21  34  55  84 116 149 185 227 280 340
#     4   9  18  33  54  82 112 142 188 245 288 325
#
# _framework density 22.348220000000001
#
# number of rings (size 3 to 8) (size 9 to 14) (size 15 to 20)
#    0.000    2.333    1.667    1.500    2.333    4.667 
#    0.000    0.000    0.000    3.000    0.000    0.000 
#    0.000    0.000    0.000    0.000    0.000    0.000 
#
# Total GULP energy -133822.488628 kJ/mol
# GULP energy per Si atom -5575.937026 kJ/mol
# Density = 2.229735 g / cm^3
# Si number density = 22.348220 Si / 1000 Ang^3
#
#
#
# Elastic Constant Matrix: (Units=GPa)
#
#
# Indices 1 2 3 4 5 6 
#
# 1 196.3406 3.9852 112.5957 0.0000 2.9936 0.0000
# 2 3.9852 69.9055 1.9348 0.0000 2.2829 0.0000
# 3 112.5957 1.9348 187.2993 0.0000 1.2906 0.0000
# 4 0.0000 0.0000 0.0000 14.5205 0.0000 -5.1550
# 5 2.9936 2.2829 1.2906 0.0000 42.8092 0.0000
# 6 0.0000 0.0000 0.0000 -5.1550 0.0000 14.0448
#
#
#
# Elastic Compliance Matrix: (Units=1/GPa)
#
#
# Indices 1 2 3 4 5 6 
#
# 1 0.007786 -0.000302 -0.004675 0.000000 -0.000387 0.000000
# 2 -0.000302 0.014346 0.000038 0.000000 -0.000745 0.000000
# 3 -0.004675 0.000038 0.008148 0.000000 0.000079 0.000000
# 4 0.000000 0.000000 0.000000 0.079186 0.000000 0.029065
# 5 -0.000387 -0.000745 0.000079 0.000000 0.023424 0.000000
# 6 0.000000 0.000000 0.000000 0.029065 0.000000 0.081869
#
#
# Mechanical properties :
#
#
# Convention : Reuss Voigt Hill
#
# Bulk Modulus (GPa) = 49.01136 76.73076 62.87106
# Shear Modulus (GPa) = 21.60417 36.61022 29.10719
#
# Velocity S-wave (km/s) = 3.11256 4.05182 3.61285
# Velocity P-wave (km/s) = 5.90726 7.50323 6.75256
#
# Compressibility (1/GPa) = 0.02040343
#
# Stress axis : x y z
#
# Youngs Moduli (GPa) = 128.43354 69.70824 122.72314
#
# Poissons Ratio (x) = 0.02104 0.57372
# Poissons Ratio (y) = 0.03877 -0.00471
# Poissons Ratio (z) = 0.60041 -0.00268
#
# Static dielectric constant tensor:
#      x y z
#    x 1.833020 0.000000 -0.025740 
#    y 0.000000 1.957960 0.000000 
#    z -0.025740 0.000000 1.888620 
# 
# From -- ./inp_files/327358.got.cif
#   From: 2010.05.17/outbox.cif.g08.bks.cpg/sg12_164_cif.got.tgz:327358.got - 2010.06.03 13:09:07.
