data_PCOD9195689
_publ_section_title
;
Structure prediction by ZEFSAII (Michael W. Deem and Ramdas Pophale) SiO2 
 PCOD9195689
Probable space group: C 2/M
;
_chemical_formula_sum "Si O2"
_cell_formula_units_Z 56
_cell_length_a 16.355743
_cell_length_b 8.752713
_cell_length_c 19.905761
_cell_angle_alpha 90.000000
_cell_angle_beta 89.925251
_cell_angle_gamma 90.000000
_cell_volume 2849.649078
_symmetry_space_group_name_H-M "C 2/M"
_symmetry_group_IT_number 12
_symmetry_cell_setting 'monoclinic'
loop_
_space_group_symop_operation_xyz
x,y,z
-x,y,-z
-x,-y,-z
x,-y,z
1/2+x,1/2+y,z
1/2-x,1/2+y,-z
1/2-x,1/2-y,-z
1/2+x,1/2-y,z
loop_
_atom_site_type_symbol
_atom_site_label
_atom_site_fract_x
_atom_site_fract_y
_atom_site_fract_z
Si Si1 0.997866 0.313735 0.422332
Si Si2 0.084943 0.318927 0.789127
Si Si3 0.090503 0.819107 0.213854
Si Si4 0.154914 0.819665 0.922837
Si Si5 0.339244 0.182190 0.656501
Si Si6 0.167768 0.683326 0.652967
Si Si7 0.834835 0.183150 0.928736
O O1 0.998054 0.500000 0.419698
O O2 0.080208 0.263117 0.384040
O O3 0.000000 0.267691 0.500000
O O4 0.913330 0.265413 0.387037
O O5 0.070248 0.500000 0.785432
O O6 0.113647 0.271642 0.862834
O O7 0.150697 0.280778 0.731474
O O8 0.001367 0.233433 0.772485
O O9 0.148311 0.736160 0.266950
O O10 0.111884 0.782395 0.136609
O O11 0.099598 0.000000 0.222616
O O12 0.250578 0.775493 0.923314
O O13 0.143663 0.000000 0.911000
O O14 0.125454 0.783760 0.998759
O O15 0.253151 0.245342 0.630444
O O16 0.337896 0.000000 0.653661
O O17 0.173631 0.500000 0.646646
O O18 0.816546 0.000000 0.928497
#
# Coordination Sequence:
#
# PCOD9195689 Si02
#       7
#     8   8   8   8   8   8   8
#     4   9  19  39  64  88 121 162 197 234 290 354
#     4  11  22  37  56  81 115 152 194 243 295 351
#     4  11  22  37  58  82 112 152 195 243 296 349
#     4  10  20  35  55  79 108 146 193 243 293 350
#     4  11  22  38  61  92 122 155 199 246 291 346
#     4  10  21  39  61  87 120 160 198 239 294 351
#     4   9  20  37  54  76 109 148 191 241 297 353
#
# _framework density 19.651543
#
# number of rings (size 3 to 8) (size 9 to 14) (size 15 to 20)
#    0.000    1.857    1.429    2.571    0.000    7.429 
#    0.000    2.857    0.000    3.000    0.000    0.000 
#    0.000    0.000    0.000    0.000    0.000    0.000 
#
# Total GULP energy -156362.674961 kJ/mol
# GULP energy per Si atom -5584.381249 kJ/mol
# Density = 1.960682 g / cm^3
# Si number density = 19.651543 Si / 1000 Ang^3
#
#
#
# Elastic Constant Matrix: (Units=GPa)
#
#
# Indices 1 2 3 4 5 6 
#
# 1 128.4246 26.1640 53.5691 0.0000 3.1595 0.0000
# 2 26.1640 22.2120 26.3874 0.0000 -3.5635 0.0000
# 3 53.5691 26.3874 111.9244 0.0000 2.2577 0.0000
# 4 0.0000 0.0000 0.0000 12.3180 0.0000 1.8853
# 5 3.1595 -3.5635 2.2577 0.0000 18.3997 0.0000
# 6 0.0000 0.0000 0.0000 1.8853 0.0000 34.0106
#
#
#
# Elastic Compliance Matrix: (Units=1/GPa)
#
#
# Indices 1 2 3 4 5 6 
#
# 1 0.011167 -0.010368 -0.002828 0.000000 -0.003578 0.000000
# 2 -0.010368 0.075953 -0.013310 0.000000 0.018123 0.000000
# 3 -0.002828 -0.013310 0.013502 0.000000 -0.003749 0.000000
# 4 0.000000 0.000000 0.000000 0.081877 0.000000 -0.004539
# 5 -0.003578 0.018123 -0.003749 0.000000 0.058933 0.000000
# 6 0.000000 0.000000 0.000000 -0.004539 0.000000 0.029654
#
#
# Mechanical properties :
#
#
# Convention : Reuss Voigt Hill
#
# Bulk Modulus (GPa) = 21.00427 52.75579 36.88003
# Shear Modulus (GPa) = 14.70732 23.37502 19.04117
#
# Velocity S-wave (km/s) = 2.73867 3.45262 3.11616
# Velocity P-wave (km/s) = 4.55104 6.54202 5.63516
#
# Compressibility (1/GPa) = 0.04760938
#
# Stress axis : x y z
#
# Youngs Moduli (GPa) = 89.55299 13.16607 74.06436
#
# Poissons Ratio (x) = 0.13650 0.20946
# Poissons Ratio (y) = 0.92847 0.98580
# Poissons Ratio (z) = 0.25326 0.17524
#
# Static dielectric constant tensor:
#      x y z
#    x 1.682450 0.000000 -0.001870 
#    y 0.000000 1.665020 0.000000 
#    z -0.001870 0.000000 1.701780 
# 
# From -- ./inp_files/308976.got.cif
#   From: 2010.05.17/outbox.cif.g08.bks.cpg/sg12_155_cif.got.tgz:308976.got - 2010.06.03 13:09:07.
