data_PCOD9195733
_publ_section_title
;
Structure prediction by ZEFSAII (Michael W. Deem and Ramdas Pophale) SiO2 
 PCOD9195733
Probable space group: C 2/M
;
_chemical_formula_sum "Si O2"
_cell_formula_units_Z 64
_cell_length_a 27.497612
_cell_length_b 16.701452
_cell_length_c 20.067246
_cell_angle_alpha 90.000000
_cell_angle_beta 22.249130
_cell_angle_gamma 90.000000
_cell_volume 3489.452090
_symmetry_space_group_name_H-M "C 2/M"
_symmetry_group_IT_number 12
_symmetry_cell_setting 'monoclinic'
loop_
_space_group_symop_operation_xyz
x,y,z
-x,y,-z
-x,-y,-z
x,-y,z
1/2+x,1/2+y,z
1/2-x,1/2+y,-z
1/2-x,1/2-y,-z
1/2+x,1/2-y,z
loop_
_atom_site_type_symbol
_atom_site_label
_atom_site_fract_x
_atom_site_fract_y
_atom_site_fract_z
Si Si1 0.591265 0.223775 0.939265
Si Si2 0.191534 0.314408 0.391139
Si Si3 0.500627 0.094242 0.146026
Si Si4 0.739656 0.402383 0.555768
Si Si5 0.895408 0.702416 0.739313
Si Si6 0.162739 0.305707 0.042257
Si Si7 0.037256 0.164268 0.134000
Si Si8 0.216601 0.589767 0.225595
O O1 0.728629 0.235602 0.731641
O O2 0.500000 0.260973 0.000000
O O3 0.539911 0.138258 0.028009
O O4 0.572300 0.276224 0.028854
O O5 0.227432 0.354193 0.417047
O O6 0.224918 0.378267 0.290513
O O7 0.043594 0.292036 0.569413
O O8 0.357697 0.113464 0.355049
O O9 0.598344 0.128351 0.077633
O O10 0.510640 0.000000 0.127110
O O11 0.732478 0.500000 0.575768
O O12 0.606063 0.368840 0.694198
O O13 0.834899 0.667811 0.884372
O O14 0.873794 0.645982 0.703844
O O15 0.805962 0.779736 0.839103
O O16 0.074496 0.224094 0.147445
O O17 0.144652 0.096641 0.986953
O O18 0.169963 0.500000 0.284714
#
# Coordination Sequence:
#
# PCOD9195733 Si02
#       8
#     8   8   8   8   8   8   8   8
#     4  10  20  36  56  80 111 148 188 225 279 338
#     4  11  21  35  55  85 114 148 190 230 275 335
#     4  10  22  37  55  83 113 145 183 236 292 335
#     4  11  21  34  57  88 120 150 184 231 284 340
#     4  10  20  35  55  80 105 146 193 237 273 323
#     4   9  19  37  58  77 107 143 191 237 279 329
#     4   9  19  35  54  80 110 148 188 226 275 334
#     4  10  21  33  49  76 116 154 180 222 279 337
#
# _framework density 18.340987999999999
#
# number of rings (size 3 to 8) (size 9 to 14) (size 15 to 20)
#    0.000    2.000    2.500    1.875    0.000    5.250 
#    0.000    1.875    0.000    1.500    0.000    0.000 
#    0.000    0.000    0.000    0.000    0.000    0.000 
#
# Total GULP energy -178164.918887 kJ/mol
# GULP energy per Si atom -5567.653715 kJ/mol
# Density = 1.829924 g / cm^3
# Si number density = 18.340988 Si / 1000 Ang^3
#
#
#
# Elastic Constant Matrix: (Units=GPa)
#
#
# Indices 1 2 3 4 5 6 
#
# 1 63.7616 3.6873 22.6164 0.0000 -5.0963 0.0000
# 2 3.6873 53.0240 49.1622 0.0000 5.1309 0.0000
# 3 22.6164 49.1622 108.5641 0.0000 -23.0005 0.0000
# 4 0.0000 0.0000 0.0000 -18.5614 0.0000 3.7428
# 5 -5.0963 5.1309 -23.0005 0.0000 33.4776 0.0000
# 6 0.0000 0.0000 0.0000 3.7428 0.0000 10.5024
#
#
#
# Elastic Compliance Matrix: (Units=1/GPa)
#
#
# Indices 1 2 3 4 5 6 
#
# 1 0.017477 0.005004 -0.006444 0.000000 -0.002534 0.000000
# 2 0.005004 0.046252 -0.027302 0.000000 -0.025084 0.000000
# 3 -0.006444 -0.027302 0.027615 0.000000 0.022176 0.000000
# 4 0.000000 0.000000 0.000000 -0.050263 0.000000 0.017912
# 5 -0.002534 -0.025084 0.022176 0.000000 0.048566 0.000000
# 6 0.000000 0.000000 0.000000 0.017912 0.000000 0.088833
#
#
# Mechanical properties :
#
#
# Convention : Reuss Voigt Hill
#
# Bulk Modulus (GPa) = 29.53177 41.80907 35.67042
# Shear Modulus (GPa) = 20.22258 15.07597 17.64928
#
# Velocity S-wave (km/s) = 3.32413 2.87013 3.10544
# Velocity P-wave (km/s) = 5.55604 5.81623 5.68762
#
# Compressibility (1/GPa) = 0.03386184
#
# Stress axis : x y z
#
# Youngs Moduli (GPa) = 57.21753 21.62074 36.21209
#
# Poissons Ratio (x) = -0.10820 0.23334
# Poissons Ratio (y) = -0.28633 0.98865
# Poissons Ratio (z) = 0.36870 0.59028
#
# Static dielectric constant tensor:
#      x y z
#    x 1.682210 0.000000 0.011490 
#    y 0.000000 1.638610 0.000000 
#    z 0.011490 0.000000 1.716660 
# 
# From -- ./inp_files/330497.got.cif
#   From: 2010.05.17/outbox.cif.g08.bks.cpg/sg12_166_cif.got.tgz:330497.got - 2010.06.03 13:09:07.
