data_PCOD9195422
_publ_section_title
;
Structure prediction by ZEFSAII (Michael W. Deem and Ramdas Pophale) SiO2 
 PCOD9195422
Probable space group: C 2/M
;
_chemical_formula_sum "Si O2"
_cell_formula_units_Z 56
_cell_length_a 15.479616
_cell_length_b 7.572859
_cell_length_c 24.689949
_cell_angle_alpha 90.000000
_cell_angle_beta 64.474868
_cell_angle_gamma 90.000000
_cell_volume 2611.785950
_symmetry_space_group_name_H-M "C 2/M"
_symmetry_group_IT_number 12
_symmetry_cell_setting 'monoclinic'
loop_
_space_group_symop_operation_xyz
x,y,z
-x,y,-z
-x,-y,-z
x,-y,z
1/2+x,1/2+y,z
1/2-x,1/2+y,-z
1/2-x,1/2-y,-z
1/2+x,1/2-y,z
loop_
_atom_site_type_symbol
_atom_site_label
_atom_site_fract_x
_atom_site_fract_y
_atom_site_fract_z
Si Si1 0.901796 0.708261 0.498041
Si Si2 0.661938 0.712489 0.807918
Si Si3 0.308228 0.214639 0.410486
Si Si4 0.007736 0.786268 0.935507
Si Si5 0.564544 0.795215 0.722526
Si Si6 0.645238 0.782529 0.196972
Si Si7 0.685772 0.195471 0.068044
O O1 0.919482 0.500000 0.485378
O O2 0.803173 0.729123 0.558617
O O3 0.866641 0.776829 0.448371
O O4 0.000000 0.778214 0.500000
O O5 0.657027 0.500000 0.805350
O O6 0.604664 0.760692 0.878102
O O7 0.612073 0.786586 0.768533
O O8 0.771663 0.764706 0.784076
O O9 0.365257 0.278079 0.342215
O O10 0.305945 0.000000 0.412539
O O11 0.921503 0.702778 0.925423
O O12 0.996823 0.000000 0.936791
O O13 0.000000 0.732074 0.000000
O O14 0.458694 0.717218 0.757672
O O15 0.550919 0.000000 0.711014
O O16 0.677931 0.715680 0.128769
O O17 0.640035 0.000000 0.195101
O O18 0.722045 0.000000 0.070478
O O19 0.750000 0.250000 0.000000
#
# Coordination Sequence:
#
# PCOD9195422 Si02
#       7
#     8   8   8   8   8   8   8
#     4   9  18  34  57  85 113 143 184 227 262 311
#     4  10  20  35  56  79 104 139 183 226 273 325
#     4   9  19  34  54  81 113 149 181 221 274 319
#     4  10  20  35  54  77 107 138 176 229 283 333
#     4  10  20  37  56  77 111 148 184 223 270 327
#     4   9  19  36  56  76 104 143 179 220 275 331
#     4  11  21  35  55  78 105 138 179 225 282 341
#
# _framework density 21.441265999999999
#
# number of rings (size 3 to 8) (size 9 to 14) (size 15 to 20)
#    0.000    2.286    1.429    1.286    0.000    4.571 
#    0.000    6.429    0.000    0.000    0.000    0.000 
#    0.000    0.000    0.000    0.000    0.000    0.000 
#
# Total GULP energy -156183.082812 kJ/mol
# GULP energy per Si atom -5577.967243 kJ/mol
# Density = 2.139246 g / cm^3
# Si number density = 21.441266 Si / 1000 Ang^3
#
#
#
# Elastic Constant Matrix: (Units=GPa)
#
#
# Indices 1 2 3 4 5 6 
#
# 1 147.0551 -4.6050 52.5677 0.0001 -26.8963 0.0002
# 2 -4.6050 38.8746 0.2838 0.0001 -1.7864 0.0004
# 3 52.5677 0.2838 139.8604 0.0000 -26.2810 0.0000
# 4 0.0001 0.0001 0.0000 13.1157 0.0000 -1.8822
# 5 -26.8963 -1.7864 -26.2810 0.0000 23.5827 0.0001
# 6 0.0002 0.0004 0.0000 -1.8822 0.0001 -14.6406
#
#
#
# Elastic Compliance Matrix: (Units=1/GPa)
#
#
# Indices 1 2 3 4 5 6 
#
# 1 0.009030 0.001468 -0.001823 0.000000 0.008379 0.000000
# 2 0.001468 0.026070 0.000102 0.000000 0.003763 0.000001
# 3 -0.001823 0.000102 0.009418 0.000000 0.008425 0.000000
# 4 0.000000 0.000000 0.000000 0.074864 0.000000 -0.009625
# 5 0.008379 0.003763 0.008425 0.000000 0.061634 0.000001
# 6 0.000000 0.000001 0.000000 -0.009625 0.000001 -0.067066
#
#
# Mechanical properties :
#
#
# Convention : Reuss Voigt Hill
#
# Bulk Modulus (GPa) = 22.72008 46.92032 34.82020
# Shear Modulus (GPa) = 38.72220 22.91446 30.81833
#
# Velocity S-wave (km/s) = 4.25428 3.27266 3.79534
# Velocity P-wave (km/s) = 5.89502 6.01756 5.95661
#
# Compressibility (1/GPa) = 0.04401394
#
# Stress axis : x y z
#
# Youngs Moduli (GPa) = 110.73956 38.35848 106.18145
#
# Poissons Ratio (x) = -0.05631 0.19352
# Poissons Ratio (y) = -0.16257 -0.01088
# Poissons Ratio (z) = 0.20183 -0.00393
#
# Static dielectric constant tensor:
#      x y z
#    x 1.747840 0.000000 -0.010430 
#    y 0.000000 1.840800 0.000000 
#    z -0.010430 0.000000 1.791310 
# 
# From -- ./inp_files/337882.got.cif
#   From: 2010.05.17/outbox.cif.g08.bks.cpg/sg12_169_cif.got.tgz:337882.got - 2010.06.03 13:09:07.
