data_PCOD9195406
_publ_section_title
;
Structure prediction by ZEFSAII (Michael W. Deem and Ramdas Pophale) SiO2 
 PCOD9195406
Probable space group: C 2/M
;
_chemical_formula_sum "Si O2"
_cell_formula_units_Z 58
_cell_length_a 25.446454
_cell_length_b 7.719150
_cell_length_c 29.367604
_cell_angle_alpha 90.000000
_cell_angle_beta 30.413543
_cell_angle_gamma 90.000000
_cell_volume 2920.247661
_symmetry_space_group_name_H-M "C 2/M"
_symmetry_group_IT_number 12
_symmetry_cell_setting 'monoclinic'
loop_
_space_group_symop_operation_xyz
x,y,z
-x,y,-z
-x,-y,-z
x,-y,z
1/2+x,1/2+y,z
1/2-x,1/2+y,-z
1/2-x,1/2-y,-z
1/2+x,1/2-y,z
loop_
_atom_site_type_symbol
_atom_site_label
_atom_site_fract_x
_atom_site_fract_y
_atom_site_fract_z
Si Si1 0.930683 0.209650 0.118918
Si Si2 0.119213 0.202669 0.248238
Si Si3 0.752100 0.296737 0.422542
Si Si4 0.260706 0.795981 0.314761
Si Si5 0.923842 0.790869 0.613910
Si Si6 0.900005 0.700113 0.390809
Si Si7 0.000000 0.500000 0.500000
Si Si8 0.850911 0.207828 0.080429
O O1 0.871079 0.271667 0.207927
O O2 0.870711 0.269309 0.117695
O O3 0.928268 0.000000 0.121186
O O4 0.049961 0.266031 0.023127
O O5 0.104843 0.242485 0.312504
O O6 0.237460 0.245005 0.147798
O O7 0.023210 0.288675 0.294325
O O8 0.103783 0.000000 0.253943
O O9 0.777190 0.500000 0.398301
O O10 0.754969 0.220870 0.369766
O O11 0.836956 0.224971 0.394909
O O12 0.642762 0.284905 0.530792
O O13 0.174730 0.730945 0.343298
O O14 0.238336 0.000000 0.334600
O O15 0.008785 0.656577 0.532597
O O16 0.945068 0.000000 0.592796
O O17 0.869984 0.500000 0.417396
O O18 0.856377 0.000000 0.078180
#
# Coordination Sequence:
#
# PCOD9195406 Si02
#       8
#     8   8   8   8   8   8   2   8
#     4   9  18  32  53  80 109 139 177 222 267 326
#     4  11  22  35  53  78 113 144 177 226 272 322
#     4   9  20  38  56  77 104 139 181 229 274 318
#     4  10  20  35  54  76 111 143 174 225 277 326
#     4  10  24  38  51  82 114 145 188 229 275 333
#     4  10  21  36  57  79 101 138 189 229 268 323
#     4  12  26  36  56  70 114 164 186 220 276 340
#     4   9  18  33  53  78 109 142 178 221 266 323
#
# _framework density 19.861329000000001
#
# number of rings (size 3 to 8) (size 9 to 14) (size 15 to 20)
#    0.000    2.207    1.379    1.862    4.828    1.655 
#    0.000    1.379    0.000    0.828    0.000    0.000 
#    0.000    0.000    0.000    0.000    0.000    0.000 
#
# Total GULP energy -161534.720248 kJ/mol
# GULP energy per Si atom -5570.162767 kJ/mol
# Density = 1.981612 g / cm^3
# Si number density = 19.861329 Si / 1000 Ang^3
#
#
#
# Elastic Constant Matrix: (Units=GPa)
#
#
# Indices 1 2 3 4 5 6 
#
# 1 75.1597 5.4641 42.5234 0.0008 -7.6038 -0.0009
# 2 5.4641 39.6086 -12.4569 -0.0022 0.2915 -0.0035
# 3 42.5234 -12.4569 93.9656 0.0001 -17.5429 -0.0030
# 4 0.0008 -0.0022 0.0001 30.3989 0.0002 3.1502
# 5 -7.6038 0.2915 -17.5429 0.0002 30.1930 0.0045
# 6 -0.0009 -0.0035 -0.0030 3.1502 0.0045 11.2502
#
#
#
# Elastic Compliance Matrix: (Units=1/GPa)
#
#
# Indices 1 2 3 4 5 6 
#
# 1 0.018998 -0.005592 -0.009462 -0.000001 -0.000659 -0.000002
# 2 -0.005592 0.028098 0.006665 0.000001 0.002193 0.000009
# 3 -0.009462 0.006665 0.017218 0.000000 0.007557 0.000003
# 4 -0.000001 0.000001 0.000000 0.033879 0.000001 -0.009487
# 5 -0.000659 0.002193 0.007557 0.000001 0.037324 -0.000013
# 6 -0.000002 0.000009 0.000003 -0.009487 -0.000013 0.091544
#
#
# Mechanical properties :
#
#
# Convention : Reuss Voigt Hill
#
# Bulk Modulus (GPa) = 21.03592 31.08836 26.06214
# Shear Modulus (GPa) = 19.25409 25.91529 22.58469
#
# Velocity S-wave (km/s) = 3.11694 3.61614 3.37578
# Velocity P-wave (km/s) = 4.85470 5.75517 5.32401
#
# Compressibility (1/GPa) = 0.04753775
#
# Stress axis : x y z
#
# Youngs Moduli (GPa) = 52.63700 35.58921 58.07715
#
# Poissons Ratio (x) = 0.19900 0.54951
# Poissons Ratio (y) = 0.29433 -0.38708
# Poissons Ratio (z) = 0.49804 -0.23720
#
# Static dielectric constant tensor:
#      x y z
#    x 1.747180 0.000000 -0.030100 
#    y 0.000000 1.750050 0.000000 
#    z -0.030100 0.000000 1.742650 
# 
# From -- ./inp_files/382028.got.cif
#   From: 2010.05.17/outbox.cif.g08.bks.cpg/sg12_192_cif.got.tgz:382028.got - 2010.06.03 13:09:07.
