data_PCOD9195449
_publ_section_title
;
Structure prediction by ZEFSAII (Michael W. Deem and Ramdas Pophale) SiO2 
 PCOD9195449
Probable space group: C 2/M
;
_chemical_formula_sum "Si O2"
_cell_formula_units_Z 56
_cell_length_a 14.937249
_cell_length_b 8.286651
_cell_length_c 25.296101
_cell_angle_alpha 90.000000
_cell_angle_beta 115.838222
_cell_angle_gamma 90.000000
_cell_volume 2818.119380
_symmetry_space_group_name_H-M "C 2/M"
_symmetry_group_IT_number 12
_symmetry_cell_setting 'monoclinic'
loop_
_space_group_symop_operation_xyz
x,y,z
-x,y,-z
-x,-y,-z
x,-y,z
1/2+x,1/2+y,z
1/2-x,1/2+y,-z
1/2-x,1/2-y,-z
1/2+x,1/2-y,z
loop_
_atom_site_type_symbol
_atom_site_label
_atom_site_fract_x
_atom_site_fract_y
_atom_site_fract_z
Si Si1 0.278284 0.319486 0.063925
Si Si2 0.685675 0.192621 0.409986
Si Si3 0.431434 0.306705 0.722635
Si Si4 0.089103 0.814132 0.064083
Si Si5 0.640427 0.806540 0.182445
Si Si6 0.896379 0.305788 0.498389
Si Si7 0.853397 0.197121 0.189411
O O1 0.314277 0.500000 0.063212
O O2 0.173605 0.310016 0.067861
O O3 0.348914 0.242845 0.127106
O O4 0.250000 0.250000 0.000000
O O5 0.626575 0.239441 0.342475
O O6 0.797786 0.260462 0.440228
O O7 0.627871 0.251633 0.448037
O O8 0.692817 0.000000 0.415275
O O9 0.430175 0.500000 0.719427
O O10 0.382776 0.252387 0.765113
O O11 0.546513 0.251989 0.755794
O O12 0.068692 0.772912 0.119744
O O13 0.125136 0.000000 0.069808
O O14 0.000000 0.798714 0.000000
O O15 0.752634 0.757194 0.193948
O O16 0.632570 0.000000 0.177940
O O17 0.903055 0.500000 0.501934
O O18 0.000000 0.245171 0.500000
O O19 0.853175 0.000000 0.186301
#
# Coordination Sequence:
#
# PCOD9195449 Si02
#       7
#     8   8   8   8   8   8   8
#     4  10  20  35  54  78 106 139 182 236 294 352
#     4  10  21  37  57  88 123 153 193 240 281 334
#     4  11  22  38  60  83 113 157 196 233 288 348
#     4  10  21  36  54  77 106 142 183 231 290 357
#     4  10  21  39  58  81 111 144 188 243 295 349
#     4   9  19  38  63  89 121 158 195 236 282 331
#     4   8  19  38  56  75 108 147 184 231 288 349
#
# _framework density 19.871407999999999
#
# number of rings (size 3 to 8) (size 9 to 14) (size 15 to 20)
#    0.000    2.286    0.000    3.000    2.000    3.143 
#    0.000   10.714    0.000    0.000    0.000    0.000 
#    0.000    0.000    0.000    0.000    0.000    0.000 
#
# Total GULP energy -156167.933750 kJ/mol
# GULP energy per Si atom -5577.426205 kJ/mol
# Density = 1.982618 g / cm^3
# Si number density = 19.871408 Si / 1000 Ang^3
#
#
#
# Elastic Constant Matrix: (Units=GPa)
#
#
# Indices 1 2 3 4 5 6 
#
# 1 102.5246 6.8510 50.7731 0.0000 8.8309 0.0000
# 2 6.8510 12.4146 0.0615 0.0000 1.7113 0.0000
# 3 50.7731 0.0615 149.2601 0.0000 10.9520 0.0000
# 4 0.0000 0.0000 0.0000 23.5609 0.0000 -1.3739
# 5 8.8309 1.7113 10.9520 0.0000 21.3003 0.0000
# 6 0.0000 0.0000 0.0000 -1.3739 0.0000 20.1077
#
#
#
# Elastic Compliance Matrix: (Units=1/GPa)
#
#
# Indices 1 2 3 4 5 6 
#
# 1 0.012401 -0.006472 -0.004029 0.000000 -0.002550 0.000000
# 2 -0.006472 0.084861 0.002567 0.000000 -0.005455 0.000000
# 3 -0.004029 0.002567 0.008274 0.000000 -0.002790 0.000000
# 4 0.000000 0.000000 0.000000 0.042613 0.000000 0.002912
# 5 -0.002550 -0.005455 -0.002790 0.000000 0.049878 0.000000
# 6 0.000000 0.000000 0.000000 0.002912 0.000000 0.049931
#
#
# Mechanical properties :
#
#
# Convention : Reuss Voigt Hill
#
# Bulk Modulus (GPa) = 11.15221 42.17451 26.66336
# Shear Modulus (GPa) = 17.02332 26.76136 21.89234
#
# Velocity S-wave (km/s) = 2.93007 3.67376 3.32279
# Velocity P-wave (km/s) = 4.13177 6.26619 5.30738
#
# Compressibility (1/GPa) = 0.08966836
#
# Stress axis : x y z
#
# Youngs Moduli (GPa) = 80.63893 11.78394 120.86381
#
# Poissons Ratio (x) = 0.07627 0.48691
# Poissons Ratio (y) = 0.52189 -0.31023
# Poissons Ratio (z) = 0.32486 -0.03025
#
# Static dielectric constant tensor:
#      x y z
#    x 1.716460 0.000000 -0.008900 
#    y 0.000000 1.705490 0.000000 
#    z -0.008900 0.000000 1.708420 
# 
# From -- ./inp_files/339087.got.cif
#   From: 2010.05.17/outbox.cif.g08.bks.cpg/sg12_170_cif.got.tgz:339087.got - 2010.06.03 13:09:07.
