data_PCOD9195881
_publ_section_title
;
Structure prediction by ZEFSAII (Michael W. Deem and Ramdas Pophale) SiO2 
 PCOD9195881
Probable space group: C 2/M
;
_chemical_formula_sum "Si O2"
_cell_formula_units_Z 56
_cell_length_a 20.531701
_cell_length_b 8.678281
_cell_length_c 25.884690
_cell_angle_alpha 90.000000
_cell_angle_beta 140.219873
_cell_angle_gamma 90.000000
_cell_volume 2951.040396
_symmetry_space_group_name_H-M "C 2/M"
_symmetry_group_IT_number 12
_symmetry_cell_setting 'monoclinic'
loop_
_space_group_symop_operation_xyz
x,y,z
-x,y,-z
-x,-y,-z
x,-y,z
1/2+x,1/2+y,z
1/2-x,1/2+y,-z
1/2-x,1/2-y,-z
1/2+x,1/2-y,z
loop_
_atom_site_type_symbol
_atom_site_label
_atom_site_fract_x
_atom_site_fract_y
_atom_site_fract_z
Si Si1 0.004364 0.686681 0.241051
Si Si2 0.556009 0.814085 0.481199
Si Si3 0.137052 0.183040 0.936352
Si Si4 0.763978 0.685833 0.640931
Si Si5 0.725697 0.814494 0.234375
Si Si6 0.580113 0.185807 0.698948
Si Si7 0.499302 0.814610 0.939148
O O1 0.000720 0.500000 0.235303
O O2 0.935858 0.752772 0.153345
O O3 0.960880 0.734568 0.270206
O O4 0.122657 0.732136 0.307166
O O5 0.500000 0.762464 0.500000
O O6 0.671113 0.754270 0.552157
O O7 0.493256 0.762547 0.392673
O O8 0.557151 0.000000 0.482197
O O9 0.087070 0.235197 0.959811
O O10 0.141025 0.000000 0.935633
O O11 0.250000 0.250000 0.000000
O O12 0.759119 0.500000 0.635888
O O13 0.749997 0.734319 0.692214
O O14 0.807796 0.746012 0.245545
O O15 0.610500 0.770204 0.150757
O O16 0.730992 0.000000 0.235362
O O17 0.581504 0.000000 0.699231
O O18 0.510277 0.000000 0.940470
O O19 0.500000 0.777045 0.000000
#
# Coordination Sequence:
#
# PCOD9195881 Si02
#       7
#     8   8   8   8   8   8   8
#     4  10  22  43  63  85 120 159 200 245 303 361
#     4  10  20  35  55  84 120 154 195 246 299 352
#     4  12  26  43  65  91 123 162 203 247 301 362
#     4  10  20  36  60  84 114 157 197 241 297 353
#     4  10  20  36  59  87 119 155 197 243 293 352
#     4  10  22  38  59  86 119 159 198 247 300 352
#     4  10  22  42  66  93 126 160 197 248 302 356
#
# _framework density 18.976358000000001
#
# number of rings (size 3 to 8) (size 9 to 14) (size 15 to 20)
#    0.000    1.714    2.857    1.286    2.000    3.429 
#    0.000    0.000    0.000    0.000    0.000    0.000 
#    0.000    0.000    0.000    0.000    0.000    0.000 
#
# Total GULP energy -156448.184233 kJ/mol
# GULP energy per Si atom -5587.435151 kJ/mol
# Density = 1.893317 g / cm^3
# Si number density = 18.976358 Si / 1000 Ang^3
#
#
#
# Elastic Constant Matrix: (Units=GPa)
#
#
# Indices 1 2 3 4 5 6 
#
# 1 152.1836 37.8062 48.6171 0.0000 18.0382 0.0000
# 2 37.8062 21.9628 27.4687 0.0000 3.0453 0.0000
# 3 48.6171 27.4687 93.6352 0.0000 21.0880 0.0000
# 4 0.0000 0.0000 0.0000 24.4168 0.0000 7.9748
# 5 18.0382 3.0453 21.0880 0.0000 36.9007 0.0000
# 6 0.0000 0.0000 0.0000 7.9748 0.0000 27.4366
#
#
#
# Elastic Compliance Matrix: (Units=1/GPa)
#
#
# Indices 1 2 3 4 5 6 
#
# 1 0.012169 -0.021689 0.001126 0.000000 -0.004802 0.000000
# 2 -0.021689 0.112200 -0.025199 0.000000 0.015744 0.000000
# 3 0.001126 -0.025199 0.019675 0.000000 -0.009715 0.000000
# 4 0.000000 0.000000 0.000000 0.045251 0.000000 -0.013153
# 5 -0.004802 0.015744 -0.009715 0.000000 0.033700 0.000000
# 6 0.000000 0.000000 0.000000 -0.013153 0.000000 0.040271
#
#
# Mechanical properties :
#
#
# Convention : Reuss Voigt Hill
#
# Bulk Modulus (GPa) = 19.04050 55.06284 37.05167
# Shear Modulus (GPa) = 13.43012 28.01014 20.72013
#
# Velocity S-wave (km/s) = 2.66320 3.84611 3.30796
# Velocity P-wave (km/s) = 4.41729 6.98591 5.84446
#
# Compressibility (1/GPa) = 0.05251962
#
# Stress axis : x y z
#
# Youngs Moduli (GPa) = 82.17878 8.91263 50.82478
#
# Poissons Ratio (x) = 0.19331 -0.05723
# Poissons Ratio (y) = 1.78239 1.28074
# Poissons Ratio (z) = -0.09254 0.22459
#
# Static dielectric constant tensor:
#      x y z
#    x 1.643050 0.000000 -0.011050 
#    y 0.000000 1.644840 0.000000 
#    z -0.011050 0.000000 1.638030 
# 
# From -- ./inp_files/230988.got.cif
#   From: 2010.05.17/outbox.cif.g08.bks.cpg/sg12_116_cif.got.tgz:230988.got - 2010.06.03 13:09:07.
