data_PCOD9195659
_publ_section_title
;
Structure prediction by ZEFSAII (Michael W. Deem and Ramdas Pophale) SiO2 
 PCOD9195659
Probable space group: C 2/M
;
_chemical_formula_sum "Si O2"
_cell_formula_units_Z 64
_cell_length_a 13.896573
_cell_length_b 10.475864
_cell_length_c 27.153197
_cell_angle_alpha 90.000000
_cell_angle_beta 69.205128
_cell_angle_gamma 90.000000
_cell_volume 3695.421072
_symmetry_space_group_name_H-M "C 2/M"
_symmetry_group_IT_number 12
_symmetry_cell_setting 'monoclinic'
loop_
_space_group_symop_operation_xyz
x,y,z
-x,y,-z
-x,-y,-z
x,-y,z
1/2+x,1/2+y,z
1/2-x,1/2+y,-z
1/2-x,1/2-y,-z
1/2+x,1/2-y,z
loop_
_atom_site_type_symbol
_atom_site_label
_atom_site_fract_x
_atom_site_fract_y
_atom_site_fract_z
Si Si1 0.326884 0.152467 0.204880
Si Si2 0.423976 0.149124 0.292716
Si Si3 0.841843 0.344933 0.996803
Si Si4 0.939950 0.347156 0.084919
Si Si5 0.976207 0.849553 0.559170
Si Si6 0.298083 0.641228 0.457059
Si Si7 0.777038 0.291027 0.633046
Si Si8 0.658683 0.853952 0.270566
O O1 0.402429 0.163700 0.238234
O O2 0.384849 0.195222 0.144742
O O3 0.231542 0.247141 0.232564
O O4 0.298542 0.000000 0.206655
O O5 0.329787 0.219379 0.336083
O O6 0.539617 0.187157 0.286086
O O7 0.415214 0.000000 0.306576
O O8 0.822168 0.500000 0.995658
O O9 0.941772 0.309619 0.945656
O O10 0.750000 0.250000 0.000000
O O11 0.876058 0.319475 0.047033
O O12 0.943560 0.500000 0.087487
O O13 0.080767 0.829550 0.570523
O O14 0.000000 0.796696 0.500000
O O15 0.875119 0.795401 0.602287
O O16 0.960103 0.000000 0.556898
O O17 0.290165 0.500000 0.482057
O O18 0.250000 0.750000 0.500000
O O19 0.244731 0.637268 0.413865
O O20 0.808570 0.358460 0.678022
O O21 0.669154 0.000000 0.248859
#
# Coordination Sequence:
#
# PCOD9195659 Si02
#       8
#     8   8   8   8   8   8   8   8
#     4   9  18  35  57  79 102 139 187 222 256 314
#     4   9  19  34  55  79 103 135 172 210 260 317
#     4   9  17  31  51  76 108 149 187 223 267 312
#     4   8  16  32  52  74 107 146 184 223 264 314
#     4  10  20  35  55  79 105 132 168 213 252 294
#     4  11  23  38  55  78 104 133 166 204 250 302
#     4  11  20  36  57  77 103 138 171 206 254 316
#     4  10  21  37  54  79 111 135 165 216 273 316
#
# _framework density 17.318729999999999
#
# number of rings (size 3 to 8) (size 9 to 14) (size 15 to 20)
#    0.000    2.375    1.250    2.250    0.000    2.000 
#    0.000    8.750    0.000    0.000    0.000    0.000 
#    0.000    0.000    0.000    0.000    0.000    0.000 
#
# Total GULP energy -178177.080469 kJ/mol
# GULP energy per Si atom -5568.033765 kJ/mol
# Density = 1.727931 g / cm^3
# Si number density = 17.318730 Si / 1000 Ang^3
#
#
#
# Elastic Constant Matrix: (Units=GPa)
#
#
# Indices 1 2 3 4 5 6 
#
# 1 147.4735 73.3184 51.8153 0.0000 -15.4552 0.0000
# 2 73.3184 77.4260 52.7165 0.0000 -12.6437 0.0000
# 3 51.8153 52.7165 104.6903 0.0000 -21.3709 0.0000
# 4 0.0000 0.0000 0.0000 -14.3174 0.0000 11.6703
# 5 -15.4552 -12.6437 -21.3709 0.0000 13.9249 0.0000
# 6 0.0000 0.0000 0.0000 11.6703 0.0000 24.9801
#
#
#
# Elastic Compliance Matrix: (Units=1/GPa)
#
#
# Indices 1 2 3 4 5 6 
#
# 1 0.012994 -0.011902 0.000437 0.000000 0.004285 0.000000
# 2 -0.011902 0.030700 -0.009574 0.000000 -0.000028 0.000000
# 3 0.000437 -0.009574 0.018175 0.000000 0.019686 0.000000
# 4 0.000000 0.000000 0.000000 -0.050583 0.000000 0.023631
# 5 0.004285 -0.000028 0.019686 0.000000 0.106758 0.000000
# 6 0.000000 0.000000 0.000000 0.023631 0.000000 0.028992
#
#
# Mechanical properties :
#
#
# Convention : Reuss Voigt Hill
#
# Bulk Modulus (GPa) = 50.52786 76.14334 63.33560
# Shear Modulus (GPa) = 25.54796 15.03351 20.29074
#
# Velocity S-wave (km/s) = 3.84495 2.94946 3.42659
# Velocity P-wave (km/s) = 6.99644 7.46059 7.23224
#
# Compressibility (1/GPa) = 0.01979106
#
# Stress axis : x y z
#
# Youngs Moduli (GPa) = 76.96011 32.57317 55.02003
#
# Poissons Ratio (x) = 0.38769 -0.02404
# Poissons Ratio (y) = 0.91599 0.52675
# Poissons Ratio (z) = -0.03363 0.31185
#
# Static dielectric constant tensor:
#      x y z
#    x 1.585690 0.000000 0.016720 
#    y 0.000000 1.548690 0.000000 
#    z 0.016720 0.000000 1.610620 
# 
# From -- ./inp_files/335169.got.cif
#   From: 2010.05.17/outbox.cif.g08.bks.cpg/sg12_168_cif.got.tgz:335169.got - 2010.06.03 13:09:07.
