data_PCOD9195234
_publ_section_title
;
Structure prediction by ZEFSAII (Michael W. Deem and Ramdas Pophale) SiO2 
 PCOD9195234
Probable space group: C 2/M
;
_chemical_formula_sum "Si O2"
_cell_formula_units_Z 56
_cell_length_a 8.453732
_cell_length_b 19.102372
_cell_length_c 26.983015
_cell_angle_alpha 90.000000
_cell_angle_beta 137.681914
_cell_angle_gamma 90.000000
_cell_volume 2933.593939
_symmetry_space_group_name_H-M "C 2/M"
_symmetry_group_IT_number 12
_symmetry_cell_setting 'monoclinic'
loop_
_space_group_symop_operation_xyz
x,y,z
-x,y,-z
-x,-y,-z
x,-y,z
1/2+x,1/2+y,z
1/2-x,1/2+y,-z
1/2-x,1/2-y,-z
1/2+x,1/2-y,z
loop_
_atom_site_type_symbol
_atom_site_label
_atom_site_fract_x
_atom_site_fract_y
_atom_site_fract_z
Si Si1 0.409396 0.581456 0.922352
Si Si2 0.732901 0.698271 0.949140
Si Si3 0.487061 0.810817 0.177672
Si Si4 0.993766 0.222656 0.723732
Si Si5 0.310195 0.171861 0.498258
Si Si6 0.603952 0.420712 0.581012
Si Si7 0.983414 0.665549 0.349003
O O1 0.407866 0.500000 0.906727
O O2 0.572587 0.632120 0.926529
O O3 0.156280 0.618676 0.864009
O O4 0.500000 0.584963 0.000000
O O5 0.625902 0.747119 0.880875
O O6 0.750000 0.750000 0.000000
O O7 0.000000 0.676147 0.000000
O O8 0.459356 0.786753 0.227924
O O9 0.761183 0.816352 0.227830
O O10 0.792843 0.178296 0.705318
O O11 0.928785 0.261335 0.656563
O O12 0.500000 0.168462 0.500000
O O13 0.250000 0.250000 0.500000
O O14 0.430666 0.146038 0.576331
O O15 0.073675 0.130151 0.431596
O O16 0.500000 0.417854 0.500000
O O17 0.585469 0.500000 0.593434
O O18 0.870427 0.393036 0.646827
#
# Coordination Sequence:
#
# PCOD9195234 Si02
#       7
#     8   8   8   8   8   8   8
#     4  11  23  38  58  90 124 148 184 253 312 343
#     4  12  19  34  63  90 113 150 198 241 292 355
#     4  11  19  36  58  83 110 155 200 239 281 350
#     4  10  21  33  58  82 108 150 204 238 267 331
#     4  11  20  32  57  86 113 142 182 237 293 338
#     4   9  19  36  57  80 113 151 184 232 297 349
#     4  10  20  35  52  83 114 142 189 242 277 328
#
# _framework density 19.089212
#
# number of rings (size 3 to 8) (size 9 to 14) (size 15 to 20)
#    0.000    1.429    4.286    3.000    0.000    1.714 
#    0.000    1.429    0.000    0.000    0.000    0.000 
#    0.000    0.000    0.000    0.000    0.000    0.000 
#
# Total GULP energy -156026.366941 kJ/mol
# GULP energy per Si atom -5572.370248 kJ/mol
# Density = 1.904576 g / cm^3
# Si number density = 19.089212 Si / 1000 Ang^3
#
#
#
# Elastic Constant Matrix: (Units=GPa)
#
#
# Indices 1 2 3 4 5 6 
#
# 1 126.1819 61.2661 29.0012 0.0001 28.0203 0.0001
# 2 61.2661 134.4346 27.4875 0.0000 28.6386 0.0000
# 3 29.0012 27.4875 49.8760 0.0002 12.5184 0.0002
# 4 0.0001 0.0000 0.0002 13.4113 0.0002 3.9972
# 5 28.0203 28.6386 12.5184 0.0002 44.2757 0.0001
# 6 0.0001 0.0000 0.0002 3.9972 0.0001 24.4621
#
#
#
# Elastic Compliance Matrix: (Units=1/GPa)
#
#
# Indices 1 2 3 4 5 6 
#
# 1 0.011372 -0.003621 -0.003658 0.000000 -0.003821 0.000000
# 2 -0.003621 0.010430 -0.002717 0.000000 -0.003686 0.000000
# 3 -0.003658 -0.002717 0.024382 0.000000 -0.002821 0.000000
# 4 0.000000 0.000000 0.000000 0.078381 0.000000 -0.012808
# 5 -0.003821 -0.003686 -0.002821 0.000000 0.028186 0.000000
# 6 0.000000 0.000000 0.000000 -0.012808 0.000000 0.042972
#
#
# Mechanical properties :
#
#
# Convention : Reuss Voigt Hill
#
# Bulk Modulus (GPa) = 38.17983 60.66689 49.42336
# Shear Modulus (GPa) = 22.27697 29.27900 25.77798
#
# Velocity S-wave (km/s) = 3.41983 3.92062 3.67876
# Velocity P-wave (km/s) = 5.96974 7.23497 6.63259
#
# Compressibility (1/GPa) = 0.02619184
#
# Stress axis : x y z
#
# Youngs Moduli (GPa) = 87.93264 95.88102 41.01311
#
# Poissons Ratio (x) = 0.34717 0.15003
# Poissons Ratio (y) = 0.31839 0.11144
# Poissons Ratio (z) = 0.32167 0.26054
#
# Static dielectric constant tensor:
#      x y z
#    x 1.709400 0.000000 -0.013550 
#    y 0.000000 1.652460 0.000000 
#    z -0.013550 0.000000 1.701340 
# 
# From -- ./inp_files/372804.got.cif
#   From: 2010.05.17/outbox.cif.g08.bks.cpg/sg12_187_cif.got.tgz:372804.got - 2010.06.03 13:09:07.
