data_PCOD9195969
_publ_section_title
;
Structure prediction by ZEFSAII (Michael W. Deem and Ramdas Pophale) SiO2 
 PCOD9195969
Probable space group: C 2/M
;
_chemical_formula_sum "Si O2"
_cell_formula_units_Z 64
_cell_length_a 15.141790
_cell_length_b 8.959853
_cell_length_c 31.555801
_cell_angle_alpha 90.000000
_cell_angle_beta 128.218213
_cell_angle_gamma 90.000000
_cell_volume 3363.505226
_symmetry_space_group_name_H-M "C 2/M"
_symmetry_group_IT_number 12
_symmetry_cell_setting 'monoclinic'
loop_
_space_group_symop_operation_xyz
x,y,z
-x,y,-z
-x,-y,-z
x,-y,z
1/2+x,1/2+y,z
1/2-x,1/2+y,-z
1/2-x,1/2-y,-z
1/2+x,1/2-y,z
loop_
_atom_site_type_symbol
_atom_site_label
_atom_site_fract_x
_atom_site_fract_y
_atom_site_fract_z
Si Si1 0.820304 0.170842 0.958106
Si Si2 0.045422 0.819408 0.636742
Si Si3 0.078137 0.329473 0.934925
Si Si4 0.738576 0.679729 0.759634
Si Si5 0.471662 0.322110 0.824531
Si Si6 0.396236 0.680818 0.440370
Si Si7 0.297000 0.679583 0.153339
Si Si8 0.302456 0.820466 0.558112
O O1 0.700955 0.169919 0.948435
O O2 0.792112 0.248412 0.905334
O O3 0.854960 0.000000 0.962641
O O4 0.904648 0.258336 0.013916
O O5 0.132303 0.778038 0.699345
O O6 0.093321 0.773702 0.605035
O O7 0.924654 0.743718 0.603852
O O8 0.032324 0.000000 0.633347
O O9 0.038470 0.500000 0.925827
O O10 0.000994 0.235588 0.880433
O O11 0.748445 0.500000 0.761402
O O12 0.853934 0.749648 0.776987
O O13 0.720475 0.724314 0.803257
O O14 0.463343 0.500000 0.821937
O O15 0.578040 0.279504 0.826565
O O16 0.500000 0.735327 0.500000
O O17 0.402286 0.500000 0.442475
O O18 0.281165 0.721971 0.428739
O O19 0.287808 0.500000 0.147575
O O20 0.250000 0.750000 0.500000
O O21 0.304748 0.000000 0.554540
#
# Coordination Sequence:
#
# PCOD9195969 Si02
#       8
#     8   8   8   8   8   8   8   8
#     4   9  16  27  48  79 109 140 181 228 277 332
#     4  10  21  39  59  81 111 149 187 227 272 325
#     4   9  16  28  49  77 109 143 180 224 278 338
#     4  10  22  39  58  79 108 146 189 229 273 329
#     4  10  20  35  56  79 108 144 183 230 280 328
#     4   9  17  33  57  82 113 149 179 213 268 328
#     4   9  19  36  55  77 108 147 183 225 283 335
#     4  11  21  35  58  86 115 147 182 221 268 323
#
# _framework density 19.027767999999998
#
# number of rings (size 3 to 8) (size 9 to 14) (size 15 to 20)
#    0.000    2.375    1.250    1.500    0.000    5.500 
#    0.000    2.500    0.000    3.750    0.000    0.000 
#    0.000    0.000    0.000    0.000    0.000    0.000 
#
# Total GULP energy -178684.658077 kJ/mol
# GULP energy per Si atom -5583.895565 kJ/mol
# Density = 1.898446 g / cm^3
# Si number density = 19.027768 Si / 1000 Ang^3
#
#
#
# Elastic Constant Matrix: (Units=GPa)
#
#
# Indices 1 2 3 4 5 6 
#
# 1 94.0536 19.8933 37.5145 0.0000 0.0693 0.0000
# 2 19.8933 30.4520 17.8446 0.0000 0.8818 0.0000
# 3 37.5145 17.8446 84.3992 0.0000 -0.6513 0.0000
# 4 0.0000 0.0000 0.0000 26.5456 0.0000 9.3197
# 5 0.0693 0.8818 -0.6513 0.0000 33.4440 0.0000
# 6 0.0000 0.0000 0.0000 9.3197 0.0000 18.9389
#
#
#
# Elastic Compliance Matrix: (Units=1/GPa)
#
#
# Indices 1 2 3 4 5 6 
#
# 1 0.013886 -0.006227 -0.004855 0.000000 0.000041 0.000000
# 2 -0.006227 0.040319 -0.005766 0.000000 -0.001162 0.000000
# 3 -0.004855 -0.005766 0.015229 0.000000 0.000459 0.000000
# 4 0.000000 0.000000 0.000000 0.045539 0.000000 -0.022409
# 5 0.000041 -0.001162 0.000459 0.000000 0.029940 0.000000
# 6 0.000000 0.000000 0.000000 -0.022409 0.000000 0.063829
#
#
# Mechanical properties :
#
#
# Convention : Reuss Voigt Hill
#
# Bulk Modulus (GPa) = 27.98168 39.93440 33.95804
# Shear Modulus (GPa) = 19.65792 24.69585 22.17688
#
# Velocity S-wave (km/s) = 3.21770 3.60653 3.41765
# Velocity P-wave (km/s) = 5.34251 6.19481 5.78438
#
# Compressibility (1/GPa) = 0.03573767
#
# Stress axis : x y z
#
# Youngs Moduli (GPa) = 72.01552 24.80224 65.66373
#
# Poissons Ratio (x) = 0.15445 0.31881
# Poissons Ratio (y) = 0.44846 0.37860
# Poissons Ratio (z) = 0.34965 0.14300
#
# Static dielectric constant tensor:
#      x y z
#    x 1.680020 0.000000 0.004140 
#    y 0.000000 1.642800 0.000000 
#    z 0.004140 0.000000 1.629210 
# 
# From -- ./inp_files/375672.got.cif
#   From: 2010.05.17/outbox.cif.g08.bks.cpg/sg12_188_cif.got.tgz:375672.got - 2010.06.03 13:09:07.
