data_PCOD9195458
_publ_section_title
;
Structure prediction by ZEFSAII (Michael W. Deem and Ramdas Pophale) SiO2 
 PCOD9195458
Probable space group: C 2/M
;
_chemical_formula_sum "Si O2"
_cell_formula_units_Z 48
_cell_length_a 31.025770
_cell_length_b 9.058801
_cell_length_c 11.441474
_cell_angle_alpha 90.000000
_cell_angle_beta 121.209236
_cell_angle_gamma 90.000000
_cell_volume 2750.324644
_symmetry_space_group_name_H-M "C 2/M"
_symmetry_group_IT_number 12
_symmetry_cell_setting 'monoclinic'
loop_
_space_group_symop_operation_xyz
x,y,z
-x,y,-z
-x,-y,-z
x,-y,z
1/2+x,1/2+y,z
1/2-x,1/2+y,-z
1/2-x,1/2-y,-z
1/2+x,1/2-y,z
loop_
_atom_site_type_symbol
_atom_site_label
_atom_site_fract_x
_atom_site_fract_y
_atom_site_fract_z
Si Si1 0.304240 0.176362 0.588802
Si Si2 0.559672 0.327291 0.602180
Si Si3 0.030732 0.272015 0.152686
Si Si4 0.891874 0.337813 0.539612
Si Si5 0.880200 0.167598 0.871548
Si Si6 0.065089 0.676888 0.850007
O O1 0.250000 0.250000 0.500000
O O2 0.337608 0.195925 0.518252
O O3 0.336284 0.258202 0.734141
O O4 0.301179 0.000000 0.606215
O O5 0.500000 0.302195 0.500000
O O6 0.567572 0.500000 0.637920
O O7 0.588088 0.278897 0.524711
O O8 0.576194 0.228763 0.735155
O O9 0.070306 0.346477 0.296057
O O10 0.068609 0.164912 0.136142
O O11 0.985113 0.235407 0.176308
O O12 0.000000 0.343791 0.000000
O O13 0.891574 0.500000 0.483328
O O14 0.868224 0.000000 0.888179
O O15 0.892893 0.270600 0.999583
O O16 0.056053 0.500000 0.843710
#
# Coordination Sequence:
#
# PCOD9195458 Si02
#       6
#     8   8   8   8   8   8
#     4  10  21  38  61  87 111 140 180 227 280 332
#     4  11  23  35  50  76 111 150 190 228 269 319
#     4   9  19  30  48  75 105 144 181 220 265 318
#     4  10  20  35  54  78 108 144 186 225 267 323
#     4  10  21  35  53  79 111 143 179 227 278 327
#     4  11  21  34  53  75 107 149 189 226 267 323
#
# _framework density 17.452483999999998
#
# number of rings (size 3 to 8) (size 9 to 14) (size 15 to 20)
#    0.000    1.833    1.667    2.500    0.000   15.667 
#    0.000    0.000    0.000    1.000    0.000    0.000 
#    0.000    0.000    0.000    0.000    0.000    0.000 
#
# Total GULP energy -133621.462218 kJ/mol
# GULP energy per Si atom -5567.560926 kJ/mol
# Density = 1.741276 g / cm^3
# Si number density = 17.452484 Si / 1000 Ang^3
#
#
#
# Elastic Constant Matrix: (Units=GPa)
#
#
# Indices 1 2 3 4 5 6 
#
# 1 75.7587 36.7207 46.7737 0.0000 11.8186 0.0000
# 2 36.7207 84.9638 48.4158 0.0000 2.1011 0.0000
# 3 46.7737 48.4158 93.9214 0.0000 2.7401 0.0000
# 4 0.0000 0.0000 0.0000 -208.3156 0.0000 -72.1991
# 5 11.8186 2.1011 2.7401 0.0000 31.3442 0.0000
# 6 0.0000 0.0000 0.0000 -72.1991 0.0000 -15.5189
#
#
#
# Elastic Compliance Matrix: (Units=1/GPa)
#
#
# Indices 1 2 3 4 5 6 
#
# 1 0.021545 -0.004446 -0.008230 0.000000 -0.007106 0.000000
# 2 -0.004446 0.017587 -0.006884 0.000000 0.001099 0.000000
# 3 -0.008230 -0.006884 0.018237 0.000000 0.001971 0.000000
# 4 0.000000 0.000000 0.000000 0.007838 0.000000 -0.036466
# 5 -0.007106 0.001099 0.001971 0.000000 0.034337 0.000000
# 6 0.000000 0.000000 0.000000 -0.036466 0.000000 0.105215
#
#
# Mechanical properties :
#
#
# Convention : Reuss Voigt Hill
#
# Bulk Modulus (GPa) = 54.79899 57.60715 56.20307
# Shear Modulus (GPa) = 20.00301 -30.31582 -5.15640
#
# Velocity S-wave (km/s) = 3.38914 -4.17231 -1.72074
# Velocity P-wave (km/s) = 6.83975 3.14145 5.32217
#
# Compressibility (1/GPa) = 0.01824851
#
# Stress axis : x y z
#
# Youngs Moduli (GPa) = 46.41502 56.86137 54.83323
#
# Poissons Ratio (x) = 0.25279 0.45130
# Poissons Ratio (y) = 0.20635 0.37746
# Poissons Ratio (z) = 0.38202 0.39142
#
# Static dielectric constant tensor:
#      x y z
#    x 1.585090 0.000000 -0.006900 
#    y 0.000000 1.615060 0.000000 
#    z -0.006900 0.000000 1.595040 
# 
# From -- ./inp_files/180241.got.cif
#   From: 2010.05.17/outbox.cif.g08.bks.cpg/sg12_91_cif.got.tgz:180241.got - 2010.06.03 13:09:07.
