data_PCOD9195880
_publ_section_title
;
Structure prediction by ZEFSAII (Michael W. Deem and Ramdas Pophale) SiO2 
 PCOD9195880
Probable space group: C 2/M
;
_chemical_formula_sum "Si O2"
_cell_formula_units_Z 56
_cell_length_a 22.609282
_cell_length_b 8.025536
_cell_length_c 31.482007
_cell_angle_alpha 90.000000
_cell_angle_beta 153.804555
_cell_angle_gamma 90.000000
_cell_volume 2521.677367
_symmetry_space_group_name_H-M "C 2/M"
_symmetry_group_IT_number 12
_symmetry_cell_setting 'monoclinic'
loop_
_space_group_symop_operation_xyz
x,y,z
-x,y,-z
-x,-y,-z
x,-y,z
1/2+x,1/2+y,z
1/2-x,1/2+y,-z
1/2-x,1/2-y,-z
1/2+x,1/2-y,z
loop_
_atom_site_type_symbol
_atom_site_label
_atom_site_fract_x
_atom_site_fract_y
_atom_site_fract_z
Si Si1 0.044339 0.307214 0.757243
Si Si2 0.987813 0.704405 0.041423
Si Si3 0.754296 0.308250 0.954068
Si Si4 0.474882 0.201251 0.345884
Si Si5 0.654761 0.302390 0.586574
Si Si6 0.247589 0.308228 0.557767
Si Si7 0.245536 0.300079 0.260787
O O1 0.081444 0.500000 0.785743
O O2 0.884639 0.291647 0.650647
O O3 0.110754 0.213633 0.839038
O O4 0.089119 0.240899 0.739833
O O5 0.984423 0.500000 0.037781
O O6 0.119364 0.758449 0.152305
O O7 0.861047 0.763452 0.988280
O O8 0.000000 0.759433 0.000000
O O9 0.791129 0.500000 0.980809
O O10 0.750000 0.250000 0.000000
O O11 0.627912 0.260196 0.450963
O O12 0.381078 0.254324 0.323683
O O13 0.481436 0.000000 0.348752
O O14 0.500000 0.288654 0.500000
O O15 0.680759 0.500000 0.595128
O O16 0.683053 0.200458 0.562866
O O17 0.743955 0.243682 0.683837
O O18 0.277264 0.500000 0.565949
O O19 0.238534 0.500000 0.258079
#
# Coordination Sequence:
#
# PCOD9195880 Si02
#       7
#     8   8   8   8   8   8   8
#     4  11  24  42  63  86 119 161 205 253 308 369
#     4   9  19  37  62  91 120 155 203 256 304 358
#     4  11  24  43  66  94 127 164 210 261 316 374
#     4  10  22  39  59  89 125 159 196 249 311 366
#     4  10  20  35  55  84 119 158 200 242 297 365
#     4  11  23  38  59  88 121 158 203 252 306 367
#     4  10  20  35  60  88 116 156 201 244 297 364
#
# _framework density 22.207440999999999
#
# number of rings (size 3 to 8) (size 9 to 14) (size 15 to 20)
#    0.000    1.714    1.429    2.571    2.000    3.714 
#    0.000    1.429    0.000    3.857    0.000    0.000 
#    0.000    0.000    0.000    0.000    0.000    0.000 
#
# Total GULP energy -156402.141297 kJ/mol
# GULP energy per Si atom -5585.790761 kJ/mol
# Density = 2.215690 g / cm^3
# Si number density = 22.207441 Si / 1000 Ang^3
#
#
#
# Elastic Constant Matrix: (Units=GPa)
#
#
# Indices 1 2 3 4 5 6 
#
# 1 111.2089 17.8940 44.5866 0.0003 -26.2704 0.0001
# 2 17.8940 23.2172 3.1645 -0.0004 -7.1479 -0.0016
# 3 44.5866 3.1645 123.0839 -0.0004 -26.4921 -0.0003
# 4 0.0003 -0.0004 -0.0004 15.5169 -0.0001 1.9881
# 5 -26.2704 -7.1479 -26.4921 -0.0001 44.7511 0.0000
# 6 0.0001 -0.0016 -0.0003 1.9881 0.0000 26.7513
#
#
#
# Elastic Compliance Matrix: (Units=1/GPa)
#
#
# Indices 1 2 3 4 5 6 
#
# 1 0.012647 -0.008016 -0.003499 0.000000 0.004072 -0.000001
# 2 -0.008016 0.050402 0.002668 0.000001 0.004924 0.000003
# 3 -0.003499 0.002668 0.010283 0.000000 0.004460 0.000000
# 4 0.000000 0.000001 0.000000 0.065065 0.000000 -0.004836
# 5 0.004072 0.004924 0.004460 0.000000 0.028163 0.000000
# 6 -0.000001 0.000003 0.000000 -0.004836 0.000000 0.037741
#
#
# Mechanical properties :
#
#
# Convention : Reuss Voigt Hill
#
# Bulk Modulus (GPa) = 17.97335 43.20003 30.58669
# Shear Modulus (GPa) = 20.78644 30.19486 25.49065
#
# Velocity S-wave (km/s) = 3.06275 3.69138 3.39166
# Velocity P-wave (km/s) = 4.54073 6.13706 5.39823
#
# Compressibility (1/GPa) = 0.05563793
#
# Stress axis : x y z
#
# Youngs Moduli (GPa) = 79.07242 19.84042 97.24592
#
# Poissons Ratio (x) = 0.15905 0.34022
# Poissons Ratio (y) = 0.63387 -0.25944
# Poissons Ratio (z) = 0.27664 -0.05293
#
# Static dielectric constant tensor:
#      x y z
#    x 1.841590 0.000000 0.004390 
#    y 0.000000 1.799910 0.000000 
#    z 0.004390 0.000000 1.821290 
# 
# From -- ./inp_files/380763.got.cif
#   From: 2010.05.17/outbox.cif.g08.bks.cpg/sg12_191_cif.got.tgz:380763.got - 2010.06.03 13:09:07.
