data_PCOD9195054
_publ_section_title
;
Structure prediction by ZEFSAII (Michael W. Deem and Ramdas Pophale) SiO2 
 PCOD9195054
Probable space group: C 2/M
;
_chemical_formula_sum "Si O2"
_cell_formula_units_Z 52
_cell_length_a 9.912904
_cell_length_b 16.360710
_cell_length_c 20.505875
_cell_angle_alpha 90.000000
_cell_angle_beta 131.073742
_cell_angle_gamma 90.000000
_cell_volume 2507.117520
_symmetry_space_group_name_H-M "C 2/M"
_symmetry_group_IT_number 12
_symmetry_cell_setting 'monoclinic'
loop_
_space_group_symop_operation_xyz
x,y,z
-x,y,-z
-x,-y,-z
x,-y,z
1/2+x,1/2+y,z
1/2-x,1/2+y,-z
1/2-x,1/2-y,-z
1/2+x,1/2-y,z
loop_
_atom_site_type_symbol
_atom_site_label
_atom_site_fract_x
_atom_site_fract_y
_atom_site_fract_z
Si Si1 0.698744 0.679272 0.033537
Si Si2 0.305382 0.288860 0.702795
Si Si3 0.712549 0.095014 0.566447
Si Si4 0.011678 0.171990 0.426451
Si Si5 0.120689 0.000000 0.605749
Si Si6 0.861367 0.680885 0.226741
Si Si7 0.791543 0.000000 0.957309
Si Si8 0.952279 0.500000 0.251616
O O1 0.815034 0.682076 0.136071
O O2 0.725631 0.587575 0.013098
O O3 0.500000 0.687618 0.000000
O O4 0.750000 0.750000 0.000000
O O5 0.294785 0.374152 0.660893
O O6 0.306693 0.292416 0.781696
O O7 0.458193 0.235379 0.716467
O O8 0.112049 0.246106 0.633286
O O9 0.500000 0.101696 0.500000
O O10 0.790626 0.158996 0.538481
O O11 0.753058 0.000000 0.564456
O O12 0.000000 0.172259 0.500000
O O13 0.923641 0.086191 0.374745
O O14 0.000000 0.000000 0.500000
O O15 0.334479 0.000000 0.669887
O O16 0.895874 0.588074 0.261162
O O17 0.646784 0.000000 0.851452
O O18 0.000000 0.000000 0.000000
#
# Coordination Sequence:
#
# PCOD9195054 Si02
#       8
#     8   8   8   8   4   8   4   4
#     4  10  20  40  67  93 128 162 205 252 313 386
#     4  12  24  40  60  89 127 158 207 259 316 369
#     4  11  26  43  60  87 122 163 213 269 318 365
#     4  11  23  40  64  85 118 164 213 260 313 370
#     4  10  20  34  60  90 118 164 213 255 304 366
#     4  11  24  39  64  94 123 163 205 255 315 378
#     4   8  18  36  63  95 128 164 204 255 323 390
#     4  10  20  38  61  93 123 165 213 257 304 383
#
# _framework density 20.740950000000002
#
# number of rings (size 3 to 8) (size 9 to 14) (size 15 to 20)
#    0.000    1.385    3.846    1.385    3.231    1.231 
#    0.000    0.385    1.692    0.000    0.000    0.000 
#    0.000    0.000    0.000    0.000    0.000    0.000 
#
# Total GULP energy -144819.057987 kJ/mol
# GULP energy per Si atom -5569.963769 kJ/mol
# Density = 2.069374 g / cm^3
# Si number density = 20.740950 Si / 1000 Ang^3
#
#
#
# Elastic Constant Matrix: (Units=GPa)
#
#
# Indices 1 2 3 4 5 6 
#
# 1 106.5649 26.3290 17.9222 0.0000 -4.6653 0.0000
# 2 26.3290 105.2597 10.6666 0.0000 -3.7067 0.0000
# 3 17.9222 10.6666 49.6047 0.0000 10.5635 0.0000
# 4 0.0000 0.0000 0.0000 15.1968 0.0000 -6.5233
# 5 -4.6653 -3.7067 10.5635 0.0000 33.5672 0.0000
# 6 0.0000 0.0000 0.0000 -6.5233 0.0000 18.0542
#
#
#
# Elastic Compliance Matrix: (Units=1/GPa)
#
#
# Indices 1 2 3 4 5 6 
#
# 1 0.010693 -0.002190 -0.003920 0.000000 0.002478 0.000000
# 2 -0.002190 0.010269 -0.001708 0.000000 0.001367 0.000000
# 3 -0.003920 -0.001708 0.023687 0.000000 -0.008188 0.000000
# 4 0.000000 0.000000 0.000000 0.077882 0.000000 0.028140
# 5 0.002478 0.001367 -0.008188 0.000000 0.032863 0.000000
# 6 0.000000 0.000000 0.000000 0.028140 0.000000 0.065556
#
#
# Mechanical properties :
#
#
# Convention : Reuss Voigt Hill
#
# Bulk Modulus (GPa) = 34.46823 41.25163 37.85993
# Shear Modulus (GPa) = 20.30394 27.13107 23.71750
#
# Velocity S-wave (km/s) = 3.13218 3.62068 3.38525
# Velocity P-wave (km/s) = 5.45300 6.11647 5.79424
#
# Compressibility (1/GPa) = 0.02901223
#
# Stress axis : x y z
#
# Youngs Moduli (GPa) = 93.52061 97.37689 42.21803
#
# Poissons Ratio (x) = 0.21327 0.16550
# Poissons Ratio (y) = 0.20482 0.07211
# Poissons Ratio (z) = 0.36661 0.16633
#
# Static dielectric constant tensor:
#      x y z
#    x 1.968110 0.000000 -0.187180 
#    y 0.000000 1.787550 0.000000 
#    z -0.187180 0.000000 1.761970 
# 
# From -- ./inp_files/301219.got.cif
#   From: 2010.05.17/outbox.cif.g08.bks.cpg/sg12_151_cif.got.tgz:301219.got - 2010.06.03 13:09:07.
