data_PCOD9195034
_publ_section_title
;
Structure prediction by ZEFSAII (Michael W. Deem and Ramdas Pophale) SiO2 
 PCOD9195034
Probable space group: C 2/M
;
_chemical_formula_sum "Si O2"
_cell_formula_units_Z 44
_cell_length_a 9.293467
_cell_length_b 10.598417
_cell_length_c 30.269876
_cell_angle_alpha 90.000000
_cell_angle_beta 133.561983
_cell_angle_gamma 90.000000
_cell_volume 2160.455296
_symmetry_space_group_name_H-M "C 2/M"
_symmetry_group_IT_number 12
_symmetry_cell_setting 'monoclinic'
loop_
_space_group_symop_operation_xyz
x,y,z
-x,y,-z
-x,-y,-z
x,-y,z
1/2+x,1/2+y,z
1/2-x,1/2+y,-z
1/2-x,1/2-y,-z
1/2+x,1/2-y,z
loop_
_atom_site_type_symbol
_atom_site_label
_atom_site_fract_x
_atom_site_fract_y
_atom_site_fract_z
Si Si1 0.266107 0.000000 0.435993
Si Si2 0.117079 0.716105 0.383956
Si Si3 0.248114 0.855986 0.781125
Si Si4 0.500000 0.716694 0.000000
Si Si5 0.329009 0.214770 0.700890
Si Si6 0.054038 0.355298 0.918289
Si Si7 0.291663 0.500000 0.477722
O O1 0.500000 0.000000 0.500000
O O2 0.197675 0.863663 0.400729
O O3 0.166596 0.000000 0.462206
O O4 0.182714 0.656251 0.350836
O O5 0.189258 0.628847 0.439355
O O6 0.879168 0.712279 0.337963
O O7 0.328249 0.855387 0.747755
O O8 0.414173 0.802068 0.849666
O O9 0.037655 0.787384 0.741608
O O10 0.209271 0.000000 0.784718
O O11 0.714146 0.649596 0.046017
O O12 0.484963 0.791255 0.042973
O O13 0.000594 0.500000 0.912882
O O14 0.500000 0.500000 0.500000
#
# Coordination Sequence:
#
# PCOD9195034 Si02
#       7
#     4   8   8   4   8   8   4
#     4  12  24  42  64  90 124 164 202 249 318 375
#     4  11  24  39  65  89 124 160 209 253 313 378
#     4  10  22  39  62  84 124 158 208 253 310 362
#     4  10  20  34  60  84 130 150 208 246 304 360
#     4  10  23  39  60  86 116 159 204 251 307 362
#     4  10  20  36  57  89 117 165 200 252 305 362
#     4  12  24  40  60  90 124 156 204 253 312 369
#
# _framework density 20.366078999999999
#
# number of rings (size 3 to 8) (size 9 to 14) (size 15 to 20)
#    0.000    1.455    0.000    4.909    7.636    0.000 
#    0.000    0.000    0.000   10.909    0.000    0.000 
#    0.000    0.000    0.000    0.000    0.000    0.000 
#
# Total GULP energy -122474.327226 kJ/mol
# GULP energy per Si atom -5567.014874 kJ/mol
# Density = 2.031973 g / cm^3
# Si number density = 20.366079 Si / 1000 Ang^3
#
#
#
# Elastic Constant Matrix: (Units=GPa)
#
#
# Indices 1 2 3 4 5 6 
#
# 1 119.1976 13.9074 31.9939 0.0000 -3.2407 0.0000
# 2 13.9074 84.7070 34.4761 0.0000 3.2457 0.0000
# 3 31.9939 34.4761 110.4832 0.0000 2.1977 0.0000
# 4 0.0000 0.0000 0.0000 32.2491 0.0000 -0.5918
# 5 -3.2407 3.2457 2.1977 0.0000 35.4364 0.0000
# 6 0.0000 0.0000 0.0000 -0.5918 0.0000 6.5059
#
#
#
# Elastic Compliance Matrix: (Units=1/GPa)
#
#
# Indices 1 2 3 4 5 6 
#
# 1 0.009152 -0.000522 -0.002508 0.000000 0.001040 0.000000
# 2 -0.000522 0.013587 -0.004068 0.000000 -0.001040 0.000000
# 3 -0.002508 -0.004068 0.011058 0.000000 -0.000543 0.000000
# 4 0.000000 0.000000 0.000000 0.031060 0.000000 0.002825
# 5 0.001040 -0.001040 -0.000543 0.000000 0.028444 0.000000
# 6 0.000000 0.000000 0.000000 0.002825 0.000000 0.153964
#
#
# Mechanical properties :
#
#
# Convention : Reuss Voigt Hill
#
# Bulk Modulus (GPa) = 51.01868 52.79362 51.90615
# Shear Modulus (GPa) = 18.65721 30.43898 24.54810
#
# Velocity S-wave (km/s) = 3.02999 3.87019 3.47557
# Velocity P-wave (km/s) = 6.11116 6.77863 6.45353
#
# Compressibility (1/GPa) = 0.01960066
#
# Stress axis : x y z
#
# Youngs Moduli (GPa) = 109.26840 73.60227 90.43533
#
# Poissons Ratio (x) = 0.03839 0.22682
# Poissons Ratio (y) = 0.05700 0.36788
# Poissons Ratio (z) = 0.27406 0.29941
#
# Static dielectric constant tensor:
#      x y z
#    x 1.678160 0.000000 0.014680 
#    y 0.000000 1.729510 0.000000 
#    z 0.014680 0.000000 1.781410 
# 
# From -- ./inp_files/355955.got.cif
#   From: 2010.05.17/outbox.cif.g08.bks.cpg/sg12_178_cif.got.tgz:355955.got - 2010.06.03 13:09:07.
