data_PCOD9195238
_publ_section_title
;
Structure prediction by ZEFSAII (Michael W. Deem and Ramdas Pophale) SiO2 
 PCOD9195238
Probable space group: C 2/M
;
_chemical_formula_sum "Si O2"
_cell_formula_units_Z 48
_cell_length_a 23.450219
_cell_length_b 8.965508
_cell_length_c 24.879747
_cell_angle_alpha 90.000000
_cell_angle_beta 33.989090
_cell_angle_gamma 90.000000
_cell_volume 2924.198088
_symmetry_space_group_name_H-M "C 2/M"
_symmetry_group_IT_number 12
_symmetry_cell_setting 'monoclinic'
loop_
_space_group_symop_operation_xyz
x,y,z
-x,y,-z
-x,-y,-z
x,-y,z
1/2+x,1/2+y,z
1/2-x,1/2+y,-z
1/2-x,1/2-y,-z
1/2+x,1/2-y,z
loop_
_atom_site_type_symbol
_atom_site_label
_atom_site_fract_x
_atom_site_fract_y
_atom_site_fract_z
Si Si1 0.617856 0.679311 0.055686
Si Si2 0.267810 0.677249 0.719451
Si Si3 0.424444 0.180680 0.681675
Si Si4 0.147452 0.320689 0.144920
Si Si5 0.953145 0.179715 0.094907
Si Si6 0.092227 0.671316 0.471565
O O1 0.615767 0.500000 0.061449
O O2 0.602275 0.748813 0.126533
O O3 0.533647 0.723958 0.078036
O O4 0.732377 0.721416 0.947297
O O5 0.268223 0.500000 0.723166
O O6 0.337775 0.746797 0.712086
O O7 0.154856 0.742262 0.812663
O O8 0.320184 0.729057 0.622658
O O9 0.406445 0.222680 0.757423
O O10 0.534930 0.220538 0.570607
O O11 0.415147 0.000000 0.684130
O O12 0.142287 0.500000 0.144435
O O13 0.939261 0.000000 0.108084
O O14 0.000000 0.215037 0.000000
O O15 0.127606 0.500000 0.449150
O O16 0.000000 0.671286 0.500000
#
# Coordination Sequence:
#
# PCOD9195238 Si02
#       6
#     8   8   8   8   8   8
#     4   9  18  31  48  71  96 124 156 190 233 280
#     4  11  21  30  45  72 103 128 152 194 246 284
#     4   9  17  31  51  72  94 126 165 196 229 280
#     4   9  17  31  51  72  95 122 154 194 235 277
#     4  10  20  35  53  69  92 129 166 194 225 279
#     4   8  15  29  48  68  92 124 161 196 231 279
#
# _framework density 16.414757000000002
#
# number of rings (size 3 to 8) (size 9 to 14) (size 15 to 20)
#    0.000    2.667    0.000    3.500    0.000    7.333 
#    0.000    3.333    0.000    1.000    0.000    0.000 
#    0.000    0.000    0.000    0.000    0.000    0.000 
#
# Total GULP energy -133786.499179 kJ/mol
# GULP energy per Si atom -5574.437466 kJ/mol
# Density = 1.637740 g / cm^3
# Si number density = 16.414757 Si / 1000 Ang^3
#
#
#
# Elastic Constant Matrix: (Units=GPa)
#
#
# Indices 1 2 3 4 5 6 
#
# 1 108.9482 39.0418 79.9745 -0.0001 16.2360 0.0000
# 2 39.0418 35.7470 51.9028 -0.0001 2.3380 0.0003
# 3 79.9745 51.9028 145.0711 0.0001 23.9999 0.0000
# 4 -0.0001 -0.0001 0.0001 10.5531 0.0000 2.1289
# 5 16.2360 2.3380 23.9999 0.0000 30.8371 0.0000
# 6 0.0000 0.0003 0.0000 2.1289 0.0000 21.9980
#
#
#
# Elastic Compliance Matrix: (Units=1/GPa)
#
#
# Indices 1 2 3 4 5 6 
#
# 1 0.017653 -0.012493 -0.004455 0.000000 -0.004880 0.000000
# 2 -0.012493 0.072438 -0.022048 0.000001 0.018245 -0.000001
# 3 -0.004455 -0.022048 0.019022 0.000000 -0.010787 0.000000
# 4 0.000000 0.000001 0.000000 0.096646 0.000000 -0.009353
# 5 -0.004880 0.018245 -0.010787 0.000000 0.042010 0.000000
# 6 0.000000 -0.000001 0.000000 -0.009353 0.000000 0.046364
#
#
# Mechanical properties :
#
#
# Convention : Reuss Voigt Hill
#
# Bulk Modulus (GPa) = 32.13189 70.17827 51.15508
# Shear Modulus (GPa) = 13.07204 20.60078 16.83641
#
# Velocity S-wave (km/s) = 2.82504 3.54646 3.20611
# Velocity P-wave (km/s) = 5.50079 7.72113 6.70353
#
# Compressibility (1/GPa) = 0.03112173
#
# Stress axis : x y z
#
# Youngs Moduli (GPa) = 56.64863 13.80499 52.57185
#
# Poissons Ratio (x) = 0.17246 0.23418
# Poissons Ratio (y) = 0.70770 1.15909
# Poissons Ratio (z) = 0.25235 0.30437
#
# Static dielectric constant tensor:
#      x y z
#    x 1.531850 0.000000 0.020220 
#    y 0.000000 1.547970 0.000000 
#    z 0.020220 0.000000 1.560960 
# 
# From -- ./inp_files/367110.got.cif
#   From: 2010.05.17/outbox.cif.g08.bks.cpg/sg12_184_cif.got.tgz:367110.got - 2010.06.03 13:09:07.
