data_PCOD9195963
_publ_section_title
;
Structure prediction by ZEFSAII (Michael W. Deem and Ramdas Pophale) SiO2 
 PCOD9195963
Probable space group: C 2/M
;
_chemical_formula_sum "Si O2"
_cell_formula_units_Z 56
_cell_length_a 8.619551
_cell_length_b 11.875411
_cell_length_c 30.847230
_cell_angle_alpha 90.000000
_cell_angle_beta 123.511410
_cell_angle_gamma 90.000000
_cell_volume 2632.684387
_symmetry_space_group_name_H-M "C 2/M"
_symmetry_group_IT_number 12
_symmetry_cell_setting 'monoclinic'
loop_
_space_group_symop_operation_xyz
x,y,z
-x,y,-z
-x,-y,-z
x,-y,z
1/2+x,1/2+y,z
1/2-x,1/2+y,-z
1/2-x,1/2-y,-z
1/2+x,1/2-y,z
loop_
_atom_site_type_symbol
_atom_site_label
_atom_site_fract_x
_atom_site_fract_y
_atom_site_fract_z
Si Si1 0.389548 0.126848 0.400532
Si Si2 0.541299 0.375965 0.955694
Si Si3 0.124244 0.127016 0.278211
Si Si4 0.699856 0.306497 0.538132
Si Si5 0.719471 0.795481 0.785820
Si Si6 0.570375 0.874395 0.946191
Si Si7 0.948597 0.378128 0.154217
O O1 0.264069 0.151659 0.339246
O O2 0.340238 0.213768 0.431028
O O3 0.607821 0.131496 0.421447
O O4 0.347874 0.000000 0.409248
O O5 0.493899 0.500000 0.928177
O O6 0.476421 0.249505 0.932649
O O7 0.500000 0.385105 0.000000
O O8 0.769298 0.370472 0.992456
O O9 0.234262 0.134065 0.249789
O O10 0.958221 0.216491 0.250982
O O11 0.051910 0.000000 0.272813
O O12 0.500000 0.366583 0.500000
O O13 0.750000 0.250000 0.500000
O O14 0.679555 0.861751 0.823820
O O15 0.897211 0.717249 0.820948
O O16 0.643806 0.876770 0.907519
O O17 0.478083 0.000000 0.936448
O O18 0.041868 0.500000 0.172528
#
# Coordination Sequence:
#
# PCOD9195963 Si02
#       7
#     8   8   8   8   8   8   8
#     4  10  20  35  56  79 107 145 184 224 271 320
#     4   9  18  33  53  75 102 136 177 221 269 326
#     4  10  20  36  57  81 107 140 184 226 270 325
#     4   9  19  34  52  78 111 143 180 222 265 320
#     4  10  21  36  57  80 110 143 176 228 280 327
#     4   9  19  34  51  74 105 138 177 223 273 332
#     4  10  21  37  56  81 111 144 182 225 278 337
#
# _framework density 21.271065
#
# number of rings (size 3 to 8) (size 9 to 14) (size 15 to 20)
#    0.000    2.429    0.000    1.714    2.000    3.143 
#    0.000    5.714    0.000   12.000    0.000    0.000 
#    0.000    0.000    0.000    0.000    0.000    0.000 
#
# Total GULP energy -155977.515882 kJ/mol
# GULP energy per Si atom -5570.625567 kJ/mol
# Density = 2.122265 g / cm^3
# Si number density = 21.271065 Si / 1000 Ang^3
#
#
#
# Elastic Constant Matrix: (Units=GPa)
#
#
# Indices 1 2 3 4 5 6 
#
# 1 59.5698 19.9375 21.6548 0.0000 -4.9184 0.0000
# 2 19.9375 152.0284 37.4172 0.0000 -7.6504 0.0000
# 3 21.6548 37.4172 98.5216 0.0000 -1.0157 0.0000
# 4 0.0000 0.0000 0.0000 28.3998 0.0000 3.8691
# 5 -4.9184 -7.6504 -1.0157 0.0000 33.4780 0.0000
# 6 0.0000 0.0000 0.0000 3.8691 0.0000 25.7725
#
#
#
# Elastic Compliance Matrix: (Units=1/GPa)
#
#
# Indices 1 2 3 4 5 6 
#
# 1 0.018757 -0.001472 -0.003540 0.000000 0.002312 0.000000
# 2 -0.001472 0.007456 -0.002493 0.000000 0.001412 0.000000
# 3 -0.003540 -0.002493 0.011868 0.000000 -0.000730 0.000000
# 4 0.000000 0.000000 0.000000 0.035947 0.000000 -0.005396
# 5 0.002312 0.001412 -0.000730 0.000000 0.030510 0.000000
# 6 0.000000 0.000000 0.000000 -0.005396 0.000000 0.039611
#
#
# Mechanical properties :
#
#
# Convention : Reuss Voigt Hill
#
# Bulk Modulus (GPa) = 43.34733 52.01544 47.68138
# Shear Modulus (GPa) = 29.96708 32.93742 31.45225
#
# Velocity S-wave (km/s) = 3.75750 3.93932 3.84948
# Velocity P-wave (km/s) = 6.26481 6.72292 6.49790
#
# Compressibility (1/GPa) = 0.02306947
#
# Stress axis : x y z
#
# Youngs Moduli (GPa) = 53.31205 134.12903 84.26361
#
# Poissons Ratio (x) = 0.19749 0.29828
# Poissons Ratio (y) = 0.07849 0.21010
# Poissons Ratio (z) = 0.18872 0.33443
#
# Static dielectric constant tensor:
#      x y z
#    x 1.827080 0.000000 0.048130 
#    y 0.000000 1.790440 0.000000 
#    z 0.048130 0.000000 1.756240 
# 
# From -- ./inp_files/372213.got.cif
#   From: 2010.05.17/outbox.cif.g08.bks.cpg/sg12_187_cif.got.tgz:372213.got - 2010.06.03 13:09:07.
