data_PCOD9195364
_publ_section_title
;
Structure prediction by ZEFSAII (Michael W. Deem and Ramdas Pophale) SiO2 
 PCOD9195364
Probable space group: C 2/M
;
_chemical_formula_sum "Si O2"
_cell_formula_units_Z 48
_cell_length_a 16.276658
_cell_length_b 9.124292
_cell_length_c 14.884790
_cell_angle_alpha 90.000000
_cell_angle_beta 109.271291
_cell_angle_gamma 90.000000
_cell_volume 2086.717611
_symmetry_space_group_name_H-M "C 2/M"
_symmetry_group_IT_number 12
_symmetry_cell_setting 'monoclinic'
loop_
_space_group_symop_operation_xyz
x,y,z
-x,y,-z
-x,-y,-z
x,-y,z
1/2+x,1/2+y,z
1/2-x,1/2+y,-z
1/2-x,1/2-y,-z
1/2+x,1/2-y,z
loop_
_atom_site_type_symbol
_atom_site_label
_atom_site_fract_x
_atom_site_fract_y
_atom_site_fract_z
Si Si1 0.977738 0.675172 0.801888
Si Si2 0.884187 0.667096 0.011406
Si Si3 0.363714 0.169500 0.457323
Si Si4 0.184098 0.328339 0.362120
Si Si5 0.742253 0.166561 0.857459
Si Si6 0.401821 0.673229 0.300916
O O1 0.786703 0.500000 0.630175
O O2 0.022682 0.711088 0.912973
O O3 0.030643 0.761415 0.745428
O O4 0.877136 0.702888 0.744591
O O5 0.888557 0.500000 0.977519
O O6 0.821025 0.663609 0.077108
O O7 0.833818 0.771454 0.925211
O O8 0.264131 0.220071 0.403898
O O9 0.373782 0.186222 0.567820
O O10 0.416672 0.265620 0.405991
O O11 0.377189 0.000000 0.439556
O O12 0.008765 0.500000 0.205634
O O13 0.691675 0.268775 0.769043
O O14 0.748750 0.000000 0.826309
O O15 0.403623 0.500000 0.300692
#
# Coordination Sequence:
#
# PCOD9195364 Si02
#       6
#     8   8   8   8   8   8
#     4   9  18  33  52  75 103 132 164 203 247 293
#     4   8  14  25  43  68  97 128 160 195 238 290
#     4  10  20  35  54  74  99 131 167 205 247 296
#     4   9  19  36  56  75  97 130 168 203 244 298
#     4   9  16  27  44  67  97 130 163 199 242 291
#     4  11  21  32  49  74 103 132 167 208 248 290
#
# _framework density 23.002635999999999
#
# number of rings (size 3 to 8) (size 9 to 14) (size 15 to 20)
#    0.000    2.667    0.000    3.500    0.000    6.000 
#    0.000    3.333    0.000    1.000    0.000    7.000 
#    0.000    0.000    0.000    0.000    0.000    0.000 
#
# Total GULP energy -134190.599178 kJ/mol
# GULP energy per Si atom -5591.274966 kJ/mol
# Density = 2.295028 g / cm^3
# Si number density = 23.002636 Si / 1000 Ang^3
#
#
#
# Elastic Constant Matrix: (Units=GPa)
#
#
# Indices 1 2 3 4 5 6 
#
# 1 55.4932 26.0534 29.5706 0.0000 1.0836 0.0000
# 2 26.0534 71.7554 54.3263 0.0000 0.8008 0.0000
# 3 29.5706 54.3263 120.7356 0.0000 11.4660 0.0000
# 4 0.0000 0.0000 0.0000 25.5432 0.0000 0.2627
# 5 1.0836 0.8008 11.4660 0.0000 49.5937 0.0000
# 6 0.0000 0.0000 0.0000 0.2627 0.0000 13.6145
#
#
#
# Elastic Compliance Matrix: (Units=1/GPa)
#
#
# Indices 1 2 3 4 5 6 
#
# 1 0.022317 -0.005990 -0.002795 0.000000 0.000255 0.000000
# 2 -0.005990 0.022921 -0.009022 0.000000 0.001847 0.000000
# 3 -0.002795 -0.009022 0.013299 0.000000 -0.002868 0.000000
# 4 0.000000 0.000000 0.000000 0.039157 0.000000 -0.000755
# 5 0.000255 0.001847 -0.002868 0.000000 0.020792 0.000000
# 6 0.000000 0.000000 0.000000 -0.000755 0.000000 0.073466
#
#
# Mechanical properties :
#
#
# Convention : Reuss Voigt Hill
#
# Bulk Modulus (GPa) = 43.62330 51.98720 47.80525
# Shear Modulus (GPa) = 21.25805 26.95254 24.10529
#
# Velocity S-wave (km/s) = 3.04329 3.42675 3.24070
# Velocity P-wave (km/s) = 5.59951 6.18922 5.90173
#
# Compressibility (1/GPa) = 0.02292353
#
# Stress axis : x y z
#
# Youngs Moduli (GPa) = 44.80958 43.62834 75.19391
#
# Poissons Ratio (x) = 0.26132 0.21016
# Poissons Ratio (y) = 0.26840 0.67839
# Poissons Ratio (z) = 0.12524 0.39361
#
# Static dielectric constant tensor:
#      x y z
#    x 1.961240 0.000000 -0.019430 
#    y 0.000000 1.765610 0.000000 
#    z -0.019430 0.000000 1.862950 
# 
# From -- ./inp_files/274059.got.cif
#   From: 2010.05.17/outbox.cif.g08.bks.cpg/sg12_138_cif.got.tgz:274059.got - 2010.06.03 13:09:07.
