data_PCOD9195721
_publ_section_title
;
Structure prediction by ZEFSAII (Michael W. Deem and Ramdas Pophale) SiO2 
 PCOD9195721
Probable space group: C 2/M
;
_chemical_formula_sum "Si O2"
_cell_formula_units_Z 56
_cell_length_a 28.785625
_cell_length_b 26.112539
_cell_length_c 12.558638
_cell_angle_alpha 90.000000
_cell_angle_beta 160.804273
_cell_angle_gamma 90.000000
_cell_volume 3103.802783
_symmetry_space_group_name_H-M "C 2/M"
_symmetry_group_IT_number 12
_symmetry_cell_setting 'monoclinic'
loop_
_space_group_symop_operation_xyz
x,y,z
-x,y,-z
-x,-y,-z
x,-y,z
1/2+x,1/2+y,z
1/2-x,1/2+y,-z
1/2-x,1/2-y,-z
1/2+x,1/2-y,z
loop_
_atom_site_type_symbol
_atom_site_label
_atom_site_fract_x
_atom_site_fract_y
_atom_site_fract_z
Si Si1 0.621481 0.635657 0.465851
Si Si2 0.474090 0.856676 0.767959
Si Si3 0.119637 0.817871 0.682091
Si Si4 0.083694 0.701608 0.573664
Si Si5 0.747374 0.300658 0.563493
Si Si6 0.810069 0.881210 0.725592
Si Si7 0.302790 0.060048 0.712514
O O1 0.658195 0.646023 0.667538
O O2 0.670964 0.688422 0.511217
O O3 0.706065 0.591025 0.587631
O O4 0.457790 0.618543 0.106209
O O5 0.461550 0.833804 0.622324
O O6 0.319861 0.860627 0.485384
O O7 0.590406 0.819746 0.074627
O O8 0.546660 0.912058 0.943608
O O9 0.064723 0.762967 0.516282
O O10 0.000000 0.839627 0.500000
O O11 0.252939 0.806410 0.044840
O O12 0.000000 0.688621 0.500000
O O13 0.750000 0.250000 0.500000
O O14 0.663313 0.339474 0.307332
O O15 0.756562 0.928291 0.535664
O O16 0.306396 0.000000 0.738916
#
# Coordination Sequence:
#
# PCOD9195721 Si02
#       7
#     8   8   8   8   8   8   8
#     4  10  21  37  55  83 113 147 195 231 285 345
#     4  10  21  36  55  83 113 148 194 237 286 334
#     4  10  21  35  56  82 112 153 190 231 284 335
#     4  10  20  35  55  79 112 153 195 228 274 338
#     4  10  21  32  49  75 113 156 185 222 275 337
#     4  10  21  33  52  82 113 141 185 233 281 343
#     4  10  21  40  60  80 113 150 191 237 286 349
#
# _framework density 18.042383999999998
#
# number of rings (size 3 to 8) (size 9 to 14) (size 15 to 20)
#    0.000    2.286    0.000    6.000    4.000    3.429 
#    0.000    0.000    0.000    4.286    0.000    0.000 
#    0.000    0.000    0.000    0.000    0.000    0.000 
#
# Total GULP energy -155897.326277 kJ/mol
# GULP energy per Si atom -5567.761653 kJ/mol
# Density = 1.800132 g / cm^3
# Si number density = 18.042384 Si / 1000 Ang^3
#
#
#
# Elastic Constant Matrix: (Units=GPa)
#
#
# Indices 1 2 3 4 5 6 
#
# 1 84.3003 30.3889 14.9076 0.0000 9.4233 0.0000
# 2 30.3889 88.1073 10.2853 0.0000 -12.1525 0.0000
# 3 14.9076 10.2853 66.6371 0.0000 15.0474 0.0000
# 4 0.0000 0.0000 0.0000 1.8838 0.0000 -1.2482
# 5 9.4233 -12.1525 15.0474 0.0000 34.9221 0.0000
# 6 0.0000 0.0000 0.0000 -1.2482 0.0000 15.4827
#
#
#
# Elastic Compliance Matrix: (Units=1/GPa)
#
#
# Indices 1 2 3 4 5 6 
#
# 1 0.014734 -0.005694 -0.001188 0.000000 -0.005446 0.000000
# 2 -0.005694 0.014721 -0.002772 0.000000 0.007853 0.000000
# 3 -0.001188 -0.002772 0.017553 0.000000 -0.008208 0.000000
# 4 0.000000 0.000000 0.000000 0.560791 0.000000 0.045210
# 5 -0.005446 0.007853 -0.008208 0.000000 0.036374 0.000000
# 6 0.000000 0.000000 0.000000 0.045210 0.000000 0.068233
#
#
# Mechanical properties :
#
#
# Convention : Reuss Voigt Hill
#
# Bulk Modulus (GPa) = 36.09986 38.91205 37.50596
# Shear Modulus (GPa) = 6.74813 22.68858 14.71835
#
# Velocity S-wave (km/s) = 1.93605 3.54999 2.85926
# Velocity P-wave (km/s) = 5.00495 6.19815 5.63323
#
# Compressibility (1/GPa) = 0.02770094
#
# Stress axis : x y z
#
# Youngs Moduli (GPa) = 67.87137 67.93240 56.96883
#
# Poissons Ratio (x) = 0.38682 0.06766
# Poissons Ratio (y) = 0.38648 0.15789
# Poissons Ratio (z) = 0.08060 0.18828
#
# Static dielectric constant tensor:
#      x y z
#    x 1.688770 0.000000 -0.027750 
#    y 0.000000 1.648780 0.000000 
#    z -0.027750 0.000000 1.722570 
# 
# From -- ./inp_files/185158.got.cif
#   From: 2010.05.17/outbox.cif.g08.bks.cpg/sg12_93_cif.got.tgz:185158.got - 2010.06.03 13:09:07.
