data_PCOD9195648
_publ_section_title
;
Structure prediction by ZEFSAII (Michael W. Deem and Ramdas Pophale) SiO2 
 PCOD9195648
Probable space group: C 2/M
;
_chemical_formula_sum "Si O2"
_cell_formula_units_Z 56
_cell_length_a 16.860128
_cell_length_b 7.734418
_cell_length_c 24.785897
_cell_angle_alpha 90.000000
_cell_angle_beta 136.116523
_cell_angle_gamma 90.000000
_cell_volume 2240.515468
_symmetry_space_group_name_H-M "C 2/M"
_symmetry_group_IT_number 12
_symmetry_cell_setting 'monoclinic'
loop_
_space_group_symop_operation_xyz
x,y,z
-x,y,-z
-x,-y,-z
x,-y,z
1/2+x,1/2+y,z
1/2-x,1/2+y,-z
1/2-x,1/2-y,-z
1/2+x,1/2-y,z
loop_
_atom_site_type_symbol
_atom_site_label
_atom_site_fract_x
_atom_site_fract_y
_atom_site_fract_z
Si Si1 0.407235 0.790208 0.761223
Si Si2 0.776066 0.304129 0.951582
Si Si3 0.981598 0.706867 0.679573
Si Si4 0.475061 0.298873 0.907396
Si Si5 0.412616 0.707626 0.534106
Si Si6 0.727332 0.198431 0.813798
Si Si7 0.338406 0.710692 0.384187
O O1 0.441467 0.732367 0.718277
O O2 0.481382 0.715652 0.845757
O O3 0.274660 0.735530 0.702443
O O4 0.414112 0.000000 0.767257
O O5 0.739799 0.500000 0.926286
O O6 0.719083 0.199104 0.875029
O O7 0.750000 0.250000 0.000000
O O8 0.913428 0.287412 0.013294
O O9 0.991713 0.500000 0.688808
O O10 0.110474 0.777810 0.733575
O O11 0.897594 0.740142 0.588472
O O12 0.478319 0.500000 0.925158
O O13 0.350651 0.221474 0.860684
O O14 0.410926 0.500000 0.532305
O O15 0.335707 0.765159 0.445957
O O16 0.541257 0.767900 0.581331
O O17 0.734000 0.000000 0.798327
O O18 0.339432 0.500000 0.384482
#
# Coordination Sequence:
#
# PCOD9195648 Si02
#       7
#     8   8   8   8   8   8   8
#     4  10  20  35  55  78 109 148 189 232 280 338
#     4  12  25  41  63  89 117 148 185 228 276 332
#     4  10  21  35  52  78 111 144 178 224 283 336
#     4  11  23  39  60  85 114 148 188 233 280 332
#     4   9  17  32  54  76 103 141 185 232 279 331
#     4  10  22  40  59  82 116 152 186 231 284 333
#     4   8  16  32  53  77 104 140 186 232 278 328
#
# _framework density 24.994247000000001
#
# number of rings (size 3 to 8) (size 9 to 14) (size 15 to 20)
#    0.000    2.000    0.000    4.714    0.000    5.714 
#    0.000    2.143    0.000    0.000    0.000    0.000 
#    0.000    0.000    0.000    0.000    0.000    0.000 
#
# Total GULP energy -156617.780753 kJ/mol
# GULP energy per Si atom -5593.492170 kJ/mol
# Density = 2.493736 g / cm^3
# Si number density = 24.994247 Si / 1000 Ang^3
#
#
#
# Elastic Constant Matrix: (Units=GPa)
#
#
# Indices 1 2 3 4 5 6 
#
# 1 54.1347 1.0930 -3.2890 0.0000 -12.6149 0.0000
# 2 1.0930 55.3234 -5.8499 0.0000 3.6568 0.0000
# 3 -3.2890 -5.8499 129.1342 0.0000 -17.9116 0.0000
# 4 0.0000 0.0000 0.0000 21.0674 0.0000 -4.8647
# 5 -12.6149 3.6568 -17.9116 0.0000 45.3953 0.0000
# 6 0.0000 0.0000 0.0000 -4.8647 0.0000 12.9971
#
#
#
# Elastic Compliance Matrix: (Units=1/GPa)
#
#
# Indices 1 2 3 4 5 6 
#
# 1 0.019996 -0.000660 0.001330 0.000000 0.006135 0.000000
# 2 -0.000660 0.018247 0.000614 0.000000 -0.001411 0.000000
# 3 0.001330 0.000614 0.008304 0.000000 0.003597 0.000000
# 4 0.000000 0.000000 0.000000 0.051957 0.000000 0.019447
# 5 0.006135 -0.001411 0.003597 0.000000 0.025266 0.000000
# 6 0.000000 0.000000 0.000000 0.019447 0.000000 0.084219
#
#
# Mechanical properties :
#
#
# Convention : Reuss Voigt Hill
#
# Bulk Modulus (GPa) = 20.35977 24.72229 22.54103
# Shear Modulus (GPa) = 22.54347 32.33451 27.43899
#
# Velocity S-wave (km/s) = 3.00650 3.60068 3.31692
# Velocity P-wave (km/s) = 4.49617 5.21528 4.86902
#
# Compressibility (1/GPa) = 0.04911647
#
# Stress axis : x y z
#
# Youngs Moduli (GPa) = 50.00959 54.80427 120.41667
#
# Poissons Ratio (x) = 0.03616 -0.16019
# Poissons Ratio (y) = 0.03300 -0.07394
# Poissons Ratio (z) = -0.06653 -0.03365
#
# Static dielectric constant tensor:
#      x y z
#    x 2.070260 0.000000 -0.012020 
#    y 0.000000 1.906520 0.000000 
#    z -0.012020 0.000000 1.930430 
# 
# From -- ./inp_files/342561.got.cif
#   From: 2010.05.17/outbox.cif.g08.bks.cpg/sg12_172_cif.got.tgz:342561.got - 2010.06.03 13:09:07.
