data_PCOD9195875
_publ_section_title
;
Structure prediction by ZEFSAII (Michael W. Deem and Ramdas Pophale) SiO2 
 PCOD9195875
Probable space group: C 2/M
;
_chemical_formula_sum "Si O2"
_cell_formula_units_Z 56
_cell_length_a 24.459077
_cell_length_b 18.460598
_cell_length_c 6.642736
_cell_angle_alpha 90.000000
_cell_angle_beta 114.266058
_cell_angle_gamma 90.000000
_cell_volume 2734.383852
_symmetry_space_group_name_H-M "C 2/M"
_symmetry_group_IT_number 12
_symmetry_cell_setting 'monoclinic'
loop_
_space_group_symop_operation_xyz
x,y,z
-x,y,-z
-x,-y,-z
x,-y,z
1/2+x,1/2+y,z
1/2-x,1/2+y,-z
1/2-x,1/2-y,-z
1/2+x,1/2-y,z
loop_
_atom_site_type_symbol
_atom_site_label
_atom_site_fract_x
_atom_site_fract_y
_atom_site_fract_z
Si Si1 0.755832 0.671336 0.271613
Si Si2 0.437131 0.840459 0.974034
Si Si3 0.352609 0.328777 0.177004
Si Si4 0.631247 0.755815 0.443714
Si Si5 0.777748 0.083396 0.391029
Si Si6 0.335375 0.915797 0.068945
Si Si7 0.061855 0.825637 0.017223
O O1 0.797688 0.731970 0.436124
O O2 0.728955 0.620546 0.403023
O O3 0.802384 0.626909 0.199952
O O4 0.701236 0.699303 0.049391
O O5 0.451847 0.758092 0.070966
O O6 0.500000 0.874590 0.000000
O O7 0.396394 0.881487 0.073575
O O8 0.398159 0.824205 0.712445
O O9 0.383450 0.264923 0.351001
O O10 0.322219 0.380138 0.295865
O O11 0.402026 0.363069 0.106108
O O12 0.606560 0.690256 0.269850
O O13 0.794619 0.000000 0.442577
O O14 0.712706 0.087477 0.185780
O O15 0.343877 0.000000 0.137181
O O16 0.000000 0.858512 0.000000
#
# Coordination Sequence:
#
# PCOD9195875 Si02
#       7
#     8   8   8   8   8   8   8
#     4  11  21  35  55  85 116 148 186 236 285 339
#     4   9  19  38  56  81 115 152 192 234 279 325
#     4  11  22  34  57  87 114 145 186 230 288 344
#     4  10  20  35  55  84 114 148 184 231 290 333
#     4  10  21  38  57  80 114 152 190 233 281 335
#     4  10  20  36  56  79 112 157 198 235 275 321
#     4   9  20  38  55  82 113 146 183 228 282 341
#
# _framework density 20.479935000000001
#
# number of rings (size 3 to 8) (size 9 to 14) (size 15 to 20)
#    0.857    1.143    1.429    2.571    0.000    4.857 
#    2.571    0.000    0.000    1.286    0.000    4.000 
#    0.000    0.571    0.000    0.000    0.000    0.000 
#
# Total GULP energy -156029.858748 kJ/mol
# GULP energy per Si atom -5572.494955 kJ/mol
# Density = 2.043332 g / cm^3
# Si number density = 20.479935 Si / 1000 Ang^3
#
#
#
# Elastic Constant Matrix: (Units=GPa)
#
#
# Indices 1 2 3 4 5 6 
#
# 1 163.3079 24.1776 58.1337 0.0000 -33.0928 0.0000
# 2 24.1776 37.3698 27.2552 0.0000 -6.7449 0.0000
# 3 58.1337 27.2552 102.2518 0.0000 -18.7183 0.0000
# 4 0.0000 0.0000 0.0000 15.5189 0.0000 -2.1572
# 5 -33.0928 -6.7449 -18.7183 0.0000 17.0198 0.0000
# 6 0.0000 0.0000 0.0000 -2.1572 0.0000 13.6192
#
#
#
# Elastic Compliance Matrix: (Units=1/GPa)
#
#
# Indices 1 2 3 4 5 6 
#
# 1 0.010863 -0.002102 -0.002381 0.000000 0.017670 0.000000
# 2 -0.002102 0.033876 -0.007669 0.000000 0.000903 0.000000
# 3 -0.002381 -0.007669 0.014742 0.000000 0.008544 0.000000
# 4 0.000000 0.000000 0.000000 0.065888 0.000000 0.010436
# 5 0.017670 0.000903 0.008544 0.000000 0.102866 0.000000
# 6 0.000000 0.000000 0.000000 0.010436 0.000000 0.075079
#
#
# Mechanical properties :
#
#
# Convention : Reuss Voigt Hill
#
# Bulk Modulus (GPa) = 28.42857 58.00695 43.21776
# Shear Modulus (GPa) = 14.73432 22.12244 18.42838
#
# Velocity S-wave (km/s) = 2.68517 3.29021 3.00296
# Velocity P-wave (km/s) = 4.85024 6.54364 5.75952
#
# Compressibility (1/GPa) = 0.03517588
#
# Stress axis : x y z
#
# Youngs Moduli (GPa) = 92.05758 29.51936 67.83471
#
# Poissons Ratio (x) = 0.06206 0.16150
# Poissons Ratio (y) = 0.19354 0.52023
# Poissons Ratio (z) = 0.21918 0.22639
#
# Static dielectric constant tensor:
#      x y z
#    x 1.759030 0.000000 0.001770 
#    y 0.000000 1.769450 0.000000 
#    z 0.001770 0.000000 1.746410 
# 
# From -- ./inp_files/25680.got.cif
#   From: 2010.05.17/outbox.cif.g08.bks.cpg/sg12_13_cif.got.tgz:25680.got - 2010.06.03 13:09:07.
