data_PCOD9195365
_publ_section_title
;
Structure prediction by ZEFSAII (Michael W. Deem and Ramdas Pophale) SiO2 
 PCOD9195365
Probable space group: C 2/M
;
_chemical_formula_sum "Si O2"
_cell_formula_units_Z 56
_cell_length_a 17.909427
_cell_length_b 7.520965
_cell_length_c 29.208654
_cell_angle_alpha 90.000000
_cell_angle_beta 138.159951
_cell_angle_gamma 90.000000
_cell_volume 2624.384086
_symmetry_space_group_name_H-M "C 2/M"
_symmetry_group_IT_number 12
_symmetry_cell_setting 'monoclinic'
loop_
_space_group_symop_operation_xyz
x,y,z
-x,y,-z
-x,-y,-z
x,-y,z
1/2+x,1/2+y,z
1/2-x,1/2+y,-z
1/2-x,1/2-y,-z
1/2+x,1/2-y,z
loop_
_atom_site_type_symbol
_atom_site_label
_atom_site_fract_x
_atom_site_fract_y
_atom_site_fract_z
Si Si1 0.665961 0.787187 0.504053
Si Si2 0.467007 0.203858 0.357927
Si Si3 0.632389 0.711369 0.350994
Si Si4 0.949376 0.204312 0.930781
Si Si5 0.379510 0.787820 0.068406
Si Si6 0.951895 0.712776 0.201066
Si Si7 0.790333 0.718472 0.209767
O O1 0.750000 0.750000 0.500000
O O2 0.544580 0.715071 0.433438
O O3 0.740502 0.727092 0.581311
O O4 0.651940 0.000000 0.501383
O O5 0.550436 0.203120 0.351689
O O6 0.353431 0.281668 0.284681
O O7 0.442790 0.000000 0.359951
O O8 0.629127 0.500000 0.358115
O O9 0.575463 0.744309 0.276246
O O10 0.835559 0.279246 0.857143
O O11 0.044920 0.206945 0.936614
O O12 0.919525 0.000000 0.929392
O O13 0.000000 0.287648 0.000000
O O14 0.419047 0.720643 0.136143
O O15 0.395962 0.000000 0.074587
O O16 0.250000 0.750000 0.000000
O O17 0.941991 0.500000 0.195315
O O18 0.864850 0.774825 0.200171
O O19 0.792810 0.500000 0.213167
#
# Coordination Sequence:
#
# PCOD9195365 Si02
#       7
#     8   8   8   8   8   8   8
#     4   8  13  20  32  54  86 121 155 194 237 278
#     4   8  13  23  38  57  87 127 164 194 231 284
#     4   9  15  22  36  62  92 120 154 198 243 280
#     4  10  20  35  54  75 101 131 161 197 242 291
#     4  11  23  38  56  77 100 127 161 200 242 290
#     4   9  18  33  50  68  94 129 163 193 234 289
#     4   8  14  27  48  69  90 124 165 196 230 282
#
# _framework density 21.338341
#
# number of rings (size 3 to 8) (size 9 to 14) (size 15 to 20)
#    0.000    3.000    0.000    2.571    0.000    4.286 
#    0.000    2.857    0.000    0.000    0.000    1.000 
#    0.000    8.000    0.000    0.000    0.000    0.000 
#
# Total GULP energy -155969.648173 kJ/mol
# GULP energy per Si atom -5570.344578 kJ/mol
# Density = 2.128977 g / cm^3
# Si number density = 21.338341 Si / 1000 Ang^3
#
#
#
# Elastic Constant Matrix: (Units=GPa)
#
#
# Indices 1 2 3 4 5 6 
#
# 1 39.4120 -8.2392 59.1385 0.0001 5.4713 -0.0001
# 2 -8.2392 60.3735 -5.8916 0.0004 1.3450 -0.0006
# 3 59.1385 -5.8916 272.4705 0.0000 15.9762 0.0000
# 4 0.0001 0.0004 0.0000 3.5540 0.0000 3.7599
# 5 5.4713 1.3450 15.9762 0.0000 22.7089 0.0000
# 6 -0.0001 -0.0006 0.0000 3.7599 0.0000 7.3347
#
#
#
# Elastic Compliance Matrix: (Units=1/GPa)
#
#
# Indices 1 2 3 4 5 6 
#
# 1 0.039140 0.004633 -0.008163 -0.000006 -0.003962 0.000004
# 2 0.004633 0.017183 -0.000531 -0.000008 -0.001761 0.000006
# 3 -0.008163 -0.000531 0.005542 0.000001 -0.001901 -0.000001
# 4 -0.000006 -0.000008 0.000001 0.614794 0.000001 -0.315159
# 5 -0.003962 -0.001761 -0.001901 0.000001 0.046432 -0.000001
# 6 0.000004 0.000006 -0.000001 -0.315159 -0.000001 0.297897
#
#
# Mechanical properties :
#
#
# Convention : Reuss Voigt Hill
#
# Bulk Modulus (GPa) = 18.60671 51.36352 34.98512
# Shear Modulus (GPa) = 4.77545 28.53606 16.65575
#
# Velocity S-wave (km/s) = 1.49761 3.66090 2.79687
# Velocity P-wave (km/s) = 3.42479 6.48019 5.18276
#
# Compressibility (1/GPa) = 0.05374404
#
# Stress axis : x y z
#
# Youngs Moduli (GPa) = 25.54949 58.19618 180.44834
#
# Poissons Ratio (x) = -0.26963 1.47293
# Poissons Ratio (y) = -0.11837 0.09579
# Poissons Ratio (z) = 0.20855 0.03089
#
# Static dielectric constant tensor:
#      x y z
#    x 1.713050 0.000000 -0.010750 
#    y 0.000000 1.223000 0.000000 
#    z -0.010750 0.000000 1.869930 
# 
# From -- ./inp_files/377748.got.cif
#   From: 2010.05.17/outbox.cif.g08.bks.cpg/sg12_189_cif.got.tgz:377748.got - 2010.06.03 13:09:07.
