data_PCOD9195766
_publ_section_title
;
Structure prediction by ZEFSAII (Michael W. Deem and Ramdas Pophale) SiO2 
 PCOD9195766
Probable space group: C 2/M
;
_chemical_formula_sum "Si O2"
_cell_formula_units_Z 48
_cell_length_a 15.356644
_cell_length_b 8.386053
_cell_length_c 27.374923
_cell_angle_alpha 90.000000
_cell_angle_beta 145.372745
_cell_angle_gamma 90.000000
_cell_volume 2003.249245
_symmetry_space_group_name_H-M "C 2/M"
_symmetry_group_IT_number 12
_symmetry_cell_setting 'monoclinic'
loop_
_space_group_symop_operation_xyz
x,y,z
-x,y,-z
-x,-y,-z
x,-y,z
1/2+x,1/2+y,z
1/2-x,1/2+y,-z
1/2-x,1/2-y,-z
1/2+x,1/2-y,z
loop_
_atom_site_type_symbol
_atom_site_label
_atom_site_fract_x
_atom_site_fract_y
_atom_site_fract_z
Si Si1 0.968222 0.189462 0.195849
Si Si2 0.153655 0.682721 0.713244
Si Si3 0.328243 0.185987 0.882915
Si Si4 0.531818 0.809341 0.458920
Si Si5 0.840824 0.321759 0.629134
Si Si6 0.422141 0.190436 0.070324
O O1 0.803563 0.253060 0.141542
O O2 0.001882 0.258524 0.158044
O O3 0.099583 0.225937 0.296071
O O4 0.952922 0.000000 0.184156
O O5 0.218346 0.500000 0.740518
O O6 0.247384 0.794277 0.792647
O O7 0.103721 0.751520 0.638168
O O8 0.989022 0.668872 0.663419
O O9 0.496316 0.249018 0.942827
O O10 0.344590 0.000000 0.903255
O O11 0.500000 0.770014 0.500000
O O12 0.704668 0.750575 0.534414
O O13 0.528562 0.000000 0.450907
O O14 0.798203 0.500000 0.624951
O O15 0.420504 0.000000 0.066013
O O16 0.250000 0.250000 0.000000
#
# Coordination Sequence:
#
# PCOD9195766 Si02
#       6
#     8   8   8   8   8   8
#     4  10  21  40  64  88 117 157 196 239 293 348
#     4   9  19  35  55  79 110 149 193 238 287 341
#     4   9  21  40  62  87 118 155 196 239 290 350
#     4  10  21  34  49  77 113 150 193 239 286 339
#     4  10  20  35  55  80 110 148 193 241 287 339
#     4  11  24  42  63  92 123 154 192 238 291 351
#
# _framework density 23.961072000000001
#
# number of rings (size 3 to 8) (size 9 to 14) (size 15 to 20)
#    0.000    2.167    0.000    2.000    2.333    4.333 
#    0.000    3.333    0.000    0.000    0.000    0.000 
#    0.000    0.000    0.000    0.000    0.000    0.000 
#
# Total GULP energy -133947.860068 kJ/mol
# GULP energy per Si atom -5581.160836 kJ/mol
# Density = 2.390654 g / cm^3
# Si number density = 23.961072 Si / 1000 Ang^3
#
#
#
# Elastic Constant Matrix: (Units=GPa)
#
#
# Indices 1 2 3 4 5 6 
#
# 1 138.5462 2.9737 -10.9674 0.0000 -2.0844 0.0000
# 2 2.9737 149.0417 42.1045 0.0000 46.1914 0.0000
# 3 -10.9674 42.1045 66.4766 0.0000 13.0283 0.0000
# 4 0.0000 0.0000 0.0000 29.1882 0.0000 -0.1512
# 5 -2.0844 46.1914 13.0283 0.0000 63.5113 0.0000
# 6 0.0000 0.0000 0.0000 -0.1512 0.0000 19.3612
#
#
#
# Elastic Compliance Matrix: (Units=1/GPa)
#
#
# Indices 1 2 3 4 5 6 
#
# 1 0.007367 -0.000737 0.001594 0.000000 0.000451 0.000000
# 2 -0.000737 0.010199 -0.005338 0.000000 -0.006347 0.000000
# 3 0.001594 -0.005338 0.018666 0.000000 0.000105 0.000000
# 4 0.000000 0.000000 0.000000 0.034262 0.000000 0.000267
# 5 0.000451 -0.006347 0.000105 0.000000 0.020355 0.000000
# 6 0.000000 0.000000 0.000000 0.000267 0.000000 0.051652
#
#
# Mechanical properties :
#
#
# Convention : Reuss Voigt Hill
#
# Bulk Modulus (GPa) = 36.67013 46.92067 41.79540
# Shear Modulus (GPa) = 31.14263 43.74237 37.44250
#
# Velocity S-wave (km/s) = 3.60907 4.27729 3.95731
# Velocity P-wave (km/s) = 5.71878 6.63462 6.19365
#
# Compressibility (1/GPa) = 0.02727016
#
# Stress axis : x y z
#
# Youngs Moduli (GPa) = 135.74841 98.04662 53.57368
#
# Poissons Ratio (x) = 0.07225 -0.08538
# Poissons Ratio (y) = 0.10004 0.28595
# Poissons Ratio (z) = -0.21635 0.52333
#
# Static dielectric constant tensor:
#      x y z
#    x 2.057840 0.000000 0.082440 
#    y 0.000000 1.849140 0.000000 
#    z 0.082440 0.000000 2.132310 
# 
# From -- ./inp_files/274065.got.cif
#   From: 2010.05.17/outbox.cif.g08.bks.cpg/sg12_138_cif.got.tgz:274065.got - 2010.06.03 13:09:07.
