data_PCOD9195726
_publ_section_title
;
Structure prediction by ZEFSAII (Michael W. Deem and Ramdas Pophale) SiO2 
 PCOD9195726
Probable space group: C 2/M
;
_chemical_formula_sum "Si O2"
_cell_formula_units_Z 64
_cell_length_a 17.969584
_cell_length_b 15.676232
_cell_length_c 24.255350
_cell_angle_alpha 90.000000
_cell_angle_beta 27.275532
_cell_angle_gamma 90.000000
_cell_volume 3131.184860
_symmetry_space_group_name_H-M "C 2/M"
_symmetry_group_IT_number 12
_symmetry_cell_setting 'monoclinic'
loop_
_space_group_symop_operation_xyz
x,y,z
-x,y,-z
-x,-y,-z
x,-y,z
1/2+x,1/2+y,z
1/2-x,1/2+y,-z
1/2-x,1/2-y,-z
1/2+x,1/2-y,z
loop_
_atom_site_type_symbol
_atom_site_label
_atom_site_fract_x
_atom_site_fract_y
_atom_site_fract_z
Si Si1 0.131723 0.405459 0.864924
Si Si2 0.752229 0.095213 0.506372
Si Si3 0.319642 0.721626 0.143562
Si Si4 0.777658 0.595970 0.700581
Si Si5 0.947319 0.400121 0.206476
Si Si6 0.113714 0.846171 0.471705
Si Si7 0.612240 0.901912 0.204178
Si Si8 0.631112 0.845985 0.478909
O O1 0.212115 0.500000 0.808496
O O2 0.233425 0.319424 0.809295
O O3 0.038831 0.391095 0.867968
O O4 0.000000 0.410422 0.000000
O O5 0.873394 0.112508 0.476777
O O6 0.572768 0.100135 0.651583
O O7 0.745058 0.154194 0.457411
O O8 0.777862 0.000000 0.468157
O O9 0.314285 0.665984 0.202835
O O10 0.211097 0.668545 0.172103
O O11 0.500000 0.725353 0.000000
O O12 0.716121 0.500000 0.749305
O O13 0.782971 0.620050 0.632622
O O14 0.967362 0.599085 0.594852
O O15 0.905650 0.500000 0.244793
O O16 0.793268 0.346274 0.327386
O O17 0.096510 0.382777 0.149151
O O18 0.065408 0.748743 0.512678
O O19 0.000000 0.886885 0.500000
O O20 0.671855 0.000000 0.172964
#
# Coordination Sequence:
#
# PCOD9195726 Si02
#       8
#     8   8   8   8   8   8   8   8
#     4   9  19  37  59  83 109 144 192 235 279 341
#     4  10  20  35  55  79 113 156 196 235 284 345
#     4  11  22  36  59  90 118 146 190 243 293 334
#     4  11  21  34  57  84 119 157 193 233 281 350
#     4   9  19  36  59  81 108 151 194 238 283 337
#     4  11  21  33  53  84 114 146 192 243 291 336
#     4   9  18  34  56  84 115 149 191 233 281 345
#     4  11  20  35  54  83 116 156 197 227 278 350
#
# _framework density 20.439547999999998
#
# number of rings (size 3 to 8) (size 9 to 14) (size 15 to 20)
#    0.000    1.875    2.500    4.125    0.000    2.000 
#    0.000    2.500    0.000    1.500    0.000    7.000 
#    0.000    0.000    0.000    0.000    0.000    0.000 
#
# Total GULP energy -178506.732090 kJ/mol
# GULP energy per Si atom -5578.335378 kJ/mol
# Density = 2.039303 g / cm^3
# Si number density = 20.439548 Si / 1000 Ang^3
#
#
#
# Elastic Constant Matrix: (Units=GPa)
#
#
# Indices 1 2 3 4 5 6 
#
# 1 156.3293 37.7208 16.8303 0.0000 16.1795 -0.0001
# 2 37.7208 115.5679 20.1614 0.0050 -3.0076 -0.0015
# 3 16.8303 20.1614 38.6105 0.0067 17.3291 -0.0028
# 4 0.0000 0.0050 0.0067 7.7546 -0.0049 9.2807
# 5 16.1795 -3.0076 17.3291 -0.0049 30.0698 0.0014
# 6 -0.0001 -0.0015 -0.0028 9.2807 0.0014 23.8682
#
#
#
# Elastic Compliance Matrix: (Units=1/GPa)
#
#
# Indices 1 2 3 4 5 6 
#
# 1 0.007452 -0.002541 -0.000010 -0.000002 -0.004258 0.000001
# 2 -0.002541 0.011017 -0.007761 0.000009 0.006942 -0.000004
# 3 -0.000010 -0.007761 0.040875 -0.000098 -0.024327 0.000044
# 4 -0.000002 0.000009 -0.000098 0.241197 0.000102 -0.093785
# 5 -0.004258 0.006942 -0.024327 0.000102 0.050261 -0.000045
# 6 0.000001 -0.000004 0.000044 -0.093785 -0.000045 0.078363
#
#
# Mechanical properties :
#
#
# Convention : Reuss Voigt Hill
#
# Bulk Modulus (GPa) = 25.82689 51.10365 38.46527
# Shear Modulus (GPa) = 10.80626 28.05819 19.43222
#
# Velocity S-wave (km/s) = 2.30183 3.70907 3.08671
# Velocity P-wave (km/s) = 4.44159 6.58783 5.61815
#
# Compressibility (1/GPa) = 0.03871933
#
# Stress axis : x y z
#
# Youngs Moduli (GPa) = 134.19768 90.76973 24.46493
#
# Poissons Ratio (x) = 0.23067 0.00025
# Poissons Ratio (y) = 0.34103 0.18986
# Poissons Ratio (z) = 0.00138 0.70443
#
# Static dielectric constant tensor:
#      x y z
#    x 1.770950 0.000000 0.012140 
#    y 0.000000 1.750640 0.000010 
#    z 0.012140 0.000010 1.710910 
# 
# From -- ./inp_files/344007.got.cif
#   From: 2010.05.17/outbox.cif.g08.bks.cpg/sg12_173_cif.got.tgz:344007.got - 2010.06.03 13:09:07.
