data_PCOD9195276
_publ_section_title
;
Structure prediction by ZEFSAII (Michael W. Deem and Ramdas Pophale) SiO2 
 PCOD9195276
Probable space group: C 2/M
;
_chemical_formula_sum "Si O2"
_cell_formula_units_Z 56
_cell_length_a 11.989609
_cell_length_b 31.876049
_cell_length_c 8.025332
_cell_angle_alpha 90.000000
_cell_angle_beta 67.259797
_cell_angle_gamma 90.000000
_cell_volume 2828.715184
_symmetry_space_group_name_H-M "C 2/M"
_symmetry_group_IT_number 12
_symmetry_cell_setting 'monoclinic'
loop_
_space_group_symop_operation_xyz
x,y,z
-x,y,-z
-x,-y,-z
x,-y,z
1/2+x,1/2+y,z
1/2-x,1/2+y,-z
1/2-x,1/2-y,-z
1/2+x,1/2-y,z
loop_
_atom_site_type_symbol
_atom_site_label
_atom_site_fract_x
_atom_site_fract_y
_atom_site_fract_z
Si Si1 0.571880 0.654556 0.623931
Si Si2 0.898488 0.547248 0.709889
Si Si3 0.761778 0.828778 0.033908
Si Si4 0.484492 0.133152 0.710435
Si Si5 0.087642 0.230283 0.816242
Si Si6 0.200201 0.312849 0.692807
Si Si7 0.632002 0.589234 0.869981
O O1 0.500000 0.643422 0.500000
O O2 0.516332 0.693396 0.760731
O O3 0.695732 0.675584 0.494180
O O4 0.602089 0.615056 0.719799
O O5 0.894766 0.500000 0.779744
O O6 0.755630 0.561869 0.767024
O O7 0.000000 0.545497 0.500000
O O8 0.952498 0.585800 0.782758
O O9 0.628211 0.838503 0.177016
O O10 0.816622 0.794741 0.127174
O O11 0.833203 0.873285 0.018815
O O12 0.750248 0.813761 0.851445
O O13 0.500000 0.134011 0.500000
O O14 0.600971 0.151173 0.731349
O O15 0.143616 0.267941 0.681517
O O16 0.000000 0.251935 0.000000
O O17 0.500000 0.570065 0.000000
#
# Coordination Sequence:
#
# PCOD9195276 Si02
#       7
#     8   8   8   8   8   8   8
#     4  11  22  36  54  77 106 144 186 228 280 334
#     4   9  18  35  60  87 114 145 180 222 277 339
#     4  10  20  35  53  75 108 147 188 231 280 329
#     4  10  20  35  54  80 110 142 183 228 277 334
#     4  11  22  36  50  72 105 143 188 235 279 323
#     4  12  22  34  53  77 105 144 190 235 277 323
#     4  10  20  37  59  84 113 145 183 229 277 335
#
# _framework density 19.796972
#
# number of rings (size 3 to 8) (size 9 to 14) (size 15 to 20)
#    0.000    1.571    0.000    9.000    0.000    2.000 
#    0.000    0.000    0.000    7.286    0.000    6.000 
#    0.000    0.000    0.000    0.000    0.000    0.000 
#
# Total GULP energy -156075.483007 kJ/mol
# GULP energy per Si atom -5574.124393 kJ/mol
# Density = 1.975191 g / cm^3
# Si number density = 19.796972 Si / 1000 Ang^3
#
#
#
# Elastic Constant Matrix: (Units=GPa)
#
#
# Indices 1 2 3 4 5 6 
#
# 1 77.2025 35.5656 8.3246 0.0000 -5.9742 0.0000
# 2 35.5656 98.8832 13.6284 0.0000 -2.4382 0.0000
# 3 8.3246 13.6284 55.7430 0.0000 -8.7489 0.0000
# 4 0.0000 0.0000 0.0000 -6.8897 0.0000 4.7847
# 5 -5.9742 -2.4382 -8.7489 0.0000 48.9011 0.0000
# 6 0.0000 0.0000 0.0000 4.7847 0.0000 9.2904
#
#
#
# Elastic Compliance Matrix: (Units=1/GPa)
#
#
# Indices 1 2 3 4 5 6 
#
# 1 0.015685 -0.005499 -0.000762 0.000000 0.001506 0.000000
# 2 -0.005499 0.012394 -0.002281 0.000000 -0.000462 0.000000
# 3 -0.000762 -0.002281 0.019115 0.000000 0.003213 0.000000
# 4 0.000000 0.000000 0.000000 -0.106908 0.000000 0.055059
# 5 0.001506 -0.000462 0.003213 0.000000 0.021185 0.000000
# 6 0.000000 0.000000 0.000000 0.055059 0.000000 0.079281
#
#
# Mechanical properties :
#
#
# Convention : Reuss Voigt Hill
#
# Bulk Modulus (GPa) = 33.21195 38.54065 35.87630
# Shear Modulus (GPa) = 73.66553 21.88106 47.77329
#
# Velocity S-wave (km/s) = 6.10666 3.32817 4.91772
# Velocity P-wave (km/s) = 8.15686 5.85484 7.09977
#
# Compressibility (1/GPa) = 0.03010964
#
# Stress axis : x y z
#
# Youngs Moduli (GPa) = 63.75497 80.68441 52.31419
#
# Poissons Ratio (x) = 0.44372 0.03984
# Poissons Ratio (y) = 0.35061 0.11935
# Poissons Ratio (z) = 0.04855 0.18407
#
# Static dielectric constant tensor:
#      x y z
#    x 1.737340 0.000000 -0.063510 
#    y 0.000000 1.683940 0.000000 
#    z -0.063510 0.000000 1.797810 
# 
# From -- ./inp_files/54153.got.cif
#   From: 2010.05.17/outbox.cif.g08.bks.cpg/sg12_28_cif.got.tgz:54153.got - 2010.06.03 13:09:07.
