data_PCOD9195914
_publ_section_title
;
Structure prediction by ZEFSAII (Michael W. Deem and Ramdas Pophale) SiO2 
 PCOD9195914
Probable space group: C 2/M
;
_chemical_formula_sum "Si O2"
_cell_formula_units_Z 64
_cell_length_a 17.771880
_cell_length_b 14.465154
_cell_length_c 21.686858
_cell_angle_alpha 90.000000
_cell_angle_beta 149.639245
_cell_angle_gamma 90.000000
_cell_volume 2817.897151
_symmetry_space_group_name_H-M "C 2/M"
_symmetry_group_IT_number 12
_symmetry_cell_setting 'monoclinic'
loop_
_space_group_symop_operation_xyz
x,y,z
-x,y,-z
-x,-y,-z
x,-y,z
1/2+x,1/2+y,z
1/2-x,1/2+y,-z
1/2-x,1/2-y,-z
1/2+x,1/2-y,z
loop_
_atom_site_type_symbol
_atom_site_label
_atom_site_fract_x
_atom_site_fract_y
_atom_site_fract_z
Si Si1 0.097753 0.890183 0.009084
Si Si2 0.911059 0.711496 0.241615
Si Si3 0.646412 0.705516 0.681432
Si Si4 0.308588 0.889596 0.499319
Si Si5 0.643259 0.606522 0.502950
Si Si6 0.821482 0.394886 0.367705
Si Si7 0.881329 0.398224 0.774661
Si Si8 0.074785 0.765646 0.882110
O O1 0.270433 0.857264 0.133269
O O2 0.093106 0.000000 0.005445
O O3 0.038929 0.850622 0.901843
O O4 0.000000 0.858922 0.000000
O O5 0.843296 0.788929 0.238044
O O6 0.971893 0.755986 0.221996
O O7 0.041159 0.660712 0.372066
O O8 0.474731 0.675470 0.550002
O O9 0.695645 0.804887 0.687896
O O10 0.750824 0.626855 0.728994
O O11 0.183089 0.867431 0.461167
O O12 0.268780 0.871428 0.399971
O O13 0.334740 0.000000 0.521785
O O14 0.588694 0.500000 0.466913
O O15 0.797292 0.608010 0.649403
O O16 0.769883 0.500000 0.312320
O O17 0.000000 0.402879 0.500000
O O18 0.941453 0.500000 0.825069
O O19 0.005774 0.322137 0.867192
O O20 0.250000 0.750000 0.000000
#
# Coordination Sequence:
#
# PCOD9195914 Si02
#       8
#     8   8   8   8   8   8   8   8
#     4  10  22  43  69  95 124 158 202 266 337 402
#     4  11  22  37  64  92 127 170 214 264 320 391
#     4  12  24  38  61  95 140 182 222 268 314 379
#     4  10  20  36  58  87 123 172 228 269 313 379
#     4  10  22  39  60  89 128 178 230 270 313 376
#     4  10  20  35  55  86 130 177 223 269 318 370
#     4  11  23  41  66  94 127 171 225 270 322 389
#     4  10  23  43  67  97 122 155 214 276 331 387
#
# _framework density 22.711971999999999
#
# number of rings (size 3 to 8) (size 9 to 14) (size 15 to 20)
#    0.000    1.500    2.500    2.625    0.000    5.000 
#    0.000    1.875    0.000    7.875    0.000    0.000 
#    0.000    0.000    0.000    0.000    0.000    0.000 
#
# Total GULP energy -178830.478310 kJ/mol
# GULP energy per Si atom -5588.452447 kJ/mol
# Density = 2.266028 g / cm^3
# Si number density = 22.711972 Si / 1000 Ang^3
#
#
#
# Elastic Constant Matrix: (Units=GPa)
#
#
# Indices 1 2 3 4 5 6 
#
# 1 153.4779 41.1967 10.0401 0.0008 -5.7532 0.0003
# 2 41.1967 79.4225 27.7472 0.0035 -2.9674 0.0008
# 3 10.0401 27.7472 47.9563 0.0103 9.4450 0.0021
# 4 0.0008 0.0035 0.0103 28.7796 0.0022 -4.6861
# 5 -5.7532 -2.9674 9.4450 0.0022 29.8998 0.0002
# 6 0.0003 0.0008 0.0021 -4.6861 0.0002 24.6358
#
#
#
# Elastic Compliance Matrix: (Units=1/GPa)
#
#
# Indices 1 2 3 4 5 6 
#
# 1 0.007618 -0.004140 0.000632 0.000000 0.000855 0.000000
# 2 -0.004140 0.018689 -0.010829 0.000001 0.004479 0.000001
# 3 0.000632 -0.010829 0.028976 -0.000009 -0.010106 -0.000004
# 4 0.000000 0.000001 -0.000009 0.035857 0.000000 0.006821
# 5 0.000855 0.004479 -0.010106 0.000000 0.037247 0.000001
# 6 0.000000 0.000001 -0.000004 0.006821 0.000001 0.041889
#
#
# Mechanical properties :
#
#
# Convention : Reuss Voigt Hill
#
# Bulk Modulus (GPa) = 37.58104 48.75829 43.16966
# Shear Modulus (GPa) = 24.05957 30.12122 27.09039
#
# Velocity S-wave (km/s) = 3.25827 3.64569 3.45741
# Velocity P-wave (km/s) = 5.54417 6.26387 5.91498
#
# Compressibility (1/GPa) = 0.02660916
#
# Stress axis : x y z
#
# Youngs Moduli (GPa) = 131.27472 53.50780 34.51165
#
# Poissons Ratio (x) = 0.22153 -0.02182
# Poissons Ratio (y) = 0.54351 0.37371
# Poissons Ratio (z) = -0.08300 0.57941
#
# Static dielectric constant tensor:
#      x y z
#    x 1.901760 0.000000 -0.002360 
#    y 0.000000 1.851560 0.000000 
#    z -0.002360 0.000000 1.926800 
# 
# From -- ./inp_files/344081.got.cif
#   From: 2010.05.17/outbox.cif.g08.bks.cpg/sg12_173_cif.got.tgz:344081.got - 2010.06.03 13:09:07.
