data_PCOD9195845
_publ_section_title
;
Structure prediction by ZEFSAII (Michael W. Deem and Ramdas Pophale) SiO2 
 PCOD9195845
Probable space group: C 2/M
;
_chemical_formula_sum "Si O2"
_cell_formula_units_Z 40
_cell_length_a 17.096444
_cell_length_b 7.836964
_cell_length_c 27.179865
_cell_angle_alpha 90.000000
_cell_angle_beta 26.933091
_cell_angle_gamma 90.000000
_cell_volume 1649.494610
_symmetry_space_group_name_H-M "C 2/M"
_symmetry_group_IT_number 12
_symmetry_cell_setting 'monoclinic'
loop_
_space_group_symop_operation_xyz
x,y,z
-x,y,-z
-x,-y,-z
x,-y,z
1/2+x,1/2+y,z
1/2-x,1/2+y,-z
1/2-x,1/2-y,-z
1/2+x,1/2-y,z
loop_
_atom_site_type_symbol
_atom_site_label
_atom_site_fract_x
_atom_site_fract_y
_atom_site_fract_z
Si Si1 0.943102 0.202637 0.776428
Si Si2 0.507196 0.692725 0.845416
Si Si3 0.130107 0.801043 0.380986
Si Si4 0.298610 0.701806 0.526475
Si Si5 0.873687 0.204928 0.114147
O O1 0.814181 0.256257 0.804485
O O2 0.908021 0.270358 0.852676
O O3 0.139098 0.245652 0.650204
O O4 0.928549 0.000000 0.788527
O O5 0.439711 0.500000 0.890589
O O6 0.550850 0.770108 0.875285
O O7 0.700919 0.690662 0.714945
O O8 0.993499 0.728237 0.419445
O O9 0.000000 0.797061 0.500000
O O10 0.181630 0.000000 0.344817
O O11 0.318288 0.500000 0.522848
O O12 0.250000 0.750000 0.500000
O O13 0.881062 0.000000 0.114506
O O14 0.000000 0.264281 0.000000
#
# Coordination Sequence:
#
# PCOD9195845 Si02
#       5
#     8   8   8   8   8
#     4  11  23  39  60  89 122 156 199 249 303 360
#     4  10  22  39  61  89 122 159 200 247 299 356
#     4  10  20  35  55  82 116 154 195 236 283 344
#     4  11  22  36  56  84 120 160 201 244 293 350
#     4  10  23  44  66  88 117 156 202 253 309 365
#
# _framework density 24.249849999999999
#
# number of rings (size 3 to 8) (size 9 to 14) (size 15 to 20)
#    0.000    1.600    2.000    2.400    0.000    8.000 
#    0.000    0.000    0.000    0.000    0.000    0.000 
#    0.000    0.000    0.000    0.000    0.000    0.000 
#
# Total GULP energy -111335.865780 kJ/mol
# GULP energy per Si atom -5566.793289 kJ/mol
# Density = 2.419466 g / cm^3
# Si number density = 24.249850 Si / 1000 Ang^3
#
#
#
# Elastic Constant Matrix: (Units=GPa)
#
#
# Indices 1 2 3 4 5 6 
#
# 1 151.6098 1.1766 21.3039 0.0001 41.5464 -0.0001
# 2 1.1766 40.3687 4.8411 -0.0001 8.3686 -0.0007
# 3 21.3039 4.8411 59.9427 -0.0016 15.1811 0.0002
# 4 0.0001 -0.0001 -0.0016 17.3952 0.0001 -5.5074
# 5 41.5464 8.3686 15.1811 0.0001 48.9268 0.0000
# 6 -0.0001 -0.0007 0.0002 -5.5074 0.0000 37.1892
#
#
#
# Elastic Compliance Matrix: (Units=1/GPa)
#
#
# Indices 1 2 3 4 5 6 
#
# 1 0.008769 0.001416 -0.001393 0.000000 -0.007256 0.000000
# 2 0.001416 0.025971 -0.001271 0.000000 -0.005250 0.000001
# 3 -0.001393 -0.001271 0.018369 0.000002 -0.004299 0.000000
# 4 0.000000 0.000000 0.000002 0.060315 -0.000001 0.008932
# 5 -0.007256 -0.005250 -0.004299 -0.000001 0.028832 0.000000
# 6 0.000000 0.000001 0.000000 0.008932 0.000000 0.028212
#
#
# Mechanical properties :
#
#
# Convention : Reuss Voigt Hill
#
# Bulk Modulus (GPa) = 19.75798 34.06271 26.91034
# Shear Modulus (GPa) = 26.33839 35.67556 31.00697
#
# Velocity S-wave (km/s) = 3.29922 3.83974 3.57970
# Velocity P-wave (km/s) = 4.76219 5.80820 5.31101
#
# Compressibility (1/GPa) = 0.05061246
#
# Stress axis : x y z
#
# Youngs Moduli (GPa) = 114.03666 38.50422 54.43887
#
# Poissons Ratio (x) = -0.05451 0.07584
# Poissons Ratio (y) = -0.16144 0.06919
# Poissons Ratio (z) = 0.15888 0.04894
#
# Static dielectric constant tensor:
#      x y z
#    x 2.482300 0.000000 0.042170 
#    y 0.000000 1.924720 0.000000 
#    z 0.042170 0.000000 1.927450 
# 
# From -- ./inp_files/273540.got.cif
#   From: 2010.05.17/outbox.cif.g08.bks.cpg/sg12_137_cif.got.tgz:273540.got - 2010.06.03 13:09:07.
