data_PCOD9195267
_publ_section_title
;
Structure prediction by ZEFSAII (Michael W. Deem and Ramdas Pophale) SiO2 
 PCOD9195267
Probable space group: C 2/M
;
_chemical_formula_sum "Si O2"
_cell_formula_units_Z 56
_cell_length_a 24.067278
_cell_length_b 9.328164
_cell_length_c 15.178795
_cell_angle_alpha 90.000000
_cell_angle_beta 116.790174
_cell_angle_gamma 90.000000
_cell_volume 3041.921762
_symmetry_space_group_name_H-M "C 2/M"
_symmetry_group_IT_number 12
_symmetry_cell_setting 'monoclinic'
loop_
_space_group_symop_operation_xyz
x,y,z
-x,y,-z
-x,-y,-z
x,-y,z
1/2+x,1/2+y,z
1/2-x,1/2+y,-z
1/2-x,1/2-y,-z
1/2+x,1/2-y,z
loop_
_atom_site_type_symbol
_atom_site_label
_atom_site_fract_x
_atom_site_fract_y
_atom_site_fract_z
Si Si1 0.244138 0.832854 0.862157
Si Si2 0.031309 0.829492 0.784951
Si Si3 0.562358 0.333017 0.602440
Si Si4 0.096158 0.329140 0.312339
Si Si5 0.153465 0.670015 0.543849
Si Si6 0.650707 0.831711 0.916330
Si Si7 0.227250 0.670150 0.321456
O O1 0.190507 0.733992 0.864106
O O2 0.260434 0.803422 0.772953
O O3 0.224316 0.000000 0.855444
O O4 0.304947 0.814737 0.966888
O O5 0.046824 0.802117 0.692613
O O6 0.086718 0.754316 0.877698
O O7 0.964677 0.759371 0.756015
O O8 0.030330 0.000000 0.797630
O O9 0.500000 0.314593 0.500000
O O10 0.581675 0.500000 0.609586
O O11 0.615573 0.236043 0.598325
O O12 0.084180 0.500000 0.295704
O O13 0.115165 0.299528 0.427296
O O14 0.157150 0.293111 0.298913
O O15 0.159614 0.500000 0.556882
O O16 0.220862 0.742650 0.588771
O O17 0.639003 0.000000 0.894398
O O18 0.235241 0.500000 0.344038
#
# Coordination Sequence:
#
# PCOD9195267 Si02
#       7
#     8   8   8   8   8   8   8
#     4   9  19  37  59  83 108 139 179 219 263 319
#     4  11  22  36  56  80 108 144 182 218 265 322
#     4  10  20  35  53  75 105 142 179 214 258 315
#     4  10  22  38  54  76 108 145 183 223 263 311
#     4  11  22  34  53  82 111 140 177 224 274 314
#     4  10  20  35  58  85 112 138 170 220 275 320
#     4  10  21  38  58  77 104 144 186 221 259 316
#
# _framework density 18.409416
#
# number of rings (size 3 to 8) (size 9 to 14) (size 15 to 20)
#    0.000    1.857    1.429    2.571    0.000    7.143 
#    0.000    0.714    0.000    4.286    0.000    0.000 
#    0.000    0.000    0.000    0.000    0.000    0.000 
#
# Total GULP energy -156465.369099 kJ/mol
# GULP energy per Si atom -5588.048896 kJ/mol
# Density = 1.836752 g / cm^3
# Si number density = 18.409416 Si / 1000 Ang^3
#
#
#
# Elastic Constant Matrix: (Units=GPa)
#
#
# Indices 1 2 3 4 5 6 
#
# 1 108.4136 60.8017 23.5382 0.0000 29.4299 0.0000
# 2 60.8017 61.0623 33.4070 0.0000 22.1314 0.0000
# 3 23.5382 33.4070 36.1556 0.0000 18.5828 0.0000
# 4 0.0000 0.0000 0.0000 23.6088 0.0000 9.1781
# 5 29.4299 22.1314 18.5828 0.0000 28.9614 0.0000
# 6 0.0000 0.0000 0.0000 9.1781 0.0000 34.4459
#
#
#
# Elastic Compliance Matrix: (Units=1/GPa)
#
#
# Indices 1 2 3 4 5 6 
#
# 1 0.027645 -0.033088 0.020916 0.000000 -0.016227 0.000000
# 2 -0.033088 0.074174 -0.052435 0.000000 0.010586 0.000000
# 3 0.020916 -0.052435 0.078810 0.000000 -0.031752 0.000000
# 4 0.000000 0.000000 0.000000 0.047252 0.000000 -0.012590
# 5 -0.016227 0.010586 -0.031752 0.000000 0.063302 0.000000
# 6 0.000000 0.000000 0.000000 -0.012590 0.000000 0.032386
#
#
# Mechanical properties :
#
#
# Convention : Reuss Voigt Hill
#
# Bulk Modulus (GPa) = 19.45006 49.01392 34.23199
# Shear Modulus (GPa) = 10.64010 23.26220 16.95115
#
# Velocity S-wave (km/s) = 2.40671 3.55858 3.03774
# Velocity P-wave (km/s) = 4.27916 6.60051 5.56228
#
# Compressibility (1/GPa) = 0.05141373
#
# Stress axis : x y z
#
# Youngs Moduli (GPa) = 36.17321 13.48185 12.68877
#
# Poissons Ratio (x) = 0.44609 -0.26539
# Poissons Ratio (y) = 1.19691 0.66533
# Poissons Ratio (z) = -0.75659 0.70692
#
# Static dielectric constant tensor:
#      x y z
#    x 1.615590 0.000000 0.006070 
#    y 0.000000 1.613510 0.000000 
#    z 0.006070 0.000000 1.635440 
# 
# From -- ./inp_files/238935.got.cif
#   From: 2010.05.17/outbox.cif.g08.bks.cpg/sg12_120_cif.got.tgz:238935.got - 2010.06.03 13:09:07.
