data_PCOD9195846
_publ_section_title
;
Structure prediction by ZEFSAII (Michael W. Deem and Ramdas Pophale) SiO2 
 PCOD9195846
Probable space group: C 2/M
;
_chemical_formula_sum "Si O2"
_cell_formula_units_Z 64
_cell_length_a 15.909078
_cell_length_b 7.567821
_cell_length_c 24.827380
_cell_angle_alpha 90.000000
_cell_angle_beta 90.375901
_cell_angle_gamma 90.000000
_cell_volume 2989.079094
_symmetry_space_group_name_H-M "C 2/M"
_symmetry_group_IT_number 12
_symmetry_cell_setting 'monoclinic'
loop_
_space_group_symop_operation_xyz
x,y,z
-x,y,-z
-x,-y,-z
x,-y,z
1/2+x,1/2+y,z
1/2-x,1/2+y,-z
1/2-x,1/2-y,-z
1/2+x,1/2-y,z
loop_
_atom_site_type_symbol
_atom_site_label
_atom_site_fract_x
_atom_site_fract_y
_atom_site_fract_z
Si Si1 0.480533 0.701971 0.057887
Si Si2 0.126622 0.709761 0.755716
Si Si3 0.222811 0.787993 0.438711
Si Si4 0.219589 0.784415 0.171052
Si Si5 0.965376 0.786155 0.826248
Si Si6 0.210302 0.710507 0.942056
Si Si7 0.033587 0.788446 0.442488
Si Si8 0.876722 0.286835 0.366214
O O1 0.513954 0.500000 0.055259
O O2 0.516745 0.780361 0.112953
O O3 0.380486 0.701979 0.063217
O O4 0.500000 0.785951 0.000000
O O5 0.140950 0.500000 0.751409
O O6 0.203388 0.780069 0.792224
O O7 0.123327 0.780206 0.695024
O O8 0.039611 0.734082 0.786822
O O9 0.250000 0.750000 0.500000
O O10 0.127474 0.721208 0.429946
O O11 0.295804 0.720511 0.399369
O O12 0.220801 0.000000 0.431904
O O13 0.127872 0.728772 0.190472
O O14 0.233939 0.733765 0.108782
O O15 0.220717 0.000000 0.171935
O O16 0.966819 0.000000 0.828454
O O17 0.197807 0.500000 0.937971
O O18 0.250000 0.750000 0.000000
O O19 0.000000 0.719562 0.500000
O O20 0.962772 0.754959 0.397734
O O21 0.041561 0.000000 0.448118
O O22 0.871370 0.500000 0.364804
#
# Coordination Sequence:
#
# PCOD9195846 Si02
#       8
#     8   8   8   8   8   8   8   8
#     4  10  20  35  55  82 117 148 185 238 289 343
#     4  10  21  40  59  80 114 151 192 237 278 329
#     4  10  20  35  56  84 115 150 187 227 279 334
#     4   9  19  37  60  81 109 151 190 228 283 343
#     4  10  20  36  60  85 109 147 193 232 283 340
#     4  11  21  35  56  83 114 149 188 233 289 347
#     4  10  20  35  57  86 117 148 185 233 282 329
#     4  10  22  37  57  84 114 152 192 231 278 335
#
# _framework density 21.411276999999998
#
# number of rings (size 3 to 8) (size 9 to 14) (size 15 to 20)
#    0.000    2.000    2.500    1.125    0.000    4.500 
#    0.000    5.625    0.000    0.000    0.000    0.000 
#    0.000    0.000    0.000    0.000    0.000    0.000 
#
# Total GULP energy -178748.154683 kJ/mol
# GULP energy per Si atom -5585.879834 kJ/mol
# Density = 2.136254 g / cm^3
# Si number density = 21.411277 Si / 1000 Ang^3
#
#
#
# Elastic Constant Matrix: (Units=GPa)
#
#
# Indices 1 2 3 4 5 6 
#
# 1 205.8821 -5.2214 105.1022 0.0000 -0.3106 0.0000
# 2 -5.2214 49.7926 -1.8350 0.0000 0.5660 0.0000
# 3 105.1022 -1.8350 185.5774 0.0000 -1.9065 0.0000
# 4 0.0000 0.0000 0.0000 21.7672 0.0000 7.0005
# 5 -0.3106 0.5660 -1.9065 0.0000 30.2214 0.0000
# 6 0.0000 0.0000 0.0000 7.0005 0.0000 28.1787
#
#
#
# Elastic Compliance Matrix: (Units=1/GPa)
#
#
# Indices 1 2 3 4 5 6 
#
# 1 0.006850 0.000578 -0.003876 0.000000 -0.000185 0.000000
# 2 0.000578 0.020143 -0.000132 0.000000 -0.000380 0.000000
# 3 -0.003876 -0.000132 0.007587 0.000000 0.000441 0.000000
# 4 0.000000 0.000000 0.000000 0.049930 0.000000 -0.012404
# 5 -0.000185 -0.000380 0.000441 0.000000 0.033122 0.000000
# 6 0.000000 0.000000 0.000000 -0.012404 0.000000 0.038569
#
#
# Mechanical properties :
#
#
# Convention : Reuss Voigt Hill
#
# Bulk Modulus (GPa) = 36.07467 70.81596 53.44532
# Shear Modulus (GPa) = 29.01883 38.91388 33.96636
#
# Velocity S-wave (km/s) = 3.68544 4.26778 3.98726
# Velocity P-wave (km/s) = 5.91566 7.57834 6.79802
#
# Compressibility (1/GPa) = 0.02772028
#
# Stress axis : x y z
#
# Youngs Moduli (GPa) = 145.98375 49.64418 131.80690
#
# Poissons Ratio (x) = -0.02867 0.51085
# Poissons Ratio (y) = -0.08432 0.01738
# Poissons Ratio (z) = 0.56580 0.00655
#
# Static dielectric constant tensor:
#      x y z
#    x 1.757360 0.000000 -0.006140 
#    y 0.000000 1.812460 0.000000 
#    z -0.006140 0.000000 1.752260 
# 
# From -- ./inp_files/338743.got.cif
#   From: 2010.05.17/outbox.cif.g08.bks.cpg/sg12_170_cif.got.tgz:338743.got - 2010.06.03 13:09:07.
