data_PCOD9195415
_publ_section_title
;
Structure prediction by ZEFSAII (Michael W. Deem and Ramdas Pophale) SiO2 
 PCOD9195415
Probable space group: C 2/M
;
_chemical_formula_sum "Si O2"
_cell_formula_units_Z 48
_cell_length_a 21.110216
_cell_length_b 8.296409
_cell_length_c 28.103437
_cell_angle_alpha 90.000000
_cell_angle_beta 147.527632
_cell_angle_gamma 90.000000
_cell_volume 2642.590386
_symmetry_space_group_name_H-M "C 2/M"
_symmetry_group_IT_number 12
_symmetry_cell_setting 'monoclinic'
loop_
_space_group_symop_operation_xyz
x,y,z
-x,y,-z
-x,-y,-z
x,-y,z
1/2+x,1/2+y,z
1/2-x,1/2+y,-z
1/2-x,1/2-y,-z
1/2+x,1/2-y,z
loop_
_atom_site_type_symbol
_atom_site_label
_atom_site_fract_x
_atom_site_fract_y
_atom_site_fract_z
Si Si1 0.748202 0.305702 0.229132
Si Si2 0.380469 0.194458 0.569858
Si Si3 0.975825 0.303220 0.431185
Si Si4 0.495346 0.193967 0.051410
Si Si5 0.742442 0.192307 0.048992
Si Si6 0.893018 0.305744 0.228755
O O1 0.744403 0.500000 0.226618
O O2 0.846905 0.255679 0.329918
O O3 0.617618 0.241014 0.153613
O O4 0.799013 0.253097 0.209743
O O5 0.250000 0.250000 0.500000
O O6 0.429363 0.247343 0.548959
O O7 0.478921 0.247272 0.670911
O O8 0.381615 0.000000 0.570229
O O9 0.977917 0.500000 0.433040
O O10 0.000000 0.247038 0.500000
O O11 0.488691 0.000000 0.045556
O O12 0.500000 0.254865 0.000000
O O13 0.378735 0.254942 0.003849
O O14 0.850192 0.245814 0.150785
O O15 0.738582 0.000000 0.046807
O O16 0.750000 0.250000 0.000000
O O17 0.892906 0.500000 0.228288
#
# Coordination Sequence:
#
# PCOD9195415 Si02
#       6
#     8   8   8   8   8   8
#     4   9  17  30  54  82 102 133 178 216 250 299
#     4   9  18  33  54  78 104 137 175 216 260 306
#     4   8  15  31  53  76 105 135 167 212 258 298
#     4  10  20  35  54  77 105 135 169 213 261 308
#     4  11  23  38  55  76 106 141 173 213 265 316
#     4   9  18  34  54  76 105 140 177 218 261 305
#
# _framework density 18.163996000000001
#
# number of rings (size 3 to 8) (size 9 to 14) (size 15 to 20)
#    0.000    2.667    1.667    2.500    0.000    2.333 
#    3.000    2.500    0.000    1.000    0.000    0.000 
#    0.000    0.000    0.000    0.000    0.000    0.000 
#
# Total GULP energy -133819.399236 kJ/mol
# GULP energy per Si atom -5575.808302 kJ/mol
# Density = 1.812265 g / cm^3
# Si number density = 18.163996 Si / 1000 Ang^3
#
#
#
# Elastic Constant Matrix: (Units=GPa)
#
#
# Indices 1 2 3 4 5 6 
#
# 1 132.3076 18.2820 104.7669 0.0000 -7.2060 0.0000
# 2 18.2820 8.9977 14.7816 0.0000 -2.0145 0.0002
# 3 104.7669 14.7816 159.5939 0.0000 -7.4246 0.0000
# 4 0.0000 0.0000 0.0000 28.0725 0.0000 6.1587
# 5 -7.2060 -2.0145 -7.4246 0.0000 39.0291 0.0000
# 6 0.0000 0.0002 0.0000 6.1587 0.0000 18.0448
#
#
#
# Elastic Compliance Matrix: (Units=1/GPa)
#
#
# Indices 1 2 3 4 5 6 
#
# 1 0.018564 -0.020805 -0.010241 0.000000 0.000406 0.000000
# 2 -0.020805 0.155188 -0.000527 0.000000 0.004069 -0.000002
# 3 -0.010241 -0.000527 0.013064 0.000000 0.000567 0.000000
# 4 0.000000 0.000000 0.000000 0.038505 0.000000 -0.013142
# 5 0.000406 0.004069 0.000567 0.000000 0.026015 0.000000
# 6 0.000000 -0.000002 0.000000 -0.013142 0.000000 0.059903
#
#
# Mechanical properties :
#
#
# Convention : Reuss Voigt Hill
#
# Bulk Modulus (GPa) = 8.08596 64.06225 36.07410
# Shear Modulus (GPa) = 12.03059 27.90052 19.96555
#
# Velocity S-wave (km/s) = 2.57637 3.92348 3.31899
# Velocity P-wave (km/s) = 3.64850 7.47464 5.88141
#
# Compressibility (1/GPa) = 0.12367115
#
# Stress axis : x y z
#
# Youngs Moduli (GPa) = 53.86737 6.44380 76.54790
#
# Poissons Ratio (x) = 0.13406 0.78391
# Poissons Ratio (y) = 1.12071 0.04031
# Poissons Ratio (z) = 0.55164 0.00339
#
# Static dielectric constant tensor:
#      x y z
#    x 1.618110 0.000000 -0.000560 
#    y 0.000000 1.638260 0.000000 
#    z -0.000560 0.000000 1.622880 
# 
# From -- ./inp_files/345707.got.cif
#   From: 2010.05.17/outbox.cif.g08.bks.cpg/sg12_173_cif.got.tgz:345707.got - 2010.06.03 13:09:07.
