data_PCOD9195655
_publ_section_title
;
Structure prediction by ZEFSAII (Michael W. Deem and Ramdas Pophale) SiO2 
 PCOD9195655
Probable space group: C 2/M
;
_chemical_formula_sum "Si O2"
_cell_formula_units_Z 56
_cell_length_a 20.410249
_cell_length_b 18.338315
_cell_length_c 9.639026
_cell_angle_alpha 90.000000
_cell_angle_beta 122.462516
_cell_angle_gamma 90.000000
_cell_volume 3044.044179
_symmetry_space_group_name_H-M "C 2/M"
_symmetry_group_IT_number 12
_symmetry_cell_setting 'monoclinic'
loop_
_space_group_symop_operation_xyz
x,y,z
-x,y,-z
-x,-y,-z
x,-y,z
1/2+x,1/2+y,z
1/2-x,1/2+y,-z
1/2-x,1/2-y,-z
1/2+x,1/2-y,z
loop_
_atom_site_type_symbol
_atom_site_label
_atom_site_fract_x
_atom_site_fract_y
_atom_site_fract_z
Si Si1 0.723872 0.668398 0.934857
Si Si2 0.741634 0.585198 0.239754
Si Si3 0.912769 0.793319 0.429793
Si Si4 0.303273 0.677084 0.548084
Si Si5 0.577953 0.875611 0.519251
Si Si6 0.548038 0.917078 0.179053
Si Si7 0.786487 0.580752 0.773401
O O1 0.647362 0.673335 0.750459
O O2 0.787981 0.629779 0.911266
O O3 0.750000 0.750000 0.000000
O O4 0.718080 0.620262 0.066092
O O5 0.720397 0.500000 0.227792
O O6 0.700828 0.635847 0.309997
O O7 0.836334 0.589676 0.364952
O O8 0.882131 0.804727 0.553338
O O9 0.912584 0.705834 0.410913
O O10 0.000000 0.819660 0.500000
O O11 0.250000 0.750000 0.500000
O O12 0.264859 0.620408 0.398701
O O13 0.500000 0.908849 0.500000
O O14 0.557308 0.875517 0.332903
O O15 0.631636 0.924873 0.206604
O O16 0.517316 0.000000 0.171899
O O17 0.500000 0.881573 0.000000
O O18 0.757376 0.500000 0.775589
#
# Coordination Sequence:
#
# PCOD9195655 Si02
#       7
#     8   8   8   8   8   8   8
#     4  11  22  39  60  89 120 157 206 256 302 362
#     4  12  23  37  62  94 126 162 203 259 314 362
#     4  10  22  41  65  88 120 161 209 253 308 364
#     4  11  19  38  62  88 117 160 205 249 297 359
#     4  11  22  37  57  90 128 165 204 243 305 375
#     4  10  21  34  49  77 121 166 199 233 286 359
#     4  10  20  35  55  78 113 156 204 247 294 358
#
# _framework density 18.396578000000002
#
# number of rings (size 3 to 8) (size 9 to 14) (size 15 to 20)
#    0.000    1.286    4.286    2.143    2.000    1.143 
#    0.000    0.714    0.000   16.286    0.000    0.000 
#    0.000    0.000    0.000    0.000    0.000    0.000 
#
# Total GULP energy -156027.561870 kJ/mol
# GULP energy per Si atom -5572.412924 kJ/mol
# Density = 1.835471 g / cm^3
# Si number density = 18.396578 Si / 1000 Ang^3
#
#
#
# Elastic Constant Matrix: (Units=GPa)
#
#
# Indices 1 2 3 4 5 6 
#
# 1 117.2622 19.4478 34.6956 0.0000 -16.0535 0.0000
# 2 19.4478 85.3554 22.2727 0.0000 -12.9425 0.0000
# 3 34.6956 22.2727 106.8399 0.0000 -21.9242 0.0000
# 4 0.0000 0.0000 0.0000 39.5306 0.0000 -7.6564
# 5 -16.0535 -12.9425 -21.9242 0.0000 35.9858 0.0000
# 6 0.0000 0.0000 0.0000 -7.6564 0.0000 15.0722
#
#
#
# Elastic Compliance Matrix: (Units=1/GPa)
#
#
# Indices 1 2 3 4 5 6 
#
# 1 0.009782 -0.001226 -0.002418 0.000000 0.002449 0.000000
# 2 -0.001226 0.012895 -0.001658 0.000000 0.003081 0.000000
# 3 -0.002418 -0.001658 0.011597 0.000000 0.005390 0.000000
# 4 0.000000 0.000000 0.000000 0.028057 0.000000 0.014253
# 5 0.002449 0.003081 0.005390 0.000000 0.033273 0.000000
# 6 0.000000 0.000000 0.000000 0.014253 0.000000 0.073587
#
#
# Mechanical properties :
#
#
# Convention : Reuss Voigt Hill
#
# Bulk Modulus (GPa) = 42.24959 51.36552 46.80756
# Shear Modulus (GPa) = 26.64017 33.65383 30.14700
#
# Velocity S-wave (km/s) = 3.80952 4.28173 4.05251
# Velocity P-wave (km/s) = 6.50890 7.24059 6.88448
#
# Compressibility (1/GPa) = 0.02366887
#
# Stress axis : x y z
#
# Youngs Moduli (GPa) = 102.22674 77.55047 86.23026
#
# Poissons Ratio (x) = 0.09510 0.20854
# Poissons Ratio (y) = 0.12537 0.14295
# Poissons Ratio (z) = 0.24723 0.12856
#
# Static dielectric constant tensor:
#      x y z
#    x 1.693450 0.000000 -0.004320 
#    y 0.000000 1.665710 0.000000 
#    z -0.004320 0.000000 1.636190 
# 
# From -- ./inp_files/76028.got.cif
#   From: 2010.05.17/outbox.cif.g08.bks.cpg/sg12_39_cif.got.tgz:76028.got - 2010.06.03 13:09:07.
