data_PCOD9195095
_publ_section_title
;
Structure prediction by ZEFSAII (Michael W. Deem and Ramdas Pophale) SiO2 
 PCOD9195095
Probable space group: C 2/M
;
_chemical_formula_sum "Si O2"
_cell_formula_units_Z 64
_cell_length_a 15.027404
_cell_length_b 23.667649
_cell_length_c 9.313455
_cell_angle_alpha 90.000000
_cell_angle_beta 128.741439
_cell_angle_gamma 90.000000
_cell_volume 2583.641519
_symmetry_space_group_name_H-M "C 2/M"
_symmetry_group_IT_number 12
_symmetry_cell_setting 'monoclinic'
loop_
_space_group_symop_operation_xyz
x,y,z
-x,y,-z
-x,-y,-z
x,-y,z
1/2+x,1/2+y,z
1/2-x,1/2+y,-z
1/2-x,1/2-y,-z
1/2+x,1/2-y,z
loop_
_atom_site_type_symbol
_atom_site_label
_atom_site_fract_x
_atom_site_fract_y
_atom_site_fract_z
Si Si1 0.517132 0.282506 0.681366
Si Si2 0.603106 0.841036 0.194501
Si Si3 0.038136 0.647548 0.693300
Si Si4 0.215000 0.183723 0.402212
Si Si5 0.669783 0.560103 0.399440
Si Si6 0.754389 0.936627 0.208226
Si Si7 0.705867 0.329077 0.079607
Si Si8 0.596281 0.561602 0.927415
O O1 0.500000 0.303544 0.500000
O O2 0.511040 0.214817 0.668479
O O3 0.411768 0.305969 0.667371
O O4 0.634931 0.297753 0.882936
O O5 0.533030 0.875530 0.245382
O O6 0.693933 0.803087 0.377879
O O7 0.670242 0.884464 0.159530
O O8 0.500000 0.811244 0.000000
O O9 0.173211 0.646228 0.846704
O O10 0.000000 0.625197 0.500000
O O11 0.232719 0.115875 0.412411
O O12 0.230276 0.203918 0.253191
O O13 0.723812 0.500000 0.413779
O O14 0.670065 0.562553 0.572106
O O15 0.538433 0.560400 0.223600
O O16 0.838446 0.930394 0.158250
O O17 0.700506 0.000000 0.140943
O O18 0.628929 0.382541 0.044041
O O19 0.632103 0.500000 0.020319
#
# Coordination Sequence:
#
# PCOD9195095 Si02
#       8
#     8   8   8   8   8   8   8   8
#     4  11  27  44  70 100 126 170 222 279 337 391
#     4  11  24  41  68  97 126 178 222 273 322 387
#     4  11  25  50  66  93 130 175 223 274 334 392
#     4  11  24  42  66  98 136 169 214 277 331 394
#     4   9  18  33  59  93 134 172 210 260 326 392
#     4   9  19  36  60  95 132 172 223 273 319 378
#     4  12  24  44  70  95 138 175 213 270 334 392
#     4  10  20  34  61  99 138 174 212 260 326 396
#
# _framework density 24.771238
#
# number of rings (size 3 to 8) (size 9 to 14) (size 15 to 20)
#    0.000    1.500    2.500    1.875    5.250    3.750 
#    0.000    1.875    0.000    0.750    0.000    0.000 
#    0.000    0.000    0.000    0.000    0.000    0.000 
#
# Total GULP energy -178821.147773 kJ/mol
# GULP energy per Si atom -5588.160868 kJ/mol
# Density = 2.471486 g / cm^3
# Si number density = 24.771238 Si / 1000 Ang^3
#
#
#
# Elastic Constant Matrix: (Units=GPa)
#
#
# Indices 1 2 3 4 5 6 
#
# 1 97.6859 -25.0735 36.3728 0.0000 -5.9995 0.0000
# 2 -25.0735 44.3121 -1.3936 0.0000 -4.4666 0.0000
# 3 36.3728 -1.3936 158.8403 0.0000 -9.1445 0.0000
# 4 0.0000 0.0000 0.0000 13.6800 0.0000 11.4804
# 5 -5.9995 -4.4666 -9.1445 0.0000 52.2507 0.0000
# 6 0.0000 0.0000 0.0000 11.4804 0.0000 13.5409
#
#
#
# Elastic Compliance Matrix: (Units=1/GPa)
#
#
# Indices 1 2 3 4 5 6 
#
# 1 0.013384 0.007652 -0.002901 0.000000 0.001683 0.000000
# 2 0.007652 0.027154 -0.001343 0.000000 0.002965 0.000000
# 3 -0.002901 -0.001343 0.006993 0.000000 0.000776 0.000000
# 4 0.000000 0.000000 0.000000 0.253388 0.000000 -0.214831
# 5 0.001683 0.002965 0.000776 0.000000 0.019721 0.000000
# 6 0.000000 0.000000 0.000000 -0.214831 0.000000 0.255991
#
#
# Mechanical properties :
#
#
# Convention : Reuss Voigt Hill
#
# Bulk Modulus (GPa) = 18.40056 35.62774 27.01415
# Shear Modulus (GPa) = 8.50441 35.28984 21.89713
#
# Velocity S-wave (km/s) = 1.85489 3.77852 2.97640
# Velocity P-wave (km/s) = 3.46869 5.78362 4.76876
#
# Compressibility (1/GPa) = 0.05434617
#
# Stress axis : x y z
#
# Youngs Moduli (GPa) = 74.71371 36.82764 143.00461
#
# Poissons Ratio (x) = -0.28180 0.41484
# Poissons Ratio (y) = -0.57170 0.19210
# Poissons Ratio (z) = 0.21673 0.04947
#
# Static dielectric constant tensor:
#      x y z
#    x 1.928110 0.000000 -0.035750 
#    y 0.000000 2.022120 0.000000 
#    z -0.035750 0.000000 2.062510 
# 
# From -- ./inp_files/68647.got.cif
#   From: 2010.05.17/outbox.cif.g08.bks.cpg/sg12_35_cif.got.tgz:68647.got - 2010.06.03 13:09:07.
