data_PCOD9195185
_publ_section_title
;
Structure prediction by ZEFSAII (Michael W. Deem and Ramdas Pophale) SiO2 
 PCOD9195185
Probable space group: C 2/M
;
_chemical_formula_sum "Si O2"
_cell_formula_units_Z 56
_cell_length_a 22.207446
_cell_length_b 14.047347
_cell_length_c 14.350469
_cell_angle_alpha 90.000000
_cell_angle_beta 137.825522
_cell_angle_gamma 90.000000
_cell_volume 3005.621133
_symmetry_space_group_name_H-M "C 2/M"
_symmetry_group_IT_number 12
_symmetry_cell_setting 'monoclinic'
loop_
_space_group_symop_operation_xyz
x,y,z
-x,y,-z
-x,-y,-z
x,-y,z
1/2+x,1/2+y,z
1/2-x,1/2+y,-z
1/2-x,1/2-y,-z
1/2+x,1/2-y,z
loop_
_atom_site_type_symbol
_atom_site_label
_atom_site_fract_x
_atom_site_fract_y
_atom_site_fract_z
Si Si1 0.250885 0.200755 0.648371
Si Si2 0.721453 0.390739 0.908872
Si Si3 0.619043 0.109913 0.062508
Si Si4 0.895363 0.216944 0.367642
Si Si5 0.859339 0.386251 0.217428
Si Si6 0.991125 0.385229 0.763114
Si Si7 0.284070 0.112321 0.492523
O O1 0.338617 0.169057 0.805813
O O2 0.165463 0.182899 0.616689
O O3 0.243476 0.137971 0.546809
O O4 0.255190 0.311452 0.624600
O O5 0.692047 0.500000 0.885652
O O6 0.804600 0.391047 0.931055
O O7 0.643884 0.330708 0.771542
O O8 0.766657 0.359690 0.058066
O O9 0.605764 0.000000 0.077523
O O10 0.531586 0.147966 0.908401
O O11 0.874973 0.328798 0.329253
O O12 0.000000 0.199442 0.500000
O O13 0.859897 0.500000 0.229547
O O14 0.941679 0.359044 0.243356
O O15 0.995778 0.500000 0.774809
O O16 0.889556 0.361081 0.623994
O O17 0.275745 0.000000 0.461625
#
# Coordination Sequence:
#
# PCOD9195185 Si02
#       7
#     8   8   8   8   8   8   8
#     4  10  21  33  47  73  98 128 163 191 241 289
#     4   8  16  31  48  67  95 132 165 191 226 274
#     4   8  14  28  50  75 100 119 149 199 242 282
#     4  11  21  31  48  74 101 127 159 199 237 278
#     4   9  17  31  51  74 102 129 151 185 239 298
#     4   8  15  29  52  79  99 120 151 192 245 291
#     4  10  20  35  52  69  96 128 160 199 239 287
#
# _framework density 18.631755999999999
#
# number of rings (size 3 to 8) (size 9 to 14) (size 15 to 20)
#    0.000    2.857    0.000    3.429    0.000    2.286 
#    0.000    2.143    0.000    0.000    0.000    9.000 
#    0.000    0.000    0.000    0.000    0.000    0.000 
#
# Total GULP energy -156116.067223 kJ/mol
# GULP energy per Si atom -5575.573829 kJ/mol
# Density = 1.858935 g / cm^3
# Si number density = 18.631756 Si / 1000 Ang^3
#
#
#
# Elastic Constant Matrix: (Units=GPa)
#
#
# Indices 1 2 3 4 5 6 
#
# 1 32.0335 -10.1778 12.7542 0.0000 7.9102 0.0000
# 2 -10.1778 50.9506 22.7900 0.0000 8.0390 0.0000
# 3 12.7542 22.7900 59.5080 0.0000 9.8604 0.0000
# 4 0.0000 0.0000 0.0000 30.9842 0.0000 -7.8788
# 5 7.9102 8.0390 9.8604 0.0000 16.4091 0.0000
# 6 0.0000 0.0000 0.0000 -7.8788 0.0000 12.5278
#
#
#
# Elastic Compliance Matrix: (Units=1/GPa)
#
#
# Indices 1 2 3 4 5 6 
#
# 1 0.049520 0.020216 -0.014170 0.000000 -0.025261 0.000000
# 2 0.020216 0.032647 -0.013961 0.000000 -0.017350 0.000000
# 3 -0.014170 -0.013961 0.025458 0.000000 -0.001627 0.000000
# 4 0.000000 0.000000 0.000000 0.038418 0.000000 0.024162
# 5 -0.025261 -0.017350 -0.001627 0.000000 0.082597 0.000000
# 6 0.000000 0.000000 0.000000 0.024162 0.000000 0.095018
#
#
# Mechanical properties :
#
#
# Convention : Reuss Voigt Hill
#
# Bulk Modulus (GPa) = 10.89382 21.46943 16.18162
# Shear Modulus (GPa) = 13.51031 19.79259 16.65145
#
# Velocity S-wave (km/s) = 2.69573 3.26284 2.99275
# Velocity P-wave (km/s) = 3.94321 5.07374 4.54377
#
# Compressibility (1/GPa) = 0.09179517
#
# Stress axis : x y z
#
# Youngs Moduli (GPa) = 20.19382 30.63025 39.28057
#
# Poissons Ratio (x) = -0.61922 0.55661
# Poissons Ratio (y) = -0.40824 0.54840
# Poissons Ratio (z) = 0.28615 0.42763
#
# Static dielectric constant tensor:
#      x y z
#    x 1.665400 0.000000 -0.009130 
#    y 0.000000 1.662640 0.000000 
#    z -0.009130 0.000000 1.665800 
# 
# From -- ./inp_files/225177.got.cif
#   From: 2010.05.17/outbox.cif.g08.bks.cpg/sg12_113_cif.got.tgz:225177.got - 2010.06.03 13:09:07.
