data_PCOD9195402
_publ_section_title
;
Structure prediction by ZEFSAII (Michael W. Deem and Ramdas Pophale) SiO2 
 PCOD9195402
Probable space group: C 2/M
;
_chemical_formula_sum "Si O2"
_cell_formula_units_Z 56
_cell_length_a 16.534449
_cell_length_b 26.024394
_cell_length_c 12.889709
_cell_angle_alpha 90.000000
_cell_angle_beta 145.857288
_cell_angle_gamma 90.000000
_cell_volume 3112.967320
_symmetry_space_group_name_H-M "C 2/M"
_symmetry_group_IT_number 12
_symmetry_cell_setting 'monoclinic'
loop_
_space_group_symop_operation_xyz
x,y,z
-x,y,-z
-x,-y,-z
x,-y,z
1/2+x,1/2+y,z
1/2-x,1/2+y,-z
1/2-x,1/2-y,-z
1/2+x,1/2-y,z
loop_
_atom_site_type_symbol
_atom_site_label
_atom_site_fract_x
_atom_site_fract_y
_atom_site_fract_z
Si Si1 0.850985 0.943124 0.775658
Si Si2 0.132218 0.213130 0.923449
Si Si3 0.125438 0.939670 0.447054
Si Si4 0.835215 0.367679 0.802016
Si Si5 0.825683 0.161733 0.829008
Si Si6 0.910340 0.862101 0.304570
Si Si7 0.339001 0.244120 0.699581
O O1 0.877109 0.933689 0.680714
O O2 0.768644 0.893223 0.731199
O O3 0.783593 0.000000 0.714368
O O4 0.000000 0.945601 0.000000
O O5 0.069628 0.178319 0.765524
O O6 0.005676 0.243987 0.847556
O O7 0.250000 0.250000 0.000000
O O8 0.202190 0.175122 0.081950
O O9 0.252321 0.907052 0.637192
O O10 0.979849 0.915245 0.339564
O O11 0.138374 0.000000 0.483576
O O12 0.749556 0.366824 0.820325
O O13 0.827682 0.311153 0.741608
O O14 0.000000 0.380996 0.000000
O O15 0.783225 0.210671 0.715621
O O16 0.000000 0.158602 0.000000
O O17 0.000000 0.844624 0.500000
O O18 0.250000 0.250000 0.500000
#
# Coordination Sequence:
#
# PCOD9195402 Si02
#       7
#     8   8   8   8   8   8   8
#     4   9  16  29  52  81 107 131 170 225 277 322
#     4  11  21  33  51  76 109 142 175 216 265 325
#     4  10  21  37  58  82 106 137 183 235 281 331
#     4  11  22  36  53  77 112 148 183 225 281 340
#     4   9  17  30  48  72 103 135 168 207 262 319
#     4  10  20  35  54  76 106 140 182 228 271 320
#     4  11  20  33  53  75 104 140 179 220 266 325
#
# _framework density 17.989266000000001
#
# number of rings (size 3 to 8) (size 9 to 14) (size 15 to 20)
#    0.000    1.857    0.000    8.143    0.000    2.857 
#    0.000    0.000    0.000    0.000    0.000    4.000 
#    0.000   24.000    0.000    0.000    0.000    0.000 
#
# Total GULP energy -156149.133721 kJ/mol
# GULP energy per Si atom -5576.754776 kJ/mol
# Density = 1.794832 g / cm^3
# Si number density = 17.989266 Si / 1000 Ang^3
#
#
#
# Elastic Constant Matrix: (Units=GPa)
#
#
# Indices 1 2 3 4 5 6 
#
# 1 91.0710 65.4571 28.0313 0.0000 -9.1970 0.0000
# 2 65.4571 167.2631 39.6110 0.0000 -16.8755 0.0000
# 3 28.0313 39.6110 47.8564 0.0000 -9.3548 0.0000
# 4 0.0000 0.0000 0.0000 21.2635 0.0000 -9.9991
# 5 -9.1970 -16.8755 -9.3548 0.0000 38.8429 0.0000
# 6 0.0000 0.0000 0.0000 -9.9991 0.0000 28.3568
#
#
#
# Elastic Compliance Matrix: (Units=1/GPa)
#
#
# Indices 1 2 3 4 5 6 
#
# 1 0.016299 -0.005096 -0.005255 0.000000 0.000380 0.000000
# 2 -0.005096 0.009156 -0.004252 0.000000 0.001747 0.000000
# 3 -0.005255 -0.004252 0.028217 0.000000 0.003704 0.000000
# 4 0.000000 0.000000 0.000000 0.056377 0.000000 0.019880
# 5 0.000380 0.001747 0.003704 0.000000 0.027486 0.000000
# 6 0.000000 0.000000 0.000000 0.019880 0.000000 0.042275
#
#
# Mechanical properties :
#
#
# Convention : Reuss Voigt Hill
#
# Bulk Modulus (GPa) = 40.87175 63.59882 52.23528
# Shear Modulus (GPa) = 23.02331 29.23205 26.12768
#
# Velocity S-wave (km/s) = 3.58136 4.03547 3.81518
# Velocity P-wave (km/s) = 6.31434 7.55935 6.96472
#
# Compressibility (1/GPa) = 0.02446678
#
# Stress axis : x y z
#
# Youngs Moduli (GPa) = 61.35477 109.21767 35.43901
#
# Poissons Ratio (x) = 0.55653 0.18623
# Poissons Ratio (y) = 0.31264 0.15070
# Poissons Ratio (z) = 0.32241 0.46442
#
# Static dielectric constant tensor:
#      x y z
#    x 1.626700 0.000000 -0.012460 
#    y 0.000000 1.642490 0.000000 
#    z -0.012460 0.000000 1.654900 
# 
# From -- ./inp_files/65788.got.cif
#   From: 2010.05.17/outbox.cif.g08.bks.cpg/sg12_33_cif.got.tgz:65788.got - 2010.06.03 13:09:07.
