data_PCOD9195502
_publ_section_title
;
Structure prediction by ZEFSAII (Michael W. Deem and Ramdas Pophale) SiO2 
 PCOD9195502
Probable space group: C 2/M
;
_chemical_formula_sum "Si O2"
_cell_formula_units_Z 56
_cell_length_a 22.084860
_cell_length_b 9.846667
_cell_length_c 15.040369
_cell_angle_alpha 90.000000
_cell_angle_beta 113.093840
_cell_angle_gamma 90.000000
_cell_volume 3008.609767
_symmetry_space_group_name_H-M "C 2/M"
_symmetry_group_IT_number 12
_symmetry_cell_setting 'monoclinic'
loop_
_space_group_symop_operation_xyz
x,y,z
-x,y,-z
-x,-y,-z
x,-y,z
1/2+x,1/2+y,z
1/2-x,1/2+y,-z
1/2-x,1/2-y,-z
1/2+x,1/2-y,z
loop_
_atom_site_type_symbol
_atom_site_label
_atom_site_fract_x
_atom_site_fract_y
_atom_site_fract_z
Si Si1 0.140166 0.343024 0.443314
Si Si2 0.902171 0.345003 0.266710
Si Si3 0.327932 0.156175 0.745447
Si Si4 0.182597 0.337318 0.960670
Si Si5 0.424787 0.835750 0.950924
Si Si6 0.287138 0.153793 0.339941
Si Si7 0.014888 0.159141 0.403244
O O1 0.118591 0.500000 0.447868
O O2 0.161516 0.334852 0.353708
O O3 0.196761 0.315365 0.548209
O O4 0.082620 0.236677 0.425546
O O5 0.928634 0.500000 0.274695
O O6 0.856250 0.320879 0.154809
O O7 0.855043 0.338591 0.325376
O O8 0.959411 0.237162 0.314791
O O9 0.392340 0.197680 0.837341
O O10 0.265639 0.246786 0.732263
O O11 0.314204 0.000000 0.761041
O O12 0.196862 0.500000 0.979461
O O13 0.250000 0.250000 0.000000
O O14 0.129403 0.295494 0.006037
O O15 0.428961 0.000000 0.961107
O O16 0.500000 0.784315 0.000000
O O17 0.262188 0.000000 0.319490
O O18 0.000000 0.170840 0.500000
O O19 0.017985 0.000000 0.382837
#
# Coordination Sequence:
#
# PCOD9195502 Si02
#       7
#     8   8   8   8   8   8   8
#     4  10  21  36  56  81 110 149 189 223 271 338
#     4  10  21  36  58  84 111 151 192 226 280 344
#     4  10  21  35  57  83 108 146 190 230 275 327
#     4  10  21  37  61  88 115 152 194 243 292 340
#     4   9  19  36  57  84 114 146 193 244 283 329
#     4  10  20  35  54  80 114 146 180 227 279 334
#     4  11  23  37  55  83 114 146 183 233 287 332
#
# _framework density 18.613247000000001
#
# number of rings (size 3 to 8) (size 9 to 14) (size 15 to 20)
#    0.000    2.000    1.429    1.714    2.000    2.857 
#    0.000    0.000    0.000    0.857    0.000    0.000 
#    0.000    0.000    0.000    0.000    0.000    0.000 
#
# Total GULP energy -156209.316033 kJ/mol
# GULP energy per Si atom -5578.904144 kJ/mol
# Density = 1.857088 g / cm^3
# Si number density = 18.613247 Si / 1000 Ang^3
#
#
#
# Elastic Constant Matrix: (Units=GPa)
#
#
# Indices 1 2 3 4 5 6 
#
# 1 71.1134 52.5926 22.6703 0.0000 18.9513 0.0000
# 2 52.5926 91.5439 38.7515 0.0000 30.8048 0.0000
# 3 22.6703 38.7515 90.1478 0.0000 12.1116 0.0000
# 4 0.0000 0.0000 0.0000 39.2849 0.0000 23.8602
# 5 18.9513 30.8048 12.1116 0.0000 34.0447 0.0000
# 6 0.0000 0.0000 0.0000 23.8602 0.0000 39.6378
#
#
#
# Elastic Compliance Matrix: (Units=1/GPa)
#
#
# Indices 1 2 3 4 5 6 
#
# 1 0.024492 -0.013568 -0.000152 0.000000 -0.001303 0.000000
# 2 -0.013568 0.025808 -0.005838 0.000000 -0.013722 0.000000
# 3 -0.000152 -0.005838 0.013568 0.000000 0.000540 0.000000
# 4 0.000000 0.000000 0.000000 0.040125 0.000000 -0.024154
# 5 -0.001303 -0.013722 0.000540 0.000000 0.042322 0.000000
# 6 0.000000 0.000000 0.000000 -0.024154 0.000000 0.039768
#
#
# Mechanical properties :
#
#
# Convention : Reuss Voigt Hill
#
# Bulk Modulus (GPa) = 40.40151 53.42600 46.91375
# Shear Modulus (GPa) = 21.41792 31.84618 26.63205
#
# Velocity S-wave (km/s) = 3.39585 4.14084 3.78671
# Velocity P-wave (km/s) = 6.09333 7.18524 6.66169
#
# Compressibility (1/GPa) = 0.02475155
#
# Stress axis : x y z
#
# Youngs Moduli (GPa) = 40.82939 38.74839 73.70242
#
# Poissons Ratio (x) = 0.52575 0.01118
# Poissons Ratio (y) = 0.55399 0.43028
# Poissons Ratio (z) = 0.00619 0.22622
#
# Static dielectric constant tensor:
#      x y z
#    x 1.633180 0.000000 -0.020130 
#    y 0.000000 1.631010 0.000000 
#    z -0.020130 0.000000 1.652730 
# 
# From -- ./inp_files/238940.got.cif
#   From: 2010.05.17/outbox.cif.g08.bks.cpg/sg12_120_cif.got.tgz:238940.got - 2010.06.03 13:09:07.
