data_PCOD9195081
_publ_section_title
;
Structure prediction by ZEFSAII (Michael W. Deem and Ramdas Pophale) SiO2 
 PCOD9195081
Probable space group: C 2/M
;
_chemical_formula_sum "Si O2"
_cell_formula_units_Z 50
_cell_length_a 26.670329
_cell_length_b 7.726226
_cell_length_c 11.704330
_cell_angle_alpha 90.000000
_cell_angle_beta 67.004498
_cell_angle_gamma 90.000000
_cell_volume 2220.152936
_symmetry_space_group_name_H-M "C 2/M"
_symmetry_group_IT_number 12
_symmetry_cell_setting 'monoclinic'
loop_
_space_group_symop_operation_xyz
x,y,z
-x,y,-z
-x,-y,-z
x,-y,z
1/2+x,1/2+y,z
1/2-x,1/2+y,-z
1/2-x,1/2-y,-z
1/2+x,1/2-y,z
loop_
_atom_site_type_symbol
_atom_site_label
_atom_site_fract_x
_atom_site_fract_y
_atom_site_fract_z
Si Si1 0.838804 0.208468 0.233076
Si Si2 0.840003 0.204647 0.486787
Si Si3 0.726207 0.704589 0.235920
Si Si4 0.937787 0.290800 0.547403
Si Si5 0.867801 0.297732 0.829651
Si Si6 0.000000 0.500000 0.000000
Si Si7 0.931300 0.199311 0.988818
O O1 0.829888 0.276462 0.369460
O O2 0.789642 0.261692 0.194809
O O3 0.839955 0.000000 0.235306
O O4 0.896561 0.262618 0.129861
O O5 0.802710 0.277368 0.622492
O O6 0.902283 0.229250 0.471383
O O7 0.828515 0.000000 0.491264
O O8 0.717028 0.500000 0.241052
O O9 0.694402 0.777138 0.155397
O O10 0.937752 0.500000 0.544504
O O11 0.904001 0.235875 0.689572
O O12 0.000000 0.231159 0.500000
O O13 0.878121 0.500000 0.837845
O O14 0.888541 0.203948 0.923057
O O15 0.022852 0.343914 0.065409
O O16 0.948802 0.000000 0.985633
#
# Coordination Sequence:
#
# PCOD9195081 Si02
#       7
#     8   8   8   8   8   2   8
#     4  10  22  39  59  89 126 163 210 262 314 383
#     4   9  19  36  55  85 124 162 205 254 314 377
#     4  10  20  34  61  92 124 166 207 257 322 381
#     4   9  19  35  56  86 117 153 205 259 311 371
#     4  10  20  39  62  88 126 165 206 262 319 376
#     4  12  26  48  68  90 126 172 210 268 322 370
#     4  11  25  45  68  94 126 168 216 262 317 380
#
# _framework density 22.520972
#
# number of rings (size 3 to 8) (size 9 to 14) (size 15 to 20)
#    0.000    2.080    0.800    1.680    1.120    4.160 
#    2.880    1.600    0.000    0.000    0.000    0.000 
#    0.000    0.000    0.000    0.000    0.000    0.000 
#
# Total GULP energy -139404.926796 kJ/mol
# GULP energy per Si atom -5576.197072 kJ/mol
# Density = 2.246971 g / cm^3
# Si number density = 22.520972 Si / 1000 Ang^3
#
#
#
# Elastic Constant Matrix: (Units=GPa)
#
#
# Indices 1 2 3 4 5 6 
#
# 1 116.8464 9.5430 19.1680 0.0000 11.1663 0.0000
# 2 9.5430 66.9072 15.6681 0.0000 1.0312 0.0000
# 3 19.1680 15.6681 34.8613 0.0000 16.8692 0.0000
# 4 0.0000 0.0000 0.0000 9.4672 0.0000 14.3441
# 5 11.1663 1.0312 16.8692 0.0000 31.7930 0.0000
# 6 0.0000 0.0000 0.0000 14.3441 0.0000 11.3694
#
#
#
# Elastic Compliance Matrix: (Units=1/GPa)
#
#
# Indices 1 2 3 4 5 6 
#
# 1 0.009423 -0.000236 -0.004679 0.000000 -0.000819 0.000000
# 2 -0.000236 0.017233 -0.009936 0.000000 0.004796 0.000000
# 3 -0.004679 -0.009936 0.046784 0.000000 -0.022858 0.000000
# 4 0.000000 0.000000 0.000000 -0.115876 0.000000 0.146194
# 5 -0.000819 0.004796 -0.022858 0.000000 0.043714 0.000000
# 6 0.000000 0.000000 0.000000 0.146194 0.000000 -0.096488
#
#
# Mechanical properties :
#
#
# Convention : Reuss Voigt Hill
#
# Bulk Modulus (GPa) = 22.86303 34.15257 28.50780
# Shear Modulus (GPa) = -98.17623 22.14162 -38.01731
#
# Velocity S-wave (km/s) = -6.60968 3.13893 -4.11309
# Velocity P-wave (km/s) = 6.93373 5.32305 3.14179
#
# Compressibility (1/GPa) = 0.04373873
#
# Stress axis : x y z
#
# Youngs Moduli (GPa) = 106.11947 58.02953 21.37475
#
# Poissons Ratio (x) = 0.01368 0.10001
# Poissons Ratio (y) = 0.02502 0.21238
# Poissons Ratio (z) = 0.49651 0.57659
#
# Static dielectric constant tensor:
#      x y z
#    x 1.857880 0.000000 -0.019700 
#    y 0.000000 1.765450 0.000000 
#    z -0.019700 0.000000 1.866180 
# 
# From -- ./inp_files/179839.got.cif
#   From: 2010.05.17/outbox.cif.g08.bks.cpg/sg12_90_cif.got.tgz:179839.got - 2010.06.03 13:09:07.
