data_PCOD9195368
_publ_section_title
;
Structure prediction by ZEFSAII (Michael W. Deem and Ramdas Pophale) SiO2 
 PCOD9195368
Probable space group: C 2/M
;
_chemical_formula_sum "Si O2"
_cell_formula_units_Z 56
_cell_length_a 23.113805
_cell_length_b 7.326330
_cell_length_c 22.756556
_cell_angle_alpha 90.000000
_cell_angle_beta 39.619355
_cell_angle_gamma 90.000000
_cell_volume 2457.367675
_symmetry_space_group_name_H-M "C 2/M"
_symmetry_group_IT_number 12
_symmetry_cell_setting 'monoclinic'
loop_
_space_group_symop_operation_xyz
x,y,z
-x,y,-z
-x,-y,-z
x,-y,z
1/2+x,1/2+y,z
1/2-x,1/2+y,-z
1/2-x,1/2-y,-z
1/2+x,1/2-y,z
loop_
_atom_site_type_symbol
_atom_site_label
_atom_site_fract_x
_atom_site_fract_y
_atom_site_fract_z
Si Si1 0.578235 0.222813 0.255937
Si Si2 0.767932 0.292387 0.583390
Si Si3 0.730005 0.711262 0.737848
Si Si4 0.886151 0.721649 0.387656
Si Si5 0.442924 0.211884 0.598299
Si Si6 0.600489 0.722759 0.944333
Si Si7 0.767988 0.218158 0.055563
O O1 0.488340 0.270258 0.290145
O O2 0.552184 0.289838 0.340825
O O3 0.675549 0.286672 0.158597
O O4 0.584039 0.000000 0.253176
O O5 0.795220 0.500000 0.577888
O O6 0.730613 0.205590 0.672235
O O7 0.851218 0.217100 0.479671
O O8 0.685419 0.294003 0.602610
O O9 0.698879 0.500000 0.756823
O O10 0.836109 0.713564 0.669608
O O11 0.670831 0.782597 0.838145
O O12 0.879610 0.500000 0.393313
O O13 0.500000 0.291561 0.500000
O O14 0.473384 0.000000 0.579465
O O15 0.598397 0.500000 0.948217
O O16 0.644727 0.780968 0.973198
O O17 0.500000 0.778900 0.000000
O O18 0.770469 0.000000 0.059407
O O19 0.750000 0.250000 0.000000
#
# Coordination Sequence:
#
# PCOD9195368 Si02
#       7
#     8   8   8   8   8   8   8
#     4   9  16  28  45  67  95 124 157 198 243 289
#     4   9  17  28  44  68  97 126 158 197 236 283
#     4   9  15  25  41  64  90 114 149 195 237 277
#     4   9  17  29  44  65  96 131 160 189 235 293
#     4   9  14  21  39  66  92 116 145 187 238 283
#     4   9  17  30  48  70  97 128 162 206 258 304
#     4  10  20  35  54  75 101 133 170 214 261 308
#
# _framework density 22.788612000000001
#
# number of rings (size 3 to 8) (size 9 to 14) (size 15 to 20)
#    0.000    2.857    1.429    0.857    0.000    4.571 
#    0.000    2.143    0.000    1.286    0.000    0.000 
#    0.000    6.286    0.000    0.000    0.000    0.000 
#
# Total GULP energy -155964.094647 kJ/mol
# GULP energy per Si atom -5570.146237 kJ/mol
# Density = 2.273674 g / cm^3
# Si number density = 22.788612 Si / 1000 Ang^3
#
#
#
# Elastic Constant Matrix: (Units=GPa)
#
#
# Indices 1 2 3 4 5 6 
#
# 1 149.5152 5.4891 80.9514 0.0014 -0.5378 -0.0014
# 2 5.4891 87.0028 6.8683 0.0013 -4.2183 -0.0008
# 3 80.9514 6.8683 119.6974 0.0007 -5.4990 -0.0022
# 4 0.0014 0.0013 0.0007 -10.2255 -0.0005 4.5589
# 5 -0.5378 -4.2183 -5.4990 -0.0005 35.3643 0.0020
# 6 -0.0014 -0.0008 -0.0022 4.5589 0.0020 1.9599
#
#
#
# Elastic Compliance Matrix: (Units=1/GPa)
#
#
# Indices 1 2 3 4 5 6 
#
# 1 0.010586 -0.000147 -0.007196 0.000001 -0.000975 -0.000001
# 2 -0.000147 0.011606 -0.000507 0.000001 0.001303 0.000000
# 3 -0.007196 -0.000507 0.013337 0.000002 0.001904 0.000004
# 4 0.000001 0.000001 0.000002 -0.048007 -0.000007 0.111672
# 5 -0.000975 0.001303 0.001904 -0.000007 0.028714 -0.000012
# 6 -0.000001 0.000000 0.000004 0.111672 -0.000012 0.250476
#
#
# Mechanical properties :
#
#
# Convention : Reuss Voigt Hill
#
# Bulk Modulus (GPa) = 50.42626 60.31478 55.37052
# Shear Modulus (GPa) = 17.29975 22.94684 20.12330
#
# Velocity S-wave (km/s) = 2.75824 3.17668 2.97483
# Velocity P-wave (km/s) = 5.68504 6.32294 6.01246
#
# Compressibility (1/GPa) = 0.01983094
#
# Stress axis : x y z
#
# Youngs Moduli (GPa) = 94.46283 86.15973 74.97669
#
# Poissons Ratio (x) = 0.01268 0.53952
# Poissons Ratio (y) = 0.01390 0.03798
# Poissons Ratio (z) = 0.67974 0.04365
#
# Static dielectric constant tensor:
#      x y z
#    x 1.913270 0.000000 0.012310 
#    y 0.000000 1.938000 0.000000 
#    z 0.012310 0.000000 1.836280 
# 
# From -- ./inp_files/320920.got.cif
#   From: 2010.05.17/outbox.cif.g08.bks.cpg/sg12_161_cif.got.tgz:320920.got - 2010.06.03 13:09:07.
