data_PCOD9195679
_publ_section_title
;
Structure prediction by ZEFSAII (Michael W. Deem and Ramdas Pophale) SiO2 
 PCOD9195679
Probable space group: C 2/M
;
_chemical_formula_sum "Si O2"
_cell_formula_units_Z 40
_cell_length_a 27.034820
_cell_length_b 9.059552
_cell_length_c 16.107483
_cell_angle_alpha 90.000000
_cell_angle_beta 32.742171
_cell_angle_gamma 90.000000
_cell_volume 2133.744353
_symmetry_space_group_name_H-M "C 2/M"
_symmetry_group_IT_number 12
_symmetry_cell_setting 'monoclinic'
loop_
_space_group_symop_operation_xyz
x,y,z
-x,y,-z
-x,-y,-z
x,-y,z
1/2+x,1/2+y,z
1/2-x,1/2+y,-z
1/2-x,1/2-y,-z
1/2+x,1/2-y,z
loop_
_atom_site_type_symbol
_atom_site_label
_atom_site_fract_x
_atom_site_fract_y
_atom_site_fract_z
Si Si1 0.879273 0.676154 0.343683
Si Si2 0.780954 0.674271 0.324815
Si Si3 0.331835 0.674665 0.834726
Si Si4 0.497549 0.169199 0.686494
Si Si5 0.186543 0.329423 0.315137
O O1 0.857652 0.500000 0.387058
O O2 0.868117 0.703556 0.261370
O O3 0.804224 0.775429 0.496735
O O4 0.973816 0.701336 0.258707
O O5 0.776123 0.500000 0.314776
O O6 0.765924 0.763684 0.261717
O O7 0.322399 0.500000 0.847783
O O8 0.425047 0.723359 0.748272
O O9 0.328508 0.736764 0.746250
O O10 0.250000 0.750000 0.000000
O O11 0.592384 0.175925 0.501094
O O12 0.463452 0.000000 0.729180
O O13 0.204720 0.500000 0.269131
#
# Coordination Sequence:
#
# PCOD9195679 Si02
#       5
#     8   8   8   8   8
#     4   8  15  27  45  72 107 141 168 203 254 303
#     4   9  15  25  45  75 107 137 171 208 248 298
#     4  12  25  39  55  75 101 135 175 218 264 312
#     4   9  18  34  55  79 108 140 172 209 255 305
#     4  10  20  35  55  79 108 140 172 211 259 306
#
# _framework density 18.746389000000001
#
# number of rings (size 3 to 8) (size 9 to 14) (size 15 to 20)
#    0.000    2.400    0.000    4.800    0.000    7.200 
#    0.000    0.000    0.000    1.200    0.000    8.400 
#    0.000    0.000    0.000    0.000    0.000    0.000 
#
# Total GULP energy -111500.018555 kJ/mol
# GULP energy per Si atom -5575.000928 kJ/mol
# Density = 1.870372 g / cm^3
# Si number density = 18.746389 Si / 1000 Ang^3
#
#
#
# Elastic Constant Matrix: (Units=GPa)
#
#
# Indices 1 2 3 4 5 6 
#
# 1 169.5424 90.7146 28.7069 -0.0004 -22.4583 0.0001
# 2 90.7146 135.5414 22.3555 -0.0006 -8.8175 0.0003
# 3 28.7069 22.3555 13.7828 -0.0003 -0.5848 0.0001
# 4 -0.0004 -0.0006 -0.0003 21.0452 0.0001 -1.4262
# 5 -22.4583 -8.8175 -0.5848 0.0001 -9.1036 -0.0001
# 6 0.0001 0.0003 0.0001 -1.4262 -0.0001 37.3812
#
#
#
# Elastic Compliance Matrix: (Units=1/GPa)
#
#
# Indices 1 2 3 4 5 6 
#
# 1 0.008171 -0.004812 -0.009844 0.000000 -0.014864 0.000000
# 2 -0.004812 0.012262 -0.009840 0.000000 0.000626 0.000000
# 3 -0.009844 -0.009840 0.110152 0.000001 0.026739 0.000000
# 4 0.000000 0.000000 0.000001 0.047640 0.000000 0.001818
# 5 -0.014864 0.000626 0.026739 0.000000 -0.075502 0.000000
# 6 0.000000 0.000000 0.000000 0.001818 0.000000 0.026821
#
#
# Mechanical properties :
#
#
# Convention : Reuss Voigt Hill
#
# Bulk Modulus (GPa) = 12.25597 66.93562 39.59580
# Shear Modulus (GPa) = 24.30347 21.67054 22.98701
#
# Velocity S-wave (km/s) = 3.60451 3.40367 3.50553
# Velocity P-wave (km/s) = 4.88623 7.15751 6.12802
#
# Compressibility (1/GPa) = 0.08159289
#
# Stress axis : x y z
#
# Youngs Moduli (GPa) = 122.38939 81.55348 9.07838
#
# Poissons Ratio (x) = 0.39242 0.08937
# Poissons Ratio (y) = 0.58891 0.08933
# Poissons Ratio (z) = 1.20479 0.80249
#
# Static dielectric constant tensor:
#      x y z
#    x 1.705750 0.000000 -0.005920 
#    y 0.000000 1.635620 0.000000 
#    z -0.005920 0.000000 1.639620 
# 
# From -- ./inp_files/220550.got.cif
#   From: 2010.05.17/outbox.cif.g08.bks.cpg/sg12_111_cif.got.tgz:220550.got - 2010.06.03 13:09:07.
