data_PCOD9195654
_publ_section_title
;
Structure prediction by ZEFSAII (Michael W. Deem and Ramdas Pophale) SiO2 
 PCOD9195654
Probable space group: C 2/M
;
_chemical_formula_sum "Si O2"
_cell_formula_units_Z 64
_cell_length_a 29.090245
_cell_length_b 8.776287
_cell_length_c 18.658234
_cell_angle_alpha 90.000000
_cell_angle_beta 39.645811
_cell_angle_gamma 90.000000
_cell_volume 3039.320763
_symmetry_space_group_name_H-M "C 2/M"
_symmetry_group_IT_number 12
_symmetry_cell_setting 'monoclinic'
loop_
_space_group_symop_operation_xyz
x,y,z
-x,y,-z
-x,-y,-z
x,-y,z
1/2+x,1/2+y,z
1/2-x,1/2+y,-z
1/2-x,1/2-y,-z
1/2+x,1/2-y,z
loop_
_atom_site_type_symbol
_atom_site_label
_atom_site_fract_x
_atom_site_fract_y
_atom_site_fract_z
Si Si1 0.548042 0.667368 0.014460
Si Si2 0.883986 0.177499 0.530168
Si Si3 0.168058 0.327100 0.800034
Si Si4 0.697771 0.319210 0.125762
Si Si5 0.280874 0.173915 0.756231
Si Si6 0.318671 0.320069 0.457686
Si Si7 0.462444 0.682293 0.623263
Si Si8 0.924703 0.676399 0.230777
O O1 0.580772 0.500000 0.986632
O O2 0.492283 0.714277 0.141412
O O3 0.500000 0.659240 0.000000
O O4 0.603120 0.802129 0.933738
O O5 0.855475 0.277180 0.630014
O O6 0.828264 0.191500 0.531249
O O7 0.967118 0.211319 0.411285
O O8 0.881928 0.000000 0.554971
O O9 0.195530 0.500000 0.767870
O O10 0.224306 0.206050 0.761174
O O11 0.132675 0.296005 0.765236
O O12 0.693704 0.500000 0.117696
O O13 0.735527 0.279729 0.156270
O O14 0.613744 0.264361 0.247299
O O15 0.750000 0.250000 0.000000
O O16 0.281223 0.000000 0.778624
O O17 0.323755 0.500000 0.433468
O O18 0.250000 0.250000 0.500000
O O19 0.383951 0.220381 0.350417
O O20 0.500000 0.727475 0.500000
O O21 0.451300 0.500000 0.629907
O O22 0.945041 0.500000 0.200909
#
# Coordination Sequence:
#
# PCOD9195654 Si02
#       8
#     8   8   8   8   8   8   8   8
#     4   9  17  31  52  77 106 143 191 245 301 365
#     4  10  21  40  64  92 120 160 215 263 314 376
#     4  10  20  35  56  82 112 155 205 255 305 362
#     4  11  23  43  69  96 131 167 205 258 320 391
#     4  12  24  38  60  92 125 160 203 255 313 380
#     4  11  23  37  56  82 119 160 204 257 314 373
#     4   9  17  37  71  98 120 162 211 258 315 383
#     4  10  20  35  55  78 112 155 201 251 309 372
#
# _framework density 21.057335999999999
#
# number of rings (size 3 to 8) (size 9 to 14) (size 15 to 20)
#    0.000    1.750    1.250    3.750    0.000    7.000 
#    2.250    1.875    0.000    0.000    0.000    0.000 
#    0.000    0.000    0.000    0.000    0.000    0.000 
#
# Total GULP energy -178140.399197 kJ/mol
# GULP energy per Si atom -5566.887475 kJ/mol
# Density = 2.100941 g / cm^3
# Si number density = 21.057336 Si / 1000 Ang^3
#
#
#
# Elastic Constant Matrix: (Units=GPa)
#
#
# Indices 1 2 3 4 5 6 
#
# 1 51.5178 25.1018 19.2679 -0.0064 -2.8336 0.0048
# 2 25.1018 41.2244 27.5868 -0.0073 -1.3545 0.0024
# 3 19.2679 27.5868 111.0173 -0.0033 -9.1621 0.0030
# 4 -0.0064 -0.0073 -0.0033 33.1922 0.0049 -2.5493
# 5 -2.8336 -1.3545 -9.1621 0.0049 20.1941 -0.0043
# 6 0.0048 0.0024 0.0030 -2.5493 -0.0043 13.1765
#
#
#
# Elastic Compliance Matrix: (Units=1/GPa)
#
#
# Indices 1 2 3 4 5 6 
#
# 1 0.027776 -0.016486 -0.000513 0.000001 0.002559 -0.000006
# 2 -0.016486 0.038917 -0.007049 0.000005 -0.002901 0.000001
# 3 -0.000513 -0.007049 0.011224 -0.000001 0.004547 0.000000
# 4 0.000001 0.000005 -0.000001 0.030582 -0.000006 0.005917
# 5 0.002559 -0.002901 0.004547 -0.000006 0.051747 0.000014
# 6 -0.000006 0.000001 0.000000 0.005917 0.000014 0.077037
#
#
# Mechanical properties :
#
#
# Convention : Reuss Voigt Hill
#
# Bulk Modulus (GPa) = 33.53238 38.63030 36.08134
# Shear Modulus (GPa) = 16.93087 22.09942 19.51514
#
# Velocity S-wave (km/s) = 2.83863 3.24309 3.04758
# Velocity P-wave (km/s) = 5.16746 5.69286 5.43651
#
# Compressibility (1/GPa) = 0.02982192
#
# Stress axis : x y z
#
# Youngs Moduli (GPa) = 36.00243 25.69549 89.09872
#
# Poissons Ratio (x) = 0.42360 0.04571
# Poissons Ratio (y) = 0.59352 0.62804
# Poissons Ratio (z) = 0.01847 0.18112
#
# Static dielectric constant tensor:
#      x y z
#    x 1.829080 0.000000 -0.041610 
#    y 0.000000 1.724070 0.000000 
#    z -0.041610 0.000000 1.804480 
# 
# From -- ./inp_files/295504.got.cif
#   From: 2010.05.17/outbox.cif.g08.bks.cpg/sg12_148_cif.got.tgz:295504.got - 2010.06.03 13:09:07.
