data_PCOD9195302
_publ_section_title
;
Structure prediction by ZEFSAII (Michael W. Deem and Ramdas Pophale) SiO2 
 PCOD9195302
Probable space group: C 2/M
;
_chemical_formula_sum "Si O2"
_cell_formula_units_Z 64
_cell_length_a 16.974696
_cell_length_b 12.039899
_cell_length_c 17.553152
_cell_angle_alpha 90.000000
_cell_angle_beta 78.586938
_cell_angle_gamma 90.000000
_cell_volume 3516.464354
_symmetry_space_group_name_H-M "C 2/M"
_symmetry_group_IT_number 12
_symmetry_cell_setting 'monoclinic'
loop_
_space_group_symop_operation_xyz
x,y,z
-x,y,-z
-x,-y,-z
x,-y,z
1/2+x,1/2+y,z
1/2-x,1/2+y,-z
1/2-x,1/2-y,-z
1/2+x,1/2-y,z
loop_
_atom_site_type_symbol
_atom_site_label
_atom_site_fract_x
_atom_site_fract_y
_atom_site_fract_z
Si Si1 0.665089 0.876653 0.160882
Si Si2 0.939119 0.870555 0.575251
Si Si3 0.636004 0.870035 0.711669
Si Si4 0.498632 0.627753 0.120060
Si Si5 0.669788 0.752486 0.862148
Si Si6 0.531318 0.741402 0.269722
Si Si7 0.582109 0.172238 0.020452
Si Si8 0.741642 0.632674 0.453072
O O1 0.745946 0.806091 0.140287
O O2 0.602780 0.822361 0.231015
O O3 0.619429 0.880077 0.088525
O O4 0.686636 0.000000 0.181189
O O5 0.949896 0.810643 0.652982
O O6 0.848821 0.864248 0.561563
O O7 0.000000 0.824823 0.500000
O O8 0.959696 0.000000 0.583036
O O9 0.671567 0.820761 0.783250
O O10 0.552749 0.806816 0.712374
O O11 0.696051 0.857477 0.629006
O O12 0.619738 0.000000 0.725907
O O13 0.507191 0.500000 0.099054
O O14 0.406432 0.668771 0.130027
O O15 0.523636 0.652453 0.202570
O O16 0.553951 0.706139 0.056717
O O17 0.646033 0.824023 0.940547
O O18 0.500000 0.124481 0.000000
O O19 0.751920 0.500000 0.481134
O O20 0.750000 0.750000 0.500000
#
# Coordination Sequence:
#
# PCOD9195302 Si02
#       8
#     8   8   8   8   8   8   8   8
#     4  11  22  35  52  75 106 140 174 220 271 315
#     4  10  20  35  58  85 112 141 175 223 277 324
#     4  10  21  38  59  79 107 146 181 219 268 324
#     4   9  18  33  54  76 102 139 177 219 269 318
#     4  10  20  35  53  78 106 133 177 223 266 320
#     4  10  20  35  54  79 109 139 180 219 260 322
#     4   9  20  35  52  75 102 136 179 223 264 321
#     4  10  21  39  61  85 114 149 188 230 277 330
#
# _framework density 18.200099000000002
#
# number of rings (size 3 to 8) (size 9 to 14) (size 15 to 20)
#    0.000    2.125    0.000    3.750    0.000    3.500 
#    0.000    8.125    0.000    3.375    0.000    0.000 
#    0.000    0.000    0.000    0.000    0.000    0.000 
#
# Total GULP energy -178399.713373 kJ/mol
# GULP energy per Si atom -5574.991043 kJ/mol
# Density = 1.815868 g / cm^3
# Si number density = 18.200099 Si / 1000 Ang^3
#
#
#
# Elastic Constant Matrix: (Units=GPa)
#
#
# Indices 1 2 3 4 5 6 
#
# 1 71.4140 15.3347 35.1034 0.0000 -10.4835 0.0000
# 2 15.3347 102.2620 48.0169 0.0000 3.0217 0.0000
# 3 35.1034 48.0169 125.0488 0.0000 -0.8733 0.0000
# 4 0.0000 0.0000 0.0000 -17.6765 0.0000 -2.0537
# 5 -10.4835 3.0217 -0.8733 0.0000 30.3664 0.0000
# 6 0.0000 0.0000 0.0000 -2.0537 0.0000 23.2521
#
#
#
# Elastic Compliance Matrix: (Units=1/GPa)
#
#
# Indices 1 2 3 4 5 6 
#
# 1 0.017241 -0.000617 -0.004562 0.000000 0.005883 0.000000
# 2 -0.000617 0.012005 -0.004447 0.000000 -0.001536 0.000000
# 3 -0.004562 -0.004447 0.010979 0.000000 -0.000817 0.000000
# 4 0.000000 0.000000 0.000000 -0.055998 0.000000 -0.004946
# 5 0.005883 -0.001536 -0.000817 0.000000 0.035091 0.000000
# 6 0.000000 0.000000 0.000000 -0.004946 0.000000 0.042570
#
#
# Mechanical properties :
#
#
# Convention : Reuss Voigt Hill
#
# Bulk Modulus (GPa) = 47.68005 55.07052 51.37529
# Shear Modulus (GPa) = 56.73269 20.53974 38.63621
#
# Velocity S-wave (km/s) = 5.58921 3.36304 4.61245
# Velocity P-wave (km/s) = 8.24057 6.73825 7.52699
#
# Compressibility (1/GPa) = 0.02097313
#
# Stress axis : x y z
#
# Youngs Moduli (GPa) = 58.00028 83.29936 91.07961
#
# Poissons Ratio (x) = 0.05142 0.41549
# Poissons Ratio (y) = 0.03580 0.40505
# Poissons Ratio (z) = 0.26459 0.37045
#
# Static dielectric constant tensor:
#      x y z
#    x 1.598440 0.000000 0.003290 
#    y 0.000000 1.637320 0.000000 
#    z 0.003290 0.000000 1.611320 
# 
# From -- ./inp_files/269315.got.cif
#   From: 2010.05.17/outbox.cif.g08.bks.cpg/sg12_135_cif.got.tgz:269315.got - 2010.06.03 13:09:07.
