data_PCOD9195651
_publ_section_title
;
Structure prediction by ZEFSAII (Michael W. Deem and Ramdas Pophale) SiO2 
 PCOD9195651
Probable space group: C 2/M
;
_chemical_formula_sum "Si O2"
_cell_formula_units_Z 56
_cell_length_a 27.848252
_cell_length_b 25.364433
_cell_length_c 6.814844
_cell_angle_alpha 90.000000
_cell_angle_beta 38.431065
_cell_angle_gamma 90.000000
_cell_volume 2992.063989
_symmetry_space_group_name_H-M "C 2/M"
_symmetry_group_IT_number 12
_symmetry_cell_setting 'monoclinic'
loop_
_space_group_symop_operation_xyz
x,y,z
-x,y,-z
-x,-y,-z
x,-y,z
1/2+x,1/2+y,z
1/2-x,1/2+y,-z
1/2-x,1/2-y,-z
1/2+x,1/2-y,z
loop_
_atom_site_type_symbol
_atom_site_label
_atom_site_fract_x
_atom_site_fract_y
_atom_site_fract_z
Si Si1 0.880649 0.805286 0.618536
Si Si2 0.581630 0.791310 0.754257
Si Si3 0.785453 0.942557 0.933599
Si Si4 0.834348 0.740011 0.128659
Si Si5 0.087648 0.063202 0.139106
Si Si6 0.791123 0.663848 0.924227
Si Si7 0.083875 0.908473 0.734655
O O1 0.925369 0.758873 0.367081
O O2 0.916814 0.858551 0.411376
O O3 0.867602 0.788019 0.886628
O O4 0.792092 0.807960 0.827520
O O5 0.605861 0.772724 0.891150
O O6 0.653197 0.822170 0.432853
O O7 0.500000 0.820356 0.000000
O O8 0.840644 0.927575 0.942063
O O9 0.849070 0.944693 0.559469
O O10 0.750842 0.000000 0.079902
O O11 0.728039 0.897568 0.042866
O O12 0.750000 0.750000 0.500000
O O13 0.825976 0.689576 0.009339
O O14 0.000000 0.072426 0.500000
O O15 0.090072 0.000000 0.084750
O O16 0.099685 0.100323 0.912537
O O17 0.000000 0.934037 0.000000
#
# Coordination Sequence:
#
# PCOD9195651 Si02
#       7
#     8   8   8   8   8   8   8
#     4  10  21  35  54  87 117 154 197 230 291 349
#     4  11  22  38  60  86 116 149 192 244 290 347
#     4  10  22  38  57  82 115 153 200 249 292 352
#     4  11  19  38  65  81 116 160 190 241 291 352
#     4  10  20  35  55  78 110 160 209 248 295 339
#     4  10  21  37  58  86 112 151 199 232 296 348
#     4  11  21  34  51  80 119 158 199 244 288 342
#
# _framework density 18.716176999999998
#
# number of rings (size 3 to 8) (size 9 to 14) (size 15 to 20)
#    0.000    1.571    4.286    1.714    0.000    7.429 
#    0.000    0.000    0.000    0.429    0.000    1.000 
#    0.000    0.000    0.000    0.000    0.000    0.000 
#
# Total GULP energy -155956.559216 kJ/mol
# GULP energy per Si atom -5569.877115 kJ/mol
# Density = 1.867358 g / cm^3
# Si number density = 18.716177 Si / 1000 Ang^3
#
#
#
# Elastic Constant Matrix: (Units=GPa)
#
#
# Indices 1 2 3 4 5 6 
#
# 1 78.1438 14.2947 35.0427 0.0000 19.0352 0.0000
# 2 14.2947 92.7827 27.1429 0.0000 12.7644 0.0000
# 3 35.0427 27.1429 80.5488 0.0000 20.4839 0.0000
# 4 0.0000 0.0000 0.0000 26.3328 0.0000 -7.3843
# 5 19.0352 12.7644 20.4839 0.0000 33.9519 0.0000
# 6 0.0000 0.0000 0.0000 -7.3843 0.0000 17.8466
#
#
#
# Elastic Compliance Matrix: (Units=1/GPa)
#
#
# Indices 1 2 3 4 5 6 
#
# 1 0.016855 -0.000086 -0.005798 0.000000 -0.005919 0.000000
# 2 -0.000086 0.012130 -0.003429 0.000000 -0.002444 0.000000
# 3 -0.005798 -0.003429 0.017646 0.000000 -0.006106 0.000000
# 4 0.000000 0.000000 0.000000 0.042960 0.000000 0.017775
# 5 -0.005919 -0.002444 -0.006106 0.000000 0.037374 0.000000
# 6 0.000000 0.000000 0.000000 0.017775 0.000000 0.063388
#
#
# Mechanical properties :
#
#
# Convention : Reuss Voigt Hill
#
# Bulk Modulus (GPa) = 35.70905 44.93731 40.32318
# Shear Modulus (GPa) = 22.90276 27.29259 25.09767
#
# Velocity S-wave (km/s) = 3.50192 3.82283 3.66589
# Velocity P-wave (km/s) = 5.95583 6.59904 6.28567
#
# Compressibility (1/GPa) = 0.02800411
#
# Stress axis : x y z
#
# Youngs Moduli (GPa) = 59.33068 82.43773 56.67134
#
# Poissons Ratio (x) = 0.00710 0.32860
# Poissons Ratio (y) = 0.00511 0.19431
# Poissons Ratio (z) = 0.34402 0.28266
#
# Static dielectric constant tensor:
#      x y z
#    x 1.682430 0.000000 0.036450 
#    y 0.000000 1.718820 0.000000 
#    z 0.036450 0.000000 1.667850 
# 
# From -- ./inp_files/32574.got.cif
#   From: 2010.05.17/outbox.cif.g08.bks.cpg/sg12_17_cif.got.tgz:32574.got - 2010.06.03 13:09:07.
