data_PCOD9195933
_publ_section_title
;
Structure prediction by ZEFSAII (Michael W. Deem and Ramdas Pophale) SiO2 
 PCOD9195933
Probable space group: C 2/M
;
_chemical_formula_sum "Si O2"
_cell_formula_units_Z 48
_cell_length_a 29.846752
_cell_length_b 7.527690
_cell_length_c 18.403506
_cell_angle_alpha 90.000000
_cell_angle_beta 154.301007
_cell_angle_gamma 90.000000
_cell_volume 1793.048176
_symmetry_space_group_name_H-M "C 2/M"
_symmetry_group_IT_number 12
_symmetry_cell_setting 'monoclinic'
loop_
_space_group_symop_operation_xyz
x,y,z
-x,y,-z
-x,-y,-z
x,-y,z
1/2+x,1/2+y,z
1/2-x,1/2+y,-z
1/2-x,1/2-y,-z
1/2+x,1/2-y,z
loop_
_atom_site_type_symbol
_atom_site_label
_atom_site_fract_x
_atom_site_fract_y
_atom_site_fract_z
Si Si1 0.878182 0.703066 0.611545
Si Si2 0.113448 0.284666 0.754228
Si Si3 0.146460 0.793589 0.270841
Si Si4 0.904932 0.718611 0.117052
Si Si5 0.335618 0.205074 0.859999
Si Si6 0.371531 0.213918 0.382495
O O1 0.864576 0.500000 0.566881
O O2 0.909358 0.703209 0.742868
O O3 0.763954 0.783387 0.442421
O O4 0.974759 0.774502 0.708759
O O5 0.121509 0.500000 0.765299
O O6 0.146553 0.221318 0.882700
O O7 0.157379 0.219378 0.741385
O O8 0.990778 0.241475 0.570037
O O9 0.115469 0.782343 0.141478
O O10 0.147871 0.000000 0.292775
O O11 0.902065 0.500000 0.112454
O O12 0.863834 0.784324 0.979669
O O13 0.211016 0.221298 0.679968
O O14 0.363457 0.000000 0.900632
O O15 0.366909 0.000000 0.375866
#
# Coordination Sequence:
#
# PCOD9195933 Si02
#       6
#     8   8   8   8   8   8
#     4   9  18  35  58  78  97 127 169 211 249 294
#     4   8  15  31  55  78  98 128 172 212 247 295
#     4  10  20  35  56  78 100 128 166 212 255 295
#     4   9  18  32  50  73 102 137 171 201 242 302
#     4  11  22  33  48  73 106 139 168 202 247 300
#     4   9  17  32  56  79  98 127 170 216 254 291
#
# _framework density 26.770053999999998
#
# number of rings (size 3 to 8) (size 9 to 14) (size 15 to 20)
#    0.000    2.667    0.000    3.000    0.000    4.667 
#    0.000    6.667    0.000    4.000    0.000    0.000 
#    0.000    0.000    0.000    0.000    0.000    0.000 
#
# Total GULP energy -134182.116201 kJ/mol
# GULP energy per Si atom -5590.921508 kJ/mol
# Density = 2.670912 g / cm^3
# Si number density = 26.770054 Si / 1000 Ang^3
#
#
#
# Elastic Constant Matrix: (Units=GPa)
#
#
# Indices 1 2 3 4 5 6 
#
# 1 201.6814 -0.1174 16.5215 0.0000 -20.8326 0.0000
# 2 -0.1174 83.0516 -1.0069 0.0000 -3.3818 0.0000
# 3 16.5215 -1.0069 57.5800 0.0000 -15.8682 0.0000
# 4 0.0000 0.0000 0.0000 7.9013 0.0000 -1.1437
# 5 -20.8326 -3.3818 -15.8682 0.0000 57.1351 0.0000
# 6 0.0000 0.0000 0.0000 -1.1437 0.0000 20.1053
#
#
#
# Elastic Compliance Matrix: (Units=1/GPa)
#
#
# Indices 1 2 3 4 5 6 
#
# 1 0.005211 0.000060 -0.001050 0.000000 0.001612 0.000000
# 2 0.000060 0.012081 0.000430 0.000000 0.000856 0.000000
# 3 -0.001050 0.000430 0.019034 0.000000 0.004929 0.000000
# 4 0.000000 0.000000 0.000000 0.127612 0.000000 0.007259
# 5 0.001612 0.000856 0.004929 0.000000 0.019510 0.000000
# 6 0.000000 0.000000 0.000000 0.007259 0.000000 0.050151
#
#
# Mechanical properties :
#
#
# Convention : Reuss Voigt Hill
#
# Bulk Modulus (GPa) = 28.40360 41.45638 34.92999
# Shear Modulus (GPa) = 20.28778 38.82273 29.55526
#
# Velocity S-wave (km/s) = 2.75590 3.81232 3.32632
# Velocity P-wave (km/s) = 4.55630 5.90746 5.27532
#
# Compressibility (1/GPa) = 0.03520680
#
# Stress axis : x y z
#
# Youngs Moduli (GPa) = 191.90678 82.77542 52.53682
#
# Poissons Ratio (x) = -0.00499 0.05516
# Poissons Ratio (y) = -0.01157 -0.02259
# Poissons Ratio (z) = 0.20148 -0.03559
#
# Static dielectric constant tensor:
#      x y z
#    x 2.040430 0.000000 -0.060460 
#    y 0.000000 2.014660 0.000000 
#    z -0.060460 0.000000 2.254560 
# 
# From -- ./inp_files/274048.got.cif
#   From: 2010.05.17/outbox.cif.g08.bks.cpg/sg12_138_cif.got.tgz:274048.got - 2010.06.03 13:09:07.
