data_PCOD9195549
_publ_section_title
;
Structure prediction by ZEFSAII (Michael W. Deem and Ramdas Pophale) SiO2 
 PCOD9195549
Probable space group: C 2/M
;
_chemical_formula_sum "Si O2"
_cell_formula_units_Z 50
_cell_length_a 16.389681
_cell_length_b 12.822900
_cell_length_c 16.544661
_cell_angle_alpha 90.000000
_cell_angle_beta 34.060491
_cell_angle_gamma 90.000000
_cell_volume 1947.400521
_symmetry_space_group_name_H-M "C 2/M"
_symmetry_group_IT_number 12
_symmetry_cell_setting 'monoclinic'
loop_
_space_group_symop_operation_xyz
x,y,z
-x,y,-z
-x,-y,-z
x,-y,z
1/2+x,1/2+y,z
1/2-x,1/2+y,-z
1/2-x,1/2-y,-z
1/2+x,1/2-y,z
loop_
_atom_site_type_symbol
_atom_site_label
_atom_site_fract_x
_atom_site_fract_y
_atom_site_fract_z
Si Si1 0.456960 0.657582 0.892639
Si Si2 0.425570 0.612982 0.738385
Si Si3 0.215669 0.111811 0.412644
Si Si4 0.406777 0.155528 0.703982
Si Si5 0.203133 0.337482 0.374507
Si Si6 0.000000 0.000000 0.000000
Si Si7 0.442253 0.886648 0.855750
O O1 0.391108 0.619637 0.861678
O O2 0.632067 0.642927 0.736491
O O3 0.435417 0.591258 0.990522
O O4 0.417102 0.780973 0.927400
O O5 0.376935 0.500000 0.747005
O O6 0.600676 0.616128 0.579822
O O7 0.379331 0.720239 0.735114
O O8 0.185647 0.212381 0.384049
O O9 0.382556 0.117790 0.302292
O O10 0.193312 0.000000 0.389915
O O11 0.324204 0.117287 0.691954
O O12 0.575518 0.131836 0.540979
O O13 0.377355 0.117410 0.818550
O O14 0.411784 0.000000 0.918384
#
# Coordination Sequence:
#
# PCOD9195549 Si02
#       7
#     8   8   8   8   8   2   8
#     4  10  20  35  55  74 101 130 177 224 257 289
#     4   9  15  27  47  75 102 142 174 208 248 298
#     4   8  14  24  46  72 106 141 177 202 240 299
#     4   9  17  28  47  76 116 142 167 191 251 325
#     4   9  17  30  44  76 114 143 165 206 250 307
#     4  12  24  40  58  82  88 126 180 236 268 288
#     4   9  17  32  51  76 102 140 169 205 248 312
#
# _framework density 25.675252
#
# number of rings (size 3 to 8) (size 9 to 14) (size 15 to 20)
#    0.000    2.880    0.800    0.960    0.000    4.480 
#    2.880    4.400    0.000    3.840    0.000    0.000 
#    0.000    0.000    0.000    0.000    0.000    0.000 
#
# Total GULP energy -139401.195561 kJ/mol
# GULP energy per Si atom -5576.047822 kJ/mol
# Density = 2.561681 g / cm^3
# Si number density = 25.675252 Si / 1000 Ang^3
#
#
#
# Elastic Constant Matrix: (Units=GPa)
#
#
# Indices 1 2 3 4 5 6 
#
# 1 89.3045 28.1178 38.8598 -0.0001 24.0654 -0.0001
# 2 28.1178 200.0028 18.5016 -0.0001 27.9950 -0.0001
# 3 38.8598 18.5016 136.1277 0.0000 -2.8474 0.0000
# 4 -0.0001 -0.0001 0.0000 150.1812 0.0002 233.5964
# 5 24.0654 27.9950 -2.8474 0.0002 38.9196 0.0003
# 6 -0.0001 -0.0001 0.0000 233.5964 0.0003 343.5366
#
#
#
# Elastic Compliance Matrix: (Units=1/GPa)
#
#
# Indices 1 2 3 4 5 6 
#
# 1 0.016087 -0.000425 -0.004744 0.000000 -0.009989 0.000000
# 2 -0.000425 0.005669 -0.000730 0.000000 -0.003868 0.000000
# 3 -0.004744 -0.000730 0.008885 0.000000 0.004108 0.000000
# 4 0.000000 0.000000 0.000000 -0.115493 0.000000 0.078532
# 5 -0.009989 -0.003868 0.004108 0.000000 0.034954 0.000000
# 6 0.000000 0.000000 0.000000 0.078532 0.000000 -0.050489
#
#
# Mechanical properties :
#
#
# Convention : Reuss Voigt Hill
#
# Bulk Modulus (GPa) = 53.06597 66.26593 59.66595
# Shear Modulus (GPa) = -60.74650 129.19119 34.22234
#
# Velocity S-wave (km/s) = -4.86939 7.10117 3.65484
# Velocity P-wave (km/s) = 3.30175 9.64888 6.41090
#
# Compressibility (1/GPa) = 0.01884447
#
# Stress axis : x y z
#
# Youngs Moduli (GPa) = 62.16100 176.40936 112.54480
#
# Poissons Ratio (x) = 0.07491 0.53387
# Poissons Ratio (y) = 0.02640 0.08217
# Poissons Ratio (z) = 0.29487 0.12880
#
# Static dielectric constant tensor:
#      x y z
#    x 1.981190 0.000000 -0.101120 
#    y 0.000000 2.025980 0.000000 
#    z -0.101120 0.000000 2.049390 
# 
# From -- ./inp_files/224629.got.cif
#   From: 2010.05.17/outbox.cif.g08.bks.cpg/sg12_113_cif.got.tgz:224629.got - 2010.06.03 13:09:07.
