data_PCOD9195213
_publ_section_title
;
Structure prediction by ZEFSAII (Michael W. Deem and Ramdas Pophale) SiO2 
 PCOD9195213
Probable space group: C 2/M
;
_chemical_formula_sum "Si O2"
_cell_formula_units_Z 56
_cell_length_a 12.273575
_cell_length_b 18.386307
_cell_length_c 18.217063
_cell_angle_alpha 90.000000
_cell_angle_beta 50.622433
_cell_angle_gamma 90.000000
_cell_volume 3177.703309
_symmetry_space_group_name_H-M "C 2/M"
_symmetry_group_IT_number 12
_symmetry_cell_setting 'monoclinic'
loop_
_space_group_symop_operation_xyz
x,y,z
-x,y,-z
-x,-y,-z
x,-y,z
1/2+x,1/2+y,z
1/2-x,1/2+y,-z
1/2-x,1/2-y,-z
1/2+x,1/2-y,z
loop_
_atom_site_type_symbol
_atom_site_label
_atom_site_fract_x
_atom_site_fract_y
_atom_site_fract_z
Si Si1 0.505875 0.914499 0.875969
Si Si2 0.232965 0.585697 0.910049
Si Si3 0.071315 0.661998 0.568741
Si Si4 0.309102 0.914743 0.625682
Si Si5 0.518734 0.350642 0.734435
Si Si6 0.861316 0.311451 0.299168
Si Si7 0.463439 0.323203 0.593924
O O1 0.627092 0.906259 0.886224
O O2 0.547148 0.863856 0.791141
O O3 0.501826 0.000000 0.857652
O O4 0.359087 0.895497 0.978888
O O5 0.269156 0.500000 0.898830
O O6 0.372585 0.631356 0.836223
O O7 0.155800 0.623203 0.467527
O O8 0.143962 0.657476 0.616040
O O9 0.917737 0.624150 0.634434
O O10 0.048269 0.746743 0.559432
O O11 0.146306 0.899268 0.709966
O O12 0.338468 0.000000 0.609923
O O13 0.567114 0.267512 0.725342
O O14 0.499201 0.362776 0.654897
O O15 0.703195 0.306359 0.335838
O O16 0.500000 0.359545 0.500000
#
# Coordination Sequence:
#
# PCOD9195213 Si02
#       7
#     8   8   8   8   8   8   8
#     4   9  19  36  58  79 104 138 175 218 277 329
#     4   9  18  36  58  79 105 138 175 220 270 329
#     4  10  20  35  52  75 107 149 187 211 260 312
#     4  11  21  36  53  76 110 149 189 216 250 321
#     4  11  21  33  57  83 107 140 181 223 274 312
#     4  11  21  34  57  81 110 138 178 229 270 316
#     4  11  19  34  53  77 111 140 178 227 268 312
#
# _framework density 17.622790999999999
#
# number of rings (size 3 to 8) (size 9 to 14) (size 15 to 20)
#    0.000    1.714    4.286    3.000    0.000    4.000 
#    0.000    0.000    0.000    3.000    0.000    3.000 
#    0.000    0.000    0.000    0.000    0.000    0.000 
#
# Total GULP energy -156273.315945 kJ/mol
# GULP energy per Si atom -5581.189855 kJ/mol
# Density = 1.758268 g / cm^3
# Si number density = 17.622791 Si / 1000 Ang^3
#
#
#
# Elastic Constant Matrix: (Units=GPa)
#
#
# Indices 1 2 3 4 5 6 
#
# 1 59.8442 1.3704 9.2622 0.0000 -12.4419 0.0000
# 2 1.3704 28.4498 7.6962 0.0000 -2.5784 0.0000
# 3 9.2622 7.6962 55.0509 0.0001 -14.8005 0.0000
# 4 0.0000 0.0000 0.0001 31.0313 0.0000 -1.0407
# 5 -12.4419 -2.5784 -14.8005 0.0000 35.1173 0.0000
# 6 0.0000 0.0000 0.0000 -1.0407 0.0000 5.6336
#
#
#
# Elastic Compliance Matrix: (Units=1/GPa)
#
#
# Indices 1 2 3 4 5 6 
#
# 1 0.018147 0.000058 -0.001502 0.000000 0.005801 0.000000
# 2 0.000058 0.036542 -0.004953 0.000000 0.000616 0.000000
# 3 -0.001502 -0.004953 0.021281 0.000000 0.008073 0.000000
# 4 0.000000 0.000000 0.000000 0.032426 0.000000 0.005990
# 5 0.005801 0.000616 0.008073 0.000000 0.033979 0.000000
# 6 0.000000 0.000000 0.000000 0.005990 0.000000 0.178614
#
#
# Mechanical properties :
#
#
# Convention : Reuss Voigt Hill
#
# Bulk Modulus (GPa) = 15.82860 20.00027 17.91444
# Shear Modulus (GPa) = 14.09078 22.69083 18.39080
#
# Velocity S-wave (km/s) = 2.83075 3.59219 3.23395
# Velocity P-wave (km/s) = 4.43684 5.34591 4.91245
#
# Compressibility (1/GPa) = 0.06317677
#
# Stress axis : x y z
#
# Youngs Moduli (GPa) = 55.10499 27.36544 46.99120
#
# Poissons Ratio (x) = -0.00158 0.07057
# Poissons Ratio (y) = -0.00319 0.23274
# Poissons Ratio (z) = 0.08275 0.13553
#
# Static dielectric constant tensor:
#      x y z
#    x 1.606360 0.000000 -0.011390 
#    y 0.000000 1.588790 0.000000 
#    z -0.011390 0.000000 1.607390 
# 
# From -- ./inp_files/133299.got.cif
#   From: 2010.05.17/outbox.cif.g08.bks.cpg/sg12_67_cif.got.tgz:133299.got - 2010.06.03 13:09:07.
