data_PCOD9195524
_publ_section_title
;
Structure prediction by ZEFSAII (Michael W. Deem and Ramdas Pophale) SiO2 
 PCOD9195524
Probable space group: C 2/M
;
_chemical_formula_sum "Si O2"
_cell_formula_units_Z 64
_cell_length_a 26.351347
_cell_length_b 14.688726
_cell_length_c 10.021934
_cell_angle_alpha 90.000000
_cell_angle_beta 67.942171
_cell_angle_gamma 90.000000
_cell_volume 3595.232589
_symmetry_space_group_name_H-M "C 2/M"
_symmetry_group_IT_number 12
_symmetry_cell_setting 'monoclinic'
loop_
_space_group_symop_operation_xyz
x,y,z
-x,y,-z
-x,-y,-z
x,-y,z
1/2+x,1/2+y,z
1/2-x,1/2+y,-z
1/2-x,1/2-y,-z
1/2+x,1/2-y,z
loop_
_atom_site_type_symbol
_atom_site_label
_atom_site_fract_x
_atom_site_fract_y
_atom_site_fract_z
Si Si1 0.396411 0.106075 0.447418
Si Si2 0.632717 0.769753 0.975496
Si Si3 0.049972 0.894446 0.357182
Si Si4 0.550793 0.605348 0.045652
Si Si5 0.556966 0.109540 0.872905
Si Si6 0.868602 0.733574 0.714331
Si Si7 0.230913 0.606333 0.513491
Si Si8 0.246608 0.249931 0.727497
O O1 0.436731 0.137053 0.288563
O O2 0.396050 0.165365 0.581117
O O3 0.334641 0.112206 0.448192
O O4 0.407103 0.000000 0.466906
O O5 0.605545 0.845244 0.908284
O O6 0.695870 0.756214 0.876982
O O7 0.599691 0.676491 0.979507
O O8 0.625196 0.794901 0.137896
O O9 0.033742 0.887746 0.217654
O O10 0.101636 0.830355 0.328981
O O11 0.000000 0.865920 0.500000
O O12 0.062627 0.000000 0.373155
O O13 0.567043 0.500000 0.005078
O O14 0.500000 0.626886 0.000000
O O15 0.561707 0.000000 0.871201
O O16 0.500000 0.135316 0.000000
O O17 0.804766 0.741939 0.742085
O O18 0.245710 0.500000 0.503505
O O19 0.245200 0.661826 0.632629
O O20 0.258405 0.662259 0.365119
#
# Coordination Sequence:
#
# PCOD9195524 Si02
#       8
#     8   8   8   8   8   8   8   8
#     4   9  18  36  57  77 108 146 183 228 276 324
#     4  11  21  35  56  82 114 148 181 227 282 330
#     4   9  19  37  56  77 108 143 180 223 270 323
#     4   9  19  36  55  78 108 143 184 227 273 324
#     4  10  21  37  58  82 108 142 188 236 280 327
#     4  10  22  35  55  83 114 150 181 223 276 336
#     4   9  18  35  56  78 107 145 185 229 275 319
#     4  10  20  35  54  82 114 144 185 228 269 337
#
# _framework density 17.801351
#
# number of rings (size 3 to 8) (size 9 to 14) (size 15 to 20)
#    0.000    2.375    1.250    0.750    0.000    4.500 
#    0.000    0.000    0.000    7.125    0.000    0.000 
#    0.000    0.000    0.000    0.000    0.000    0.000 
#
# Total GULP energy -178504.886879 kJ/mol
# GULP energy per Si atom -5578.277715 kJ/mol
# Density = 1.776083 g / cm^3
# Si number density = 17.801351 Si / 1000 Ang^3
#
#
#
# Elastic Constant Matrix: (Units=GPa)
#
#
# Indices 1 2 3 4 5 6 
#
# 1 61.0958 30.2527 48.9498 0.0000 0.6467 0.0000
# 2 30.2527 73.1334 50.3890 0.0000 7.2768 0.0000
# 3 48.9498 50.3890 126.7848 0.0000 -10.1223 0.0000
# 4 0.0000 0.0000 0.0000 18.1652 0.0000 2.5388
# 5 0.6467 7.2768 -10.1223 0.0000 30.1236 0.0000
# 6 0.0000 0.0000 0.0000 2.5388 0.0000 17.1091
#
#
#
# Elastic Compliance Matrix: (Units=1/GPa)
#
#
# Indices 1 2 3 4 5 6 
#
# 1 0.025118 -0.004659 -0.008014 0.000000 -0.002107 0.000000
# 2 -0.004659 0.021376 -0.007297 0.000000 -0.007516 0.000000
# 3 -0.008014 -0.007297 0.014423 0.000000 0.006781 0.000000
# 4 0.000000 0.000000 0.000000 0.056216 0.000000 -0.008342
# 5 -0.002107 -0.007516 0.006781 0.000000 0.037336 0.000000
# 6 0.000000 0.000000 0.000000 -0.008342 0.000000 0.059686
#
#
# Mechanical properties :
#
#
# Convention : Reuss Voigt Hill
#
# Bulk Modulus (GPa) = 47.67140 57.79966 52.73553
# Shear Modulus (GPa) = 19.15058 21.84109 20.49584
#
# Velocity S-wave (km/s) = 3.28349 3.50656 3.39686
# Velocity P-wave (km/s) = 6.41972 6.99531 6.71369
#
# Compressibility (1/GPa) = 0.02097694
#
# Stress axis : x y z
#
# Youngs Moduli (GPa) = 39.81206 46.78054 69.33325
#
# Poissons Ratio (x) = 0.21795 0.55565
# Poissons Ratio (y) = 0.18548 0.50593
# Poissons Ratio (z) = 0.31906 0.34136
#
# Static dielectric constant tensor:
#      x y z
#    x 1.579960 0.000000 -0.006290 
#    y 0.000000 1.598560 0.000000 
#    z -0.006290 0.000000 1.608490 
# 
# From -- ./inp_files/104539.got.cif
#   From: 2010.05.17/outbox.cif.g08.bks.cpg/sg12_53_cif.got.tgz:104539.got - 2010.06.03 13:09:07.
