data_PCOD9195264
_publ_section_title
;
Structure prediction by ZEFSAII (Michael W. Deem and Ramdas Pophale) SiO2 
 PCOD9195264
Probable space group: C 2/M
;
_chemical_formula_sum "Si O2"
_cell_formula_units_Z 56
_cell_length_a 20.857173
_cell_length_b 7.636924
_cell_length_c 20.599423
_cell_angle_alpha 90.000000
_cell_angle_beta 122.917501
_cell_angle_gamma 90.000000
_cell_volume 2754.392490
_symmetry_space_group_name_H-M "C 2/M"
_symmetry_group_IT_number 12
_symmetry_cell_setting 'monoclinic'
loop_
_space_group_symop_operation_xyz
x,y,z
-x,y,-z
-x,-y,-z
x,-y,z
1/2+x,1/2+y,z
1/2-x,1/2+y,-z
1/2-x,1/2-y,-z
1/2+x,1/2-y,z
loop_
_atom_site_type_symbol
_atom_site_label
_atom_site_fract_x
_atom_site_fract_y
_atom_site_fract_z
Si Si1 0.549467 0.789305 0.824032
Si Si2 0.919132 0.796611 0.494453
Si Si3 0.660538 0.287165 0.674058
Si Si4 0.020399 0.702339 0.081467
Si Si5 0.690660 0.294074 0.164134
Si Si6 0.506665 0.289838 0.661622
Si Si7 0.778604 0.710036 0.087546
O O1 0.518523 0.720410 0.875649
O O2 0.499415 0.749462 0.733226
O O3 0.635125 0.722369 0.858010
O O4 0.553013 0.000000 0.830535
O O5 0.858927 0.723267 0.409569
O O6 0.941411 0.720572 0.576766
O O7 0.000000 0.795263 0.500000
O O8 0.897523 0.000000 0.492400
O O9 0.659435 0.500000 0.672849
O O10 0.740613 0.229298 0.747325
O O11 0.589721 0.228196 0.680913
O O12 0.994130 0.500000 0.064025
O O13 0.111364 0.707291 0.139544
O O14 0.000000 0.782133 0.000000
O O15 0.674376 0.500000 0.148316
O O16 0.722815 0.223360 0.113143
O O17 0.507008 0.500000 0.654124
O O18 0.781190 0.500000 0.096977
O O19 0.750000 0.750000 0.000000
#
# Coordination Sequence:
#
# PCOD9195264 Si02
#       7
#     8   8   8   8   8   8   8
#     4  10  20  35  53  75 105 135 168 215 262 310
#     4   7  12  24  44  73 106 136 170 209 246 293
#     4   9  16  29  51  77 106 141 176 207 247 307
#     4  10  22  40  59  74  96 138 184 217 254 314
#     4  11  22  35  53  78 109 136 166 218 268 307
#     4   9  16  28  50  79 107 137 172 211 254 303
#     4  10  21  35  52  75 102 132 166 210 262 308
#
# _framework density 20.331161000000002
#
# number of rings (size 3 to 8) (size 9 to 14) (size 15 to 20)
#    0.000    2.571    1.429    3.000    0.000    3.714 
#    0.000    0.714    0.000    3.429    0.000    0.000 
#    0.000    0.000    0.000    0.000    0.000    0.000 
#
# Total GULP energy -156154.930622 kJ/mol
# GULP energy per Si atom -5576.961808 kJ/mol
# Density = 2.028489 g / cm^3
# Si number density = 20.331161 Si / 1000 Ang^3
#
#
#
# Elastic Constant Matrix: (Units=GPa)
#
#
# Indices 1 2 3 4 5 6 
#
# 1 34.5196 -1.8726 -4.4276 0.0000 -11.6784 0.0000
# 2 -1.8726 42.4366 -9.2799 0.0000 -5.5265 0.0000
# 3 -4.4276 -9.2799 116.7940 0.0000 -12.3138 0.0000
# 4 0.0000 0.0000 0.0000 21.6304 0.0000 -19.0384
# 5 -11.6784 -5.5265 -12.3138 0.0000 28.0989 0.0000
# 6 0.0000 0.0000 0.0000 -19.0384 0.0000 31.9845
#
#
#
# Elastic Compliance Matrix: (Units=1/GPa)
#
#
# Indices 1 2 3 4 5 6 
#
# 1 0.035485 0.004575 0.003521 0.000000 0.017191 0.000000
# 2 0.004575 0.025515 0.003072 0.000000 0.008266 0.000000
# 3 0.003521 0.003072 0.009601 0.000000 0.006275 0.000000
# 4 0.000000 0.000000 0.000000 0.097106 0.000000 0.057801
# 5 0.017191 0.008266 0.006275 0.000000 0.047109 0.000000
# 6 0.000000 0.000000 0.000000 0.057801 0.000000 0.065670
#
#
# Mechanical properties :
#
#
# Convention : Reuss Voigt Hill
#
# Bulk Modulus (GPa) = 10.76005 18.06556 14.41280
# Shear Modulus (GPa) = 17.29334 30.29812 23.79573
#
# Velocity S-wave (km/s) = 2.91964 3.86454 3.42483
# Velocity P-wave (km/s) = 4.08284 5.36822 4.76904
#
# Compressibility (1/GPa) = 0.09293637
#
# Stress axis : x y z
#
# Youngs Moduli (GPa) = 28.18117 39.19313 104.15279
#
# Poissons Ratio (x) = -0.17929 -0.36674
# Poissons Ratio (y) = -0.12892 -0.31997
# Poissons Ratio (z) = -0.09923 -0.12041
#
# Static dielectric constant tensor:
#      x y z
#    x 1.698730 0.000000 -0.013350 
#    y 0.000000 1.778170 0.000000 
#    z -0.013350 0.000000 1.765740 
# 
# From -- ./inp_files/281658.got.cif
#   From: 2010.05.17/outbox.cif.g08.bks.cpg/sg12_141_cif.got.tgz:281658.got - 2010.06.03 13:09:07.
