data_PCOD9195435
_publ_section_title
;
Structure prediction by ZEFSAII (Michael W. Deem and Ramdas Pophale) SiO2 
 PCOD9195435
Probable space group: C 2/M
;
_chemical_formula_sum "Si O2"
_cell_formula_units_Z 52
_cell_length_a 30.380803
_cell_length_b 17.786760
_cell_length_c 6.727859
_cell_angle_alpha 90.000000
_cell_angle_beta 56.655594
_cell_angle_gamma 90.000000
_cell_volume 3037.091529
_symmetry_space_group_name_H-M "C 2/M"
_symmetry_group_IT_number 12
_symmetry_cell_setting 'monoclinic'
loop_
_space_group_symop_operation_xyz
x,y,z
-x,y,-z
-x,-y,-z
x,-y,z
1/2+x,1/2+y,z
1/2-x,1/2+y,-z
1/2-x,1/2-y,-z
1/2+x,1/2-y,z
loop_
_atom_site_type_symbol
_atom_site_label
_atom_site_fract_x
_atom_site_fract_y
_atom_site_fract_z
Si Si1 0.949522 0.274779 0.242379
Si Si2 0.342307 0.294976 0.359400
Si Si3 0.929762 0.586312 0.011255
Si Si4 0.500000 0.833657 0.500000
Si Si5 0.238921 0.165899 0.099514
Si Si6 0.310610 0.132788 0.264773
Si Si7 0.709452 0.586384 0.771294
O O1 0.899038 0.226595 0.305412
O O2 0.940925 0.358131 0.168649
O O3 0.963911 0.285097 0.437843
O O4 0.000000 0.243506 0.000000
O O5 0.307144 0.325349 0.626217
O O6 0.318439 0.217711 0.328337
O O7 0.334679 0.358213 0.210507
O O8 0.943804 0.500000 0.013365
O O9 0.867014 0.593346 0.133249
O O10 0.962316 0.618325 0.740847
O O11 0.289549 0.136329 0.092748
O O12 0.250000 0.250000 0.000000
O O13 0.222808 0.113523 0.958962
O O14 0.263892 0.096888 0.511426
O O15 0.693406 0.500000 0.802801
#
# Coordination Sequence:
#
# PCOD9195435 Si02
#       7
#     8   8   8   4   8   8   8
#     4   9  21  37  56  78 100 133 183 227 267 316
#     4  10  20  36  58  77 106 144 177 218 265 320
#     4  10  21  34  50  74 109 146 180 218 264 311
#     4  10  21  34  52  76 103 134 184 230 267 306
#     4  11  19  32  56  81 106 144 182 213 260 315
#     4  10  20  35  54  77 108 148 184 215 254 313
#     4  11  22  35  53  82 114 141 176 221 266 315
#
# _framework density 17.121645000000001
#
# number of rings (size 3 to 8) (size 9 to 14) (size 15 to 20)
#    0.000    1.846    3.077    1.615    2.154    7.692 
#    0.000    0.000    0.000    0.462    0.000    1.615 
#    0.000    0.000    0.000    0.000    0.000    0.000 
#
# Total GULP energy -145031.239108 kJ/mol
# GULP energy per Si atom -5578.124581 kJ/mol
# Density = 1.708267 g / cm^3
# Si number density = 17.121645 Si / 1000 Ang^3
#
#
#
# Elastic Constant Matrix: (Units=GPa)
#
#
# Indices 1 2 3 4 5 6 
#
# 1 141.0510 37.4783 37.4343 0.0000 13.5217 0.0000
# 2 37.4783 84.9646 15.6192 0.0000 9.0107 0.0000
# 3 37.4343 15.6192 51.9201 0.0000 19.7566 0.0000
# 4 0.0000 0.0000 0.0000 10.7754 0.0000 5.2580
# 5 13.5217 9.0107 19.7566 0.0000 32.8013 0.0000
# 6 0.0000 0.0000 0.0000 5.2580 0.0000 8.4015
#
#
#
# Elastic Compliance Matrix: (Units=1/GPa)
#
#
# Indices 1 2 3 4 5 6 
#
# 1 0.009489 -0.003124 -0.006149 0.000000 0.000650 0.000000
# 2 -0.003124 0.013545 -0.001163 0.000000 -0.001733 0.000000
# 3 -0.006149 -0.001163 0.029784 0.000000 -0.015085 0.000000
# 4 0.000000 0.000000 0.000000 0.133605 0.000000 -0.083616
# 5 0.000650 -0.001733 -0.015085 0.000000 0.039780 0.000000
# 6 0.000000 0.000000 0.000000 -0.083616 0.000000 0.171357
#
#
# Mechanical properties :
#
#
# Convention : Reuss Voigt Hill
#
# Bulk Modulus (GPa) = 31.30352 50.99993 41.15172
# Shear Modulus (GPa) = 11.65276 22.88924 17.27100
#
# Velocity S-wave (km/s) = 2.61164 3.66028 3.17949
# Velocity P-wave (km/s) = 5.23611 6.90760 6.12911
#
# Compressibility (1/GPa) = 0.03194528
#
# Stress axis : x y z
#
# Youngs Moduli (GPa) = 105.37967 73.82630 33.57511
#
# Poissons Ratio (x) = 0.23066 0.20647
# Poissons Ratio (y) = 0.32924 0.03905
# Poissons Ratio (z) = 0.64803 0.08585
#
# Static dielectric constant tensor:
#      x y z
#    x 1.610430 0.000000 0.007170 
#    y 0.000000 1.568700 0.000000 
#    z 0.007170 0.000000 1.584690 
# 
# From -- ./inp_files/29019.got.cif
#   From: 2010.05.17/outbox.cif.g08.bks.cpg/sg12_15_cif.got.tgz:29019.got - 2010.06.03 13:09:07.
