data_PCOD9195825
_publ_section_title
;
Structure prediction by ZEFSAII (Michael W. Deem and Ramdas Pophale) SiO2 
 PCOD9195825
Probable space group: C 2/M
;
_chemical_formula_sum "Si O2"
_cell_formula_units_Z 48
_cell_length_a 24.164387
_cell_length_b 12.407961
_cell_length_c 29.103084
_cell_angle_alpha 90.000000
_cell_angle_beta 161.428806
_cell_angle_gamma 90.000000
_cell_volume 2779.080687
_symmetry_space_group_name_H-M "C 2/M"
_symmetry_group_IT_number 12
_symmetry_cell_setting 'monoclinic'
loop_
_space_group_symop_operation_xyz
x,y,z
-x,y,-z
-x,-y,-z
x,-y,z
1/2+x,1/2+y,z
1/2-x,1/2+y,-z
1/2-x,1/2-y,-z
1/2+x,1/2-y,z
loop_
_atom_site_type_symbol
_atom_site_label
_atom_site_fract_x
_atom_site_fract_y
_atom_site_fract_z
Si Si1 0.835075 0.124859 0.959257
Si Si2 0.809044 0.874579 0.264140
Si Si3 0.500000 0.274454 0.500000
Si Si4 0.688216 0.626063 0.290853
Si Si5 0.769524 0.123201 0.567965
Si Si6 0.970301 0.216886 0.298228
Si Si7 0.000000 0.781970 0.000000
O O1 0.679485 0.209392 0.842066
O O2 0.782693 0.000000 0.924132
O O3 0.905257 0.144986 0.962957
O O4 0.999010 0.148483 0.120896
O O5 0.894007 0.849475 0.281223
O O6 0.642286 0.796063 0.135291
O O7 0.937749 0.843466 0.407073
O O8 0.761495 0.000000 0.229681
O O9 0.338106 0.199923 0.387552
O O10 0.727206 0.500000 0.311639
O O11 0.684874 0.640491 0.342965
O O12 0.614950 0.202524 0.432423
O O13 0.932715 0.146002 0.663455
O O14 0.711839 0.000000 0.516906
#
# Coordination Sequence:
#
# PCOD9195825 Si02
#       7
#     8   8   4   8   8   8   4
#     4  10  20  35  55  82 112 144 180 223 274 323
#     4  11  22  36  56  79 110 148 183 225 271 324
#     4  12  20  38  54  84 114 144 182 222 274 326
#     4  10  21  36  57  83 113 144 178 223 276 328
#     4  10  20  37  58  80 107 144 183 225 275 323
#     4  10  21  36  57  82 109 141 183 233 267 323
#     4  10  20  36  54  80 112 144 180 224 270 328
#
# _framework density 17.271898
#
# number of rings (size 3 to 8) (size 9 to 14) (size 15 to 20)
#    0.000    1.667    3.333    2.000    0.000    0.667 
#    0.000    0.000    0.000    0.000    0.000    0.000 
#    0.000    0.000    0.000    0.000    0.000    0.000 
#
# Total GULP energy -133948.682524 kJ/mol
# GULP energy per Si atom -5581.195105 kJ/mol
# Density = 1.723259 g / cm^3
# Si number density = 17.271898 Si / 1000 Ang^3
#
#
#
# Elastic Constant Matrix: (Units=GPa)
#
#
# Indices 1 2 3 4 5 6 
#
# 1 36.9178 6.9634 -5.8449 0.0742 -4.9247 -0.0679
# 2 6.9634 48.4330 13.8222 -0.0546 -14.2581 -0.0053
# 3 -5.8449 13.8222 66.2233 -0.0603 -13.8555 0.0320
# 4 0.0742 -0.0546 -0.0603 20.4363 0.0069 1.9928
# 5 -4.9247 -14.2581 -13.8555 0.0069 21.2386 -0.0026
# 6 -0.0679 -0.0053 0.0320 1.9928 -0.0026 3.1722
#
#
#
# Elastic Compliance Matrix: (Units=1/GPa)
#
#
# Indices 1 2 3 4 5 6 
#
# 1 0.029549 -0.003356 0.004945 -0.000172 0.007824 0.000691
# 2 -0.003356 0.026353 -0.002615 0.000073 0.015207 -0.000035
# 3 0.004945 -0.002615 0.018477 0.000035 0.011445 -0.000098
# 4 -0.000172 0.000073 0.000035 0.052127 0.000011 -0.032750
# 5 0.007824 0.015207 0.011445 0.000011 0.066574 0.000126
# 6 0.000691 -0.000035 -0.000098 -0.032750 0.000126 0.335832
#
#
# Mechanical properties :
#
#
# Convention : Reuss Voigt Hill
#
# Bulk Modulus (GPa) = 13.82616 20.16173 16.99394
# Shear Modulus (GPa) = 9.00783 18.07831 13.54307
#
# Velocity S-wave (km/s) = 2.28618 3.23877 2.80323
# Velocity P-wave (km/s) = 3.87185 5.06800 4.50976
#
# Compressibility (1/GPa) = 0.07232666
#
# Stress axis : x y z
#
# Youngs Moduli (GPa) = 33.84263 37.94666 54.12035
#
# Poissons Ratio (x) = 0.12736 -0.26763
# Poissons Ratio (y) = 0.11359 0.14151
# Poissons Ratio (z) = -0.16735 0.09922
#
# Static dielectric constant tensor:
#      x y z
#    x 1.563350 0.000000 -0.002800 
#    y 0.000000 1.558340 -0.000010 
#    z -0.002800 -0.000010 1.573100 
# 
# From -- ./inp_files/367979.got.cif
#   From: 2010.05.17/outbox.cif.g08.bks.cpg/sg12_184_cif.got.tgz:367979.got - 2010.06.03 13:09:07.
