data_PCOD9195903
_publ_section_title
;
Structure prediction by ZEFSAII (Michael W. Deem and Ramdas Pophale) SiO2 
 PCOD9195903
Probable space group: C 2/M
;
_chemical_formula_sum "Si O2"
_cell_formula_units_Z 56
_cell_length_a 24.080367
_cell_length_b 7.879166
_cell_length_c 16.180309
_cell_angle_alpha 90.000000
_cell_angle_beta 123.384937
_cell_angle_gamma 90.000000
_cell_volume 2563.378672
_symmetry_space_group_name_H-M "C 2/M"
_symmetry_group_IT_number 12
_symmetry_cell_setting 'monoclinic'
loop_
_space_group_symop_operation_xyz
x,y,z
-x,y,-z
-x,-y,-z
x,-y,z
1/2+x,1/2+y,z
1/2-x,1/2+y,-z
1/2-x,1/2-y,-z
1/2+x,1/2-y,z
loop_
_atom_site_type_symbol
_atom_site_label
_atom_site_fract_x
_atom_site_fract_y
_atom_site_fract_z
Si Si1 0.965688 0.803923 0.390517
Si Si2 0.454265 0.297222 0.201223
Si Si3 0.663481 0.198603 0.637424
Si Si4 0.308158 0.200226 0.812906
Si Si5 0.318245 0.296643 0.010778
Si Si6 0.325533 0.795751 0.539475
Si Si7 0.413282 0.794913 0.765450
O O1 0.976743 0.726125 0.309146
O O2 0.887043 0.794807 0.344222
O O3 0.000000 0.725370 0.500000
O O4 0.988364 0.000000 0.405759
O O5 0.447562 0.500000 0.206514
O O6 0.382753 0.231969 0.113351
O O7 0.511288 0.263913 0.181160
O O8 0.739627 0.216241 0.727167
O O9 0.656951 0.265181 0.538137
O O10 0.645484 0.000000 0.624779
O O11 0.370569 0.261386 0.809452
O O12 0.300403 0.000000 0.790240
O O13 0.318537 0.228883 0.917956
O O14 0.322339 0.500000 0.009771
O O15 0.250000 0.250000 0.000000
O O16 0.250000 0.750000 0.500000
O O17 0.373812 0.734086 0.651365
O O18 0.329591 0.000000 0.540659
O O19 0.413866 0.000000 0.765565
#
# Coordination Sequence:
#
# PCOD9195903 Si02
#       7
#     8   8   8   8   8   8   8
#     4  10  21  38  60  87 120 159 201 244 301 369
#     4  10  23  41  61  87 120 158 197 245 303 361
#     4  11  22  35  58  90 121 157 203 254 305 360
#     4  11  23  40  62  88 120 158 202 251 303 360
#     4  11  24  43  66  92 121 156 202 251 304 362
#     4  10  20  35  55  85 122 160 201 243 294 354
#     4  10  22  39  60  88 122 160 202 247 300 361
#
# _framework density 21.846167000000001
#
# number of rings (size 3 to 8) (size 9 to 14) (size 15 to 20)
#    0.000    1.571    1.429    3.000    0.000    6.000 
#    0.000    2.857    0.000    0.000    0.000    0.000 
#    0.000    0.000    0.000    0.000    0.000    0.000 
#
# Total GULP energy -156558.262862 kJ/mol
# GULP energy per Si atom -5591.366531 kJ/mol
# Density = 2.179644 g / cm^3
# Si number density = 21.846167 Si / 1000 Ang^3
#
#
#
# Elastic Constant Matrix: (Units=GPa)
#
#
# Indices 1 2 3 4 5 6 
#
# 1 137.5025 -13.1092 53.2098 0.0000 1.7483 0.0000
# 2 -13.1092 31.0696 -0.3398 0.0000 0.4874 0.0000
# 3 53.2098 -0.3398 117.7684 0.0000 -5.0314 0.0000
# 4 0.0000 0.0000 0.0000 14.2418 0.0000 -0.7853
# 5 1.7483 0.4874 -5.0314 0.0000 40.7730 0.0000
# 6 0.0000 0.0000 0.0000 -0.7853 0.0000 25.4156
#
#
#
# Elastic Compliance Matrix: (Units=1/GPa)
#
#
# Indices 1 2 3 4 5 6 
#
# 1 0.009292 0.003889 -0.004228 0.000000 -0.000967 0.000000
# 2 0.003889 0.033821 -0.001693 0.000000 -0.000780 0.000000
# 3 -0.004228 -0.001693 0.010461 0.000000 0.001492 0.000000
# 4 0.000000 0.000000 0.000000 0.070335 0.000000 0.002173
# 5 -0.000967 -0.000780 0.001492 0.000000 0.024761 0.000000
# 6 0.000000 0.000000 0.000000 0.002173 0.000000 0.039413
#
#
# Mechanical properties :
#
#
# Convention : Reuss Voigt Hill
#
# Bulk Modulus (GPa) = 20.19822 40.65132 30.42477
# Shear Modulus (GPa) = 23.96361 32.52472 28.24417
#
# Velocity S-wave (km/s) = 3.31558 3.86269 3.59955
# Velocity P-wave (km/s) = 4.89113 6.20824 5.58862
#
# Compressibility (1/GPa) = 0.04950931
#
# Stress axis : x y z
#
# Youngs Moduli (GPa) = 107.61997 29.56773 95.59719
#
# Poissons Ratio (x) = -0.11500 0.40422
# Poissons Ratio (y) = -0.41859 0.16185
# Poissons Ratio (z) = 0.45505 0.05006
#
# Static dielectric constant tensor:
#      x y z
#    x 1.772790 0.000000 -0.003190 
#    y 0.000000 1.829830 0.000000 
#    z -0.003190 0.000000 1.800420 
# 
# From -- ./inp_files/238978.got.cif
#   From: 2010.05.17/outbox.cif.g08.bks.cpg/sg12_120_cif.got.tgz:238978.got - 2010.06.03 13:09:07.
