data_PCOD9195911
_publ_section_title
;
Structure prediction by ZEFSAII (Michael W. Deem and Ramdas Pophale) SiO2 
 PCOD9195911
Probable space group: C 2/M
;
_chemical_formula_sum "Si O2"
_cell_formula_units_Z 44
_cell_length_a 9.749570
_cell_length_b 30.805465
_cell_length_c 9.148081
_cell_angle_alpha 90.000000
_cell_angle_beta 49.701053
_cell_angle_gamma 90.000000
_cell_volume 2095.490581
_symmetry_space_group_name_H-M "C 2/M"
_symmetry_group_IT_number 12
_symmetry_cell_setting 'monoclinic'
loop_
_space_group_symop_operation_xyz
x,y,z
-x,y,-z
-x,-y,-z
x,-y,z
1/2+x,1/2+y,z
1/2-x,1/2+y,-z
1/2-x,1/2-y,-z
1/2+x,1/2-y,z
loop_
_atom_site_type_symbol
_atom_site_label
_atom_site_fract_x
_atom_site_fract_y
_atom_site_fract_z
Si Si1 0.000000 0.317988 0.500000
Si Si2 0.185697 0.784848 0.929291
Si Si3 0.726386 0.360963 0.102199
Si Si4 0.125590 0.636797 0.704295
Si Si5 0.304025 0.547361 0.557970
Si Si6 0.048801 0.049241 0.133507
O O1 0.842941 0.293541 0.701274
O O2 0.889730 0.344444 0.449209
O O3 0.250000 0.750000 0.000000
O O4 0.128900 0.828190 0.059487
O O5 0.000000 0.766310 0.000000
O O6 0.731272 0.347271 0.270320
O O7 0.661011 0.410269 0.119958
O O8 0.929589 0.356804 0.905753
O O9 0.168989 0.585879 0.675239
O O10 0.500000 0.552867 0.500000
O O11 0.235182 0.500000 0.647446
O O12 0.361770 0.548414 0.349837
O O13 0.127033 0.000000 0.096606
O O14 0.000000 0.056729 0.000000
#
# Coordination Sequence:
#
# PCOD9195911 Si02
#       6
#     4   8   8   8   8   8
#     4  10  26  46  69 102 136 168 227 276 342 404
#     4  11  27  48  74 104 140 178 221 282 337 409
#     4  10  22  41  63  90 130 168 221 268 335 396
#     4  10  22  38  62  88 125 172 211 279 324 403
#     4  10  20  35  55  86 124 167 223 275 326 394
#     4  10  21  36  58  88 124 166 218 268 320 395
#
# _framework density 20.997468999999999
#
# number of rings (size 3 to 8) (size 9 to 14) (size 15 to 20)
#    0.000    1.818    1.818    0.545   12.727    1.455 
#    0.000    2.273    0.000    0.000    0.000    0.000 
#    0.000    0.000    0.000    0.000    0.000    0.000 
#
# Total GULP energy -122520.326199 kJ/mol
# GULP energy per Si atom -5569.105736 kJ/mol
# Density = 2.094968 g / cm^3
# Si number density = 20.997469 Si / 1000 Ang^3
#
#
#
# Elastic Constant Matrix: (Units=GPa)
#
#
# Indices 1 2 3 4 5 6 
#
# 1 102.2156 30.7477 36.5505 0.0000 25.9778 0.0000
# 2 30.7477 68.4980 28.8936 0.0000 10.2897 0.0000
# 3 36.5505 28.8936 72.6393 0.0000 33.6762 0.0000
# 4 0.0000 0.0000 0.0000 -7.9805 0.0000 44.8692
# 5 25.9778 10.2897 33.6762 0.0000 34.1763 0.0000
# 6 0.0000 0.0000 0.0000 44.8692 0.0000 -16.1656
#
#
#
# Elastic Compliance Matrix: (Units=1/GPa)
#
#
# Indices 1 2 3 4 5 6 
#
# 1 0.013537 -0.004247 -0.001739 0.000000 -0.007297 0.000000
# 2 -0.004247 0.019036 -0.007869 0.000000 0.005251 0.000000
# 3 -0.001739 -0.007869 0.029568 0.000000 -0.025444 0.000000
# 4 0.000000 0.000000 0.000000 0.008579 0.000000 0.023813
# 5 -0.007297 0.005251 -0.025444 0.000000 0.058298 0.000000
# 6 0.000000 0.000000 0.000000 0.023813 0.000000 0.004235
#
#
# Mechanical properties :
#
#
# Convention : Reuss Voigt Hill
#
# Bulk Modulus (GPa) = 29.04413 48.41515 38.72964
# Shear Modulus (GPa) = 28.99533 11.81679 20.40606
#
# Velocity S-wave (km/s) = 3.72007 2.37486 3.12081
# Velocity P-wave (km/s) = 5.68455 5.53422 5.60989
#
# Compressibility (1/GPa) = 0.03443037
#
# Stress axis : x y z
#
# Youngs Moduli (GPa) = 73.87007 52.53225 33.82023
#
# Poissons Ratio (x) = 0.22309 0.05882
# Poissons Ratio (y) = 0.31371 0.26614
# Poissons Ratio (z) = 0.12848 0.41340
#
# Static dielectric constant tensor:
#      x y z
#    x 1.819550 0.000000 0.077570 
#    y 0.000000 1.802790 0.000000 
#    z 0.077570 0.000000 1.793350 
# 
# From -- ./inp_files/42098.got.cif
#   From: 2010.05.17/outbox.cif.g08.bks.cpg/sg12_22_cif.got.tgz:42098.got - 2010.06.03 13:09:07.
