data_PCOD9195962
_publ_section_title
;
Structure prediction by ZEFSAII (Michael W. Deem and Ramdas Pophale) SiO2 
 PCOD9195962
Probable space group: C 2/M
;
_chemical_formula_sum "Si O2"
_cell_formula_units_Z 56
_cell_length_a 15.420742
_cell_length_b 12.736998
_cell_length_c 28.269461
_cell_angle_alpha 90.000000
_cell_angle_beta 150.343009
_cell_angle_gamma 90.000000
_cell_volume 2747.421350
_symmetry_space_group_name_H-M "C 2/M"
_symmetry_group_IT_number 12
_symmetry_cell_setting 'monoclinic'
loop_
_space_group_symop_operation_xyz
x,y,z
-x,y,-z
-x,-y,-z
x,-y,z
1/2+x,1/2+y,z
1/2-x,1/2+y,-z
1/2-x,1/2-y,-z
1/2+x,1/2-y,z
loop_
_atom_site_type_symbol
_atom_site_label
_atom_site_fract_x
_atom_site_fract_y
_atom_site_fract_z
Si Si1 0.244560 0.620049 0.401445
Si Si2 0.076840 0.324812 0.486121
Si Si3 0.019663 0.248579 0.228419
Si Si4 0.167371 0.125047 0.048229
Si Si5 0.466123 0.380466 0.859493
Si Si6 0.976587 0.882149 0.676637
Si Si7 0.585862 0.830670 0.689543
O O1 0.298265 0.500000 0.421179
O O2 0.385096 0.699409 0.491056
O O3 0.177357 0.677084 0.321651
O O4 0.073024 0.625099 0.354145
O O5 0.268949 0.372317 0.567447
O O6 0.000000 0.360367 0.500000
O O7 0.953867 0.352032 0.384152
O O8 0.841488 0.314609 0.144889
O O9 0.040660 0.199209 0.187072
O O10 0.008382 0.156286 0.261999
O O11 0.192441 0.000000 0.065981
O O12 0.000000 0.156975 0.000000
O O13 0.111995 0.144741 0.967634
O O14 0.493981 0.500000 0.856165
O O15 0.274139 0.374645 0.792441
O O16 0.076433 0.794309 0.693879
O O17 0.036761 0.000000 0.697862
#
# Coordination Sequence:
#
# PCOD9195962 Si02
#       7
#     8   8   8   8   8   8   8
#     4  10  20  35  56  79 107 145 184 224 269 318
#     4  10  21  35  52  78 109 142 183 227 270 319
#     4  10  20  36  56  81 114 140 174 225 269 316
#     4  10  20  36  60  85 108 141 181 219 265 319
#     4  11  22  36  58  84 109 141 178 219 271 323
#     4  10  21  36  55  78 107 145 182 220 270 324
#     4  10  20  36  56  80 110 142 183 227 266 318
#
# _framework density 20.382750000000001
#
# number of rings (size 3 to 8) (size 9 to 14) (size 15 to 20)
#    0.000    2.143    0.000    6.857    0.000    4.571 
#    0.000    2.857    0.000    9.429    0.000    0.000 
#    0.000    0.000    0.000    0.000    0.000    0.000 
#
# Total GULP energy -156491.768719 kJ/mol
# GULP energy per Si atom -5588.991740 kJ/mol
# Density = 2.033636 g / cm^3
# Si number density = 20.382750 Si / 1000 Ang^3
#
#
#
# Elastic Constant Matrix: (Units=GPa)
#
#
# Indices 1 2 3 4 5 6 
#
# 1 45.6102 2.6916 -9.9894 -0.0001 -6.7044 0.0001
# 2 2.6916 92.8863 14.5011 -0.0002 -9.5893 0.0001
# 3 -9.9894 14.5011 75.3611 -0.0006 1.7457 -0.0001
# 4 -0.0001 -0.0002 -0.0006 -1.2742 -0.0001 -6.2052
# 5 -6.7044 -9.5893 1.7457 -0.0001 26.7495 0.0000
# 6 0.0001 0.0001 -0.0001 -6.2052 0.0000 -4.0892
#
#
#
# Elastic Compliance Matrix: (Units=1/GPa)
#
#
# Indices 1 2 3 4 5 6 
#
# 1 0.023441 -0.000599 0.003096 0.000001 0.005458 -0.000001
# 2 -0.000599 0.011588 -0.002406 0.000000 0.004161 0.000000
# 3 0.003096 -0.002406 0.014166 0.000001 -0.001011 -0.000001
# 4 0.000001 0.000000 0.000001 0.122821 0.000001 -0.186375
# 5 0.005458 0.004161 -0.001011 0.000001 0.040310 -0.000001
# 6 -0.000001 0.000000 -0.000001 -0.186375 -0.000001 0.038270
#
#
# Mechanical properties :
#
#
# Convention : Reuss Voigt Hill
#
# Bulk Modulus (GPa) = 20.25207 25.36270 22.80739
# Shear Modulus (GPa) = 18.73557 18.05419 18.39488
#
# Velocity S-wave (km/s) = 3.03510 2.97940 3.00738
# Velocity P-wave (km/s) = 4.71592 4.93011 4.82420
#
# Compressibility (1/GPa) = 0.04937766
#
# Stress axis : x y z
#
# Youngs Moduli (GPa) = 42.66091 86.29358 70.59087
#
# Poissons Ratio (x) = 0.05170 -0.21855
# Poissons Ratio (y) = 0.02556 0.16982
# Poissons Ratio (z) = -0.13208 0.20759
#
# Static dielectric constant tensor:
#      x y z
#    x 1.749680 0.000000 -0.002820 
#    y 0.000000 1.717050 0.000000 
#    z -0.002820 0.000000 1.697130 
# 
# From -- ./inp_files/361456.got.cif
#   From: 2010.05.17/outbox.cif.g08.bks.cpg/sg12_181_cif.got.tgz:361456.got - 2010.06.03 13:09:07.
