data_PCOD9195782
_publ_section_title
;
Structure prediction by ZEFSAII (Michael W. Deem and Ramdas Pophale) SiO2 
 PCOD9195782
Probable space group: C 2/M
;
_chemical_formula_sum "Si O2"
_cell_formula_units_Z 48
_cell_length_a 30.418560
_cell_length_b 11.064042
_cell_length_c 21.608653
_cell_angle_alpha 90.000000
_cell_angle_beta 19.012650
_cell_angle_gamma 90.000000
_cell_volume 2369.193057
_symmetry_space_group_name_H-M "C 2/M"
_symmetry_group_IT_number 12
_symmetry_cell_setting 'monoclinic'
loop_
_space_group_symop_operation_xyz
x,y,z
-x,y,-z
-x,-y,-z
x,-y,z
1/2+x,1/2+y,z
1/2-x,1/2+y,-z
1/2-x,1/2-y,-z
1/2+x,1/2-y,z
loop_
_atom_site_type_symbol
_atom_site_label
_atom_site_fract_x
_atom_site_fract_y
_atom_site_fract_z
Si Si1 0.578948 0.252892 0.592181
Si Si2 0.477147 0.360330 0.601174
Si Si3 0.148425 0.861308 0.805412
Si Si4 0.371963 0.366986 0.026980
Si Si5 0.835663 0.131080 0.400600
Si Si6 0.836772 0.637490 0.986876
O O1 0.550000 0.296476 0.561333
O O2 0.725216 0.191422 0.398366
O O3 0.597288 0.355491 0.620299
O O4 0.454625 0.169956 0.781181
O O5 0.500000 0.313097 0.500000
O O6 0.523433 0.500000 0.537718
O O7 0.317899 0.359327 0.829822
O O8 0.133495 0.000000 0.805930
O O9 0.187312 0.859775 0.825991
O O10 0.000000 0.801376 0.000000
O O11 0.334398 0.500000 0.049764
O O12 0.534366 0.368281 0.816587
O O13 0.340405 0.246626 0.031227
O O14 0.750000 0.250000 0.500000
O O15 0.765784 0.000000 0.488782
O O16 0.859803 0.500000 0.979785
#
# Coordination Sequence:
#
# PCOD9195782 Si02
#       6
#     8   8   8   8   8   8
#     4  11  21  36  59  86 118 152 192 240 291 344
#     4  10  21  38  60  85 117 156 193 233 287 349
#     4  10  20  35  55  80 112 152 196 240 289 345
#     4   9  19  36  56  79 110 150 192 235 285 341
#     4  10  21  36  57  83 112 149 193 240 289 341
#     4  10  21  37  59  88 117 149 191 237 287 343
#
# _framework density 20.260062000000001
#
# number of rings (size 3 to 8) (size 9 to 14) (size 15 to 20)
#    0.000    2.000    0.000    3.500    0.000    5.333 
#    0.000    2.500    0.000    8.000    0.000    0.000 
#    0.000    0.000    0.000    0.000    0.000    0.000 
#
# Total GULP energy -133715.421579 kJ/mol
# GULP energy per Si atom -5571.475899 kJ/mol
# Density = 2.021395 g / cm^3
# Si number density = 20.260062 Si / 1000 Ang^3
#
#
#
# Elastic Constant Matrix: (Units=GPa)
#
#
# Indices 1 2 3 4 5 6 
#
# 1 98.2393 44.1676 22.3707 0.0000 10.3370 0.0000
# 2 44.1676 132.5879 23.0604 0.0000 -5.7070 0.0000
# 3 22.3707 23.0604 110.4635 0.0000 6.2861 0.0000
# 4 0.0000 0.0000 0.0000 22.6318 0.0000 -3.5277
# 5 10.3370 -5.7070 6.2861 0.0000 31.8012 0.0000
# 6 0.0000 0.0000 0.0000 -3.5277 0.0000 24.8374
#
#
#
# Elastic Compliance Matrix: (Units=1/GPa)
#
#
# Indices 1 2 3 4 5 6 
#
# 1 0.012914 -0.004249 -0.001463 0.000000 -0.004671 0.000000
# 2 -0.004249 0.009321 -0.001274 0.000000 0.003306 0.000000
# 3 -0.001463 -0.001274 0.009710 0.000000 -0.001673 0.000000
# 4 0.000000 0.000000 0.000000 0.045186 0.000000 0.006418
# 5 -0.004671 0.003306 -0.001673 0.000000 0.033887 0.000000
# 6 0.000000 0.000000 0.000000 0.006418 0.000000 0.041173
#
#
# Mechanical properties :
#
#
# Convention : Reuss Voigt Hill
#
# Bulk Modulus (GPa) = 55.63055 57.83202 56.73128
# Shear Modulus (GPa) = 29.04389 32.63354 30.83871
#
# Velocity S-wave (km/s) = 3.79034 4.01775 3.90570
# Velocity P-wave (km/s) = 6.83179 7.08024 6.95713
#
# Compressibility (1/GPa) = 0.01797574
#
# Stress axis : x y z
#
# Youngs Moduli (GPa) = 77.43610 107.28198 102.98656
#
# Poissons Ratio (x) = 0.45579 0.15062
# Poissons Ratio (y) = 0.32899 0.13116
# Poissons Ratio (z) = 0.11325 0.13664
#
# Static dielectric constant tensor:
#      x y z
#    x 1.754220 0.000000 0.004380 
#    y 0.000000 1.740090 0.000000 
#    z 0.004380 0.000000 1.749670 
# 
# From -- ./inp_files/330001.got.cif
#   From: 2010.05.17/outbox.cif.g08.bks.cpg/sg12_166_cif.got.tgz:330001.got - 2010.06.03 13:09:07.
