data_PCOD9195139
_publ_section_title
;
Structure prediction by ZEFSAII (Michael W. Deem and Ramdas Pophale) SiO2 
 PCOD9195139
Probable space group: C 2/M
;
_chemical_formula_sum "Si O2"
_cell_formula_units_Z 40
_cell_length_a 17.240055
_cell_length_b 14.808874
_cell_length_c 14.333025
_cell_angle_alpha 90.000000
_cell_angle_beta 150.748146
_cell_angle_gamma 90.000000
_cell_volume 1788.117192
_symmetry_space_group_name_H-M "C 2/M"
_symmetry_group_IT_number 12
_symmetry_cell_setting 'monoclinic'
loop_
_space_group_symop_operation_xyz
x,y,z
-x,y,-z
-x,-y,-z
x,-y,z
1/2+x,1/2+y,z
1/2-x,1/2+y,-z
1/2-x,1/2-y,-z
1/2+x,1/2-y,z
loop_
_atom_site_type_symbol
_atom_site_label
_atom_site_fract_x
_atom_site_fract_y
_atom_site_fract_z
Si Si1 0.033228 0.000000 0.680517
Si Si2 0.795912 0.157406 0.946473
Si Si3 0.124698 0.500000 0.859554
Si Si4 0.243229 0.298232 0.593311
Si Si5 0.262784 0.000000 0.483736
Si Si6 0.936302 0.194554 0.296280
Si Si7 0.500000 0.671537 0.000000
O O1 0.024742 0.096743 0.624010
O O2 0.885741 0.000000 0.600061
O O3 0.217076 0.000000 0.910424
O O4 0.657422 0.089930 0.833516
O O5 0.721896 0.253420 0.840372
O O6 0.889766 0.118406 0.957208
O O7 0.906079 0.175870 0.152756
O O8 0.947072 0.500000 0.714290
O O9 0.250000 0.250000 0.500000
O O10 0.248514 0.406308 0.584960
O O11 0.081136 0.261097 0.465676
O O12 0.387936 0.273078 0.812539
#
# Coordination Sequence:
#
# PCOD9195139 Si02
#       7
#     4   8   4   8   4   8   4
#     4  10  20  34  66  98 126 172 224 273 328 391
#     4  10  21  38  63  94 130 170 217 266 327 397
#     4  10  20  36  60  99 135 170 211 266 331 404
#     4  12  23  42  66  98 131 173 221 270 331 396
#     4  12  22  38  70  98 134 179 216 267 336 399
#     4  10  20  40  64  91 131 169 217 273 329 388
#     4  12  26  41  70  97 134 176 218 275 334 399
#
# _framework density 22.369897999999999
#
# number of rings (size 3 to 8) (size 9 to 14) (size 15 to 20)
#    0.000    1.200    6.000    1.200    0.000    2.400 
#    0.000    1.000    0.000    6.600    0.000    0.000 
#    0.000    0.000    0.000    0.000    0.000    0.000 
#
# Total GULP energy -111515.611624 kJ/mol
# GULP energy per Si atom -5575.780581 kJ/mol
# Density = 2.231898 g / cm^3
# Si number density = 22.369898 Si / 1000 Ang^3
#
#
#
# Elastic Constant Matrix: (Units=GPa)
#
#
# Indices 1 2 3 4 5 6 
#
# 1 76.7557 22.2244 56.1125 0.0002 -4.9476 0.0001
# 2 22.2244 165.9600 38.6664 0.0001 4.4369 0.0001
# 3 56.1125 38.6664 155.0257 0.0001 8.7457 0.0001
# 4 0.0002 0.0001 0.0001 15.1693 0.0001 24.2870
# 5 -4.9476 4.4369 8.7457 0.0001 35.2032 0.0001
# 6 0.0001 0.0001 0.0001 24.2870 0.0001 9.1902
#
#
#
# Elastic Compliance Matrix: (Units=1/GPa)
#
#
# Indices 1 2 3 4 5 6 
#
# 1 0.018499 -0.001037 -0.006685 0.000000 0.004391 0.000000
# 2 -0.001037 0.006461 -0.001199 0.000000 -0.000662 0.000000
# 3 -0.006685 -0.001199 0.009345 0.000000 -0.003110 0.000000
# 4 0.000000 0.000000 0.000000 -0.020402 0.000000 0.053917
# 5 0.004391 -0.000662 -0.003110 0.000000 0.029880 0.000000
# 6 0.000000 0.000000 0.000000 0.053917 0.000000 -0.033676
#
#
# Mechanical properties :
#
#
# Convention : Reuss Voigt Hill
#
# Bulk Modulus (GPa) = 60.74162 70.19421 65.46792
# Shear Modulus (GPa) = 149.54236 30.62842 90.08539
#
# Velocity S-wave (km/s) = 8.18504 3.70426 6.35281
# Velocity P-wave (km/s) = 10.79531 7.05283 9.11815
#
# Compressibility (1/GPa) = 0.01646318
#
# Stress axis : x y z
#
# Youngs Moduli (GPa) = 54.05811 154.76385 107.01398
#
# Poissons Ratio (x) = 0.16052 0.71536
# Poissons Ratio (y) = 0.05607 0.12829
# Poissons Ratio (z) = 0.36136 0.18554
#
# Static dielectric constant tensor:
#      x y z
#    x 1.854990 0.000000 0.002980 
#    y 0.000000 1.842900 0.000000 
#    z 0.002980 0.000000 1.869080 
# 
# From -- ./inp_files/225853.got.cif
#   From: 2010.05.17/outbox.cif.g08.bks.cpg/sg12_113_cif.got.tgz:225853.got - 2010.06.03 13:09:07.
