data_PCOD9195471
_publ_section_title
;
Structure prediction by ZEFSAII (Michael W. Deem and Ramdas Pophale) SiO2 
 PCOD9195471
Probable space group: C 2/M
;
_chemical_formula_sum "Si O2"
_cell_formula_units_Z 56
_cell_length_a 12.352611
_cell_length_b 24.314768
_cell_length_c 21.002147
_cell_angle_alpha 90.000000
_cell_angle_beta 150.282383
_cell_angle_gamma 90.000000
_cell_volume 3127.044399
_symmetry_space_group_name_H-M "C 2/M"
_symmetry_group_IT_number 12
_symmetry_cell_setting 'monoclinic'
loop_
_space_group_symop_operation_xyz
x,y,z
-x,y,-z
-x,-y,-z
x,-y,z
1/2+x,1/2+y,z
1/2-x,1/2+y,-z
1/2-x,1/2-y,-z
1/2+x,1/2-y,z
loop_
_atom_site_type_symbol
_atom_site_label
_atom_site_fract_x
_atom_site_fract_y
_atom_site_fract_z
Si Si1 0.103528 0.666219 0.904643
Si Si2 0.775025 0.729117 0.404896
Si Si3 0.838465 0.435549 0.977640
Si Si4 0.077701 0.219423 0.165855
Si Si5 0.916522 0.615946 0.543993
Si Si6 0.970881 0.675235 0.282719
Si Si7 0.833355 0.064218 0.688583
O O1 0.058435 0.662324 0.806378
O O2 0.951584 0.714568 0.856476
O O3 0.088452 0.608260 0.932254
O O4 0.347130 0.690177 0.037645
O O5 0.652829 0.712241 0.277423
O O6 0.849389 0.675627 0.481593
O O7 0.625331 0.771413 0.365484
O O8 0.000000 0.758431 0.500000
O O9 0.844042 0.500000 0.000408
O O10 0.586046 0.422144 0.830233
O O11 0.000000 0.430071 0.000000
O O12 0.249087 0.193574 0.204615
O O13 0.740255 0.576102 0.421616
O O14 0.931890 0.625029 0.626811
O O15 0.153203 0.596654 0.638504
O O16 0.804564 0.000000 0.687758
#
# Coordination Sequence:
#
# PCOD9195471 Si02
#       7
#     8   8   8   8   8   8   8
#     4  10  22  36  54  84 111 144 185 225 275 329
#     4  11  20  33  50  77 110 148 187 218 256 317
#     4  10  22  41  61  80 105 143 190 236 277 322
#     4  10  20  35  54  78 115 150 183 224 269 327
#     4  11  18  33  56  83 113 147 174 225 278 319
#     4  11  22  34  53  81 117 150 175 217 274 335
#     4  10  20  36  60  84 106 136 188 240 275 322
#
# _framework density 17.908283999999998
#
# number of rings (size 3 to 8) (size 9 to 14) (size 15 to 20)
#    0.000    1.571    2.857    3.429    0.000    4.571 
#    2.571    1.429    0.000    3.429    0.000    3.000 
#    0.000    0.000    0.000    0.000    0.000    0.000 
#
# Total GULP energy -156190.904953 kJ/mol
# GULP energy per Si atom -5578.246605 kJ/mol
# Density = 1.786752 g / cm^3
# Si number density = 17.908284 Si / 1000 Ang^3
#
#
#
# Elastic Constant Matrix: (Units=GPa)
#
#
# Indices 1 2 3 4 5 6 
#
# 1 54.5881 42.3451 21.8518 0.0049 -15.9623 0.0008
# 2 42.3451 97.0431 37.3818 0.0027 -11.8747 0.0001
# 3 21.8518 37.3818 75.2506 0.0040 -15.1296 0.0037
# 4 0.0049 0.0027 0.0040 33.4638 0.0028 -1.5391
# 5 -15.9623 -11.8747 -15.1296 0.0028 27.7116 0.0001
# 6 0.0008 0.0001 0.0037 -1.5391 0.0001 25.6370
#
#
#
# Elastic Compliance Matrix: (Units=1/GPa)
#
#
# Indices 1 2 3 4 5 6 
#
# 1 0.031587 -0.011970 -0.000673 -0.000005 0.012698 -0.000001
# 2 -0.011970 0.017406 -0.005681 0.000001 -0.002538 0.000001
# 3 -0.000673 -0.005681 0.017680 -0.000002 0.006831 -0.000003
# 4 -0.000005 0.000001 -0.000002 0.029966 -0.000006 0.001799
# 5 0.012698 -0.002538 0.006831 -0.000006 0.046042 -0.000002
# 6 -0.000001 0.000001 -0.000003 0.001799 -0.000002 0.039114
#
#
# Mechanical properties :
#
#
# Convention : Reuss Voigt Hill
#
# Bulk Modulus (GPa) = 33.30645 47.78214 40.54430
# Shear Modulus (GPa) = 21.88665 25.71602 23.80133
#
# Velocity S-wave (km/s) = 3.49972 3.79355 3.64959
# Velocity P-wave (km/s) = 5.91350 6.77699 6.35991
#
# Compressibility (1/GPa) = 0.03002421
#
# Stress axis : x y z
#
# Youngs Moduli (GPa) = 31.65879 57.45282 56.56181
#
# Poissons Ratio (x) = 0.68771 0.03808
# Poissons Ratio (y) = 0.37895 0.32132
# Poissons Ratio (z) = 0.02131 0.32638
#
# Static dielectric constant tensor:
#      x y z
#    x 1.595030 0.000000 -0.006290 
#    y 0.000000 1.627240 0.000000 
#    z -0.006290 0.000000 1.644150 
# 
# From -- ./inp_files/307248.got.cif
#   From: 2010.05.17/outbox.cif.g08.bks.cpg/sg12_154_cif.got.tgz:307248.got - 2010.06.03 13:09:07.
