data_PCOD9195667
_publ_section_title
;
Structure prediction by ZEFSAII (Michael W. Deem and Ramdas Pophale) SiO2 
 PCOD9195667
Probable space group: C 2/M
;
_chemical_formula_sum "Si O2"
_cell_formula_units_Z 48
_cell_length_a 13.620535
_cell_length_b 10.887401
_cell_length_c 20.349646
_cell_angle_alpha 90.000000
_cell_angle_beta 119.836567
_cell_angle_gamma 90.000000
_cell_volume 2617.693199
_symmetry_space_group_name_H-M "C 2/M"
_symmetry_group_IT_number 12
_symmetry_cell_setting 'monoclinic'
loop_
_space_group_symop_operation_xyz
x,y,z
-x,y,-z
-x,-y,-z
x,-y,z
1/2+x,1/2+y,z
1/2-x,1/2+y,-z
1/2-x,1/2-y,-z
1/2+x,1/2-y,z
loop_
_atom_site_type_symbol
_atom_site_label
_atom_site_fract_x
_atom_site_fract_y
_atom_site_fract_z
Si Si1 0.234790 0.705758 0.812844
Si Si2 0.487206 0.358219 0.287162
Si Si3 0.413399 0.640936 0.411082
Si Si4 0.302219 0.134661 0.055904
Si Si5 0.545001 0.142449 0.085019
Si Si6 0.258733 0.359803 0.672255
O O1 0.237341 0.634726 0.882251
O O2 0.344338 0.792522 0.852034
O O3 0.242229 0.638701 0.745567
O O4 0.116503 0.778891 0.773892
O O5 0.466594 0.500000 0.262330
O O6 0.479459 0.348530 0.363756
O O7 0.611786 0.327242 0.302644
O O8 0.500000 0.652966 0.500000
O O9 0.365733 0.500000 0.396984
O O10 0.321971 0.750851 0.381119
O O11 0.437703 0.149227 0.097090
O O12 0.275603 0.000000 0.016927
O O13 0.250000 0.250000 0.000000
O O14 0.573370 0.000000 0.083500
O O15 0.500000 0.193058 0.000000
O O16 0.236268 0.500000 0.640242
#
# Coordination Sequence:
#
# PCOD9195667 Si02
#       6
#     8   8   8   8   8   8
#     4  11  20  36  57  79 108 145 187 235 278 329
#     4   9  19  35  57  83 113 151 185 221 276 331
#     4   9  19  37  60  87 117 149 188 226 263 319
#     4  11  23  38  55  78 106 138 179 230 285 335
#     4  10  20  35  55  79 106 139 183 231 282 340
#     4  10  21  37  56  83 117 148 184 226 276 331
#
# _framework density 18.336756000000001
#
# number of rings (size 3 to 8) (size 9 to 14) (size 15 to 20)
#    0.000    2.000    1.667    2.000    0.000    2.333 
#    0.000    6.667    0.000    0.000    0.000    0.000 
#    0.000    0.000    0.000    0.000    0.000    0.000 
#
# Total GULP energy -133772.618386 kJ/mol
# GULP energy per Si atom -5573.859099 kJ/mol
# Density = 1.829502 g / cm^3
# Si number density = 18.336756 Si / 1000 Ang^3
#
#
#
# Elastic Constant Matrix: (Units=GPa)
#
#
# Indices 1 2 3 4 5 6 
#
# 1 86.8688 59.9686 19.8692 0.0000 22.0397 0.0000
# 2 59.9686 133.8212 64.5451 0.0000 22.7547 0.0000
# 3 19.8692 64.5451 75.1293 0.0000 6.5123 0.0000
# 4 0.0000 0.0000 0.0000 -0.6392 0.0000 6.7141
# 5 22.0397 22.7547 6.5123 0.0000 21.7656 0.0000
# 6 0.0000 0.0000 0.0000 6.7141 0.0000 23.6769
#
#
#
# Elastic Compliance Matrix: (Units=1/GPa)
#
#
# Indices 1 2 3 4 5 6 
#
# 1 0.019497 -0.007999 0.002774 0.000000 -0.012210 0.000000
# 2 -0.007999 0.018790 -0.013374 0.000000 -0.007543 0.000000
# 3 0.002774 -0.013374 0.023713 0.000000 0.004078 0.000000
# 4 0.000000 0.000000 0.000000 -0.393212 0.000000 0.111505
# 5 -0.012210 -0.007543 0.004078 0.000000 0.064974 0.000000
# 6 0.000000 0.000000 0.000000 0.111505 0.000000 0.010615
#
#
# Mechanical properties :
#
#
# Convention : Reuss Voigt Hill
#
# Bulk Modulus (GPa) = 40.31783 64.95393 52.63588
# Shear Modulus (GPa) = -23.79166 19.05641 -2.36763
#
# Velocity S-wave (km/s) = -3.60597 3.22723 -1.13754
# Velocity P-wave (km/s) = 2.16745 7.02755 5.20020
#
# Compressibility (1/GPa) = 0.02480292
#
# Stress axis : x y z
#
# Youngs Moduli (GPa) = 51.29039 53.21904 42.17098
#
# Poissons Ratio (x) = 0.42569 -0.11699
# Poissons Ratio (y) = 0.41026 0.56399
# Poissons Ratio (z) = -0.14228 0.71174
#
# Static dielectric constant tensor:
#      x y z
#    x 1.628850 0.000000 -0.027660 
#    y 0.000000 0.040950 0.000000 
#    z -0.027660 0.000000 1.613330 
# 
# From -- ./inp_files/261642.got.cif
#   From: 2010.05.17/outbox.cif.g08.bks.cpg/sg12_131_cif.got.tgz:261642.got - 2010.06.03 13:09:07.
