data_PCOD9195259
_publ_section_title
;
Structure prediction by ZEFSAII (Michael W. Deem and Ramdas Pophale) SiO2 
 PCOD9195259
Probable space group: C 2/M
;
_chemical_formula_sum "Si O2"
_cell_formula_units_Z 64
_cell_length_a 24.109717
_cell_length_b 9.052287
_cell_length_c 21.900580
_cell_angle_alpha 90.000000
_cell_angle_beta 50.696132
_cell_angle_gamma 90.000000
_cell_volume 3698.565697
_symmetry_space_group_name_H-M "C 2/M"
_symmetry_group_IT_number 12
_symmetry_cell_setting 'monoclinic'
loop_
_space_group_symop_operation_xyz
x,y,z
-x,y,-z
-x,-y,-z
x,-y,z
1/2+x,1/2+y,z
1/2-x,1/2+y,-z
1/2-x,1/2-y,-z
1/2+x,1/2-y,z
loop_
_atom_site_type_symbol
_atom_site_label
_atom_site_fract_x
_atom_site_fract_y
_atom_site_fract_z
Si Si1 0.841875 0.824001 0.087478
Si Si2 0.326888 0.677684 0.960448
Si Si3 0.925454 0.677118 0.275642
Si Si4 0.778140 0.823519 0.418599
Si Si5 0.106802 0.669241 0.832700
Si Si6 0.682738 0.176256 0.248920
Si Si7 0.729704 0.670375 0.333488
Si Si8 0.582189 0.175709 0.208273
O O1 0.891968 0.756004 0.104861
O O2 0.758881 0.789551 0.162845
O O3 0.849436 0.000000 0.084853
O O4 0.852733 0.775849 0.010199
O O5 0.319970 0.500000 0.964957
O O6 0.380186 0.733461 0.871432
O O7 0.250000 0.750000 0.000000
O O8 0.908916 0.500000 0.286356
O O9 0.858353 0.764707 0.349148
O O10 0.936839 0.721797 0.196403
O O11 0.997472 0.699846 0.263347
O O12 0.750000 0.750000 0.500000
O O13 0.731698 0.765727 0.393457
O O14 0.776550 0.000000 0.423212
O O15 0.087572 0.500000 0.858517
O O16 0.188912 0.674484 0.750194
O O17 0.681716 0.261876 0.313333
O O18 0.619433 0.213712 0.246374
O O19 0.682135 0.000000 0.260686
O O20 0.712507 0.500000 0.358355
O O21 0.595496 0.000000 0.188786
#
# Coordination Sequence:
#
# PCOD9195259 Si02
#       8
#     8   8   8   8   8   8   8   8
#     4   9  17  29  45  67  95 127 170 220 264 306
#     4  11  21  33  48  70 100 134 178 226 271 316
#     4   9  19  36  55  77 107 138 172 211 256 311
#     4  11  21  35  58  85 111 137 168 207 254 303
#     4   8  15  28  47  70  94 127 169 210 255 304
#     4   9  16  29  48  72 101 135 175 212 258 307
#     4   9  17  30  49  77 107 133 169 211 253 299
#     4  10  20  35  53  74 104 141 176 216 263 314
#
# _framework density 17.304006000000001
#
# number of rings (size 3 to 8) (size 9 to 14) (size 15 to 20)
#    0.000    2.500    1.250    2.625    0.000    5.000 
#    0.000    0.625    0.000    4.500    0.000    5.250 
#    0.000    0.000    0.000    0.000    0.000    0.000 
#
# Total GULP energy -178411.571636 kJ/mol
# GULP energy per Si atom -5575.361614 kJ/mol
# Density = 1.726462 g / cm^3
# Si number density = 17.304006 Si / 1000 Ang^3
#
#
#
# Elastic Constant Matrix: (Units=GPa)
#
#
# Indices 1 2 3 4 5 6 
#
# 1 112.2109 52.2713 43.9267 -0.0005 25.7936 0.0014
# 2 52.2713 78.5635 52.1581 -0.0007 17.5114 0.0010
# 3 43.9267 52.1581 71.7388 -0.0001 26.6959 0.0006
# 4 -0.0005 -0.0007 -0.0001 26.1426 -0.0001 7.9031
# 5 25.7936 17.5114 26.6959 -0.0001 24.6495 0.0001
# 6 0.0014 0.0010 0.0006 7.9031 0.0001 24.7302
#
#
#
# Elastic Compliance Matrix: (Units=1/GPa)
#
#
# Indices 1 2 3 4 5 6 
#
# 1 0.014760 -0.007875 0.000592 0.000000 -0.010492 -0.000001
# 2 -0.007875 0.028956 -0.019502 0.000001 0.008791 -0.000001
# 3 0.000592 -0.019502 0.038244 0.000000 -0.028184 0.000000
# 4 0.000000 0.000001 0.000000 0.042342 0.000000 -0.013531
# 5 -0.010492 0.008791 -0.028184 0.000000 0.075827 0.000001
# 6 -0.000001 -0.000001 0.000000 -0.013531 0.000001 0.044761
#
#
# Mechanical properties :
#
#
# Convention : Reuss Voigt Hill
#
# Bulk Modulus (GPa) = 35.22307 62.13615 48.67961
# Shear Modulus (GPa) = 16.23782 22.71493 19.47637
#
# Velocity S-wave (km/s) = 3.06663 3.62705 3.35855
# Velocity P-wave (km/s) = 5.73922 7.31622 6.57517
#
# Compressibility (1/GPa) = 0.02839048
#
# Stress axis : x y z
#
# Youngs Moduli (GPa) = 67.74974 34.53528 26.14786
#
# Poissons Ratio (x) = 0.27196 -0.01548
# Poissons Ratio (y) = 0.53352 0.50993
# Poissons Ratio (z) = -0.04011 0.67350
#
# Static dielectric constant tensor:
#      x y z
#    x 1.605340 0.000000 0.009640 
#    y 0.000000 1.584160 0.000000 
#    z 0.009640 0.000000 1.570260 
# 
# From -- ./inp_files/319798.got.cif
#   From: 2010.05.17/outbox.cif.g08.bks.cpg/sg12_160_cif.got.tgz:319798.got - 2010.06.03 13:09:07.
