data_PCOD9195127
_publ_section_title
;
Structure prediction by ZEFSAII (Michael W. Deem and Ramdas Pophale) SiO2 
 PCOD9195127
Probable space group: C 2/M
;
_chemical_formula_sum "Si O2"
_cell_formula_units_Z 38
_cell_length_a 21.143741
_cell_length_b 13.307450
_cell_length_c 10.486497
_cell_angle_alpha 90.000000
_cell_angle_beta 41.368689
_cell_angle_gamma 90.000000
_cell_volume 1950.042493
_symmetry_space_group_name_H-M "C 2/M"
_symmetry_group_IT_number 12
_symmetry_cell_setting 'monoclinic'
loop_
_space_group_symop_operation_xyz
x,y,z
-x,y,-z
-x,-y,-z
x,-y,z
1/2+x,1/2+y,z
1/2-x,1/2+y,-z
1/2-x,1/2-y,-z
1/2+x,1/2-y,z
loop_
_atom_site_type_symbol
_atom_site_label
_atom_site_fract_x
_atom_site_fract_y
_atom_site_fract_z
Si Si1 0.500848 0.000000 0.842523
Si Si2 0.440624 0.340143 0.866671
Si Si3 0.500000 0.500000 0.000000
Si Si4 0.280883 0.000000 0.192916
Si Si5 0.102597 0.000000 0.273256
Si Si6 0.802548 0.721790 0.244090
Si Si7 0.890424 0.703596 0.385233
O O1 0.557165 0.097413 0.707966
O O2 0.500000 0.000000 0.000000
O O3 0.389108 0.000000 0.973417
O O4 0.395110 0.404011 0.822868
O O5 0.536270 0.285632 0.674069
O O6 0.468167 0.412910 0.942637
O O7 0.370281 0.254909 0.027267
O O8 0.274816 0.104184 0.280490
O O9 0.192876 0.000000 0.229561
O O10 0.000000 0.000000 0.500000
O O11 0.860267 0.735877 0.287714
O O12 0.708574 0.791025 0.388885
#
# Coordination Sequence:
#
# PCOD9195127 Si02
#       7
#     4   8   2   4   4   8   8
#     4  12  20  39  65  91 135 169 210 274 339 392
#     4  11  21  42  64  89 135 167 218 282 322 389
#     4  10  20  34  64  90 124 160 206 268 350 358
#     4  12  23  43  65  90 132 178 221 259 332 399
#     4  11  27  44  63  94 131 185 234 268 322 399
#     4  11  22  37  67  98 128 170 219 269 341 392
#     4  11  21  37  64 102 129 165 214 275 341 399
#
# _framework density 19.486754000000001
#
# number of rings (size 3 to 8) (size 9 to 14) (size 15 to 20)
#    0.000    0.842    6.316    1.263    0.000    3.368 
#    0.000    0.000    0.000    1.263    0.000    0.000 
#    0.000    0.000    0.000    0.000    0.000    0.000 
#
# Total GULP energy -105850.141921 kJ/mol
# GULP energy per Si atom -5571.060101 kJ/mol
# Density = 1.944240 g / cm^3
# Si number density = 19.486754 Si / 1000 Ang^3
#
#
#
# Elastic Constant Matrix: (Units=GPa)
#
#
# Indices 1 2 3 4 5 6 
#
# 1 64.3347 3.0434 6.0157 0.0000 -23.2013 0.0000
# 2 3.0434 84.7984 0.7256 0.0000 -14.5278 0.0000
# 3 6.0157 0.7256 61.9271 0.0000 -26.1620 0.0000
# 4 0.0000 0.0000 0.0000 34.4055 0.0000 -7.3042
# 5 -23.2013 -14.5278 -26.1620 0.0000 31.7176 0.0000
# 6 0.0000 0.0000 0.0000 -7.3042 0.0000 14.9423
#
#
#
# Elastic Compliance Matrix: (Units=1/GPa)
#
#
# Indices 1 2 3 4 5 6 
#
# 1 0.024149 0.003621 0.008864 0.000000 0.026634 0.000000
# 2 0.003621 0.013876 0.005049 0.000000 0.013169 0.000000
# 3 0.008864 0.005049 0.029076 0.000000 0.032780 0.000000
# 4 0.000000 0.000000 0.000000 0.032431 0.000000 0.015853
# 5 0.026634 0.013169 0.032780 0.000000 0.084081 0.000000
# 6 0.000000 0.000000 0.000000 0.015853 0.000000 0.074674
#
#
# Mechanical properties :
#
#
# Convention : Reuss Voigt Hill
#
# Bulk Modulus (GPa) = 9.78791 25.62551 17.70671
# Shear Modulus (GPa) = 19.43447 29.63143 24.53295
#
# Velocity S-wave (km/s) = 3.16146 3.90371 3.55203
# Velocity P-wave (km/s) = 4.28488 5.78769 5.09203
#
# Compressibility (1/GPa) = 0.10216688
#
# Stress axis : x y z
#
# Youngs Moduli (GPa) = 41.40986 72.06898 34.39260
#
# Poissons Ratio (x) = -0.26093 -0.30485
# Poissons Ratio (y) = -0.14992 -0.17365
# Poissons Ratio (z) = -0.36705 -0.36387
#
# Static dielectric constant tensor:
#      x y z
#    x 1.645800 0.000000 -0.014250 
#    y 0.000000 1.683030 0.000000 
#    z -0.014250 0.000000 1.679730 
# 
# From -- ./inp_files/59032.got.cif
#   From: 2010.05.17/outbox.cif.g08.bks.cpg/sg12_30_cif.got.tgz:59032.got - 2010.06.03 13:09:07.
