data_PCOD9195040
_publ_section_title
;
Structure prediction by ZEFSAII (Michael W. Deem and Ramdas Pophale) SiO2 
 PCOD9195040
Probable space group: C 2/M
;
_chemical_formula_sum "Si O2"
_cell_formula_units_Z 64
_cell_length_a 17.245624
_cell_length_b 18.014056
_cell_length_c 20.163158
_cell_angle_alpha 90.000000
_cell_angle_beta 149.058439
_cell_angle_gamma 90.000000
_cell_volume 3220.699822
_symmetry_space_group_name_H-M "C 2/M"
_symmetry_group_IT_number 12
_symmetry_cell_setting 'monoclinic'
loop_
_space_group_symop_operation_xyz
x,y,z
-x,y,-z
-x,-y,-z
x,-y,z
1/2+x,1/2+y,z
1/2-x,1/2+y,-z
1/2-x,1/2-y,-z
1/2+x,1/2-y,z
loop_
_atom_site_type_symbol
_atom_site_label
_atom_site_fract_x
_atom_site_fract_y
_atom_site_fract_z
Si Si1 0.843700 0.669296 0.334326
Si Si2 0.148055 0.821896 0.406897
Si Si3 0.599661 0.081833 0.140962
Si Si4 0.925379 0.078871 0.874430
Si Si5 0.647991 0.808992 0.006756
Si Si6 0.639713 0.324275 0.712044
Si Si7 0.083139 0.839908 0.881363
Si Si8 0.112166 0.588326 0.490829
O O1 0.673207 0.652239 0.192832
O O2 0.878862 0.755344 0.351648
O O3 0.854833 0.632896 0.415963
O O4 0.945703 0.621985 0.357720
O O5 0.250000 0.750000 0.500000
O O6 0.267399 0.886249 0.475485
O O7 0.021485 0.837215 0.370493
O O8 0.046788 0.814802 0.265728
O O9 0.772217 0.106248 0.255012
O O10 0.592966 0.000000 0.166901
O O11 0.500000 0.077104 0.000000
O O12 0.509548 0.147745 0.110117
O O13 0.031118 0.092739 0.889072
O O14 0.841326 0.000000 0.801357
O O15 0.000000 0.073077 0.000000
O O16 0.735597 0.800436 0.140810
O O17 0.767849 0.855810 0.051586
O O18 0.623936 0.728883 0.957978
O O19 0.110384 0.500000 0.498438
#
# Coordination Sequence:
#
# PCOD9195040 Si02
#       8
#     8   8   8   8   8   8   8   8
#     4  11  20  36  58  85 117 156 200 242 296 363
#     4  11  22  39  57  87 114 152 199 250 299 347
#     4   9  18  33  53  83 118 152 193 238 292 351
#     4  11  22  34  53  85 122 157 191 236 300 365
#     4   9  19  35  56  85 111 152 193 238 297 353
#     4  10  20  34  60  86 115 152 193 244 294 355
#     4  10  20  35  57  81 116 151 196 245 291 357
#     4  11  23  38  60  86 118 158 202 251 302 357
#
# _framework density 19.871458000000001
#
# number of rings (size 3 to 8) (size 9 to 14) (size 15 to 20)
#    0.000    1.750    2.500    3.000    0.000    2.000 
#    0.000    2.500    0.000    0.750    0.000    2.625 
#    0.000    0.000    0.000    0.000    0.000    0.000 
#
# Total GULP energy -178177.561797 kJ/mol
# GULP energy per Si atom -5568.048806 kJ/mol
# Density = 1.982623 g / cm^3
# Si number density = 19.871458 Si / 1000 Ang^3
#
#
#
# Elastic Constant Matrix: (Units=GPa)
#
#
# Indices 1 2 3 4 5 6 
#
# 1 71.0367 30.6765 24.0683 -0.0002 23.7431 -0.0001
# 2 30.6765 76.8606 3.3454 -0.0021 4.6136 -0.0008
# 3 24.0683 3.3454 31.1745 -0.0002 11.8907 -0.0016
# 4 -0.0002 -0.0021 -0.0002 22.6253 -0.0003 -6.5125
# 5 23.7431 4.6136 11.8907 -0.0003 34.1844 -0.0006
# 6 -0.0001 -0.0008 -0.0016 -6.5125 -0.0006 46.9885
#
#
#
# Elastic Compliance Matrix: (Units=1/GPa)
#
#
# Indices 1 2 3 4 5 6 
#
# 1 0.027694 -0.009624 -0.015573 -0.000001 -0.012519 -0.000001
# 2 -0.009624 0.016481 0.004566 0.000002 0.002872 0.000001
# 3 -0.015573 0.004566 0.045796 0.000001 -0.005729 0.000002
# 4 -0.000001 0.000002 0.000001 0.046035 0.000001 0.006380
# 5 -0.012519 0.002872 -0.005729 0.000001 0.039554 0.000000
# 6 -0.000001 0.000001 0.000002 0.006380 0.000000 0.022166
#
#
# Mechanical properties :
#
#
# Convention : Reuss Voigt Hill
#
# Bulk Modulus (GPa) = 20.53019 32.80580 26.66799
# Shear Modulus (GPa) = 19.59062 28.82507 24.20784
#
# Velocity S-wave (km/s) = 3.14326 3.81278 3.49409
# Velocity P-wave (km/s) = 4.85050 5.99398 5.45230
#
# Compressibility (1/GPa) = 0.04870875
#
# Stress axis : x y z
#
# Youngs Moduli (GPa) = 36.10868 60.67766 21.83586
#
# Poissons Ratio (x) = 0.58396 0.34006
# Poissons Ratio (y) = 0.34751 -0.09971
# Poissons Ratio (z) = 0.56233 -0.27707
#
# Static dielectric constant tensor:
#      x y z
#    x 1.718070 0.000000 0.110090 
#    y 0.000000 1.695970 0.000000 
#    z 0.110090 0.000000 1.594010 
# 
# From -- ./inp_files/317400.got.cif
#   From: 2010.05.17/outbox.cif.g08.bks.cpg/sg12_159_cif.got.tgz:317400.got - 2010.06.03 13:09:07.
