data_PCOD9195225
_publ_section_title
;
Structure prediction by ZEFSAII (Michael W. Deem and Ramdas Pophale) SiO2 
 PCOD9195225
Probable space group: C 2/M
;
_chemical_formula_sum "Si O2"
_cell_formula_units_Z 44
_cell_length_a 20.028457
_cell_length_b 17.437257
_cell_length_c 21.947892
_cell_angle_alpha 90.000000
_cell_angle_beta 160.693256
_cell_angle_gamma 90.000000
_cell_volume 2534.281165
_symmetry_space_group_name_H-M "C 2/M"
_symmetry_group_IT_number 12
_symmetry_cell_setting 'monoclinic'
loop_
_space_group_symop_operation_xyz
x,y,z
-x,y,-z
-x,-y,-z
x,-y,z
1/2+x,1/2+y,z
1/2-x,1/2+y,-z
1/2-x,1/2-y,-z
1/2+x,1/2-y,z
loop_
_atom_site_type_symbol
_atom_site_label
_atom_site_fract_x
_atom_site_fract_y
_atom_site_fract_z
Si Si1 0.060571 0.416654 0.458987
Si Si2 0.071894 0.586982 0.794449
Si Si3 0.481393 0.352730 0.850918
Si Si4 0.000000 0.778495 0.000000
Si Si5 0.435547 0.255346 0.377492
Si Si6 0.694457 0.781195 0.385156
O O1 0.977419 0.500000 0.407094
O O2 0.294495 0.409842 0.678964
O O3 0.055122 0.355226 0.273503
O O4 0.033980 0.412930 0.363257
O O5 0.073462 0.500000 0.818786
O O6 0.042032 0.661807 0.606351
O O7 0.300800 0.615139 0.980045
O O8 0.481480 0.327361 0.921760
O O9 0.424270 0.280763 0.758427
O O10 0.798059 0.729230 0.834098
O O11 0.500000 0.279288 0.500000
O O12 0.591232 0.290818 0.463948
O O13 0.750000 0.750000 0.500000
#
# Coordination Sequence:
#
# PCOD9195225 Si02
#       6
#     8   8   8   4   8   8
#     4  10  20  35  52  78 120 157 185 227 279 342
#     4  11  22  37  57  88 119 150 192 241 290 339
#     4  11  21  36  59  83 118 150 196 232 283 345
#     4  12  20  36  55  86 113 148 190 238 280 342
#     4  11  21  37  53  81 113 149 195 234 282 340
#     4  11  20  39  62  83 114 156 197 238 287 336
#
# _framework density 17.361926
#
# number of rings (size 3 to 8) (size 9 to 14) (size 15 to 20)
#    0.000    1.091    9.091    1.091    0.000    0.364 
#    0.000    2.273    0.000    0.545    0.000    1.273 
#    0.000    0.000    0.000    0.000    0.000    0.000 
#
# Total GULP energy -122722.322876 kJ/mol
# GULP energy per Si atom -5578.287403 kJ/mol
# Density = 1.732241 g / cm^3
# Si number density = 17.361926 Si / 1000 Ang^3
#
#
#
# Elastic Constant Matrix: (Units=GPa)
#
#
# Indices 1 2 3 4 5 6 
#
# 1 106.3826 33.9736 43.3475 -0.0064 10.1191 -0.0027
# 2 33.9736 69.1613 21.4612 0.0121 2.6447 -0.0010
# 3 43.3475 21.4612 118.3122 0.0241 10.9181 0.0056
# 4 -0.0064 0.0121 0.0241 8.2343 0.0042 1.9090
# 5 10.1191 2.6447 10.9181 0.0042 38.5623 0.0027
# 6 -0.0027 -0.0010 0.0056 1.9090 0.0027 12.6081
#
#
#
# Elastic Compliance Matrix: (Units=1/GPa)
#
#
# Indices 1 2 3 4 5 6 
#
# 1 0.012635 -0.005035 -0.003534 0.000029 -0.001970 0.000000
# 2 -0.005035 0.017330 -0.001346 -0.000027 0.000514 0.000005
# 3 -0.003534 -0.001346 0.010163 -0.000030 -0.001858 -0.000001
# 4 0.000029 -0.000027 -0.000030 0.125861 -0.000010 -0.019057
# 5 -0.001970 0.000514 -0.001858 -0.000010 0.026940 -0.000004
# 6 0.000000 0.000005 -0.000001 -0.019057 -0.000004 0.082199
#
#
# Mechanical properties :
#
#
# Convention : Reuss Voigt Hill
#
# Bulk Modulus (GPa) = 49.26716 54.60230 51.93473
# Shear Modulus (GPa) = 16.57136 24.88586 20.72861
#
# Velocity S-wave (km/s) = 3.09279 3.79008 3.45905
# Velocity P-wave (km/s) = 6.41810 7.11833 6.77727
#
# Compressibility (1/GPa) = 0.02029750
#
# Stress axis : x y z
#
# Youngs Moduli (GPa) = 79.14287 57.70247 98.39819
#
# Poissons Ratio (x) = 0.29052 0.34777
# Poissons Ratio (y) = 0.39846 0.13248
# Poissons Ratio (z) = 0.27972 0.07769
#
# Static dielectric constant tensor:
#      x y z
#    x 1.587600 0.000010 0.005410 
#    y 0.000010 1.595650 0.000000 
#    z 0.005410 0.000000 1.614500 
# 
# From -- ./inp_files/323048.got.cif
#   From: 2010.05.17/outbox.cif.g08.bks.cpg/sg12_162_cif.got.tgz:323048.got - 2010.06.03 13:09:07.
