data_PCOD9195600
_publ_section_title
;
Structure prediction by ZEFSAII (Michael W. Deem and Ramdas Pophale) SiO2 
 PCOD9195600
Probable space group: C 2/M
;
_chemical_formula_sum "Si O2"
_cell_formula_units_Z 56
_cell_length_a 19.895240
_cell_length_b 26.803175
_cell_length_c 10.042161
_cell_angle_alpha 90.000000
_cell_angle_beta 147.096178
_cell_angle_gamma 90.000000
_cell_volume 2909.020056
_symmetry_space_group_name_H-M "C 2/M"
_symmetry_group_IT_number 12
_symmetry_cell_setting 'monoclinic'
loop_
_space_group_symop_operation_xyz
x,y,z
-x,y,-z
-x,-y,-z
x,-y,z
1/2+x,1/2+y,z
1/2-x,1/2+y,-z
1/2-x,1/2-y,-z
1/2+x,1/2-y,z
loop_
_atom_site_type_symbol
_atom_site_label
_atom_site_fract_x
_atom_site_fract_y
_atom_site_fract_z
Si Si1 0.502640 0.646135 0.146121
Si Si2 0.811064 0.054660 0.795341
Si Si3 0.283288 0.885972 0.590639
Si Si4 0.641427 0.904909 0.724697
Si Si5 0.579803 0.288421 0.501781
Si Si6 0.404311 0.180197 0.567784
Si Si7 0.822262 0.643388 0.941107
O O1 0.640290 0.624784 0.384786
O O2 0.489995 0.681773 0.250573
O O3 0.500000 0.674378 0.000000
O O4 0.408322 0.599995 0.976136
O O5 0.725571 0.067337 0.524540
O O6 0.725847 0.057715 0.783345
O O7 0.868039 0.000000 0.876107
O O8 0.341015 0.842265 0.594822
O O9 0.342852 0.885923 0.835597
O O10 0.500000 0.922121 0.500000
O O11 0.637249 0.854728 0.625352
O O12 0.689989 0.892263 0.951758
O O13 0.500000 0.277409 0.500000
O O14 0.624572 0.237297 0.509126
O O15 0.701053 0.321872 0.732080
O O16 0.552209 0.174351 0.826190
#
# Coordination Sequence:
#
# PCOD9195600 Si02
#       7
#     8   8   8   8   8   8   8
#     4   9  20  35  53  79 110 143 181 229 278 331
#     4  10  20  37  61  84 110 146 186 231 284 339
#     4   9  20  36  54  78 108 142 183 229 278 327
#     4   9  19  36  56  80 113 149 186 226 276 334
#     4  11  22  34  54  83 114 150 192 230 274 330
#     4  10  21  35  54  81 111 151 191 226 275 333
#     4  10  20  35  55  77 112 150 181 233 284 322
#
# _framework density 19.250468999999999
#
# number of rings (size 3 to 8) (size 9 to 14) (size 15 to 20)
#    0.000    2.286    0.000    2.571    0.000   12.000 
#    0.000    0.714    0.000   19.286    0.000    0.000 
#    0.000    0.000    0.000    0.000    0.000    0.000 
#
# Total GULP energy -156078.996136 kJ/mol
# GULP energy per Si atom -5574.249862 kJ/mol
# Density = 1.920665 g / cm^3
# Si number density = 19.250469 Si / 1000 Ang^3
#
#
#
# Elastic Constant Matrix: (Units=GPa)
#
#
# Indices 1 2 3 4 5 6 
#
# 1 100.0099 23.7908 31.9081 0.0000 -22.2111 0.0000
# 2 23.7908 54.8009 30.2732 0.0000 -7.9864 0.0000
# 3 31.9081 30.2732 75.2386 0.0000 -22.6797 0.0000
# 4 0.0000 0.0000 0.0000 10.7391 0.0000 6.6934
# 5 -22.2111 -7.9864 -22.6797 0.0000 41.3708 0.0000
# 6 0.0000 0.0000 0.0000 6.6934 0.0000 0.1704
#
#
#
# Elastic Compliance Matrix: (Units=1/GPa)
#
#
# Indices 1 2 3 4 5 6 
#
# 1 0.012682 -0.003386 -0.002589 0.000000 0.004736 0.000000
# 2 -0.003386 0.024388 -0.008991 0.000000 -0.002039 0.000000
# 3 -0.002589 -0.008991 0.020443 0.000000 0.008081 0.000000
# 4 0.000000 0.000000 0.000000 -0.003966 0.000000 0.155763
# 5 0.004736 -0.002039 0.008081 0.000000 0.030751 0.000000
# 6 0.000000 0.000000 0.000000 0.155763 0.000000 -0.249910
#
#
# Mechanical properties :
#
#
# Convention : Reuss Voigt Hill
#
# Bulk Modulus (GPa) = 36.25646 44.66595 40.46120
# Shear Modulus (GPa) = -39.52955 20.06121 -9.73417
#
# Velocity S-wave (km/s) = -4.53640 3.23168 -2.25113
# Velocity P-wave (km/s) = 2.92636 6.09737 3.78248
#
# Compressibility (1/GPa) = 0.02758130
#
# Stress axis : x y z
#
# Youngs Moduli (GPa) = 78.85139 41.00445 48.91736
#
# Poissons Ratio (x) = 0.13882 0.12662
# Poissons Ratio (y) = 0.26695 0.43984
# Poissons Ratio (z) = 0.20411 0.36869
#
# Static dielectric constant tensor:
#      x y z
#    x 1.695310 0.000000 -0.018070 
#    y 0.000000 1.663050 0.000000 
#    z -0.018070 0.000000 1.702950 
# 
# From -- ./inp_files/80124.got.cif
#   From: 2010.05.17/outbox.cif.g08.bks.cpg/sg12_41_cif.got.tgz:80124.got - 2010.06.03 13:09:07.
