data_PCOD9195583
_publ_section_title
;
Structure prediction by ZEFSAII (Michael W. Deem and Ramdas Pophale) SiO2 
 PCOD9195583
Probable space group: C 2/M
;
_chemical_formula_sum "Si O2"
_cell_formula_units_Z 64
_cell_length_a 32.625585
_cell_length_b 9.442383
_cell_length_c 26.828731
_cell_angle_alpha 90.000000
_cell_angle_beta 21.719730
_cell_angle_gamma 90.000000
_cell_volume 3058.581385
_symmetry_space_group_name_H-M "C 2/M"
_symmetry_group_IT_number 12
_symmetry_cell_setting 'monoclinic'
loop_
_space_group_symop_operation_xyz
x,y,z
-x,y,-z
-x,-y,-z
x,-y,z
1/2+x,1/2+y,z
1/2-x,1/2+y,-z
1/2-x,1/2-y,-z
1/2+x,1/2-y,z
loop_
_atom_site_type_symbol
_atom_site_label
_atom_site_fract_x
_atom_site_fract_y
_atom_site_fract_z
Si Si1 0.455321 0.338298 0.996924
Si Si2 0.179776 0.338834 0.439591
Si Si3 0.661265 0.339407 0.253766
Si Si4 0.425146 0.160462 0.938066
Si Si5 0.192053 0.661929 0.312095
Si Si6 0.291070 0.660436 0.500523
Si Si7 0.583419 0.161334 0.246849
Si Si8 0.945103 0.838618 0.814821
O O1 0.494984 0.500000 0.943816
O O2 0.322265 0.344374 0.151847
O O3 0.500000 0.289535 0.000000
O O4 0.482292 0.237384 0.920347
O O5 0.224540 0.500000 0.390312
O O6 0.185445 0.286514 0.376401
O O7 0.235269 0.240150 0.418151
O O8 0.049927 0.346679 0.599610
O O9 0.617401 0.500000 0.301047
O O10 0.636590 0.261546 0.333742
O O11 0.621300 0.244507 0.252996
O O12 0.794427 0.347373 0.098219
O O13 0.435464 0.255230 0.877310
O O14 0.465077 0.000000 0.884863
O O15 0.148255 0.500000 0.359798
O O16 0.248173 0.500000 0.547745
O O17 0.250000 0.750000 0.500000
O O18 0.424335 0.653720 0.345379
O O19 0.611310 0.250293 0.165911
O O20 0.625749 0.000000 0.197707
O O21 0.903621 0.000000 0.865258
#
# Coordination Sequence:
#
# PCOD9195583 Si02
#       8
#     8   8   8   8   8   8   8   8
#     4   9  18  33  53  77 105 137 173 212 255 306
#     4   9  19  35  54  77 105 137 175 217 259 307
#     4  10  21  36  53  76 106 137 172 214 259 310
#     4  10  21  36  54  77 105 137 173 214 260 309
#     4   9  18  34  54  75 103 138 173 211 256 306
#     4  10  21  36  55  79 107 139 174 213 257 306
#     4  10  20  35  55  77 103 136 174 216 261 309
#     4  10  21  37  56  78 105 137 174 215 258 306
#
# _framework density 20.924734000000001
#
# number of rings (size 3 to 8) (size 9 to 14) (size 15 to 20)
#    0.000    2.375    0.000    1.875    0.000    6.250 
#    0.000    5.000    0.000    0.000    0.000    0.000 
#    0.000    0.000    0.000    0.000    0.000    0.000 
#
# Total GULP energy -178733.724303 kJ/mol
# GULP energy per Si atom -5585.428884 kJ/mol
# Density = 2.087711 g / cm^3
# Si number density = 20.924734 Si / 1000 Ang^3
#
#
#
# Elastic Constant Matrix: (Units=GPa)
#
#
# Indices 1 2 3 4 5 6 
#
# 1 189.6479 136.8080 11.5749 0.0012 49.2116 -0.0003
# 2 136.8080 198.8146 18.9578 0.0066 40.6252 -0.0047
# 3 11.5749 18.9578 40.1793 0.0023 12.5231 -0.0024
# 4 0.0012 0.0066 0.0023 17.6315 -0.0013 8.5316
# 5 49.2116 40.6252 12.5231 -0.0013 44.0145 0.0002
# 6 -0.0003 -0.0047 -0.0024 8.5316 0.0002 39.1953
#
#
#
# Elastic Compliance Matrix: (Units=1/GPa)
#
#
# Indices 1 2 3 4 5 6 
#
# 1 0.012248 -0.007041 0.002235 0.000001 -0.007831 -0.000001
# 2 -0.007041 0.010304 -0.002549 -0.000004 -0.000914 0.000002
# 3 0.002235 -0.002549 0.027973 -0.000005 -0.008105 0.000003
# 4 0.000001 -0.000004 -0.000005 0.063394 0.000005 -0.013799
# 5 -0.007831 -0.000914 -0.008105 0.000005 0.034625 -0.000002
# 6 -0.000001 0.000002 0.000003 -0.013799 -0.000002 0.028517
#
#
# Mechanical properties :
#
#
# Convention : Reuss Voigt Hill
#
# Bulk Modulus (GPa) = 27.92102 84.81370 56.36736
# Shear Modulus (GPa) = 24.54473 37.58834 31.06653
#
# Velocity S-wave (km/s) = 3.42863 4.24295 3.85733
# Velocity P-wave (km/s) = 5.38948 8.03892 6.84363
#
# Compressibility (1/GPa) = 0.03581531
#
# Stress axis : x y z
#
# Youngs Moduli (GPa) = 81.64831 97.04584 35.74815
#
# Poissons Ratio (x) = 0.68327 -0.07988
# Poissons Ratio (y) = 0.57486 0.09112
# Poissons Ratio (z) = -0.18244 0.24736
#
# Static dielectric constant tensor:
#      x y z
#    x 1.714250 0.000000 -0.022490 
#    y 0.000000 1.748980 0.000000 
#    z -0.022490 0.000000 1.777600 
# 
# From -- ./inp_files/250112.got.cif
#   From: 2010.05.17/outbox.cif.g08.bks.cpg/sg12_126_cif.got.tgz:250112.got - 2010.06.03 13:09:07.
