data_PCOD9195459
_publ_section_title
;
Structure prediction by ZEFSAII (Michael W. Deem and Ramdas Pophale) SiO2 
 PCOD9195459
Probable space group: C 2/M
;
_chemical_formula_sum "Si O2"
_cell_formula_units_Z 48
_cell_length_a 31.991390
_cell_length_b 7.687149
_cell_length_c 9.188137
_cell_angle_alpha 90.000000
_cell_angle_beta 90.345032
_cell_angle_gamma 90.000000
_cell_volume 2259.529401
_symmetry_space_group_name_H-M "C 2/M"
_symmetry_group_IT_number 12
_symmetry_cell_setting 'monoclinic'
loop_
_space_group_symop_operation_xyz
x,y,z
-x,y,-z
-x,-y,-z
x,-y,z
1/2+x,1/2+y,z
1/2-x,1/2+y,-z
1/2-x,1/2-y,-z
1/2+x,1/2-y,z
loop_
_atom_site_type_symbol
_atom_site_label
_atom_site_fract_x
_atom_site_fract_y
_atom_site_fract_z
Si Si1 0.960694 0.705757 0.592294
Si Si2 0.707733 0.709087 0.084126
Si Si3 0.207330 0.790664 0.415293
Si Si4 0.874812 0.786480 0.085439
Si Si5 0.375816 0.289551 0.420801
Si Si6 0.457950 0.295199 0.928223
O O1 0.966787 0.500000 0.609077
O O2 0.917609 0.737523 0.506473
O O3 0.958578 0.779369 0.754747
O O4 0.000000 0.775482 0.500000
O O5 0.704315 0.500000 0.091802
O O6 0.708662 0.775458 0.249674
O O7 0.750000 0.750000 0.000000
O O8 0.667372 0.772467 0.994919
O O9 0.250000 0.750000 0.500000
O O10 0.166148 0.727126 0.499198
O O11 0.203988 0.000000 0.409266
O O12 0.876625 0.731306 0.253327
O O13 0.874211 0.000000 0.084489
O O14 0.915488 0.725171 0.998230
O O15 0.374701 0.500000 0.419786
O O16 0.457641 0.500000 0.964724
O O17 0.500000 0.219397 0.000000
#
# Coordination Sequence:
#
# PCOD9195459 Si02
#       6
#     8   8   8   8   8   8
#     4  11  24  39  55  80 115 150 182 223 277 332
#     4  10  20  35  54  78 109 143 180 222 269 320
#     4  10  21  36  57  84 113 146 184 228 276 328
#     4   9  18  34  57  83 108 135 175 228 276 317
#     4  10  20  37  61  84 107 142 187 231 274 323
#     4  10  20  36  60  86 109 139 182 227 271 325
#
# _framework density 21.243362999999999
#
# number of rings (size 3 to 8) (size 9 to 14) (size 15 to 20)
#    0.000    2.000    0.000    3.500    0.000    8.333 
#    0.000    4.167    0.000    0.000    0.000    0.000 
#    0.000    0.000    0.000    0.000    0.000    0.000 
#
# Total GULP energy -134161.101024 kJ/mol
# GULP energy per Si atom -5590.045876 kJ/mol
# Density = 2.119501 g / cm^3
# Si number density = 21.243363 Si / 1000 Ang^3
#
#
#
# Elastic Constant Matrix: (Units=GPa)
#
#
# Indices 1 2 3 4 5 6 
#
# 1 236.9220 -7.7540 121.5514 0.0000 -5.1793 0.0000
# 2 -7.7540 31.0811 -15.8472 0.0000 -3.3707 0.0000
# 3 121.5514 -15.8472 186.4544 0.0000 -3.7996 0.0000
# 4 0.0000 0.0000 0.0000 1.8715 0.0000 -3.9390
# 5 -5.1793 -3.3707 -3.7996 0.0000 49.1347 0.0000
# 6 0.0000 0.0000 0.0000 -3.9390 0.0000 22.9665
#
#
#
# Elastic Compliance Matrix: (Units=1/GPa)
#
#
# Indices 1 2 3 4 5 6 
#
# 1 0.006356 -0.000512 -0.004180 0.000000 0.000312 0.000000
# 2 -0.000512 0.033990 0.003274 0.000000 0.002531 0.000000
# 3 -0.004180 0.003274 0.008376 0.000000 0.000432 0.000000
# 4 0.000000 0.000000 0.000000 0.836146 0.000000 0.143408
# 5 0.000312 0.002531 0.000432 0.000000 0.020592 0.000000
# 6 0.000000 0.000000 0.000000 0.143408 0.000000 0.068138
#
#
# Mechanical properties :
#
#
# Convention : Reuss Voigt Hill
#
# Bulk Modulus (GPa) = 21.79368 72.26198 47.02783
# Shear Modulus (GPa) = 5.04170 38.56171 21.80171
#
# Velocity S-wave (km/s) = 1.54223 4.26518 3.20704
# Velocity P-wave (km/s) = 3.66778 7.63844 5.99159
#
# Compressibility (1/GPa) = 0.04588486
#
# Stress axis : x y z
#
# Youngs Moduli (GPa) = 157.34140 29.42031 119.39433
#
# Poissons Ratio (x) = 0.01507 0.49912
# Poissons Ratio (y) = 0.08058 -0.39094
# Poissons Ratio (z) = 0.65776 -0.09633
#
# Static dielectric constant tensor:
#      x y z
#    x 1.719180 0.000000 -0.010520 
#    y 0.000000 1.816680 0.000000 
#    z -0.010520 0.000000 1.719540 
# 
# From -- ./inp_files/108582.got.cif
#   From: 2010.05.17/outbox.cif.g08.bks.cpg/sg12_55_cif.got.tgz:108582.got - 2010.06.03 13:09:07.
