data_PCOD9195609
_publ_section_title
;
Structure prediction by ZEFSAII (Michael W. Deem and Ramdas Pophale) SiO2 
 PCOD9195609
Probable space group: C 2/M
;
_chemical_formula_sum "Si O2"
_cell_formula_units_Z 40
_cell_length_a 13.945200
_cell_length_b 9.460160
_cell_length_c 22.220997
_cell_angle_alpha 90.000000
_cell_angle_beta 141.329953
_cell_angle_gamma 90.000000
_cell_volume 1831.689371
_symmetry_space_group_name_H-M "C 2/M"
_symmetry_group_IT_number 12
_symmetry_cell_setting 'monoclinic'
loop_
_space_group_symop_operation_xyz
x,y,z
-x,y,-z
-x,-y,-z
x,-y,z
1/2+x,1/2+y,z
1/2-x,1/2+y,-z
1/2-x,1/2-y,-z
1/2+x,1/2-y,z
loop_
_atom_site_type_symbol
_atom_site_label
_atom_site_fract_x
_atom_site_fract_y
_atom_site_fract_z
Si Si1 0.844331 0.160557 0.458129
Si Si2 0.693335 0.658946 0.052470
Si Si3 0.495078 0.836812 0.132927
Si Si4 0.933632 0.160242 0.642910
Si Si5 0.758452 0.337908 0.220171
O O1 0.879944 0.152761 0.546820
O O2 0.699710 0.264406 0.383990
O O3 0.000000 0.205500 0.500000
O O4 0.806827 0.000000 0.418818
O O5 0.651308 0.500000 0.009698
O O6 0.875433 0.674063 0.128905
O O7 0.672675 0.663477 0.113426
O O8 0.606263 0.777728 0.972449
O O9 0.646169 0.742613 0.210445
O O10 0.536756 0.000000 0.144308
O O11 0.085933 0.253463 0.714013
O O12 0.963352 0.000000 0.678265
O O13 0.787487 0.500000 0.251217
#
# Coordination Sequence:
#
# PCOD9195609 Si02
#       5
#     8   8   8   8   8
#     4   9  19  38  61  80 104 140 173 206 259 320
#     4   9  20  37  54  74 104 143 180 214 261 318
#     4  10  20  35  55  78 104 136 179 226 264 303
#     4  10  21  36  55  82 110 134 172 220 258 304
#     4  11  22  36  54  76 108 145 176 211 261 317
#
# _framework density 21.837765999999998
#
# number of rings (size 3 to 8) (size 9 to 14) (size 15 to 20)
#    0.000    2.200    0.000    2.400    0.000    7.600 
#    0.000    8.000    0.000    0.000    0.000    0.000 
#    0.000    0.000    0.000    0.000    0.000    0.000 
#
# Total GULP energy -111759.812964 kJ/mol
# GULP energy per Si atom -5587.990648 kJ/mol
# Density = 2.178806 g / cm^3
# Si number density = 21.837766 Si / 1000 Ang^3
#
#
#
# Elastic Constant Matrix: (Units=GPa)
#
#
# Indices 1 2 3 4 5 6 
#
# 1 98.2953 48.2456 21.8928 0.0000 40.4028 0.0000
# 2 48.2456 166.5658 60.6981 0.0000 43.9668 0.0000
# 3 21.8928 60.6981 61.2162 0.0000 35.9405 0.0000
# 4 0.0000 0.0000 0.0000 33.9003 0.0000 13.9464
# 5 40.4028 43.9668 35.9405 0.0000 53.0128 0.0000
# 6 0.0000 0.0000 0.0000 13.9464 0.0000 25.5436
#
#
#
# Elastic Compliance Matrix: (Units=1/GPa)
#
#
# Indices 1 2 3 4 5 6 
#
# 1 0.015850 -0.002943 0.004832 0.000000 -0.012915 0.000000
# 2 -0.002943 0.010143 -0.008941 0.000000 -0.000107 0.000000
# 3 0.004832 -0.008941 0.035353 0.000000 -0.020235 0.000000
# 4 0.000000 0.000000 0.000000 0.038043 0.000000 -0.020771
# 5 -0.012915 -0.000107 -0.020235 0.000000 0.042514 0.000000
# 6 0.000000 0.000000 0.000000 -0.020771 0.000000 0.050489
#
#
# Mechanical properties :
#
#
# Convention : Reuss Voigt Hill
#
# Bulk Modulus (GPa) = 21.16765 65.30559 43.23662
# Shear Modulus (GPa) = 22.49772 35.50740 29.00256
#
# Velocity S-wave (km/s) = 3.21319 4.03670 3.64825
# Velocity P-wave (km/s) = 4.84565 7.19002 6.13093
#
# Compressibility (1/GPa) = 0.04724190
#
# Stress axis : x y z
#
# Youngs Moduli (GPa) = 63.09071 98.59386 28.28581
#
# Poissons Ratio (x) = 0.29013 -0.13667
# Poissons Ratio (y) = 0.18565 0.25291
# Poissons Ratio (z) = -0.30485 0.88157
#
# Static dielectric constant tensor:
#      x y z
#    x 1.794110 0.000000 -0.001930 
#    y 0.000000 1.779830 0.000000 
#    z -0.001930 0.000000 1.829420 
# 
# From -- ./inp_files/211232.got.cif
#   From: 2010.05.17/outbox.cif.g08.bks.cpg/sg12_106_cif.got.tgz:211232.got - 2010.06.03 13:09:07.
