data_PCOD9195531
_publ_section_title
;
Structure prediction by ZEFSAII (Michael W. Deem and Ramdas Pophale) SiO2 
 PCOD9195531
Probable space group: C 2/M
;
_chemical_formula_sum "Si O2"
_cell_formula_units_Z 56
_cell_length_a 32.906690
_cell_length_b 8.836376
_cell_length_c 24.076976
_cell_angle_alpha 90.000000
_cell_angle_beta 157.308320
_cell_angle_gamma 90.000000
_cell_volume 2700.791850
_symmetry_space_group_name_H-M "C 2/M"
_symmetry_group_IT_number 12
_symmetry_cell_setting 'monoclinic'
loop_
_space_group_symop_operation_xyz
x,y,z
-x,y,-z
-x,-y,-z
x,-y,z
1/2+x,1/2+y,z
1/2-x,1/2+y,-z
1/2-x,1/2-y,-z
1/2+x,1/2-y,z
loop_
_atom_site_type_symbol
_atom_site_label
_atom_site_fract_x
_atom_site_fract_y
_atom_site_fract_z
Si Si1 0.803175 0.678511 0.894138
Si Si2 0.639953 0.180240 0.341001
Si Si3 0.282087 0.826641 0.680670
Si Si4 0.043370 0.823577 0.395360
Si Si5 0.097248 0.325285 0.580332
Si Si6 0.407741 0.676574 0.925645
Si Si7 0.557708 0.318153 0.842704
O O1 0.802381 0.500000 0.900063
O O2 0.693635 0.734392 0.729635
O O3 0.890743 0.727332 0.959100
O O4 0.838332 0.757008 0.995703
O O5 0.750000 0.250000 0.500000
O O6 0.646732 0.203013 0.283137
O O7 0.541741 0.256821 0.247344
O O8 0.637745 0.000000 0.348485
O O9 0.158599 0.817963 0.511318
O O10 0.306212 0.708730 0.759370
O O11 0.301592 0.000000 0.724955
O O12 0.057682 0.737381 0.471179
O O13 0.960980 0.769647 0.244916
O O14 0.021859 0.000000 0.380906
O O15 0.130512 0.500000 0.616418
O O16 0.000000 0.317573 0.500000
O O17 0.420533 0.500000 0.955440
O O18 0.500000 0.724286 0.000000
O O19 0.556384 0.500000 0.842343
#
# Coordination Sequence:
#
# PCOD9195531 Si02
#       7
#     8   8   8   8   8   8   8
#     4  12  25  42  65  95 130 169 214 263 321 386
#     4  11  21  34  53  82 124 173 222 265 312 371
#     4  10  20  35  54  82 118 161 212 261 310 363
#     4  10  21  40  65  93 125 163 205 256 315 375
#     4  11  25  46  73 102 128 159 206 265 326 389
#     4  11  23  37  56  85 122 168 216 262 315 370
#     4  11  23  41  62  90 131 172 215 266 320 373
#
# _framework density 20.734660999999999
#
# number of rings (size 3 to 8) (size 9 to 14) (size 15 to 20)
#    0.000    1.143    2.857    3.857    0.000    6.857 
#    0.000    0.714    0.000    0.000    0.000    0.000 
#    0.000    0.000    0.000    0.000    0.000    0.000 
#
# Total GULP energy -156472.053361 kJ/mol
# GULP energy per Si atom -5588.287620 kJ/mol
# Density = 2.068747 g / cm^3
# Si number density = 20.734661 Si / 1000 Ang^3
#
#
#
# Elastic Constant Matrix: (Units=GPa)
#
#
# Indices 1 2 3 4 5 6 
#
# 1 71.4043 38.3376 39.8607 0.0000 -18.8929 0.0000
# 2 38.3376 80.0346 45.6813 0.0000 -20.9696 0.0000
# 3 39.8607 45.6813 112.0343 0.0000 -36.7952 0.0000
# 4 0.0000 0.0000 0.0000 25.6551 0.0000 -7.3571
# 5 -18.8929 -20.9696 -36.7952 0.0000 32.0054 0.0000
# 6 0.0000 0.0000 0.0000 -7.3571 0.0000 26.6456
#
#
#
# Elastic Compliance Matrix: (Units=1/GPa)
#
#
# Indices 1 2 3 4 5 6 
#
# 1 0.020581 -0.007024 -0.003181 0.000000 0.003890 0.000000
# 2 -0.007024 0.019170 -0.004103 0.000000 0.003696 0.000000
# 3 -0.003181 -0.004103 0.016438 0.000000 0.014331 0.000000
# 4 0.000000 0.000000 0.000000 0.042330 0.000000 0.011688
# 5 0.003890 0.003696 0.014331 0.000000 0.052439 0.000000
# 6 0.000000 0.000000 0.000000 0.011688 0.000000 0.040757
#
#
# Mechanical properties :
#
#
# Convention : Reuss Voigt Hill
#
# Bulk Modulus (GPa) = 36.26902 56.80361 46.53631
# Shear Modulus (GPa) = 21.78455 26.16745 23.97600
#
# Velocity S-wave (km/s) = 3.24487 3.55634 3.40417
# Velocity P-wave (km/s) = 5.61861 6.65720 6.15984
#
# Compressibility (1/GPa) = 0.02757174
#
# Stress axis : x y z
#
# Youngs Moduli (GPa) = 48.58883 52.16619 60.83622
#
# Poissons Ratio (x) = 0.36640 0.19352
# Poissons Ratio (y) = 0.34127 0.24964
# Poissons Ratio (z) = 0.15456 0.21406
#
# Static dielectric constant tensor:
#      x y z
#    x 1.740620 0.000000 -0.007430 
#    y 0.000000 1.703380 0.000000 
#    z -0.007430 0.000000 1.799240 
# 
# From -- ./inp_files/329684.got.cif
#   From: 2010.05.17/outbox.cif.g08.bks.cpg/sg12_165_cif.got.tgz:329684.got - 2010.06.03 13:09:07.
