data_PCOD9195550
_publ_section_title
;
Structure prediction by ZEFSAII (Michael W. Deem and Ramdas Pophale) SiO2 
 PCOD9195550
Probable space group: C 2/M
;
_chemical_formula_sum "Si O2"
_cell_formula_units_Z 50
_cell_length_a 5.153657
_cell_length_b 19.342039
_cell_length_c 31.032748
_cell_angle_alpha 90.000000
_cell_angle_beta 114.422239
_cell_angle_gamma 90.000000
_cell_volume 2816.625062
_symmetry_space_group_name_H-M "C 2/M"
_symmetry_group_IT_number 12
_symmetry_cell_setting 'monoclinic'
loop_
_space_group_symop_operation_xyz
x,y,z
-x,y,-z
-x,-y,-z
x,-y,z
1/2+x,1/2+y,z
1/2-x,1/2+y,-z
1/2-x,1/2-y,-z
1/2+x,1/2-y,z
loop_
_atom_site_type_symbol
_atom_site_label
_atom_site_fract_x
_atom_site_fract_y
_atom_site_fract_z
Si Si1 0.442015 0.420281 0.309534
Si Si2 0.984533 0.293437 0.128234
Si Si3 0.102473 0.579349 0.374146
Si Si4 0.000000 0.500000 0.000000
Si Si5 0.873552 0.795254 0.443732
Si Si6 0.169414 0.642569 0.971994
Si Si7 0.173612 0.201450 0.765308
O O1 0.419743 0.500000 0.292132
O O2 0.224732 0.412029 0.334276
O O3 0.384683 0.362623 0.269842
O O4 0.762687 0.411352 0.349374
O O5 0.178341 0.228529 0.126119
O O6 0.169493 0.323850 0.180178
O O7 0.941390 0.337117 0.082406
O O8 0.164028 0.500000 0.391660
O O9 0.250183 0.635741 0.414297
O O10 0.118379 0.561463 0.976206
O O11 0.622199 0.739299 0.432625
O O12 0.000000 0.809060 0.500000
O O13 0.500000 0.657900 0.000000
O O14 0.000000 0.677867 0.000000
O O15 0.388418 0.257029 0.758487
#
# Coordination Sequence:
#
# PCOD9195550 Si02
#       7
#     8   8   8   2   8   8   8
#     4  10  21  37  55  81 110 138 179 226 268 313
#     4  10  21  36  54  79 106 132 170 215 262 310
#     4  10  21  36  56  79 110 143 179 222 267 320
#     4   8  22  36  50  76 106 136 174 214 246 304
#     4  10  21  36  54  80 112 142 180 226 266 313
#     4  10  20  35  55  74 105 135 169 213 253 303
#     4  10  21  37  57  79 108 141 178 220 266 319
#
# _framework density 17.751742
#
# number of rings (size 3 to 8) (size 9 to 14) (size 15 to 20)
#    0.480    1.600    0.000    3.120    0.000    6.080 
#    1.440    0.000    0.000    5.760    0.000    0.000 
#    0.000    0.000    0.000    0.000    0.000    0.000 
#
# Total GULP energy -139186.406108 kJ/mol
# GULP energy per Si atom -5567.456244 kJ/mol
# Density = 1.771134 g / cm^3
# Si number density = 17.751742 Si / 1000 Ang^3
#
#
#
# Elastic Constant Matrix: (Units=GPa)
#
#
# Indices 1 2 3 4 5 6 
#
# 1 48.9462 -15.1226 -7.7289 0.0000 0.9487 0.0000
# 2 -15.1226 76.5887 51.2970 0.0000 8.3629 0.0000
# 3 -7.7289 51.2970 58.9905 0.0000 5.5381 0.0000
# 4 0.0000 0.0000 0.0000 -32.4745 0.0000 13.5236
# 5 0.9487 8.3629 5.5381 0.0000 17.2203 0.0000
# 6 0.0000 0.0000 0.0000 13.5236 0.0000 14.2611
#
#
#
# Elastic Compliance Matrix: (Units=1/GPa)
#
#
# Indices 1 2 3 4 5 6 
#
# 1 0.022070 0.006189 -0.002159 0.000000 -0.003527 0.000000
# 2 0.006189 0.033758 -0.027813 0.000000 -0.007791 0.000000
# 3 -0.002159 -0.027813 0.040807 0.000000 0.000502 0.000000
# 4 0.000000 0.000000 0.000000 -0.022076 0.000000 0.020934
# 5 -0.003527 -0.007791 0.000502 0.000000 0.061887 0.000000
# 6 0.000000 0.000000 0.000000 0.020934 0.000000 0.050269
#
#
# Mechanical properties :
#
#
# Convention : Reuss Voigt Hill
#
# Bulk Modulus (GPa) = 20.37922 26.82405 23.60163
# Shear Modulus (GPa) = 19.94902 10.20670 15.07786
#
# Velocity S-wave (km/s) = 3.35592 2.40045 2.91756
# Velocity P-wave (km/s) = 5.14988 4.77769 4.96727
#
# Compressibility (1/GPa) = 0.04906959
#
# Stress axis : x y z
#
# Youngs Moduli (GPa) = 45.30984 29.62277 24.50537
#
# Poissons Ratio (x) = -0.18334 0.05291
# Poissons Ratio (y) = -0.28043 0.68157
# Poissons Ratio (z) = 0.09783 0.82389
#
# Static dielectric constant tensor:
#      x y z
#    x 1.615460 0.000000 -0.002750 
#    y 0.000000 1.576500 0.000000 
#    z -0.002750 0.000000 1.587800 
# 
# From -- ./inp_files/354969.got.cif
#   From: 2010.05.17/outbox.cif.g08.bks.cpg/sg12_178_cif.got.tgz:354969.got - 2010.06.03 13:09:07.
