data_PCOD9195641
_publ_section_title
;
Structure prediction by ZEFSAII (Michael W. Deem and Ramdas Pophale) SiO2 
 PCOD9195641
Probable space group: C 2/M
;
_chemical_formula_sum "Si O2"
_cell_formula_units_Z 58
_cell_length_a 20.226399
_cell_length_b 8.116025
_cell_length_c 13.438162
_cell_angle_alpha 90.000000
_cell_angle_beta 92.485068
_cell_angle_gamma 90.000000
_cell_volume 2203.906656
_symmetry_space_group_name_H-M "C 2/M"
_symmetry_group_IT_number 12
_symmetry_cell_setting 'monoclinic'
loop_
_space_group_symop_operation_xyz
x,y,z
-x,y,-z
-x,-y,-z
x,-y,z
1/2+x,1/2+y,z
1/2-x,1/2+y,-z
1/2-x,1/2-y,-z
1/2+x,1/2-y,z
loop_
_atom_site_type_symbol
_atom_site_label
_atom_site_fract_x
_atom_site_fract_y
_atom_site_fract_z
Si Si1 0.737289 0.303800 0.113184
Si Si2 0.497087 0.815300 0.289628
Si Si3 0.878015 0.183711 0.163365
Si Si4 0.588273 0.307131 0.070332
Si Si5 0.229731 0.698490 0.610897
Si Si6 0.908124 0.807018 0.453716
Si Si7 0.000000 0.500000 0.000000
Si Si8 0.630511 0.304083 0.329540
O O1 0.743542 0.500000 0.122431
O O2 0.801420 0.230826 0.172604
O O3 0.750000 0.250000 0.000000
O O4 0.659554 0.269863 0.127310
O O5 0.433769 0.797906 0.214516
O O6 0.468340 0.762013 0.394525
O O7 0.562959 0.717927 0.263109
O O8 0.519626 0.000000 0.296250
O O9 0.891183 0.185732 0.046163
O O10 0.891232 0.000000 0.202324
O O11 0.566554 0.500000 0.088868
O O12 0.539895 0.149016 0.065135
O O13 0.222038 0.500000 0.618509
O O14 0.250000 0.750000 0.500000
O O15 0.157731 0.776887 0.616347
O O16 0.293861 0.755875 0.678108
O O17 0.891677 0.738460 0.562100
O O18 0.919073 0.000000 0.466852
O O19 0.639737 0.500000 0.337161
#
# Coordination Sequence:
#
# PCOD9195641 Si02
#       8
#     8   8   8   8   8   8   2   8
#     4   9  17  31  56  85 113 139 181 231 268 318
#     4  12  24  34  53  81 112 146 187 237 289 347
#     4  10  21  37  59  81 113 147 186 236 285 339
#     4   9  21  37  58  92 120 153 193 234 281 332
#     4   9  17  31  53  77 102 135 175 223 277 334
#     4  10  20  35  55  78 108 143 187 239 289 335
#     4  12  22  32  68  86 128 160 184 238 266 354
#     4   9  19  35  54  77 107 146 187 233 287 344
#
# _framework density 26.316904999999998
#
# number of rings (size 3 to 8) (size 9 to 14) (size 15 to 20)
#    0.000    2.207    0.000    5.172    5.793    4.966 
#    0.000    0.000    3.034    0.000    0.000    0.000 
#    0.000    0.000    0.000    0.000    0.000    0.000 
#
# Total GULP energy -161945.170093 kJ/mol
# GULP energy per Si atom -5584.316210 kJ/mol
# Density = 2.625701 g / cm^3
# Si number density = 26.316905 Si / 1000 Ang^3
#
#
#
# Elastic Constant Matrix: (Units=GPa)
#
#
# Indices 1 2 3 4 5 6 
#
# 1 194.7762 35.4029 18.0691 0.0000 12.8653 0.0000
# 2 35.4029 99.3160 13.2890 0.0000 1.7685 0.0000
# 3 18.0691 13.2890 80.4870 0.0000 37.7245 0.0000
# 4 0.0000 0.0000 0.0000 29.1898 0.0000 12.1649
# 5 12.8653 1.7685 37.7245 0.0000 52.9298 0.0000
# 6 0.0000 0.0000 0.0000 12.1649 0.0000 40.3214
#
#
#
# Elastic Compliance Matrix: (Units=1/GPa)
#
#
# Indices 1 2 3 4 5 6 
#
# 1 0.005589 -0.001909 -0.000500 0.000000 -0.000939 0.000000
# 2 -0.001909 0.011008 -0.002153 0.000000 0.001631 0.000000
# 3 -0.000500 -0.002153 0.019223 0.000000 -0.013507 0.000000
# 4 0.000000 0.000000 0.000000 0.039185 0.000000 -0.011822
# 5 -0.000939 0.001631 -0.013507 0.000000 0.028694 0.000000
# 6 0.000000 0.000000 0.000000 -0.011822 0.000000 0.028367
#
#
# Mechanical properties :
#
#
# Convention : Reuss Voigt Hill
#
# Bulk Modulus (GPa) = 37.45772 56.45568 46.95670
# Shear Modulus (GPa) = 33.31327 45.00942 39.16135
#
# Velocity S-wave (km/s) = 3.56174 4.14005 3.86173
# Velocity P-wave (km/s) = 5.58381 6.65974 6.14536
#
# Compressibility (1/GPa) = 0.02669677
#
# Stress axis : x y z
#
# Youngs Moduli (GPa) = 178.90962 90.83948 52.02099
#
# Poissons Ratio (x) = 0.17340 0.02599
# Poissons Ratio (y) = 0.34152 0.11203
# Poissons Ratio (z) = 0.08940 0.19562
#
# Static dielectric constant tensor:
#      x y z
#    x 1.785910 0.000000 0.165250 
#    y 0.000000 1.960820 0.000000 
#    z 0.165250 0.000000 2.105910 
# 
# From -- ./inp_files/281495.got.cif
#   From: 2010.05.17/outbox.cif.g08.bks.cpg/sg12_141_cif.got.tgz:281495.got - 2010.06.03 13:09:07.
