data_PCOD9195680
_publ_section_title
;
Structure prediction by ZEFSAII (Michael W. Deem and Ramdas Pophale) SiO2 
 PCOD9195680
Probable space group: C 2/M
;
_chemical_formula_sum "Si O2"
_cell_formula_units_Z 64
_cell_length_a 18.665685
_cell_length_b 7.799032
_cell_length_c 31.453925
_cell_angle_alpha 90.000000
_cell_angle_beta 137.660223
_cell_angle_gamma 90.000000
_cell_volume 3083.995524
_symmetry_space_group_name_H-M "C 2/M"
_symmetry_group_IT_number 12
_symmetry_cell_setting 'monoclinic'
loop_
_space_group_symop_operation_xyz
x,y,z
-x,y,-z
-x,-y,-z
x,-y,z
1/2+x,1/2+y,z
1/2-x,1/2+y,-z
1/2-x,1/2-y,-z
1/2+x,1/2-y,z
loop_
_atom_site_type_symbol
_atom_site_label
_atom_site_fract_x
_atom_site_fract_y
_atom_site_fract_z
Si Si1 0.273092 0.205155 0.187746
Si Si2 0.061962 0.207729 0.813738
Si Si3 0.753625 0.301004 0.572829
Si Si4 0.534943 0.289805 0.062478
Si Si5 0.590797 0.296495 0.432116
Si Si6 0.176000 0.200420 0.304475
Si Si7 0.128604 0.793785 0.936634
Si Si8 0.651537 0.208382 0.686919
O O1 0.353332 0.241469 0.184679
O O2 0.154247 0.268725 0.125690
O O3 0.319139 0.268989 0.252797
O O4 0.264196 0.000000 0.188016
O O5 0.095824 0.268548 0.875444
O O6 0.943362 0.272084 0.750757
O O7 0.060652 0.000000 0.813606
O O8 0.734281 0.500000 0.573907
O O9 0.653884 0.233056 0.501586
O O10 0.853596 0.284612 0.584770
O O11 0.778970 0.213859 0.628341
O O12 0.534974 0.500000 0.062582
O O13 0.451261 0.232457 0.061572
O O14 0.500000 0.236001 0.000000
O O15 0.610988 0.500000 0.438188
O O16 0.466206 0.263896 0.377826
O O17 0.259794 0.271965 0.307347
O O18 0.165613 0.000000 0.288940
O O19 0.119462 0.000000 0.931922
O O20 0.250000 0.750000 0.000000
O O21 0.651347 0.000000 0.686731
#
# Coordination Sequence:
#
# PCOD9195680 Si02
#       8
#     8   8   8   8   8   8   8   8
#     4  10  20  35  56  80 105 137 181 225 262 310
#     4  10  21  36  54  78 109 142 175 216 269 322
#     4  10  21  37  57  81 108 140 181 225 267 318
#     4   9  17  31  53  78 103 135 175 215 256 306
#     4  10  21  37  57  80 108 142 179 222 272 323
#     4  10  21  37  56  79 110 146 180 218 271 328
#     4  10  20  35  55  79 108 140 175 217 264 314
#     4  10  21  36  55  80 109 141 179 224 270 320
#
# _framework density 20.752300000000002
#
# number of rings (size 3 to 8) (size 9 to 14) (size 15 to 20)
#    0.000    2.125    0.000    3.000    0.000   10.000 
#    0.000    3.125    0.000    5.250    0.000    0.000 
#    0.000    0.000    0.000    0.000    0.000    0.000 
#
# Total GULP energy -178781.808292 kJ/mol
# GULP energy per Si atom -5586.931509 kJ/mol
# Density = 2.070507 g / cm^3
# Si number density = 20.752300 Si / 1000 Ang^3
#
#
#
# Elastic Constant Matrix: (Units=GPa)
#
#
# Indices 1 2 3 4 5 6 
#
# 1 188.0953 -9.2686 121.6702 -0.0001 9.2755 0.0002
# 2 -9.2686 22.9363 -3.4106 -0.0003 1.4724 0.0005
# 3 121.6702 -3.4106 171.0183 0.0000 9.4444 0.0000
# 4 -0.0001 -0.0003 0.0000 13.7783 0.0000 4.3463
# 5 9.2755 1.4724 9.4444 0.0000 40.0639 -0.0001
# 6 0.0002 0.0005 0.0000 4.3463 -0.0001 24.8391
#
#
#
# Elastic Compliance Matrix: (Units=1/GPa)
#
#
# Indices 1 2 3 4 5 6 
#
# 1 0.010076 0.003071 -0.007064 0.000000 -0.000780 0.000000
# 2 0.003071 0.044799 -0.001177 0.000001 -0.002080 -0.000001
# 3 -0.007064 -0.001177 0.010899 0.000000 -0.000891 0.000000
# 4 0.000000 0.000001 0.000000 0.076818 0.000000 -0.013441
# 5 -0.000780 -0.002080 -0.000891 0.000000 0.025427 0.000000
# 6 0.000000 -0.000001 0.000000 -0.013441 0.000000 0.042611
#
#
# Mechanical properties :
#
#
# Convention : Reuss Voigt Hill
#
# Bulk Modulus (GPa) = 18.03942 66.67020 42.35481
# Shear Modulus (GPa) = 20.88155 33.94020 27.41087
#
# Velocity S-wave (km/s) = 3.17555 4.04851 3.63831
# Velocity P-wave (km/s) = 4.70713 7.35189 6.17282
#
# Compressibility (1/GPa) = 0.05543415
#
# Stress axis : x y z
#
# Youngs Moduli (GPa) = 99.24994 22.32208 91.75492
#
# Poissons Ratio (x) = -0.06856 0.64815
# Poissons Ratio (y) = -0.30482 0.10797
# Poissons Ratio (z) = 0.70109 0.02627
#
# Static dielectric constant tensor:
#      x y z
#    x 1.695270 0.000000 -0.000360 
#    y 0.000000 1.779590 0.000000 
#    z -0.000360 0.000000 1.719580 
# 
# From -- ./inp_files/378477.got.cif
#   From: 2010.05.17/outbox.cif.g08.bks.cpg/sg12_190_cif.got.tgz:378477.got - 2010.06.03 13:09:07.
