data_PCOD9195189
_publ_section_title
;
Structure prediction by ZEFSAII (Michael W. Deem and Ramdas Pophale) SiO2 
 PCOD9195189
Probable space group: C 2/M
;
_chemical_formula_sum "Si O2"
_cell_formula_units_Z 56
_cell_length_a 25.079595
_cell_length_b 22.166575
_cell_length_c 5.234038
_cell_angle_alpha 90.000000
_cell_angle_beta 75.921395
_cell_angle_gamma 90.000000
_cell_volume 2822.351599
_symmetry_space_group_name_H-M "C 2/M"
_symmetry_group_IT_number 12
_symmetry_cell_setting 'monoclinic'
loop_
_space_group_symop_operation_xyz
x,y,z
-x,y,-z
-x,-y,-z
x,-y,z
1/2+x,1/2+y,z
1/2-x,1/2+y,-z
1/2-x,1/2-y,-z
1/2+x,1/2-y,z
loop_
_atom_site_type_symbol
_atom_site_label
_atom_site_fract_x
_atom_site_fract_y
_atom_site_fract_z
Si Si1 0.113969 0.430219 0.403481
Si Si2 0.265665 0.930871 0.559035
Si Si3 0.047843 0.335633 0.760181
Si Si4 0.146641 0.672161 0.020606
Si Si5 0.619352 0.704102 0.225728
Si Si6 0.948488 0.199415 0.211321
Si Si7 0.264090 0.360104 0.895256
O O1 0.099617 0.500000 0.381956
O O2 0.167497 0.427742 0.526534
O O3 0.063440 0.387683 0.544329
O O4 0.138122 0.395448 0.132023
O O5 0.240278 0.910021 0.321631
O O6 0.251759 0.000000 0.633922
O O7 0.245221 0.888455 0.813464
O O8 0.030100 0.266641 0.727432
O O9 0.105205 0.323672 0.836739
O O10 0.000000 0.359667 0.000000
O O11 0.127077 0.723202 0.244447
O O12 0.210887 0.681764 0.898164
O O13 0.579070 0.678271 0.492051
O O14 0.678551 0.673917 0.182429
O O15 0.596646 0.697810 0.963431
O O16 0.000000 0.170486 0.000000
#
# Coordination Sequence:
#
# PCOD9195189 Si02
#       7
#     8   8   8   8   8   8   8
#     4  10  20  35  52  72 101 146 198 242 283 329
#     4  10  21  37  57  80 116 153 184 227 283 335
#     4  10  20  35  52  71 101 146 197 241 281 330
#     4  10  21  36  50  77 111 147 182 242 301 329
#     4  11  21  35  58  85 115 144 188 231 279 343
#     4  10  21  37  57  80 115 154 184 226 283 334
#     4  11  21  35  58  86 113 145 188 230 281 342
#
# _framework density 19.841609999999999
#
# number of rings (size 3 to 8) (size 9 to 14) (size 15 to 20)
#    0.000    1.714    2.857    2.143    0.000    2.000 
#    0.000    5.000    0.000    0.000    0.000    0.000 
#    0.000   40.000    0.000    0.000    0.000    0.000 
#
# Total GULP energy -156001.859187 kJ/mol
# GULP energy per Si atom -5571.494971 kJ/mol
# Density = 1.979645 g / cm^3
# Si number density = 19.841610 Si / 1000 Ang^3
#
#
#
# Elastic Constant Matrix: (Units=GPa)
#
#
# Indices 1 2 3 4 5 6 
#
# 1 62.8293 4.7417 17.5997 0.0000 2.8339 0.0000
# 2 4.7417 19.9449 8.2128 0.0000 -0.0165 0.0000
# 3 17.5997 8.2128 87.5400 0.0000 -4.4615 0.0000
# 4 0.0000 0.0000 0.0000 29.3729 0.0000 -4.0802
# 5 2.8339 -0.0165 -4.4615 0.0000 32.6428 0.0000
# 6 0.0000 0.0000 0.0000 -4.0802 0.0000 14.4851
#
#
#
# Elastic Compliance Matrix: (Units=1/GPa)
#
#
# Indices 1 2 3 4 5 6 
#
# 1 0.017130 -0.002720 -0.003287 0.000000 -0.001938 0.000000
# 2 -0.002720 0.052599 -0.004405 0.000000 -0.000339 0.000000
# 3 -0.003287 -0.004405 0.012600 0.000000 0.002005 0.000000
# 4 0.000000 0.000000 0.000000 0.035431 0.000000 0.009980
# 5 -0.001938 -0.000339 0.002005 0.000000 0.031077 0.000000
# 6 0.000000 0.000000 0.000000 0.009980 0.000000 0.071848
#
#
# Mechanical properties :
#
#
# Convention : Reuss Voigt Hill
#
# Bulk Modulus (GPa) = 16.25955 25.71364 20.98659
# Shear Modulus (GPa) = 19.08321 24.61748 21.85035
#
# Velocity S-wave (km/s) = 3.10462 3.52618 3.32209
# Velocity P-wave (km/s) = 4.58955 5.43748 5.03141
#
# Compressibility (1/GPa) = 0.06150233
#
# Stress axis : x y z
#
# Youngs Moduli (GPa) = 58.37805 19.01191 79.36660
#
# Poissons Ratio (x) = 0.05172 0.26091
# Poissons Ratio (y) = 0.15881 0.34962
# Poissons Ratio (z) = 0.19191 0.08375
#
# Static dielectric constant tensor:
#      x y z
#    x 1.753430 0.000000 0.002110 
#    y 0.000000 1.709880 0.000000 
#    z 0.002110 0.000000 1.767080 
# 
# From -- ./inp_files/21607.got.cif
#   From: 2010.05.17/outbox.cif.g08.bks.cpg/sg12_11_cif.got.tgz:21607.got - 2010.06.03 13:09:07.
