data_PCOD9195650
_publ_section_title
;
Structure prediction by ZEFSAII (Michael W. Deem and Ramdas Pophale) SiO2 
 PCOD9195650
Probable space group: C 2/M
;
_chemical_formula_sum "Si O2"
_cell_formula_units_Z 40
_cell_length_a 9.552702
_cell_length_b 26.299561
_cell_length_c 8.250115
_cell_angle_alpha 90.000000
_cell_angle_beta 89.150221
_cell_angle_gamma 90.000000
_cell_volume 2072.463848
_symmetry_space_group_name_H-M "C 2/M"
_symmetry_group_IT_number 12
_symmetry_cell_setting 'monoclinic'
loop_
_space_group_symop_operation_xyz
x,y,z
-x,y,-z
-x,-y,-z
x,-y,z
1/2+x,1/2+y,z
1/2-x,1/2+y,-z
1/2-x,1/2-y,-z
1/2+x,1/2-y,z
loop_
_atom_site_type_symbol
_atom_site_label
_atom_site_fract_x
_atom_site_fract_y
_atom_site_fract_z
Si Si1 0.764688 0.362329 0.696295
Si Si2 0.047380 0.940590 0.812491
Si Si3 0.051202 0.783406 0.813515
Si Si4 0.661145 0.361789 0.330018
Si Si5 0.947855 0.664780 0.185245
O O1 0.692338 0.411103 0.779601
O O2 0.696976 0.313107 0.786557
O O3 0.714274 0.360480 0.512197
O O4 0.930380 0.360221 0.710206
O O5 0.933218 0.910758 0.706943
O O6 0.055978 0.000000 0.774203
O O7 0.000000 0.934552 0.000000
O O8 0.937551 0.813611 0.708640
O O9 0.064311 0.724472 0.770879
O O10 0.000000 0.787685 0.000000
O O11 0.797144 0.359780 0.214279
O O12 0.000000 0.661213 0.000000
#
# Coordination Sequence:
#
# PCOD9195650 Si02
#       5
#     8   8   8   8   8
#     4  11  22  35  55  83 113 143 179 226 273 319
#     4  10  21  40  64  83 103 138 181 222 268 327
#     4  10  20  35  55  78 109 152 191 220 259 316
#     4  11  22  35  55  83 113 143 179 226 273 319
#     4  11  22  36  54  78 113 151 185 223 265 316
#
# _framework density 19.300699000000002
#
# number of rings (size 3 to 8) (size 9 to 14) (size 15 to 20)
#    0.000    1.400    0.000    9.000    0.000    9.600 
#    0.000    1.000    0.000    6.000    0.000    0.000 
#    0.000    0.000    0.000    0.000    0.000    0.000 
#
# Total GULP energy -111876.257371 kJ/mol
# GULP energy per Si atom -5593.812869 kJ/mol
# Density = 1.925677 g / cm^3
# Si number density = 19.300699 Si / 1000 Ang^3
#
#
#
# Elastic Constant Matrix: (Units=GPa)
#
#
# Indices 1 2 3 4 5 6 
#
# 1 86.8705 20.4191 -13.2444 0.0000 -3.3436 0.0000
# 2 20.4191 102.6346 16.1774 0.0000 0.3524 0.0000
# 3 -13.2444 16.1774 46.4268 0.0000 6.5848 0.0000
# 4 0.0000 0.0000 0.0000 -27.5287 0.0000 12.0024
# 5 -3.3436 0.3524 6.5848 0.0000 37.5700 0.0000
# 6 0.0000 0.0000 0.0000 12.0024 0.0000 -3.0428
#
#
#
# Elastic Compliance Matrix: (Units=1/GPa)
#
#
# Indices 1 2 3 4 5 6 
#
# 1 0.013054 -0.003362 0.004847 0.000000 0.000344 0.000000
# 2 -0.003362 0.011186 -0.004922 0.000000 0.000459 0.000000
# 3 0.004847 -0.004922 0.025196 0.000000 -0.003938 0.000000
# 4 0.000000 0.000000 0.000000 0.050466 0.000000 0.199065
# 5 0.000344 0.000459 -0.003938 0.000000 0.027334 0.000000
# 6 0.000000 0.000000 0.000000 0.199065 0.000000 0.456575
#
#
# Mechanical properties :
#
#
# Convention : Reuss Voigt Hill
#
# Bulk Modulus (GPa) = 23.49580 31.40401 27.44991
# Shear Modulus (GPa) = 8.26621 15.57170 11.91895
#
# Velocity S-wave (km/s) = 2.07175 2.84349 2.48773
# Velocity P-wave (km/s) = 4.23354 5.20450 4.74393
#
# Compressibility (1/GPa) = 0.04256080
#
# Stress axis : x y z
#
# Youngs Moduli (GPa) = 76.60581 89.39380 39.68945
#
# Poissons Ratio (x) = 0.30056 -0.19236
# Poissons Ratio (y) = 0.25756 0.19536
# Poissons Ratio (z) = -0.37129 0.44001
#
# Static dielectric constant tensor:
#      x y z
#    x 1.665620 0.000000 -0.005870 
#    y 0.000000 1.637630 0.000000 
#    z -0.005870 0.000000 1.696840 
# 
# From -- ./inp_files/40422.got.cif
#   From: 2010.05.17/outbox.cif.g08.bks.cpg/sg12_21_cif.got.tgz:40422.got - 2010.06.03 13:09:07.
