data_PCOD9195214
_publ_section_title
;
Structure prediction by ZEFSAII (Michael W. Deem and Ramdas Pophale) SiO2 
 PCOD9195214
Probable space group: C 2/M
;
_chemical_formula_sum "Si O2"
_cell_formula_units_Z 56
_cell_length_a 34.421547
_cell_length_b 19.298906
_cell_length_c 9.574403
_cell_angle_alpha 90.000000
_cell_angle_beta 153.373978
_cell_angle_gamma 90.000000
_cell_volume 2850.446217
_symmetry_space_group_name_H-M "C 2/M"
_symmetry_group_IT_number 12
_symmetry_cell_setting 'monoclinic'
loop_
_space_group_symop_operation_xyz
x,y,z
-x,y,-z
-x,-y,-z
x,-y,z
1/2+x,1/2+y,z
1/2-x,1/2+y,-z
1/2-x,1/2-y,-z
1/2+x,1/2-y,z
loop_
_atom_site_type_symbol
_atom_site_label
_atom_site_fract_x
_atom_site_fract_y
_atom_site_fract_z
Si Si1 0.927745 0.417129 0.164757
Si Si2 0.534085 0.881689 0.252278
Si Si3 0.269195 0.418537 0.387421
Si Si4 0.287848 0.859290 0.068641
Si Si5 0.161785 0.205785 0.874135
Si Si6 0.490849 0.276319 0.817339
Si Si7 0.664081 0.702290 0.211232
O O1 0.936403 0.500000 0.191899
O O2 0.000000 0.386518 0.500000
O O3 0.955181 0.391173 0.103380
O O4 0.831478 0.402091 0.901536
O O5 0.625164 0.903106 0.615471
O O6 0.548354 0.799715 0.276088
O O7 0.500000 0.913909 0.000000
O O8 0.285112 0.500000 0.457869
O O9 0.320835 0.370085 0.659499
O O10 0.274615 0.397610 0.242100
O O11 0.312884 0.786393 0.073539
O O12 0.238903 0.839261 0.053972
O O13 0.076629 0.190518 0.507693
O O14 0.148021 0.194754 0.994088
O O15 0.500000 0.310544 0.000000
O O16 0.581716 0.267190 0.029471
O O17 0.750000 0.750000 0.500000
#
# Coordination Sequence:
#
# PCOD9195214 Si02
#       7
#     8   8   8   8   8   8   8
#     4  10  20  35  52  75 111 158 203 237 278 351
#     4  10  21  31  54  84 119 152 196 242 299 349
#     4  11  23  39  59  87 124 165 205 246 303 371
#     4  10  20  37  57  84 121 160 196 252 298 365
#     4  10  22  37  61  89 119 150 204 255 307 347
#     4  10  22  38  59  89 122 151 194 253 311 362
#     4  12  23  37  65  92 121 159 202 255 308 357
#
# _framework density 19.646048
#
# number of rings (size 3 to 8) (size 9 to 14) (size 15 to 20)
#    0.000    1.571    2.857    2.143    8.000    0.286 
#    0.000    0.714    0.000    5.571    0.000    0.000 
#    0.000    0.000    0.000    0.000    0.000    0.000 
#
# Total GULP energy -156197.768653 kJ/mol
# GULP energy per Si atom -5578.491738 kJ/mol
# Density = 1.960133 g / cm^3
# Si number density = 19.646048 Si / 1000 Ang^3
#
#
#
# Elastic Constant Matrix: (Units=GPa)
#
#
# Indices 1 2 3 4 5 6 
#
# 1 156.2495 -227.9289 9.0553 0.0000 54.4452 0.0000
# 2 -227.9289 2614.5449 321.0853 0.0000 -864.6665 0.0000
# 3 9.0553 321.0853 112.7505 0.0000 -116.7943 0.0000
# 4 0.0000 0.0000 0.0000 30.0248 0.0000 5.0909
# 5 54.4452 -864.6665 -116.7943 0.0000 328.9785 0.0000
# 6 0.0000 0.0000 0.0000 5.0909 0.0000 15.7698
#
#
#
# Elastic Compliance Matrix: (Units=1/GPa)
#
#
# Indices 1 2 3 4 5 6 
#
# 1 0.008943 0.002385 -0.004033 0.000000 0.003357 0.000000
# 2 0.002385 0.003585 -0.001659 0.000000 0.008439 0.000000
# 3 -0.004033 -0.001659 0.015962 0.000000 0.001973 0.000000
# 4 0.000000 0.000000 0.000000 0.035234 0.000000 -0.011375
# 5 0.003357 0.008439 0.001973 0.000000 0.025365 0.000000
# 6 0.000000 0.000000 0.000000 -0.011375 0.000000 0.067084
#
#
# Mechanical properties :
#
#
# Convention : Reuss Voigt Hill
#
# Bulk Modulus (GPa) = 45.71166 343.10760 194.40963
# Shear Modulus (GPa) = 29.39778 260.37684 144.88731
#
# Velocity S-wave (km/s) = 3.87249 11.52483 8.59703
# Velocity P-wave (km/s) = 6.58126 18.76484 14.06116
#
# Compressibility (1/GPa) = 0.02187626
#
# Stress axis : x y z
#
# Youngs Moduli (GPa) = 111.81345 278.93690 62.64722
#
# Poissons Ratio (x) = -0.66536 0.25267
# Poissons Ratio (y) = -0.26671 0.10396
# Poissons Ratio (z) = 0.45097 0.46287
#
# Static dielectric constant tensor:
#      x y z
#    x 1.721890 0.000000 -0.040620 
#    y 0.000000 1.687510 0.000000 
#    z -0.040620 0.000000 1.750790 
# 
# From -- ./inp_files/75864.got.cif
#   From: 2010.05.17/outbox.cif.g08.bks.cpg/sg12_38_cif.got.tgz:75864.got - 2010.06.03 13:09:07.
