data_PCOD9195022
_publ_section_title
;
Structure prediction by ZEFSAII (Michael W. Deem and Ramdas Pophale) SiO2 
 PCOD9195022
Probable space group: C 2/M
;
_chemical_formula_sum "Si O2"
_cell_formula_units_Z 56
_cell_length_a 19.939177
_cell_length_b 15.376315
_cell_length_c 8.496259
_cell_angle_alpha 90.000000
_cell_angle_beta 59.685141
_cell_angle_gamma 90.000000
_cell_volume 2248.698398
_symmetry_space_group_name_H-M "C 2/M"
_symmetry_group_IT_number 12
_symmetry_cell_setting 'monoclinic'
loop_
_space_group_symop_operation_xyz
x,y,z
-x,y,-z
-x,-y,-z
x,-y,z
1/2+x,1/2+y,z
1/2-x,1/2+y,-z
1/2-x,1/2-y,-z
1/2+x,1/2-y,z
loop_
_atom_site_type_symbol
_atom_site_label
_atom_site_fract_x
_atom_site_fract_y
_atom_site_fract_z
Si Si1 0.875018 0.402909 0.410114
Si Si2 0.773232 0.160663 0.827718
Si Si3 0.439447 0.404239 0.934180
Si Si4 0.304150 0.410273 0.482439
Si Si5 0.366030 0.898613 0.798516
Si Si6 0.143719 0.245038 0.774532
Si Si7 0.058353 0.764430 0.290580
O O1 0.908010 0.500000 0.340136
O O2 0.782624 0.408653 0.484397
O O3 0.877697 0.387060 0.595631
O O4 0.899757 0.326151 0.259335
O O5 0.799126 0.087722 0.675162
O O6 0.717149 0.217919 0.782547
O O7 0.852393 0.208838 0.777383
O O8 0.720030 0.125649 0.033424
O O9 0.406424 0.500000 0.933129
O O10 0.476382 0.351756 0.746405
O O11 0.500000 0.416153 0.000000
O O12 0.388979 0.324810 0.062793
O O13 0.342973 0.500000 0.376958
O O14 0.339185 0.319461 0.389527
O O15 0.426034 0.830381 0.807117
O O16 0.380036 0.000000 0.817603
O O17 0.000000 0.746406 0.500000
#
# Coordination Sequence:
#
# PCOD9195022 Si02
#       7
#     8   8   8   8   8   8   8
#     4   9  20  36  63 102 139 173 217 280 354 415
#     4  11  23  43  69 107 141 183 241 303 357 414
#     4  11  28  50  71 100 140 190 241 287 356 437
#     4  10  20  34  59  98 138 176 219 283 353 413
#     4  11  23  43  73 107 142 182 236 299 357 420
#     4  11  21  42  70 100 139 181 237 297 349 416
#     4  12  28  48  71 101 147 194 239 294 364 430
#
# _framework density 24.903295
#
# number of rings (size 3 to 8) (size 9 to 14) (size 15 to 20)
#    0.000    1.286    1.429    4.714    6.000    2.286 
#    0.000    0.000    0.000    0.857    0.000    0.000 
#    0.000    0.000    0.000    0.000    0.000    0.000 
#
# Total GULP energy -156141.413325 kJ/mol
# GULP energy per Si atom -5576.479047 kJ/mol
# Density = 2.484661 g / cm^3
# Si number density = 24.903295 Si / 1000 Ang^3
#
#
#
# Elastic Constant Matrix: (Units=GPa)
#
#
# Indices 1 2 3 4 5 6 
#
# 1 76.8579 46.0570 14.0432 0.0000 8.6048 0.0000
# 2 46.0570 233.3461 49.2134 0.0000 2.0377 0.0000
# 3 14.0432 49.2134 79.3257 0.0000 -0.4878 0.0000
# 4 0.0000 0.0000 0.0000 -37.7369 0.0000 -122.1154
# 5 8.6048 2.0377 -0.4878 0.0000 23.0882 0.0000
# 6 0.0000 0.0000 0.0000 -122.1154 0.0000 -241.8193
#
#
#
# Elastic Compliance Matrix: (Units=1/GPa)
#
#
# Indices 1 2 3 4 5 6 
#
# 1 0.015495 -0.002789 -0.001047 0.000000 -0.005551 0.000000
# 2 -0.002789 0.005438 -0.002877 0.000000 0.000499 0.000000
# 3 -0.001047 -0.002877 0.014582 0.000000 0.000952 0.000000
# 4 0.000000 0.000000 0.000000 0.041789 0.000000 -0.021103
# 5 -0.005551 0.000499 0.000952 0.000000 0.045357 0.000000
# 6 0.000000 0.000000 0.000000 -0.021103 0.000000 0.006521
#
#
# Mechanical properties :
#
#
# Convention : Reuss Voigt Hill
#
# Bulk Modulus (GPa) = 45.27007 67.57297 56.42152
# Shear Modulus (GPa) = 33.33936 -32.61252 0.36342
#
# Velocity S-wave (km/s) = 3.66287 -3.62272 0.38242
# Velocity P-wave (km/s) = 6.00888 3.11356 4.78544
#
# Compressibility (1/GPa) = 0.02208965
#
# Stress axis : x y z
#
# Youngs Moduli (GPa) = 64.53637 183.87661 68.57568
#
# Poissons Ratio (x) = 0.51285 0.07179
# Poissons Ratio (y) = 0.18000 0.19730
# Poissons Ratio (z) = 0.06756 0.52904
#
# Static dielectric constant tensor:
#      x y z
#    x 1.985500 0.000000 0.046460 
#    y 0.000000 2.072910 0.000000 
#    z 0.046460 0.000000 2.272620 
# 
# From -- ./inp_files/96798.got.cif
#   From: 2010.05.17/outbox.cif.g08.bks.cpg/sg12_49_cif.got.tgz:96798.got - 2010.06.03 13:09:07.
