data_PCOD9195669
_publ_section_title
;
Structure prediction by ZEFSAII (Michael W. Deem and Ramdas Pophale) SiO2 
 PCOD9195669
Probable space group: C 2/M
;
_chemical_formula_sum "Si O2"
_cell_formula_units_Z 40
_cell_length_a 27.326716
_cell_length_b 9.026518
_cell_length_c 19.497664
_cell_angle_alpha 90.000000
_cell_angle_beta 28.084338
_cell_angle_gamma 90.000000
_cell_volume 2264.121516
_symmetry_space_group_name_H-M "C 2/M"
_symmetry_group_IT_number 12
_symmetry_cell_setting 'monoclinic'
loop_
_space_group_symop_operation_xyz
x,y,z
-x,y,-z
-x,-y,-z
x,-y,z
1/2+x,1/2+y,z
1/2-x,1/2+y,-z
1/2-x,1/2-y,-z
1/2+x,1/2-y,z
loop_
_atom_site_type_symbol
_atom_site_label
_atom_site_fract_x
_atom_site_fract_y
_atom_site_fract_z
Si Si1 0.263643 0.324283 0.556252
Si Si2 0.437983 0.322327 0.448453
Si Si3 0.620795 0.674490 0.841232
Si Si4 0.705005 0.175682 0.262015
Si Si5 0.318455 0.677610 0.855480
O O1 0.264326 0.500000 0.547471
O O2 0.250000 0.250000 0.500000
O O3 0.368337 0.281498 0.468434
O O4 0.170910 0.272165 0.720048
O O5 0.427889 0.500000 0.471684
O O6 0.387606 0.241208 0.576271
O O7 0.558645 0.288409 0.288074
O O8 0.631533 0.500000 0.809993
O O9 0.689734 0.698267 0.824057
O O10 0.500000 0.706778 0.000000
O O11 0.711289 0.257404 0.181891
O O12 0.689937 0.000000 0.270802
O O13 0.306172 0.500000 0.871750
O O14 0.250000 0.750000 0.000000
#
# Coordination Sequence:
#
# PCOD9195669 Si02
#       5
#     8   8   8   8   8
#     4  10  20  35  55  79 107 138 176 218 260 308
#     4   9  20  38  57  76 103 142 179 212 257 315
#     4   9  19  36  56  78 107 142 176 211 257 313
#     4  10  20  35  57  82 106 136 176 218 259 308
#     4  11  23  38  55  77 107 140 175 216 264 313
#
# _framework density 17.666896999999999
#
# number of rings (size 3 to 8) (size 9 to 14) (size 15 to 20)
#    0.000    2.200    0.000    2.400    0.000    7.600 
#    0.000    8.000    0.000    0.000    0.000    0.000 
#    0.000    0.000    0.000    0.000    0.000    0.000 
#
# Total GULP energy -111661.675355 kJ/mol
# GULP energy per Si atom -5583.083768 kJ/mol
# Density = 1.762669 g / cm^3
# Si number density = 17.666897 Si / 1000 Ang^3
#
#
#
# Elastic Constant Matrix: (Units=GPa)
#
#
# Indices 1 2 3 4 5 6 
#
# 1 117.4043 70.7437 89.1090 0.0007 25.3862 -0.0004
# 2 70.7437 69.1624 72.4976 0.0008 9.8029 -0.0003
# 3 89.1090 72.4976 133.5792 0.0006 3.9635 0.0001
# 4 0.0007 0.0008 0.0006 36.2926 -0.0004 6.8699
# 5 25.3862 9.8029 3.9635 -0.0004 30.4306 0.0001
# 6 -0.0004 -0.0003 0.0001 6.8699 0.0001 34.2041
#
#
#
# Elastic Compliance Matrix: (Units=1/GPa)
#
#
# Indices 1 2 3 4 5 6 
#
# 1 0.032292 -0.019271 -0.010508 0.000000 -0.019362 0.000000
# 2 -0.019271 0.047363 -0.012924 0.000000 0.002502 0.000000
# 3 -0.010508 -0.012924 0.021209 0.000000 0.010167 0.000000
# 4 0.000000 0.000000 0.000000 0.028643 0.000001 -0.005753
# 5 -0.019362 0.002502 0.010167 0.000001 0.046884 -0.000001
# 6 0.000000 0.000000 0.000000 -0.005753 -0.000001 0.030392
#
#
# Mechanical properties :
#
#
# Convention : Reuss Voigt Hill
#
# Bulk Modulus (GPa) = 64.69515 87.20517 75.95016
# Shear Modulus (GPa) = 16.81573 26.03850 21.42712
#
# Velocity S-wave (km/s) = 3.08851 3.84325 3.48636
# Velocity P-wave (km/s) = 7.02975 8.31637 7.69998
#
# Compressibility (1/GPa) = 0.01545711
#
# Stress axis : x y z
#
# Youngs Moduli (GPa) = 30.96770 21.11346 47.15061
#
# Poissons Ratio (x) = 0.40688 0.49545
# Poissons Ratio (y) = 0.59678 0.60939
# Poissons Ratio (z) = 0.32541 0.27288
#
# Static dielectric constant tensor:
#      x y z
#    x 1.598290 0.000000 -0.020070 
#    y 0.000000 1.591490 0.000000 
#    z -0.020070 0.000000 1.564060 
# 
# From -- ./inp_files/151974.got.cif
#   From: 2010.05.17/outbox.cif.g08.bks.cpg/sg12_76_cif.got.tgz:151974.got - 2010.06.03 13:09:07.
