data_PCOD9195024
_publ_section_title
;
Structure prediction by ZEFSAII (Michael W. Deem and Ramdas Pophale) SiO2 
 PCOD9195024
Probable space group: C 2/M
;
_chemical_formula_sum "Si O2"
_cell_formula_units_Z 44
_cell_length_a 8.790452
_cell_length_b 17.498587
_cell_length_c 16.099688
_cell_angle_alpha 90.000000
_cell_angle_beta 124.807631
_cell_angle_gamma 90.000000
_cell_volume 2033.356460
_symmetry_space_group_name_H-M "C 2/M"
_symmetry_group_IT_number 12
_symmetry_cell_setting 'monoclinic'
loop_
_space_group_symop_operation_xyz
x,y,z
-x,y,-z
-x,-y,-z
x,-y,z
1/2+x,1/2+y,z
1/2-x,1/2+y,-z
1/2-x,1/2-y,-z
1/2+x,1/2-y,z
loop_
_atom_site_type_symbol
_atom_site_label
_atom_site_fract_x
_atom_site_fract_y
_atom_site_fract_z
Si Si1 0.500000 0.287159 0.000000
Si Si2 0.763485 0.297726 0.289492
Si Si3 0.646578 0.376088 0.703771
Si Si4 0.259763 0.340226 0.531112
Si Si5 0.145641 0.177184 0.874108
Si Si6 0.476757 0.086253 0.688866
O O1 0.670864 0.229356 0.076048
O O2 0.406425 0.336020 0.045406
O O3 0.851882 0.215594 0.308952
O O4 0.796910 0.333208 0.390495
O O5 0.546251 0.282730 0.212271
O O6 0.849444 0.356677 0.250785
O O7 0.451006 0.389765 0.597694
O O8 0.655561 0.388043 0.806113
O O9 0.827157 0.408414 0.715924
O O10 0.250000 0.250000 0.500000
O O11 0.135811 0.384019 0.426309
O O12 0.540614 0.000000 0.698455
#
# Coordination Sequence:
#
# PCOD9195024 Si02
#       6
#     4   8   8   8   8   8
#     4  10  20  34  60 102 136 142 196 278 330 354
#     4  11  21  37  60  87 127 166 214 253 312 377
#     4  11  21  37  60  87 127 166 214 253 312 377
#     4  11  21  35  57  87 119 171 218 256 304 358
#     4  10  21  34  57  95 131 155 190 263 331 370
#     4  12  26  39  60  94 131 169 218 271 305 356
#
# _framework density 21.639099000000002
#
# number of rings (size 3 to 8) (size 9 to 14) (size 15 to 20)
#    0.000    1.091    5.455    2.182    0.000    2.909 
#    0.000    2.727    0.000    0.000    0.000   12.727 
#    0.000    0.000    0.000    0.000    0.000    0.000 
#
# Total GULP energy -122545.628957 kJ/mol
# GULP energy per Si atom -5570.255862 kJ/mol
# Density = 2.158985 g / cm^3
# Si number density = 21.639099 Si / 1000 Ang^3
#
#
#
# Elastic Constant Matrix: (Units=GPa)
#
#
# Indices 1 2 3 4 5 6 
#
# 1 129.0849 9.8851 37.1694 0.0000 -4.0142 0.0000
# 2 9.8851 71.0696 -5.8406 0.0000 6.9347 0.0000
# 3 37.1694 -5.8406 80.3634 0.0000 6.7737 0.0000
# 4 0.0000 0.0000 0.0000 3.7297 0.0000 2.6576
# 5 -4.0142 6.9347 6.7737 0.0000 44.1913 0.0000
# 6 0.0000 0.0000 0.0000 2.6576 0.0000 14.0910
#
#
#
# Elastic Compliance Matrix: (Units=1/GPa)
#
#
# Indices 1 2 3 4 5 6 
#
# 1 0.009261 -0.001843 -0.004572 0.000000 0.001831 0.000000
# 2 -0.001843 0.014780 0.002164 0.000000 -0.002818 0.000000
# 3 -0.004572 0.002164 0.014972 0.000000 -0.003050 0.000000
# 4 0.000000 0.000000 0.000000 0.309743 0.000000 -0.058419
# 5 0.001831 -0.002818 -0.003050 0.000000 0.023705 0.000000
# 6 0.000000 0.000000 0.000000 -0.058419 0.000000 0.081985
#
#
# Mechanical properties :
#
#
# Convention : Reuss Voigt Hill
#
# Bulk Modulus (GPa) = 32.77323 40.32729 36.55026
# Shear Modulus (GPa) = 10.56818 28.35600 19.46209
#
# Velocity S-wave (km/s) = 2.21234 3.62388 3.00224
# Velocity P-wave (km/s) = 4.65877 6.01554 5.38010
#
# Compressibility (1/GPa) = 0.03051271
#
# Stress axis : x y z
#
# Youngs Moduli (GPa) = 107.97615 67.65975 66.78983
#
# Poissons Ratio (x) = 0.12467 0.30535
# Poissons Ratio (y) = 0.19895 -0.14453
# Poissons Ratio (z) = 0.49364 -0.14641
#
# Static dielectric constant tensor:
#      x y z
#    x 1.901770 0.000000 -0.013690 
#    y 0.000000 1.769900 0.000000 
#    z -0.013690 0.000000 1.895990 
# 
# From -- ./inp_files/257303.got.cif
#   From: 2010.05.17/outbox.cif.g08.bks.cpg/sg12_129_cif.got.tgz:257303.got - 2010.06.03 13:09:07.
