data_PCOD9195905
_publ_section_title
;
Structure prediction by ZEFSAII (Michael W. Deem and Ramdas Pophale) SiO2 
 PCOD9195905
Probable space group: C 2/M
;
_chemical_formula_sum "Si O2"
_cell_formula_units_Z 64
_cell_length_a 9.796145
_cell_length_b 17.343224
_cell_length_c 20.863426
_cell_angle_alpha 90.000000
_cell_angle_beta 134.681299
_cell_angle_gamma 90.000000
_cell_volume 2520.333374
_symmetry_space_group_name_H-M "C 2/M"
_symmetry_group_IT_number 12
_symmetry_cell_setting 'monoclinic'
loop_
_space_group_symop_operation_xyz
x,y,z
-x,y,-z
-x,-y,-z
x,-y,z
1/2+x,1/2+y,z
1/2-x,1/2+y,-z
1/2-x,1/2-y,-z
1/2+x,1/2-y,z
loop_
_atom_site_type_symbol
_atom_site_label
_atom_site_fract_x
_atom_site_fract_y
_atom_site_fract_z
Si Si1 0.226311 0.587090 0.163770
Si Si2 0.689895 0.410427 0.317946
Si Si3 0.434811 0.197880 0.075261
Si Si4 0.771142 0.209050 0.436673
Si Si5 0.223884 0.089664 0.093802
Si Si6 0.767390 0.301591 0.230061
Si Si7 0.785705 0.910600 0.532355
Si Si8 0.686777 0.339518 0.683280
O O1 0.170879 0.500000 0.127796
O O2 0.457461 0.592466 0.234067
O O3 0.199069 0.605082 0.230947
O O4 0.112151 0.658074 0.093401
O O5 0.743161 0.500000 0.332654
O O6 0.771788 0.363089 0.287325
O O7 0.757451 0.379184 0.409949
O O8 0.338327 0.120232 0.070415
O O9 0.562664 0.256397 0.160259
O O10 0.250000 0.250000 0.000000
O O11 0.750000 0.250000 0.500000
O O12 0.707771 0.201539 0.340934
O O13 0.000000 0.219662 0.500000
O O14 0.703163 0.125728 0.441434
O O15 0.275422 0.151070 0.166672
O O16 0.260199 0.000000 0.122307
O O17 0.000000 0.096404 0.000000
O O18 0.896238 0.230198 0.299146
O O19 0.012822 0.892357 0.601822
O O20 0.747152 0.000000 0.522397
#
# Coordination Sequence:
#
# PCOD9195905 Si02
#       8
#     8   8   8   8   8   8   8   8
#     4   9  19  37  58  82 114 145 185 243 295 344
#     4   9  18  34  57  84 115 151 192 238 291 351
#     4  11  23  38  58  83 109 146 190 241 298 354
#     4  10  20  35  55  85 123 159 200 247 296 354
#     4  11  24  42  60  83 117 153 194 243 298 365
#     4  11  22  36  60  85 116 152 194 243 293 357
#     4   9  18  33  58  87 120 156 199 248 296 347
#     4   9  19  32  54  89 111 151 191 242 290 341
#
# _framework density 25.393466
#
# number of rings (size 3 to 8) (size 9 to 14) (size 15 to 20)
#    0.000    2.125    1.250    2.625    5.250    2.750 
#    2.250    0.000    0.000    1.875    0.000    0.000 
#    0.000    0.000    0.000    0.000    0.000    0.000 
#
# Total GULP energy -178238.008051 kJ/mol
# GULP energy per Si atom -5569.937752 kJ/mol
# Density = 2.533567 g / cm^3
# Si number density = 25.393466 Si / 1000 Ang^3
#
#
#
# Elastic Constant Matrix: (Units=GPa)
#
#
# Indices 1 2 3 4 5 6 
#
# 1 29.8695 16.9767 4.3210 0.0000 20.0066 0.0000
# 2 16.9767 98.4096 16.3386 0.0000 1.0476 0.0000
# 3 4.3210 16.3386 68.3881 0.0000 7.1945 0.0000
# 4 0.0000 0.0000 0.0000 36.2361 0.0000 -13.7011
# 5 20.0066 1.0476 7.1945 0.0000 32.2546 0.0000
# 6 0.0000 0.0000 0.0000 -13.7011 0.0000 8.0603
#
#
#
# Elastic Compliance Matrix: (Units=1/GPa)
#
#
# Indices 1 2 3 4 5 6 
#
# 1 0.068368 -0.011838 0.003000 0.000000 -0.042691 0.000000
# 2 -0.011838 0.012633 -0.003071 0.000000 0.007617 0.000000
# 3 0.003000 -0.003071 0.015721 0.000000 -0.005267 0.000000
# 4 0.000000 0.000000 0.000000 0.077239 0.000000 0.131293
# 5 -0.042691 0.007617 -0.005267 0.000000 0.058411 0.000000
# 6 0.000000 0.000000 0.000000 0.131293 0.000000 0.347239
#
#
# Mechanical properties :
#
#
# Convention : Reuss Voigt Hill
#
# Bulk Modulus (GPa) = 13.71703 30.21555 21.96629
# Shear Modulus (GPa) = 7.96520 25.91226 16.93873
#
# Velocity S-wave (km/s) = 1.77300 3.19788 2.58553
# Velocity P-wave (km/s) = 3.09917 5.05570 4.19315
#
# Compressibility (1/GPa) = 0.07290209
#
# Stress axis : x y z
#
# Youngs Moduli (GPa) = 14.62674 79.16026 63.60986
#
# Poissons Ratio (x) = 0.93708 -0.19080
# Poissons Ratio (y) = 0.17315 0.19538
# Poissons Ratio (z) = -0.04387 0.24314
#
# Static dielectric constant tensor:
#      x y z
#    x 2.140860 0.000000 0.067810 
#    y 0.000000 2.126320 0.000000 
#    z 0.067810 0.000000 2.181590 
# 
# From -- ./inp_files/306232.got.cif
#   From: 2010.05.17/outbox.cif.g08.bks.cpg/sg12_154_cif.got.tgz:306232.got - 2010.06.03 13:09:07.
