data_PCOD9195425
_publ_section_title
;
Structure prediction by ZEFSAII (Michael W. Deem and Ramdas Pophale) SiO2 
 PCOD9195425
Probable space group: C 2/M
;
_chemical_formula_sum "Si O2"
_cell_formula_units_Z 48
_cell_length_a 14.522669
_cell_length_b 8.670564
_cell_length_c 21.819255
_cell_angle_alpha 90.000000
_cell_angle_beta 91.352953
_cell_angle_gamma 90.000000
_cell_volume 2746.708765
_symmetry_space_group_name_H-M "C 2/M"
_symmetry_group_IT_number 12
_symmetry_cell_setting 'monoclinic'
loop_
_space_group_symop_operation_xyz
x,y,z
-x,y,-z
-x,-y,-z
x,-y,z
1/2+x,1/2+y,z
1/2-x,1/2+y,-z
1/2-x,1/2-y,-z
1/2+x,1/2-y,z
loop_
_atom_site_type_symbol
_atom_site_label
_atom_site_fract_x
_atom_site_fract_y
_atom_site_fract_z
Si Si1 0.393476 0.814489 0.331753
Si Si2 0.754645 0.814099 0.097108
Si Si3 0.901316 0.185455 0.669458
Si Si4 0.750568 0.814876 0.567991
Si Si5 0.104916 0.313796 0.994534
Si Si6 0.242875 0.685671 0.238250
O O1 0.496383 0.751113 0.332314
O O2 0.338211 0.769092 0.392775
O O3 0.332348 0.748337 0.275269
O O4 0.393816 0.000000 0.328114
O O5 0.668079 0.766252 0.053397
O O6 0.744538 0.766167 0.167288
O O7 0.759019 0.000000 0.095871
O O8 0.844741 0.748737 0.065044
O O9 0.839982 0.231720 0.609271
O O10 0.845164 0.248543 0.726956
O O11 0.903424 0.000000 0.672135
O O12 0.750000 0.750000 0.500000
O O13 0.750863 0.000000 0.564678
O O14 0.105207 0.500000 0.992076
O O15 0.000000 0.261332 0.000000
O O16 0.241471 0.500000 0.241342
#
# Coordination Sequence:
#
# PCOD9195425 Si02
#       6
#     8   8   8   8   8   8
#     4  10  21  37  55  78 106 138 177 219 263 312
#     4   9  19  34  51  75 104 133 170 212 256 306
#     4  10  21  37  55  79 108 139 176 216 261 313
#     4   9  20  36  54  77 106 138 174 215 258 308
#     4   9  18  33  52  74 102 136 171 209 254 304
#     4  10  20  35  54  77 107 141 176 218 263 310
#
# _framework density 17.475460999999999
#
# number of rings (size 3 to 8) (size 9 to 14) (size 15 to 20)
#    0.000    2.500    0.000    2.500    0.000    7.667 
#    0.000    5.000    0.000    0.000    0.000    0.000 
#    0.000    0.000    0.000    0.000    0.000    0.000 
#
# Total GULP energy -133902.834430 kJ/mol
# GULP energy per Si atom -5579.284768 kJ/mol
# Density = 1.743569 g / cm^3
# Si number density = 17.475461 Si / 1000 Ang^3
#
#
#
# Elastic Constant Matrix: (Units=GPa)
#
#
# Indices 1 2 3 4 5 6 
#
# 1 182.4853 40.3965 91.7886 0.0000 -12.2670 0.0000
# 2 40.3965 37.9126 40.9241 0.0000 -2.4679 0.0000
# 3 91.7886 40.9241 180.3652 0.0000 -12.2306 0.0000
# 4 0.0000 0.0000 0.0000 30.7586 0.0000 -4.2148
# 5 -12.2670 -2.4679 -12.2306 0.0000 7.0615 0.0000
# 6 0.0000 0.0000 0.0000 -4.2148 0.0000 27.3212
#
#
#
# Elastic Compliance Matrix: (Units=1/GPa)
#
#
# Indices 1 2 3 4 5 6 
#
# 1 0.008612 -0.005980 -0.002440 0.000000 0.008645 0.000000
# 2 -0.005980 0.039103 -0.006353 0.000000 -0.007726 0.000000
# 3 -0.002440 -0.006353 0.008826 0.000000 0.008828 0.000000
# 4 0.000000 0.000000 0.000000 0.033213 0.000000 0.005124
# 5 0.008645 -0.007726 0.008828 0.000000 0.169222 0.000000
# 6 0.000000 0.000000 0.000000 0.005124 0.000000 0.037392
#
#
# Mechanical properties :
#
#
# Convention : Reuss Voigt Hill
#
# Bulk Modulus (GPa) = 37.04295 82.99797 60.02046
# Shear Modulus (GPa) = 14.92930 28.20518 21.56724
#
# Velocity S-wave (km/s) = 2.92601 4.02181 3.51685
# Velocity P-wave (km/s) = 5.71477 8.31647 7.13520
#
# Compressibility (1/GPa) = 0.02699569
#
# Stress axis : x y z
#
# Youngs Moduli (GPa) = 116.11854 25.57359 113.30263
#
# Poissons Ratio (x) = 0.15293 0.27641
# Poissons Ratio (y) = 0.69439 0.71980
# Poissons Ratio (z) = 0.28328 0.16247
#
# Static dielectric constant tensor:
#      x y z
#    x 1.573040 0.000000 0.006590 
#    y 0.000000 1.589580 0.000000 
#    z 0.006590 0.000000 1.577690 
# 
# From -- ./inp_files/307990.got.cif
#   From: 2010.05.17/outbox.cif.g08.bks.cpg/sg12_154_cif.got.tgz:307990.got - 2010.06.03 13:09:07.
