data_PCOD9195182
_publ_section_title
;
Structure prediction by ZEFSAII (Michael W. Deem and Ramdas Pophale) SiO2 
 PCOD9195182
Probable space group: C 2/M
;
_chemical_formula_sum "Si O2"
_cell_formula_units_Z 58
_cell_length_a 21.974911
_cell_length_b 12.879956
_cell_length_c 15.063542
_cell_angle_alpha 90.000000
_cell_angle_beta 35.600497
_cell_angle_gamma 90.000000
_cell_volume 2481.924724
_symmetry_space_group_name_H-M "C 2/M"
_symmetry_group_IT_number 12
_symmetry_cell_setting 'monoclinic'
loop_
_space_group_symop_operation_xyz
x,y,z
-x,y,-z
-x,-y,-z
x,-y,z
1/2+x,1/2+y,z
1/2-x,1/2+y,-z
1/2-x,1/2-y,-z
1/2+x,1/2-y,z
loop_
_atom_site_type_symbol
_atom_site_label
_atom_site_fract_x
_atom_site_fract_y
_atom_site_fract_z
Si Si1 0.151371 0.698914 0.408273
Si Si2 0.521394 0.387744 0.612226
Si Si3 0.007667 0.182796 0.164063
Si Si4 0.500000 0.000000 0.000000
Si Si5 0.141553 0.309019 0.766172
Si Si6 0.261164 0.660485 0.113955
Si Si7 0.730617 0.611398 0.096542
Si Si8 0.434156 0.114168 0.314635
O O1 0.069034 0.792972 0.501741
O O2 0.256622 0.758391 0.314138
O O3 0.178895 0.636049 0.287475
O O4 0.109419 0.626196 0.536144
O O5 0.559533 0.500000 0.535314
O O6 0.545998 0.374535 0.688766
O O7 0.395933 0.386143 0.757151
O O8 0.937594 0.213343 0.163350
O O9 0.020938 0.298589 0.192474
O O10 0.118258 0.132084 0.010766
O O11 0.588418 0.905074 0.880680
O O12 0.155745 0.355788 0.649661
O O13 0.260835 0.785762 0.111488
O O14 0.233837 0.621668 0.048318
O O15 0.764170 0.500000 0.093284
O O16 0.473360 0.000000 0.246336
#
# Coordination Sequence:
#
# PCOD9195182 Si02
#       8
#     8   8   8   2   8   8   8   8
#     4  11  22  33  54  86 113 145 184 224 268 333
#     4   9  19  35  56  79 106 145 184 220 271 328
#     4   8  18  36  53  76 112 146 178 222 269 319
#     4  12  20  32  56  80 106 150 180 232 268 300
#     4  10  20  35  51  81 117 142 178 219 268 312
#     4  10  20  36  58  81 105 137 182 231 283 326
#     4   9  20  40  59  76 103 140 181 232 283 329
#     4   9  19  36  52  73 115 157 180 215 269 321
#
# _framework density 23.368959
#
# number of rings (size 3 to 8) (size 9 to 14) (size 15 to 20)
#    0.828    1.655    0.690    1.241    0.966    2.207 
#    2.483    1.379    0.000    0.000    0.000   13.517 
#    0.000    0.000    0.000    0.000    0.000    0.000 
#
# Total GULP energy -161510.567126 kJ/mol
# GULP energy per Si atom -5569.329901 kJ/mol
# Density = 2.331577 g / cm^3
# Si number density = 23.368959 Si / 1000 Ang^3
#
#
#
# Elastic Constant Matrix: (Units=GPa)
#
#
# Indices 1 2 3 4 5 6 
#
# 1 47.7847 0.1751 17.5322 0.0000 1.7345 0.0000
# 2 0.1751 76.9754 -13.4258 0.0000 -7.9069 0.0000
# 3 17.5322 -13.4258 75.2947 0.0000 12.8908 0.0000
# 4 0.0000 0.0000 0.0000 1.1409 0.0000 -1.9080
# 5 1.7345 -7.9069 12.8908 0.0000 23.3617 0.0000
# 6 0.0000 0.0000 0.0000 -1.9080 0.0000 4.0878
#
#
#
# Elastic Compliance Matrix: (Units=1/GPa)
#
#
# Indices 1 2 3 4 5 6 
#
# 1 0.022985 -0.000932 -0.005712 0.000000 0.001130 0.000000
# 2 -0.000932 0.013719 0.002050 0.000000 0.003581 0.000000
# 3 -0.005712 0.002050 0.016328 0.000000 -0.007892 0.000000
# 4 0.000000 0.000000 0.000000 3.995377 0.000000 1.864895
# 5 0.001130 0.003581 -0.007892 0.000000 0.048288 0.000000
# 6 0.000000 0.000000 0.000000 1.864895 0.000000 1.115095
#
#
# Mechanical properties :
#
#
# Convention : Reuss Voigt Hill
#
# Bulk Modulus (GPa) = 22.80828 23.17977 22.99402
# Shear Modulus (GPa) = 0.95500 18.76964 9.86232
#
# Velocity S-wave (km/s) = 0.63996 2.83713 2.05656
# Velocity P-wave (km/s) = 3.21362 4.54675 3.93702
#
# Compressibility (1/GPa) = 0.04384373
#
# Stress axis : x y z
#
# Youngs Moduli (GPa) = 43.50618 72.89303 61.24546
#
# Poissons Ratio (x) = 0.06797 0.34982
# Poissons Ratio (y) = 0.04057 -0.12557
# Poissons Ratio (z) = 0.24849 -0.14945
#
# Static dielectric constant tensor:
#      x y z
#    x 1.925700 0.000000 0.023160 
#    y 0.000000 1.862880 0.000000 
#    z 0.023160 0.000000 1.905410 
# 
# From -- ./inp_files/293466.got.cif
#   From: 2010.05.17/outbox.cif.g08.bks.cpg/sg12_147_cif.got.tgz:293466.got - 2010.06.03 13:09:07.
