data_PCOD9195465
_publ_section_title
;
Structure prediction by ZEFSAII (Michael W. Deem and Ramdas Pophale) SiO2 
 PCOD9195465
Probable space group: C 2/M
;
_chemical_formula_sum "Si O2"
_cell_formula_units_Z 44
_cell_length_a 34.081072
_cell_length_b 10.678260
_cell_length_c 21.109043
_cell_angle_alpha 90.000000
_cell_angle_beta 162.749704
_cell_angle_gamma 90.000000
_cell_volume 2278.112137
_symmetry_space_group_name_H-M "C 2/M"
_symmetry_group_IT_number 12
_symmetry_cell_setting 'monoclinic'
loop_
_space_group_symop_operation_xyz
x,y,z
-x,y,-z
-x,-y,-z
x,-y,z
1/2+x,1/2+y,z
1/2-x,1/2+y,-z
1/2-x,1/2-y,-z
1/2+x,1/2-y,z
loop_
_atom_site_type_symbol
_atom_site_label
_atom_site_fract_x
_atom_site_fract_y
_atom_site_fract_z
Si Si1 0.226676 0.645140 0.062536
Si Si2 0.189536 0.851349 0.215680
Si Si3 0.526281 0.857137 0.398594
Si Si4 0.429502 0.138925 0.047807
Si Si5 0.500000 0.212396 0.500000
Si Si6 0.734694 0.140146 0.526630
O O1 0.247542 0.500000 0.076940
O O2 0.367879 0.710229 0.280600
O O3 0.167596 0.651146 0.042279
O O4 0.110311 0.701038 0.838409
O O5 0.335203 0.808550 0.415271
O O6 0.186966 0.840297 0.287456
O O7 0.171045 0.000000 0.171336
O O8 0.090562 0.755401 0.029736
O O9 0.529179 0.857024 0.479032
O O10 0.521953 0.000000 0.368208
O O11 0.579062 0.139116 0.303728
O O12 0.407323 0.000000 0.984320
O O13 0.750000 0.250000 0.500000
O O14 0.767346 0.000000 0.552269
#
# Coordination Sequence:
#
# PCOD9195465 Si02
#       6
#     8   8   8   8   4   8
#     4  10  20  35  54  78 112 151 192 234 283 339
#     4  10  20  38  61  84 113 155 192 232 288 344
#     4  10  20  35  54  78 112 151 192 234 283 339
#     4  10  20  38  61  84 113 155 192 232 288 344
#     4  12  20  32  56  84 110 144 196 244 282 314
#     4  10  22  40  64  87 116 152 190 233 288 346
#
# _framework density 19.314239000000001
#
# number of rings (size 3 to 8) (size 9 to 14) (size 15 to 20)
#    0.000    1.818    3.636    1.091    0.000    2.182 
#    0.000    3.636    0.000    2.182    0.000    0.000 
#    0.000    0.000    0.000    0.000    0.000    0.000 
#
# Total GULP energy -122644.028369 kJ/mol
# GULP energy per Si atom -5574.728562 kJ/mol
# Density = 1.927028 g / cm^3
# Si number density = 19.314239 Si / 1000 Ang^3
#
#
#
# Elastic Constant Matrix: (Units=GPa)
#
#
# Indices 1 2 3 4 5 6 
#
# 1 59.7118 29.2490 -7.2916 0.0000 -13.2465 0.0000
# 2 29.2490 74.7233 18.6071 0.0000 -22.5449 0.0000
# 3 -7.2916 18.6071 57.4852 0.0000 -20.8874 0.0000
# 4 0.0000 0.0000 0.0000 24.3022 0.0000 -8.0111
# 5 -13.2465 -22.5449 -20.8874 0.0000 33.0626 0.0000
# 6 0.0000 0.0000 0.0000 -8.0111 0.0000 18.1524
#
#
#
# Elastic Compliance Matrix: (Units=1/GPa)
#
#
# Indices 1 2 3 4 5 6 
#
# 1 0.024491 -0.009045 0.009551 0.000000 0.009679 0.000000
# 2 -0.009045 0.020312 -0.005200 0.000000 0.006942 0.000000
# 3 0.009551 -0.005200 0.026468 0.000000 0.017002 0.000000
# 4 0.000000 0.000000 0.000000 0.048154 0.000000 0.021252
# 5 0.009679 0.006942 0.017002 0.000000 0.049598 0.000000
# 6 0.000000 0.000000 0.000000 0.021252 0.000000 0.064468
#
#
# Mechanical properties :
#
#
# Convention : Reuss Voigt Hill
#
# Bulk Modulus (GPa) = 16.15911 30.33883 23.24897
# Shear Modulus (GPa) = 18.97485 25.19382 22.08434
#
# Velocity S-wave (km/s) = 3.13777 3.61559 3.38512
# Velocity P-wave (km/s) = 4.63811 5.75952 5.22897
#
# Compressibility (1/GPa) = 0.06188461
#
# Stress axis : x y z
#
# Youngs Moduli (GPa) = 40.83147 49.23120 37.78123
#
# Poissons Ratio (x) = 0.44528 -0.36084
# Poissons Ratio (y) = 0.36931 0.19645
# Poissons Ratio (z) = -0.38998 0.25599
#
# Static dielectric constant tensor:
#      x y z
#    x 1.669740 0.000000 0.019750 
#    y 0.000000 1.665320 0.000000 
#    z 0.019750 0.000000 1.707260 
# 
# From -- ./inp_files/203465.got.cif
#   From: 2010.05.17/outbox.cif.g08.bks.cpg/sg12_102_cif.got.tgz:203465.got - 2010.06.03 13:09:07.
