data_PCOD9195039
_publ_section_title
;
Structure prediction by ZEFSAII (Michael W. Deem and Ramdas Pophale) SiO2 
 PCOD9195039
Probable space group: C 2/M
;
_chemical_formula_sum "Si O2"
_cell_formula_units_Z 40
_cell_length_a 16.124750
_cell_length_b 12.899158
_cell_length_c 19.089469
_cell_angle_alpha 90.000000
_cell_angle_beta 28.713094
_cell_angle_gamma 90.000000
_cell_volume 1907.536439
_symmetry_space_group_name_H-M "C 2/M"
_symmetry_group_IT_number 12
_symmetry_cell_setting 'monoclinic'
loop_
_space_group_symop_operation_xyz
x,y,z
-x,y,-z
-x,-y,-z
x,-y,z
1/2+x,1/2+y,z
1/2-x,1/2+y,-z
1/2-x,1/2-y,-z
1/2+x,1/2-y,z
loop_
_atom_site_type_symbol
_atom_site_label
_atom_site_fract_x
_atom_site_fract_y
_atom_site_fract_z
Si Si1 0.966072 0.000000 0.442524
Si Si2 0.542996 0.273197 0.550473
Si Si3 0.814331 0.790529 0.847864
Si Si4 0.650427 0.378346 0.673365
Si Si5 0.948131 0.120063 0.959767
Si Si6 0.677774 0.000000 0.909775
O O1 0.151623 0.000000 0.266221
O O2 0.000000 0.000000 0.500000
O O3 0.880544 0.888944 0.490338
O O4 0.500000 0.267987 0.500000
O O5 0.373355 0.267198 0.724162
O O6 0.675057 0.182608 0.471134
O O7 0.704927 0.693134 0.953787
O O8 0.697125 0.893586 0.937793
O O9 0.991346 0.819843 0.754833
O O10 0.652231 0.500000 0.651624
O O11 0.607117 0.373089 0.788271
O O12 0.893046 0.000000 0.002214
O O13 0.000000 0.151288 0.000000
O O14 0.500000 0.000000 0.000000
#
# Coordination Sequence:
#
# PCOD9195039 Si02
#       6
#     4   8   8   8   8   4
#     4   8  18  36  54  84 120 140 188 244 278 336
#     4  10  21  38  62  86 117 155 196 240 292 349
#     4  11  21  39  58  88 123 150 196 244 292 355
#     4  11  23  40  59  85 122 156 193 246 297 345
#     4  10  22  40  61  84 116 154 198 248 292 348
#     4  10  20  34  60  86 114 158 191 232 291 344
#
# _framework density 20.969453999999999
#
# number of rings (size 3 to 8) (size 9 to 14) (size 15 to 20)
#    0.000    1.800    1.000    3.000    0.000    4.400 
#    1.800    0.000    0.000    0.000    0.000    0.000 
#    0.000    0.000    0.000    0.000    0.000    0.000 
#
# Total GULP energy -111678.393987 kJ/mol
# GULP energy per Si atom -5583.919699 kJ/mol
# Density = 2.092173 g / cm^3
# Si number density = 20.969454 Si / 1000 Ang^3
#
#
#
# Elastic Constant Matrix: (Units=GPa)
#
#
# Indices 1 2 3 4 5 6 
#
# 1 53.1313 19.5034 2.1930 -0.0001 -5.9099 0.0001
# 2 19.5034 118.7739 48.1838 0.0016 -24.0913 -0.0009
# 3 2.1930 48.1838 39.7206 -0.0005 -1.1117 -0.0002
# 4 -0.0001 0.0016 -0.0005 27.1239 0.0000 -12.4585
# 5 -5.9099 -24.0913 -1.1117 0.0000 37.0630 0.0001
# 6 0.0001 -0.0009 -0.0002 -12.4585 0.0001 31.0467
#
#
#
# Elastic Compliance Matrix: (Units=1/GPa)
#
#
# Indices 1 2 3 4 5 6 
#
# 1 0.020705 -0.005919 0.006026 0.000001 -0.000365 0.000000
# 2 -0.005919 0.023264 -0.027520 -0.000002 0.013352 0.000000
# 3 0.006026 -0.027520 0.057801 0.000003 -0.015194 0.000001
# 4 0.000001 -0.000002 0.000003 0.045199 -0.000001 0.018137
# 5 -0.000365 0.013352 -0.015194 -0.000001 0.035146 0.000000
# 6 0.000000 0.000000 0.000001 0.018137 0.000000 0.039488
#
#
# Mechanical properties :
#
#
# Convention : Reuss Voigt Hill
#
# Bulk Modulus (GPa) = 21.30143 39.04290 30.17216
# Shear Modulus (GPa) = 17.11886 28.49643 22.80765
#
# Velocity S-wave (km/s) = 2.86032 3.69039 3.30155
# Velocity P-wave (km/s) = 4.59227 6.06779 5.38084
#
# Compressibility (1/GPa) = 0.04694521
#
# Stress axis : x y z
#
# Youngs Moduli (GPa) = 48.29857 42.98536 17.30061
#
# Poissons Ratio (x) = 0.25441 -0.10426
# Poissons Ratio (y) = 0.28586 0.47611
# Poissons Ratio (z) = -0.29106 1.18296
#
# Static dielectric constant tensor:
#      x y z
#    x 1.795500 0.000000 0.051230 
#    y 0.000000 1.770200 0.000000 
#    z 0.051230 0.000000 1.726770 
# 
# From -- ./inp_files/315557.got.cif
#   From: 2010.05.17/outbox.cif.g08.bks.cpg/sg12_158_cif.got.tgz:315557.got - 2010.06.03 13:09:07.
