data_PCOD9195052
_publ_section_title
;
Structure prediction by ZEFSAII (Michael W. Deem and Ramdas Pophale) SiO2 
 PCOD9195052
Probable space group: C 2/M
;
_chemical_formula_sum "Si O2"
_cell_formula_units_Z 64
_cell_length_a 15.892761
_cell_length_b 16.511783
_cell_length_c 16.353389
_cell_angle_alpha 90.000000
_cell_angle_beta 144.600886
_cell_angle_gamma 90.000000
_cell_volume 2485.885125
_symmetry_space_group_name_H-M "C 2/M"
_symmetry_group_IT_number 12
_symmetry_cell_setting 'monoclinic'
loop_
_space_group_symop_operation_xyz
x,y,z
-x,y,-z
-x,-y,-z
x,-y,z
1/2+x,1/2+y,z
1/2-x,1/2+y,-z
1/2-x,1/2-y,-z
1/2+x,1/2-y,z
loop_
_atom_site_type_symbol
_atom_site_label
_atom_site_fract_x
_atom_site_fract_y
_atom_site_fract_z
Si Si1 0.951146 0.674496 0.557010
Si Si2 0.760199 0.864918 0.819350
Si Si3 0.705684 0.168963 0.159458
Si Si4 0.487643 0.358137 0.590608
Si Si5 0.189822 0.409335 0.322861
Si Si6 0.879507 0.145338 0.737487
Si Si7 0.558372 0.184425 0.883555
Si Si8 0.671036 0.412178 0.951509
O O1 0.962160 0.765937 0.599144
O O2 0.781292 0.652719 0.429094
O O3 0.000000 0.684622 0.500000
O O4 0.087190 0.619168 0.690701
O O5 0.773915 0.766187 0.832049
O O6 0.833155 0.885633 0.790902
O O7 0.837193 0.905364 0.956377
O O8 0.700042 0.146428 0.250054
O O9 0.853144 0.121520 0.250574
O O10 0.582422 0.152905 0.995729
O O11 0.500000 0.362778 0.500000
O O12 0.339816 0.404623 0.489609
O O13 0.162644 0.500000 0.274839
O O14 0.050142 0.371663 0.254749
O O15 0.974920 0.229530 0.819066
O O16 0.002983 0.093187 0.791627
O O17 0.720819 0.163296 0.981395
O O18 0.733618 0.500000 0.977727
#
# Coordination Sequence:
#
# PCOD9195052 Si02
#       8
#     8   8   8   8   8   8   8   8
#     4   8  15  33  62  96 119 143 197 265 309 349
#     4  10  20  39  68  96 120 152 205 263 307 366
#     4  10  20  34  60  89 119 158 210 253 297 359
#     4   8  15  31  51  83 121 154 200 253 299 355
#     4  11  21  34  57  87 125 167 203 252 311 364
#     4  11  20  39  70  94 116 159 209 262 305 361
#     4  12  23  40  59  89 127 168 204 249 302 372
#     4  12  28  43  58  88 132 171 203 251 315 372
#
# _framework density 25.745358
#
# number of rings (size 3 to 8) (size 9 to 14) (size 15 to 20)
#    0.000    1.750    3.750    3.000    0.000    4.750 
#    0.000    2.500    0.000    2.250    0.000    0.000 
#    0.000    0.000    0.000    0.000    0.000    0.000 
#
# Total GULP energy -178412.313639 kJ/mol
# GULP energy per Si atom -5575.384801 kJ/mol
# Density = 2.568676 g / cm^3
# Si number density = 25.745358 Si / 1000 Ang^3
#
#
#
# Elastic Constant Matrix: (Units=GPa)
#
#
# Indices 1 2 3 4 5 6 
#
# 1 106.9799 1.2427 9.5919 -0.0004 21.6696 -0.0002
# 2 1.2427 75.5642 5.4654 -0.0003 8.6798 -0.0001
# 3 9.5919 5.4654 177.9934 -0.0018 44.2679 -0.0008
# 4 -0.0004 -0.0003 -0.0018 1.2140 -0.0004 -4.8054
# 5 21.6696 8.6798 44.2679 -0.0004 45.0421 -0.0001
# 6 -0.0002 -0.0001 -0.0008 -4.8054 -0.0001 6.7958
#
#
#
# Elastic Compliance Matrix: (Units=1/GPa)
#
#
# Indices 1 2 3 4 5 6 
#
# 1 0.010482 0.000454 0.000923 -0.000003 -0.006038 -0.000002
# 2 0.000454 0.013566 0.000349 -0.000002 -0.003176 -0.000001
# 3 0.000923 0.000349 0.007524 -0.000007 -0.007906 -0.000004
# 4 -0.000003 -0.000002 -0.000007 -0.457898 0.000003 -0.323785
# 5 -0.006038 -0.003176 -0.007906 0.000003 0.033488 0.000002
# 6 -0.000002 -0.000001 -0.000004 -0.323785 0.000002 -0.081801
#
#
# Mechanical properties :
#
#
# Convention : Reuss Voigt Hill
#
# Bulk Modulus (GPa) = 28.55184 43.68193 36.11688
# Shear Modulus (GPa) = -10.72005 33.55954 11.41975
#
# Velocity S-wave (km/s) = -2.04277 3.61434 2.10838
# Velocity P-wave (km/s) = 2.35590 5.86700 4.47057
#
# Compressibility (1/GPa) = 0.03502401
#
# Stress axis : x y z
#
# Youngs Moduli (GPa) = 95.39719 73.71446 132.90875
#
# Poissons Ratio (x) = -0.03349 -0.12264
# Poissons Ratio (y) = -0.04335 -0.04635
# Poissons Ratio (z) = -0.08802 -0.02571
#
# Static dielectric constant tensor:
#      x y z
#    x 2.239890 0.000000 0.010060 
#    y 0.000000 2.022780 0.000000 
#    z 0.010060 0.000000 2.086890 
# 
# From -- ./inp_files/317375.got.cif
#   From: 2010.05.17/outbox.cif.g08.bks.cpg/sg12_159_cif.got.tgz:317375.got - 2010.06.03 13:09:07.
