data_PCOD9195230
_publ_section_title
;
Structure prediction by ZEFSAII (Michael W. Deem and Ramdas Pophale) SiO2 
 PCOD9195230
Probable space group: C 2/M
;
_chemical_formula_sum "Si O2"
_cell_formula_units_Z 56
_cell_length_a 28.487978
_cell_length_b 18.054004
_cell_length_c 11.687354
_cell_angle_alpha 90.000000
_cell_angle_beta 27.673768
_cell_angle_gamma 90.000000
_cell_volume 2791.758366
_symmetry_space_group_name_H-M "C 2/M"
_symmetry_group_IT_number 12
_symmetry_cell_setting 'monoclinic'
loop_
_space_group_symop_operation_xyz
x,y,z
-x,y,-z
-x,-y,-z
x,-y,z
1/2+x,1/2+y,z
1/2-x,1/2+y,-z
1/2-x,1/2-y,-z
1/2+x,1/2-y,z
loop_
_atom_site_type_symbol
_atom_site_label
_atom_site_fract_x
_atom_site_fract_y
_atom_site_fract_z
Si Si1 0.669501 0.173455 0.485969
Si Si2 0.476594 0.916434 0.891260
Si Si3 0.827492 0.153716 0.564926
Si Si4 0.248747 0.415314 0.515560
Si Si5 0.584939 0.412756 0.405053
Si Si6 0.699562 0.914188 0.189345
Si Si7 0.869463 0.587216 0.898674
O O1 0.558636 0.141410 0.755156
O O2 0.666699 0.261090 0.481988
O O3 0.745720 0.141480 0.416846
O O4 0.694894 0.137950 0.308285
O O5 0.461536 0.906613 0.787372
O O6 0.513965 0.000000 0.833539
O O7 0.364416 0.911449 0.185204
O O8 0.824339 0.106368 0.454826
O O9 0.906373 0.129311 0.492698
O O10 0.719768 0.137020 0.857753
O O11 0.265103 0.500000 0.442762
O O12 0.500000 0.385738 0.500000
O O13 0.566416 0.500000 0.468818
O O14 0.691620 0.407896 0.108024
O O15 0.621743 0.896922 0.254121
O O16 0.685860 0.000000 0.254084
O O17 0.837001 0.500000 0.976284
#
# Coordination Sequence:
#
# PCOD9195230 Si02
#       7
#     8   8   8   8   8   8   8
#     4  12  22  31  48  86 118 138 162 218 285 326
#     4   9  18  34  55  78 103 142 189 220 251 313
#     4  10  20  35  52  81 108 136 177 220 277 313
#     4  10  20  38  61  75  99 147 193 222 249 313
#     4   9  18  37  61  78  98 140 194 226 247 307
#     4   9  18  33  53  78 107 141 178 218 264 314
#     4   8  16  34  57  75 100 144 186 217 251 313
#
# _framework density 20.059042000000002
#
# number of rings (size 3 to 8) (size 9 to 14) (size 15 to 20)
#    0.000    2.429    0.000    5.143    0.000    4.000 
#    7.714    2.143    0.000    0.000    0.000    4.000 
#    0.000    0.000    0.000    0.000    0.000    0.000 
#
# Total GULP energy -156246.336637 kJ/mol
# GULP energy per Si atom -5580.226308 kJ/mol
# Density = 2.001339 g / cm^3
# Si number density = 20.059042 Si / 1000 Ang^3
#
#
#
# Elastic Constant Matrix: (Units=GPa)
#
#
# Indices 1 2 3 4 5 6 
#
# 1 170.4030 56.1952 17.5946 0.0000 8.0281 0.0000
# 2 56.1952 96.1501 11.3580 0.0000 5.6500 0.0000
# 3 17.5946 11.3580 15.5909 0.0000 4.5900 0.0000
# 4 0.0000 0.0000 0.0000 6.5373 0.0000 22.0065
# 5 8.0281 5.6500 4.5900 0.0000 25.2133 0.0000
# 6 0.0000 0.0000 0.0000 22.0065 0.0000 18.8140
#
#
#
# Elastic Compliance Matrix: (Units=1/GPa)
#
#
# Indices 1 2 3 4 5 6 
#
# 1 0.007751 -0.003812 -0.005807 0.000000 -0.000557 0.000000
# 2 -0.003812 0.013283 -0.005131 0.000000 -0.000829 0.000000
# 3 -0.005807 -0.005131 0.077713 0.000000 -0.011149 0.000000
# 4 0.000000 0.000000 0.000000 -0.052074 0.000000 0.060910
# 5 -0.000557 -0.000829 -0.011149 0.000000 0.042054 0.000000
# 6 0.000000 0.000000 0.000000 0.060910 0.000000 -0.018094
#
#
# Mechanical properties :
#
#
# Convention : Reuss Voigt Hill
#
# Bulk Modulus (GPa) = 14.44078 50.27107 32.35593
# Shear Modulus (GPa) = 40.57932 23.24598 31.91265
#
# Velocity S-wave (km/s) = 4.50265 3.40792 3.99298
# Velocity P-wave (km/s) = 5.85206 6.37191 6.11751
#
# Compressibility (1/GPa) = 0.06924833
#
# Stress axis : x y z
#
# Youngs Moduli (GPa) = 129.01223 75.28467 12.86783
#
# Poissons Ratio (x) = 0.28695 0.07472
# Poissons Ratio (y) = 0.49174 0.06603
# Poissons Ratio (z) = 0.74914 0.38630
#
# Static dielectric constant tensor:
#      x y z
#    x 1.774170 0.000000 -0.001990 
#    y 0.000000 1.671040 0.000000 
#    z -0.001990 0.000000 1.731400 
# 
# From -- ./inp_files/189597.got.cif
#   From: 2010.05.17/outbox.cif.g08.bks.cpg/sg12_95_cif.got.tgz:189597.got - 2010.06.03 13:09:07.
