data_PCOD9195562
_publ_section_title
;
Structure prediction by ZEFSAII (Michael W. Deem and Ramdas Pophale) SiO2 
 PCOD9195562
Probable space group: C 2/M
;
_chemical_formula_sum "Si O2"
_cell_formula_units_Z 48
_cell_length_a 22.336726
_cell_length_b 14.284758
_cell_length_c 10.004075
_cell_angle_alpha 90.000000
_cell_angle_beta 40.174588
_cell_angle_gamma 90.000000
_cell_volume 2059.250044
_symmetry_space_group_name_H-M "C 2/M"
_symmetry_group_IT_number 12
_symmetry_cell_setting 'monoclinic'
loop_
_space_group_symop_operation_xyz
x,y,z
-x,y,-z
-x,-y,-z
x,-y,z
1/2+x,1/2+y,z
1/2-x,1/2+y,-z
1/2-x,1/2-y,-z
1/2+x,1/2-y,z
loop_
_atom_site_type_symbol
_atom_site_label
_atom_site_fract_x
_atom_site_fract_y
_atom_site_fract_z
Si Si1 0.331364 0.777907 0.762201
Si Si2 0.566991 0.107666 0.190567
Si Si3 0.348053 0.107505 0.489868
Si Si4 0.110608 0.297977 0.848199
Si Si5 0.426235 0.396889 0.006857
Si Si6 0.059775 0.894706 0.532279
O O1 0.406529 0.824999 0.732854
O O2 0.301618 0.852889 0.702301
O O3 0.368050 0.687871 0.617852
O O4 0.250000 0.750000 0.000000
O O5 0.458025 0.113113 0.341665
O O6 0.589117 0.000000 0.187236
O O7 0.619854 0.139272 0.965166
O O8 0.337823 0.164520 0.370097
O O9 0.325803 0.000000 0.501493
O O10 0.133653 0.191572 0.847200
O O11 0.000000 0.299914 0.000000
O O12 0.384037 0.500000 0.056742
O O13 0.487746 0.370903 0.772835
O O14 0.500000 0.406643 0.000000
O O15 0.000000 0.900242 0.500000
O O16 0.097781 0.000000 0.494943
#
# Coordination Sequence:
#
# PCOD9195562 Si02
#       6
#     8   8   8   8   8   8
#     4  12  24  36  52  78 113 153 188 228 276 328
#     4  10  20  36  60  86 111 142 185 235 284 335
#     4  10  20  36  60  87 113 144 185 233 283 333
#     4   9  16  30  56  87 114 137 176 235 288 333
#     4   9  16  27  48  78 109 138 169 215 271 325
#     4  10  20  35  55  76 101 137 181 227 273 323
#
# _framework density 23.309457999999999
#
# number of rings (size 3 to 8) (size 9 to 14) (size 15 to 20)
#    0.000    2.000    0.000    6.500    0.000    4.667 
#    0.000    0.833    0.000    0.000    0.000    7.000 
#    0.000    0.000    0.000    0.000    0.000    0.000 
#
# Total GULP energy -134258.859040 kJ/mol
# GULP energy per Si atom -5594.119127 kJ/mol
# Density = 2.325640 g / cm^3
# Si number density = 23.309458 Si / 1000 Ang^3
#
#
#
# Elastic Constant Matrix: (Units=GPa)
#
#
# Indices 1 2 3 4 5 6 
#
# 1 56.7784 19.5031 39.2476 0.0000 13.6199 0.0000
# 2 19.5031 189.4106 78.8042 0.0000 12.6983 0.0000
# 3 39.2476 78.8042 168.6831 0.0000 40.2365 0.0000
# 4 0.0000 0.0000 0.0000 31.5536 0.0000 22.8406
# 5 13.6199 12.6983 40.2365 0.0000 38.1884 0.0000
# 6 0.0000 0.0000 0.0000 22.8406 0.0000 11.1766
#
#
#
# Elastic Compliance Matrix: (Units=1/GPa)
#
#
# Indices 1 2 3 4 5 6 
#
# 1 0.021284 -0.000292 -0.004045 0.000000 -0.003232 0.000000
# 2 -0.000292 0.006614 -0.003369 0.000000 0.001454 0.000000
# 3 -0.004045 -0.003369 0.010461 0.000000 -0.008459 0.000000
# 4 0.000000 0.000000 0.000000 -0.066121 0.000000 0.135127
# 5 -0.003232 0.001454 -0.008459 0.000000 0.035768 0.000000
# 6 0.000000 0.000000 0.000000 0.135127 0.000000 -0.186673
#
#
# Mechanical properties :
#
#
# Convention : Reuss Voigt Hill
#
# Bulk Modulus (GPa) = 43.57771 76.66467 60.12119
# Shear Modulus (GPa) = -32.13198 34.67154 1.26978
#
# Velocity S-wave (km/s) = -3.71684 3.86093 0.73887
# Velocity P-wave (km/s) = 0.56217 7.26891 5.15524
#
# Compressibility (1/GPa) = 0.02294751
#
# Stress axis : x y z
#
# Youngs Moduli (GPa) = 46.98405 151.20270 95.59382
#
# Poissons Ratio (x) = 0.04416 0.38665
# Poissons Ratio (y) = 0.01372 0.32202
# Poissons Ratio (z) = 0.19004 0.50935
#
# Static dielectric constant tensor:
#      x y z
#    x 1.874230 0.000000 -0.059830 
#    y 0.000000 1.904700 0.000000 
#    z -0.059830 0.000000 1.836910 
# 
# From -- ./inp_files/104962.got.cif
#   From: 2010.05.17/outbox.cif.g08.bks.cpg/sg12_53_cif.got.tgz:104962.got - 2010.06.03 13:09:07.
