data_PCOD9195623
_publ_section_title
;
Structure prediction by ZEFSAII (Michael W. Deem and Ramdas Pophale) SiO2 
 PCOD9195623
Probable space group: C 2/M
;
_chemical_formula_sum "Si O2"
_cell_formula_units_Z 64
_cell_length_a 20.524420
_cell_length_b 25.263549
_cell_length_c 16.755091
_cell_angle_alpha 90.000000
_cell_angle_beta 158.060358
_cell_angle_gamma 90.000000
_cell_volume 3246.036317
_symmetry_space_group_name_H-M "C 2/M"
_symmetry_group_IT_number 12
_symmetry_cell_setting 'monoclinic'
loop_
_space_group_symop_operation_xyz
x,y,z
-x,y,-z
-x,-y,-z
x,-y,z
1/2+x,1/2+y,z
1/2-x,1/2+y,-z
1/2-x,1/2-y,-z
1/2+x,1/2-y,z
loop_
_atom_site_type_symbol
_atom_site_label
_atom_site_fract_x
_atom_site_fract_y
_atom_site_fract_z
Si Si1 0.327326 0.837442 0.983771
Si Si2 0.793248 0.170999 0.750860
Si Si3 0.323469 0.441403 0.571583
Si Si4 0.581672 0.221906 0.386761
Si Si5 0.973482 0.439270 0.065536
Si Si6 0.971752 0.166369 0.221557
Si Si7 0.802181 0.943956 0.739646
Si Si8 0.216744 0.725680 0.816962
O O1 0.171179 0.841478 0.870601
O O2 0.276183 0.786262 0.874084
O O3 0.498621 0.816081 0.225402
O O4 0.359578 0.891402 0.972679
O O5 0.749345 0.195400 0.615479
O O6 0.725136 0.111150 0.679900
O O7 0.692449 0.203886 0.702184
O O8 0.000000 0.172659 0.000000
O O9 0.402254 0.500000 0.643205
O O10 0.437445 0.389599 0.686179
O O11 0.294135 0.441846 0.634116
O O12 0.151771 0.437531 0.320721
O O13 0.598611 0.283648 0.383937
O O14 0.433460 0.223709 0.287580
O O15 0.904953 0.500000 0.997129
O O16 0.000000 0.431308 0.000000
O O17 0.864074 0.188095 0.023700
O O18 0.721790 0.000000 0.673687
O O19 0.000000 0.944141 0.000000
#
# Coordination Sequence:
#
# PCOD9195623 Si02
#       8
#     8   8   8   8   8   8   8   8
#     4   9  19  36  57  75  98 136 177 212 258 316
#     4  11  20  30  50  80 105 136 178 210 247 309
#     4  10  20  35  55  78 106 139 173 214 265 311
#     4   9  19  35  52  73 107 140 165 210 266 307
#     4  10  22  39  55  74 104 138 173 220 270 309
#     4   9  18  35  55  76 101 134 174 214 259 311
#     4   9  18  32  50  75 108 140 169 207 254 302
#     4   9  19  34  51  75 107 138 167 209 263 308
#
# _framework density 19.716355
#
# number of rings (size 3 to 8) (size 9 to 14) (size 15 to 20)
#    0.000    2.500    0.000    4.125    0.000    3.000 
#    0.000    5.000    0.000    5.250    0.000    0.000 
#    0.000    0.000    0.000    0.000    0.000    0.000 
#
# Total GULP energy -178332.352529 kJ/mol
# GULP energy per Si atom -5572.886017 kJ/mol
# Density = 1.967148 g / cm^3
# Si number density = 19.716355 Si / 1000 Ang^3
#
#
#
# Elastic Constant Matrix: (Units=GPa)
#
#
# Indices 1 2 3 4 5 6 
#
# 1 60.5477 47.3377 6.2660 0.0000 -12.1675 0.0001
# 2 47.3377 174.7332 30.9083 0.0000 -3.6404 0.0000
# 3 6.2660 30.9083 54.8618 0.0000 -11.8542 0.0001
# 4 0.0000 0.0000 0.0000 4.7332 0.0000 -4.7840
# 5 -12.1675 -3.6404 -11.8542 0.0000 24.4294 0.0000
# 6 0.0001 0.0000 0.0001 -4.7840 0.0000 14.6430
#
#
#
# Elastic Compliance Matrix: (Units=1/GPa)
#
#
# Indices 1 2 3 4 5 6 
#
# 1 0.024155 -0.006976 0.003961 0.000000 0.012913 0.000000
# 2 -0.006976 0.008388 -0.004926 0.000000 -0.004615 0.000000
# 3 0.003961 -0.004926 0.023257 0.000000 0.012524 0.000000
# 4 0.000000 0.000000 0.000000 0.315437 0.000000 0.103056
# 5 0.012913 -0.004615 0.012524 0.000000 0.052756 0.000000
# 6 0.000000 0.000000 0.000000 0.103056 0.000000 0.101961
#
#
# Mechanical properties :
#
#
# Convention : Reuss Voigt Hill
#
# Bulk Modulus (GPa) = 25.05088 51.01852 38.03470
# Shear Modulus (GPa) = 9.00673 22.46982 15.73828
#
# Velocity S-wave (km/s) = 2.13964 3.37954 2.82837
# Velocity P-wave (km/s) = 4.34020 6.41567 5.47714
#
# Compressibility (1/GPa) = 0.03991875
#
# Stress axis : x y z
#
# Youngs Moduli (GPa) = 41.39991 119.21781 42.99859
#
# Poissons Ratio (x) = 0.83161 -0.17033
# Poissons Ratio (y) = 0.28879 0.21181
# Poissons Ratio (z) = -0.16400 0.58728
#
# Static dielectric constant tensor:
#      x y z
#    x 1.713410 0.000000 0.005670 
#    y 0.000000 1.697330 0.000000 
#    z 0.005670 0.000000 1.731370 
# 
# From -- ./inp_files/291105.got.cif
#   From: 2010.05.17/outbox.cif.g08.bks.cpg/sg12_146_cif.got.tgz:291105.got - 2010.06.03 13:09:07.
