data_PCOD9195315
_publ_section_title
;
Structure prediction by ZEFSAII (Michael W. Deem and Ramdas Pophale) SiO2 
 PCOD9195315
Probable space group: C 2/M
;
_chemical_formula_sum "Si O2"
_cell_formula_units_Z 64
_cell_length_a 31.472706
_cell_length_b 7.707154
_cell_length_c 11.461782
_cell_angle_alpha 90.000000
_cell_angle_beta 86.419330
_cell_angle_gamma 90.000000
_cell_volume 2774.799653
_symmetry_space_group_name_H-M "C 2/M"
_symmetry_group_IT_number 12
_symmetry_cell_setting 'monoclinic'
loop_
_space_group_symop_operation_xyz
x,y,z
-x,y,-z
-x,-y,-z
x,-y,z
1/2+x,1/2+y,z
1/2-x,1/2+y,-z
1/2-x,1/2-y,-z
1/2+x,1/2-y,z
loop_
_atom_site_type_symbol
_atom_site_label
_atom_site_fract_x
_atom_site_fract_y
_atom_site_fract_z
Si Si1 0.631236 0.702504 0.363969
Si Si2 0.646753 0.703304 0.863573
Si Si3 0.387875 0.790179 0.877955
Si Si4 0.742817 0.196046 0.864518
Si Si5 0.778031 0.210070 0.609422
Si Si6 0.517090 0.796346 0.117983
Si Si7 0.952963 0.799496 0.523181
Si Si8 0.433975 0.699431 0.260200
O O1 0.627098 0.500000 0.398067
O O2 0.638521 0.718215 0.225211
O O3 0.673318 0.773024 0.417776
O O4 0.584598 0.783506 0.394549
O O5 0.653331 0.500000 0.833933
O O6 0.692234 0.793150 0.850321
O O7 0.608570 0.775255 0.789439
O O8 0.629689 0.723693 0.997314
O O9 0.436808 0.726699 0.857067
O O10 0.385456 0.000000 0.876635
O O11 0.762333 0.276488 0.740522
O O12 0.758483 0.000000 0.861909
O O13 0.750000 0.250000 0.000000
O O14 0.750000 0.250000 0.500000
O O15 0.779176 0.000000 0.616714
O O16 0.478750 0.780110 0.214641
O O17 0.524849 0.000000 0.096123
O O18 0.500000 0.719152 0.000000
O O19 0.932545 0.801189 0.398731
O O20 0.000000 0.720845 0.500000
O O21 0.960566 0.000000 0.563414
O O22 0.436175 0.500000 0.218569
#
# Coordination Sequence:
#
# PCOD9195315 Si02
#       8
#     8   8   8   8   8   8   8   8
#     4  10  21  39  64  89 120 159 202 253 304 360
#     4  11  23  37  59  90 121 156 201 252 310 372
#     4  11  22  37  59  87 122 161 204 250 305 368
#     4  11  24  43  66  95 128 164 210 262 320 381
#     4  10  24  43  66  95 127 166 212 261 317 377
#     4  10  20  35  53  78 118 162 197 242 304 362
#     4   9  18  34  57  86 119 154 194 246 303 355
#     4  10  21  35  56  86 115 152 204 251 298 360
#
# _framework density 23.064726
#
# number of rings (size 3 to 8) (size 9 to 14) (size 15 to 20)
#    0.000    1.750    1.250    2.625    1.750    5.250 
#    0.000    0.625    0.000    2.250    0.000    0.000 
#    0.000    0.000    0.000    0.000    0.000    0.000 
#
# Total GULP energy -178566.497365 kJ/mol
# GULP energy per Si atom -5580.203043 kJ/mol
# Density = 2.301223 g / cm^3
# Si number density = 23.064726 Si / 1000 Ang^3
#
#
#
# Elastic Constant Matrix: (Units=GPa)
#
#
# Indices 1 2 3 4 5 6 
#
# 1 150.7010 2.1763 35.8179 0.0000 7.5753 0.0000
# 2 2.1763 42.6390 -0.7299 0.0000 -2.3134 0.0000
# 3 35.8179 -0.7299 92.9248 0.0000 -0.7837 0.0000
# 4 0.0000 0.0000 0.0000 4.1018 0.0000 -1.8812
# 5 7.5753 -2.3134 -0.7837 0.0000 28.0958 0.0000
# 6 0.0000 0.0000 0.0000 -1.8812 0.0000 5.2132
#
#
#
# Elastic Compliance Matrix: (Units=1/GPa)
#
#
# Indices 1 2 3 4 5 6 
#
# 1 0.007437 -0.000545 -0.002889 0.000000 -0.002131 0.000000
# 2 -0.000545 0.023602 0.000413 0.000000 0.002102 0.000000
# 3 -0.002889 0.000413 0.011888 0.000000 0.001145 0.000000
# 4 0.000000 0.000000 0.000000 0.292143 0.000000 0.105420
# 5 -0.002131 0.002102 0.001145 0.000000 0.036372 0.000000
# 6 0.000000 0.000000 0.000000 0.105420 0.000000 0.229862
#
#
# Mechanical properties :
#
#
# Convention : Reuss Voigt Hill
#
# Bulk Modulus (GPa) = 27.11085 40.08814 33.59949
# Shear Modulus (GPa) = 8.06921 24.08221 16.07571
#
# Velocity S-wave (km/s) = 1.87246 3.23478 2.64291
# Velocity P-wave (km/s) = 4.05642 5.60091 4.89003
#
# Compressibility (1/GPa) = 0.03688561
#
# Stress axis : x y z
#
# Youngs Moduli (GPa) = 134.45825 42.37002 84.11966
#
# Poissons Ratio (x) = 0.02308 0.24302
# Poissons Ratio (y) = 0.07323 -0.03475
# Poissons Ratio (z) = 0.38844 -0.01750
#
# Static dielectric constant tensor:
#      x y z
#    x 1.899190 0.000000 -0.026150 
#    y 0.000000 1.867370 0.000000 
#    z -0.026150 0.000000 1.881950 
# 
# From -- ./inp_files/187461.got.cif
#   From: 2010.05.17/outbox.cif.g08.bks.cpg/sg12_94_cif.got.tgz:187461.got - 2010.06.03 13:09:07.
