data_PCOD9195165
_publ_section_title
;
Structure prediction by ZEFSAII (Michael W. Deem and Ramdas Pophale) SiO2 
 PCOD9195165
Probable space group: C 2/M
;
_chemical_formula_sum "Si O2"
_cell_formula_units_Z 64
_cell_length_a 25.420548
_cell_length_b 9.002173
_cell_length_c 24.466592
_cell_angle_alpha 90.000000
_cell_angle_beta 46.091643
_cell_angle_gamma 90.000000
_cell_volume 4033.755482
_symmetry_space_group_name_H-M "C 2/M"
_symmetry_group_IT_number 12
_symmetry_cell_setting 'monoclinic'
loop_
_space_group_symop_operation_xyz
x,y,z
-x,y,-z
-x,-y,-z
x,-y,z
1/2+x,1/2+y,z
1/2-x,1/2+y,-z
1/2-x,1/2-y,-z
1/2+x,1/2-y,z
loop_
_atom_site_type_symbol
_atom_site_label
_atom_site_fract_x
_atom_site_fract_y
_atom_site_fract_z
Si Si1 0.792147 0.177803 0.843691
Si Si2 0.160660 0.678207 0.418404
Si Si3 0.136958 0.822132 0.320902
Si Si4 0.018905 0.322066 0.591179
Si Si5 0.218675 0.821909 0.577857
Si Si6 0.563118 0.822937 0.684776
Si Si7 0.422950 0.322663 0.834950
Si Si8 0.805524 0.177423 0.003425
O O1 0.813614 0.220544 0.766906
O O2 0.862095 0.212620 0.832184
O O3 0.721359 0.257290 0.919863
O O4 0.781930 0.000000 0.854193
O O5 0.159758 0.500000 0.411250
O O6 0.165898 0.757537 0.356730
O O7 0.084558 0.718862 0.503083
O O8 0.226441 0.714268 0.412184
O O9 0.055826 0.759332 0.369239
O O10 0.133997 0.000000 0.324904
O O11 0.007672 0.500000 0.595155
O O12 0.043438 0.289148 0.635540
O O13 0.250000 0.750000 0.500000
O O14 0.138115 0.758438 0.645255
O O15 0.217098 0.000000 0.572951
O O16 0.495889 0.765651 0.769352
O O17 0.571977 0.000000 0.682951
O O18 0.436429 0.500000 0.822124
O O19 0.384894 0.289304 0.920683
O O20 0.796850 0.000000 0.009082
O O21 0.750000 0.250000 0.000000
#
# Coordination Sequence:
#
# PCOD9195165 Si02
#       8
#     8   8   8   8   8   8   8   8
#     4   9  18  31  46  69 103 135 167 204 247 298
#     4  10  22  39  53  70  98 134 172 211 256 302
#     4  11  22  34  50  76 104 134 173 212 250 297
#     4  10  20  35  51  71 102 136 171 209 250 303
#     4  11  22  38  57  75  99 131 170 216 261 303
#     4  11  21  33  52  78 102 133 174 210 253 304
#     4   9  17  31  47  70 103 134 165 207 250 297
#     4   9  17  28  45  69  99 133 168 202 245 299
#
# _framework density 15.866109
#
# number of rings (size 3 to 8) (size 9 to 14) (size 15 to 20)
#    0.000    2.000    2.500    2.625    0.000    7.000 
#    0.000    0.000    0.000    0.000    0.000    0.875 
#    0.000    7.000    0.000    0.000    0.000    0.000 
#
# Total GULP energy -178537.684358 kJ/mol
# GULP energy per Si atom -5579.302636 kJ/mol
# Density = 1.583000 g / cm^3
# Si number density = 15.866109 Si / 1000 Ang^3
#
#
#
# Elastic Constant Matrix: (Units=GPa)
#
#
# Indices 1 2 3 4 5 6 
#
# 1 76.1320 44.7327 71.0014 0.0001 12.0471 0.0002
# 2 44.7327 44.9872 61.3083 0.0008 2.9465 0.0023
# 3 71.0014 61.3083 164.2606 0.0000 1.5207 0.0000
# 4 0.0001 0.0008 0.0000 32.0856 -0.0001 -1.0583
# 5 12.0471 2.9465 1.5207 -0.0001 15.4361 -0.0001
# 6 0.0002 0.0023 0.0000 -1.0583 -0.0001 24.0992
#
#
#
# Elastic Compliance Matrix: (Units=1/GPa)
#
#
# Indices 1 2 3 4 5 6 
#
# 1 0.040745 -0.030881 -0.005851 0.000001 -0.025328 0.000003
# 2 -0.030881 0.069408 -0.012670 -0.000002 0.012100 -0.000006
# 3 -0.005851 -0.012670 0.013293 0.000000 0.005676 0.000001
# 4 0.000001 -0.000002 0.000000 0.031212 0.000000 0.001371
# 5 -0.025328 0.012100 0.005676 0.000000 0.081682 -0.000001
# 6 0.000003 -0.000006 0.000001 0.001371 -0.000001 0.041555
#
#
# Mechanical properties :
#
#
# Convention : Reuss Voigt Hill
#
# Bulk Modulus (GPa) = 40.58043 71.05162 55.81603
# Shear Modulus (GPa) = 12.98993 21.54667 17.26830
#
# Velocity S-wave (km/s) = 2.86444 3.68915 3.30263
# Velocity P-wave (km/s) = 6.04751 7.93887 7.05684
#
# Compressibility (1/GPa) = 0.02464242
#
# Stress axis : x y z
#
# Youngs Moduli (GPa) = 24.54302 14.40750 75.22557
#
# Poissons Ratio (x) = 0.44492 0.44018
# Poissons Ratio (y) = 0.75791 0.95307
# Poissons Ratio (z) = 0.14361 0.18254
#
# Static dielectric constant tensor:
#      x y z
#    x 1.500330 0.000000 0.005580 
#    y 0.000000 1.529490 0.000000 
#    z 0.005580 0.000000 1.547970 
# 
# From -- ./inp_files/324144.got.cif
#   From: 2010.05.17/outbox.cif.g08.bks.cpg/sg12_163_cif.got.tgz:324144.got - 2010.06.03 13:09:07.
