data_PCOD9195843
_publ_section_title
;
Structure prediction by ZEFSAII (Michael W. Deem and Ramdas Pophale) SiO2 
 PCOD9195843
Probable space group: C 2/M
;
_chemical_formula_sum "Si O2"
_cell_formula_units_Z 60
_cell_length_a 19.883466
_cell_length_b 8.392143
_cell_length_c 27.967715
_cell_angle_alpha 90.000000
_cell_angle_beta 147.555910
_cell_angle_gamma 90.000000
_cell_volume 2503.643803
_symmetry_space_group_name_H-M "C 2/M"
_symmetry_group_IT_number 12
_symmetry_cell_setting 'monoclinic'
loop_
_space_group_symop_operation_xyz
x,y,z
-x,y,-z
-x,-y,-z
x,-y,z
1/2+x,1/2+y,z
1/2-x,1/2+y,-z
1/2-x,1/2-y,-z
1/2+x,1/2-y,z
loop_
_atom_site_type_symbol
_atom_site_label
_atom_site_fract_x
_atom_site_fract_y
_atom_site_fract_z
Si Si1 0.877477 0.179437 0.318538
Si Si2 0.350209 0.674770 0.773346
Si Si3 0.054137 0.821014 0.979390
Si Si4 0.063496 0.675161 0.845945
Si Si5 0.805954 0.688771 0.583460
Si Si6 0.641192 0.000000 0.985346
Si Si7 0.079966 0.685364 0.503555
Si Si8 0.403206 0.190235 0.235641
O O1 0.760434 0.202697 0.283557
O O2 0.989206 0.291646 0.403478
O O3 0.838540 0.225313 0.241428
O O4 0.924363 0.000000 0.348056
O O5 0.293585 0.500000 0.733420
O O6 0.437825 0.677137 0.872612
O O7 0.447738 0.714535 0.790278
O O8 0.116608 0.647791 0.007966
O O9 0.117837 0.000000 0.010208
O O10 0.000000 0.823703 0.000000
O O11 0.008939 0.500000 0.800000
O O12 0.140322 0.635922 0.939882
O O13 0.134413 0.731415 0.841343
O O14 0.806459 0.500000 0.581925
O O15 0.750000 0.750000 0.500000
O O16 0.713259 0.741035 0.570302
O O17 0.950232 0.739835 0.674758
O O18 0.100170 0.500000 0.524901
O O19 0.000000 0.754405 0.500000
O O20 0.389312 0.000000 0.234621
#
# Coordination Sequence:
#
# PCOD9195843 Si02
#       8
#     8   8   8   8   8   4   8   8
#     4  12  25  38  57  79 111 144 187 235 284 340
#     4  10  20  35  55  82 116 149 181 229 281 329
#     4   9  17  30  53  87 126 155 190 230 281 340
#     4   8  17  33  53  79 110 140 186 223 274 333
#     4  11  22  37  59  81 105 138 182 230 281 333
#     4   8  15  30  52  82 114 149 185 230 280 324
#     4  11  25  43  58  79 108 143 183 231 287 345
#     4  10  21  38  57  78 107 145 185 230 282 340
#
# _framework density 23.965070999999998
#
# number of rings (size 3 to 8) (size 9 to 14) (size 15 to 20)
#    0.400    1.600    1.333    2.600    2.800    2.133 
#    0.000    0.000    0.000    0.000    0.000    3.733 
#    4.000    0.000    0.000    0.000    0.000    0.000 
#
# Total GULP energy -167033.664149 kJ/mol
# GULP energy per Si atom -5567.788805 kJ/mol
# Density = 2.391053 g / cm^3
# Si number density = 23.965071 Si / 1000 Ang^3
#
#
#
# Elastic Constant Matrix: (Units=GPa)
#
#
# Indices 1 2 3 4 5 6 
#
# 1 91.0440 38.0264 23.8860 -0.0001 -12.9637 0.0001
# 2 38.0264 93.2524 23.6696 -0.0002 6.6568 0.0004
# 3 23.8860 23.6696 55.2114 -0.0001 -3.1109 -0.0001
# 4 -0.0001 -0.0002 -0.0001 3.9263 0.0000 -17.9026
# 5 -12.9637 6.6568 -3.1109 0.0000 39.0362 -0.0001
# 6 0.0001 0.0004 -0.0001 -17.9026 -0.0001 72.2400
#
#
#
# Elastic Compliance Matrix: (Units=1/GPa)
#
#
# Indices 1 2 3 4 5 6 
#
# 1 0.015138 -0.005607 -0.003825 0.000000 0.005679 0.000000
# 2 -0.005607 0.014353 -0.003988 -0.000002 -0.004628 -0.000001
# 3 -0.003825 -0.003988 0.021540 -0.000003 0.001126 -0.000001
# 4 0.000000 -0.000002 -0.000003 -1.959399 -0.000002 -0.485579
# 5 0.005679 -0.004628 0.001126 -0.000002 0.028382 0.000000
# 6 0.000000 -0.000001 -0.000001 -0.485579 0.000000 -0.106494
#
#
# Mechanical properties :
#
#
# Convention : Reuss Voigt Hill
#
# Bulk Modulus (GPa) = 41.33978 45.63021 43.48500
# Shear Modulus (GPa) = -2.56203 33.30221 15.37009
#
# Velocity S-wave (km/s) = -1.03508 3.73180 2.53524
# Velocity P-wave (km/s) = 3.98233 6.13596 5.17247
#
# Compressibility (1/GPa) = 0.02418978
#
# Stress axis : x y z
#
# Youngs Moduli (GPa) = 66.05952 69.67315 46.42474
#
# Poissons Ratio (x) = 0.39068 0.17758
# Poissons Ratio (y) = 0.37042 0.18514
# Poissons Ratio (z) = 0.25269 0.27786
#
# Static dielectric constant tensor:
#      x y z
#    x 1.943690 0.000000 -0.044240 
#    y 0.000000 1.903620 0.000000 
#    z -0.044240 0.000000 1.997650 
# 
# From -- ./inp_files/362749.got.cif
#   From: 2010.05.17/outbox.cif.g08.bks.cpg/sg12_182_cif.got.tgz:362749.got - 2010.06.03 13:09:07.
