data_PCOD9195687
_publ_section_title
;
Structure prediction by ZEFSAII (Michael W. Deem and Ramdas Pophale) SiO2 
 PCOD9195687
Probable space group: C 2/M
;
_chemical_formula_sum "Si O2"
_cell_formula_units_Z 48
_cell_length_a 28.828242
_cell_length_b 13.868301
_cell_length_c 13.049822
_cell_angle_alpha 90.000000
_cell_angle_beta 154.701413
_cell_angle_gamma 90.000000
_cell_volume 2229.538863
_symmetry_space_group_name_H-M "C 2/M"
_symmetry_group_IT_number 12
_symmetry_cell_setting 'monoclinic'
loop_
_space_group_symop_operation_xyz
x,y,z
-x,y,-z
-x,-y,-z
x,-y,z
1/2+x,1/2+y,z
1/2-x,1/2+y,-z
1/2-x,1/2-y,-z
1/2+x,1/2-y,z
loop_
_atom_site_type_symbol
_atom_site_label
_atom_site_fract_x
_atom_site_fract_y
_atom_site_fract_z
Si Si1 0.255501 0.885115 0.723839
Si Si2 0.407593 0.391062 0.904348
Si Si3 0.658548 0.889008 0.889569
Si Si4 0.592488 0.889009 0.544306
Si Si5 0.337873 0.111560 0.670370
Si Si6 0.439745 0.751255 0.711857
O O1 0.338370 0.874041 0.794024
O O2 0.147101 0.833978 0.472408
O O3 0.240073 0.000000 0.700669
O O4 0.287311 0.847429 0.900010
O O5 0.409298 0.500000 0.951731
O O6 0.446588 0.306215 0.057156
O O7 0.500000 0.389440 0.000000
O O8 0.286910 0.375764 0.618472
O O9 0.661805 0.849832 0.779927
O O10 0.531875 0.893297 0.666213
O O11 0.696845 0.000000 0.956400
O O12 0.585932 0.822350 0.432953
O O13 0.625405 0.000000 0.586292
O O14 0.409993 0.186000 0.751990
O O15 0.367917 0.000000 0.709514
#
# Coordination Sequence:
#
# PCOD9195687 Si02
#       6
#     8   8   8   8   8   8
#     4  10  20  35  55  79 108 145 188 230 271 327
#     4  10  21  38  56  77 116 161 192 220 276 347
#     4   8  17  36  58  75 106 146 183 229 284 337
#     4   9  19  36  55  81 111 144 180 229 291 340
#     4  10  22  39  55  82 121 154 185 230 285 340
#     4  12  22  31  59  88 111 145 191 238 273 333
#
# _framework density 21.529115000000001
#
# number of rings (size 3 to 8) (size 9 to 14) (size 15 to 20)
#    0.000    2.167    1.667    2.500    2.333    0.667 
#    0.000    0.000    0.000    5.000    0.000    4.667 
#    0.000    0.000    0.000    0.000    0.000    0.000 
#
# Total GULP energy -133949.178498 kJ/mol
# GULP energy per Si atom -5581.215771 kJ/mol
# Density = 2.148011 g / cm^3
# Si number density = 21.529115 Si / 1000 Ang^3
#
#
#
# Elastic Constant Matrix: (Units=GPa)
#
#
# Indices 1 2 3 4 5 6 
#
# 1 66.0152 49.5930 41.0287 0.0000 -30.5089 0.0000
# 2 49.5930 112.8489 66.2527 0.0000 -24.5595 0.0000
# 3 41.0287 66.2527 125.1990 0.0000 -32.8895 0.0000
# 4 0.0000 0.0000 0.0000 -46.0087 0.0000 25.0556
# 5 -30.5089 -24.5595 -32.8895 0.0000 41.7875 0.0000
# 6 0.0000 0.0000 0.0000 25.0556 0.0000 14.7339
#
#
#
# Elastic Compliance Matrix: (Units=1/GPa)
#
#
# Indices 1 2 3 4 5 6 
#
# 1 0.029845 -0.009247 -0.000745 0.000000 0.015769 0.000000
# 2 -0.009247 0.015980 -0.005966 0.000000 -0.002054 0.000000
# 3 -0.000745 -0.005966 0.013016 0.000000 0.006194 0.000000
# 4 0.000000 0.000000 0.000000 -0.011285 0.000000 0.019190
# 5 0.015769 -0.002054 0.006194 0.000000 0.039111 0.000000
# 6 0.000000 0.000000 0.000000 0.019190 0.000000 0.035238
#
#
# Mechanical properties :
#
#
# Convention : Reuss Voigt Hill
#
# Bulk Modulus (GPa) = 37.13888 68.64576 52.89232
# Shear Modulus (GPa) = 30.71341 11.91512 21.31427
#
# Velocity S-wave (km/s) = 3.78113 2.35509 3.14987
# Velocity P-wave (km/s) = 6.02915 6.27292 6.15224
#
# Compressibility (1/GPa) = 0.02692596
#
# Stress axis : x y z
#
# Youngs Moduli (GPa) = 33.50653 62.57649 76.83092
#
# Poissons Ratio (x) = 0.57862 0.05723
# Poissons Ratio (y) = 0.30982 0.45837
# Poissons Ratio (z) = 0.02496 0.37333
#
# Static dielectric constant tensor:
#      x y z
#    x 1.807810 0.000000 -0.046470 
#    y 0.000000 1.800660 0.000000 
#    z -0.046470 0.000000 1.842960 
# 
# From -- ./inp_files/142833.got.cif
#   From: 2010.05.17/outbox.cif.g08.bks.cpg/sg12_72_cif.got.tgz:142833.got - 2010.06.03 13:09:07.
