data_PCOD9195632
_publ_section_title
;
Structure prediction by ZEFSAII (Michael W. Deem and Ramdas Pophale) SiO2 
 PCOD9195632
Probable space group: C 2/M
;
_chemical_formula_sum "Si O2"
_cell_formula_units_Z 48
_cell_length_a 31.975142
_cell_length_b 8.904798
_cell_length_c 16.039693
_cell_angle_alpha 90.000000
_cell_angle_beta 37.674302
_cell_angle_gamma 90.000000
_cell_volume 2791.233241
_symmetry_space_group_name_H-M "C 2/M"
_symmetry_group_IT_number 12
_symmetry_cell_setting 'monoclinic'
loop_
_space_group_symop_operation_xyz
x,y,z
-x,y,-z
-x,-y,-z
x,-y,z
1/2+x,1/2+y,z
1/2-x,1/2+y,-z
1/2-x,1/2-y,-z
1/2+x,1/2-y,z
loop_
_atom_site_type_symbol
_atom_site_label
_atom_site_fract_x
_atom_site_fract_y
_atom_site_fract_z
Si Si1 0.485368 0.820884 0.762904
Si Si2 0.532416 0.318935 0.860234
Si Si3 0.317532 0.320445 0.431693
Si Si4 0.152734 0.821108 0.088794
Si Si5 0.792039 0.820080 0.814825
Si Si6 0.123886 0.181113 0.482276
O O1 0.495354 0.758610 0.840944
O O2 0.415268 0.759080 0.835408
O O3 0.550412 0.757835 0.609027
O O4 0.486027 0.000000 0.762008
O O5 0.527352 0.500000 0.857566
O O6 0.612770 0.278924 0.727097
O O7 0.500000 0.278949 0.000000
O O8 0.311014 0.500000 0.438528
O O9 0.250000 0.250000 0.500000
O O10 0.331939 0.278750 0.505319
O O11 0.168075 0.787687 0.161995
O O12 0.145813 0.000000 0.090356
O O13 0.219503 0.762846 0.934387
O O14 0.836577 0.778034 0.664236
O O15 0.780048 0.000000 0.830872
O O16 0.114175 0.000000 0.498779
#
# Coordination Sequence:
#
# PCOD9195632 Si02
#       6
#     8   8   8   8   8   8
#     4  11  22  35  53  78 108 140 177 218 258 309
#     4   9  19  37  57  76 101 135 175 217 262 309
#     4   9  18  32  51  74 101 131 163 205 253 304
#     4  10  20  35  55  78 107 140 173 215 267 318
#     4   9  19  36  57  79 103 135 177 222 265 313
#     4   9  19  37  56  75 103 138 176 218 265 311
#
# _framework density 17.1967
#
# number of rings (size 3 to 8) (size 9 to 14) (size 15 to 20)
#    0.000    2.500    0.000    3.000    0.000    6.333 
#    0.000    6.667    0.000    0.000    0.000    0.000 
#    0.000    0.000    0.000    0.000    0.000    0.000 
#
# Total GULP energy -133915.761453 kJ/mol
# GULP energy per Si atom -5579.823394 kJ/mol
# Density = 1.715756 g / cm^3
# Si number density = 17.196700 Si / 1000 Ang^3
#
#
#
# Elastic Constant Matrix: (Units=GPa)
#
#
# Indices 1 2 3 4 5 6 
#
# 1 133.2363 63.7311 113.8607 0.0001 -24.7603 0.0000
# 2 63.7311 53.2365 67.9770 -0.0003 -7.0053 0.0000
# 3 113.8607 67.9770 180.3467 -0.0001 10.0941 0.0000
# 4 0.0001 -0.0003 -0.0001 27.8785 0.0001 -8.8880
# 5 -24.7603 -7.0053 10.0941 0.0001 27.7491 0.0000
# 6 0.0000 0.0000 0.0000 -8.8880 0.0000 30.0391
#
#
#
# Elastic Compliance Matrix: (Units=1/GPa)
#
#
# Indices 1 2 3 4 5 6 
#
# 1 0.044161 -0.015974 -0.024335 -0.000001 0.044224 0.000000
# 2 -0.015974 0.048668 -0.008318 0.000001 0.001058 0.000000
# 3 -0.024335 -0.008318 0.025904 0.000000 -0.033236 0.000000
# 4 -0.000001 0.000001 0.000000 0.039606 0.000000 0.011719
# 5 0.044224 0.001058 -0.033236 0.000000 0.087855 0.000000
# 6 0.000000 0.000000 0.000000 0.011719 0.000000 0.036757
#
#
# Mechanical properties :
#
#
# Convention : Reuss Voigt Hill
#
# Bulk Modulus (GPa) = 46.55823 95.32858 70.94340
# Shear Modulus (GPa) = 12.90774 25.21670 19.06222
#
# Velocity S-wave (km/s) = 2.74267 3.83347 3.33300
# Velocity P-wave (km/s) = 6.09609 8.66883 7.49370
#
# Compressibility (1/GPa) = 0.02147848
#
# Stress axis : x y z
#
# Youngs Moduli (GPa) = 22.64454 20.54744 38.60411
#
# Poissons Ratio (x) = 0.32823 0.93942
# Poissons Ratio (y) = 0.36173 0.32111
# Poissons Ratio (z) = 0.55105 0.17092
#
# Static dielectric constant tensor:
#      x y z
#    x 1.557250 0.000000 0.011670 
#    y 0.000000 1.575660 0.000000 
#    z 0.011670 0.000000 1.566250 
# 
# From -- ./inp_files/229876.got.cif
#   From: 2010.05.17/outbox.cif.g08.bks.cpg/sg12_115_cif.got.tgz:229876.got - 2010.06.03 13:09:07.
