data_PCOD9195898
_publ_section_title
;
Structure prediction by ZEFSAII (Michael W. Deem and Ramdas Pophale) SiO2 
 PCOD9195898
Probable space group: C 2/M
;
_chemical_formula_sum "Si O2"
_cell_formula_units_Z 56
_cell_length_a 14.314458
_cell_length_b 19.539707
_cell_length_c 8.903613
_cell_angle_alpha 90.000000
_cell_angle_beta 109.581359
_cell_angle_gamma 90.000000
_cell_volume 2346.318192
_symmetry_space_group_name_H-M "C 2/M"
_symmetry_group_IT_number 12
_symmetry_cell_setting 'monoclinic'
loop_
_space_group_symop_operation_xyz
x,y,z
-x,y,-z
-x,-y,-z
x,-y,z
1/2+x,1/2+y,z
1/2-x,1/2+y,-z
1/2-x,1/2-y,-z
1/2+x,1/2-y,z
loop_
_atom_site_type_symbol
_atom_site_label
_atom_site_fract_x
_atom_site_fract_y
_atom_site_fract_z
Si Si1 0.109197 0.920261 0.581781
Si Si2 0.214911 0.577707 0.125236
Si Si3 0.613375 0.799274 0.993195
Si Si4 0.434920 0.925318 0.669944
Si Si5 0.249629 0.925026 0.362605
Si Si6 0.994334 0.730203 0.321343
Si Si7 0.695143 0.277044 0.315774
O O1 0.181309 0.894893 0.752199
O O2 0.174381 0.919977 0.465353
O O3 0.000000 0.890432 0.500000
O O4 0.094439 0.000000 0.613282
O O5 0.226889 0.500000 0.078874
O O6 0.137964 0.575682 0.224770
O O7 0.160307 0.627311 0.982562
O O8 0.600367 0.756743 0.833826
O O9 0.500000 0.803286 0.000000
O O10 0.683075 0.770455 0.162947
O O11 0.360459 0.925959 0.488410
O O12 0.486297 0.851714 0.692453
O O13 0.487635 0.000000 0.702466
O O14 0.234046 0.850624 0.284491
O O15 0.230853 0.000000 0.281017
O O16 0.081387 0.777725 0.306298
O O17 0.000000 0.738911 0.500000
O O18 0.750000 0.250000 0.500000
#
# Coordination Sequence:
#
# PCOD9195898 Si02
#       7
#     8   8   8   8   8   8   8
#     4   8  14  25  44  78 119 150 187 241 288 334
#     4   9  15  27  51  82 115 158 203 241 290 354
#     4  10  20  35  55  85 118 156 199 244 288 362
#     4   9  16  31  55  86 118 155 196 233 287 362
#     4   9  17  30  55  88 113 145 198 242 287 351
#     4  11  23  38  56  86 125 154 197 247 299 355
#     4  11  19  36  62  84 114 163 199 238 292 349
#
# _framework density 23.867180999999999
#
# number of rings (size 3 to 8) (size 9 to 14) (size 15 to 20)
#    0.000    2.429    4.286    2.571    0.000    1.714 
#    0.000    0.714    0.000    7.286    0.000    0.000 
#    0.000    0.000    0.000    1.571    0.000    0.000 
#
# Total GULP energy -156112.617224 kJ/mol
# GULP energy per Si atom -5575.450615 kJ/mol
# Density = 2.381286 g / cm^3
# Si number density = 23.867181 Si / 1000 Ang^3
#
#
#
# Elastic Constant Matrix: (Units=GPa)
#
#
# Indices 1 2 3 4 5 6 
#
# 1 55.5780 14.8824 30.3802 0.0000 11.7815 0.0000
# 2 14.8824 150.9898 38.0529 0.0000 12.7310 0.0000
# 3 30.3802 38.0529 130.3644 0.0000 19.8891 0.0000
# 4 0.0000 0.0000 0.0000 21.2551 0.0000 9.2456
# 5 11.7815 12.7310 19.8891 0.0000 32.6307 0.0000
# 6 0.0000 0.0000 0.0000 9.2456 0.0000 19.9087
#
#
#
# Elastic Compliance Matrix: (Units=1/GPa)
#
#
# Indices 1 2 3 4 5 6 
#
# 1 0.021443 -0.000673 -0.004035 0.000000 -0.005020 0.000000
# 2 -0.000673 0.007254 -0.001726 0.000000 -0.001535 0.000000
# 3 -0.004035 -0.001726 0.009691 0.000000 -0.003777 0.000000
# 4 0.000000 0.000000 0.000000 0.058957 0.000000 -0.027380
# 5 -0.005020 -0.001535 -0.003777 0.000000 0.035359 0.000000
# 6 0.000000 0.000000 0.000000 -0.027380 0.000000 0.062944
#
#
# Mechanical properties :
#
#
# Convention : Reuss Voigt Hill
#
# Bulk Modulus (GPa) = 39.18643 55.95145 47.56894
# Shear Modulus (GPa) = 23.03899 31.66669 27.35284
#
# Velocity S-wave (km/s) = 3.11030 3.64646 3.38900
# Velocity P-wave (km/s) = 5.41782 6.42049 5.94035
#
# Compressibility (1/GPa) = 0.02551904
#
# Stress axis : x y z
#
# Youngs Moduli (GPa) = 46.63618 137.85868 103.18740
#
# Poissons Ratio (x) = 0.09284 0.41631
# Poissons Ratio (y) = 0.03141 0.17813
# Poissons Ratio (z) = 0.18816 0.23798
#
# Static dielectric constant tensor:
#      x y z
#    x 1.953410 0.000000 -0.041710 
#    y 0.000000 1.958640 0.000000 
#    z -0.041710 0.000000 1.996700 
# 
# From -- ./inp_files/77654.got.cif
#   From: 2010.05.17/outbox.cif.g08.bks.cpg/sg12_39_cif.got.tgz:77654.got - 2010.06.03 13:09:07.
