data_PCOD9195072
_publ_section_title
;
Structure prediction by ZEFSAII (Michael W. Deem and Ramdas Pophale) SiO2 
 PCOD9195072
Probable space group: C 2/M
;
_chemical_formula_sum "Si O2"
_cell_formula_units_Z 48
_cell_length_a 26.782680
_cell_length_b 16.703789
_cell_length_c 5.286796
_cell_angle_alpha 90.000000
_cell_angle_beta 91.496937
_cell_angle_gamma 90.000000
_cell_volume 2364.358569
_symmetry_space_group_name_H-M "C 2/M"
_symmetry_group_IT_number 12
_symmetry_cell_setting 'monoclinic'
loop_
_space_group_symop_operation_xyz
x,y,z
-x,y,-z
-x,-y,-z
x,-y,z
1/2+x,1/2+y,z
1/2-x,1/2+y,-z
1/2-x,1/2-y,-z
1/2+x,1/2-y,z
loop_
_atom_site_type_symbol
_atom_site_label
_atom_site_fract_x
_atom_site_fract_y
_atom_site_fract_z
Si Si1 0.581024 0.093652 0.592494
Si Si2 0.553111 0.184921 0.103131
Si Si3 0.125084 0.808307 0.940460
Si Si4 0.032071 0.905369 0.745427
Si Si5 0.820145 0.680372 0.413459
Si Si6 0.720536 0.307033 0.188975
O O1 0.550890 0.138287 0.365952
O O2 0.638743 0.113460 0.527539
O O3 0.570954 0.000000 0.586715
O O4 0.570200 0.127809 0.871979
O O5 0.500000 0.216109 0.000000
O O6 0.591532 0.258140 0.133672
O O7 0.084832 0.860497 0.785180
O O8 0.151332 0.739369 0.777517
O O9 0.173019 0.852567 0.066321
O O10 0.000000 0.875666 0.500000
O O11 0.041564 0.000000 0.706346
O O12 0.000000 0.898566 0.000000
O O13 0.766789 0.645277 0.315318
O O14 0.803985 0.742367 0.626929
O O15 0.750000 0.250000 0.000000
#
# Coordination Sequence:
#
# PCOD9195072 Si02
#       6
#     8   8   8   8   8   8
#     4  11  23  39  57  81 118 156 189 234 287 339
#     4  11  23  37  56  85 114 150 201 237 275 331
#     4  10  20  34  61  85 114 149 194 240 282 340
#     4  10  23  40  59  86 122 158 189 232 294 348
#     4   9  19  34  57  85 111 146 193 235 287 341
#     4   9  17  34  57  83 111 140 185 241 290 333
#
# _framework density 20.301489
#
# number of rings (size 3 to 8) (size 9 to 14) (size 15 to 20)
#    0.000    2.000    1.667    1.500    2.333    4.667 
#    0.000    0.833    0.000    9.000    0.000    0.000 
#    0.000    0.000    0.000    0.000    0.000    0.000 
#
# Total GULP energy -133742.090404 kJ/mol
# GULP energy per Si atom -5572.587100 kJ/mol
# Density = 2.025528 g / cm^3
# Si number density = 20.301489 Si / 1000 Ang^3
#
#
#
# Elastic Constant Matrix: (Units=GPa)
#
#
# Indices 1 2 3 4 5 6 
#
# 1 171.3930 25.3168 33.1831 0.0000 34.9042 0.0000
# 2 25.3168 45.8318 4.0797 0.0000 10.7395 0.0000
# 3 33.1831 4.0797 73.8858 0.0000 11.3871 0.0000
# 4 0.0000 0.0000 0.0000 15.6898 0.0000 8.9078
# 5 34.9042 10.7395 11.3871 0.0000 45.3958 0.0000
# 6 0.0000 0.0000 0.0000 8.9078 0.0000 17.6019
#
#
#
# Elastic Compliance Matrix: (Units=1/GPa)
#
#
# Indices 1 2 3 4 5 6 
#
# 1 0.007704 -0.002953 -0.002592 0.000000 -0.004575 0.000000
# 2 -0.002953 0.024246 0.000543 0.000000 -0.003601 0.000000
# 3 -0.002592 0.000543 0.014959 0.000000 -0.001888 0.000000
# 4 0.000000 0.000000 0.000000 0.089431 0.000000 -0.045258
# 5 -0.004575 -0.003601 -0.001888 0.000000 0.026872 0.000000
# 6 0.000000 0.000000 0.000000 -0.045258 0.000000 0.079716
#
#
# Mechanical properties :
#
#
# Convention : Reuss Voigt Hill
#
# Bulk Modulus (GPa) = 27.09690 46.25220 36.67455
# Shear Modulus (GPa) = 18.85129 30.97291 24.91210
#
# Velocity S-wave (km/s) = 3.05055 3.91019 3.50681
# Velocity P-wave (km/s) = 5.07779 6.57406 5.87377
#
# Compressibility (1/GPa) = 0.03690459
#
# Stress axis : x y z
#
# Youngs Moduli (GPa) = 129.79859 41.24445 66.84729
#
# Poissons Ratio (x) = 0.12179 0.17326
# Poissons Ratio (y) = 0.38329 -0.03627
# Poissons Ratio (z) = 0.33643 -0.02238
#
# Static dielectric constant tensor:
#      x y z
#    x 1.847990 0.000000 0.016540 
#    y 0.000000 1.694480 0.000000 
#    z 0.016540 0.000000 1.829530 
# 
# From -- ./inp_files/24780.got.cif
#   From: 2010.05.17/outbox.cif.g08.bks.cpg/sg12_13_cif.got.tgz:24780.got - 2010.06.03 13:09:07.
