data_PCOD9195125
_publ_section_title
;
Structure prediction by ZEFSAII (Michael W. Deem and Ramdas Pophale) SiO2 
 PCOD9195125
Probable space group: C 2/M
;
_chemical_formula_sum "Si O2"
_cell_formula_units_Z 36
_cell_length_a 13.968138
_cell_length_b 13.858977
_cell_length_c 19.101195
_cell_angle_alpha 90.000000
_cell_angle_beta 151.718271
_cell_angle_gamma 90.000000
_cell_volume 1751.991836
_symmetry_space_group_name_H-M "C 2/M"
_symmetry_group_IT_number 12
_symmetry_cell_setting 'monoclinic'
loop_
_space_group_symop_operation_xyz
x,y,z
-x,y,-z
-x,-y,-z
x,-y,z
1/2+x,1/2+y,z
1/2-x,1/2+y,-z
1/2-x,1/2-y,-z
1/2+x,1/2-y,z
loop_
_atom_site_type_symbol
_atom_site_label
_atom_site_fract_x
_atom_site_fract_y
_atom_site_fract_z
Si Si1 0.448689 0.782021 0.671745
Si Si2 0.255097 0.205226 0.331858
Si Si3 0.202884 0.675281 0.172240
Si Si4 0.570595 0.000000 0.348617
Si Si5 0.782387 0.500000 0.400724
Si Si6 0.725369 0.500000 0.673844
O O1 0.250000 0.750000 0.500000
O O2 0.365703 0.777681 0.696544
O O3 0.615783 0.701695 0.763213
O O4 0.520966 0.891577 0.702659
O O5 0.500000 0.216001 0.500000
O O6 0.194552 0.228868 0.214547
O O7 0.191277 0.099466 0.315669
O O8 0.246753 0.590902 0.256116
O O9 0.000000 0.655057 0.000000
O O10 0.707279 0.000000 0.508077
O O11 0.650804 0.000000 0.319867
O O12 0.000000 0.500000 0.500000
O O13 0.500000 0.500000 0.500000
#
# Coordination Sequence:
#
# PCOD9195125 Si02
#       6
#     8   8   8   4   4   4
#     4  12  22  41  72  99 135 182 239 287 351 416
#     4  11  21  40  65 100 133 182 237 291 342 422
#     4  12  27  45  67 101 147 184 230 294 358 413
#     4  12  22  39  71 105 131 170 238 300 338 405
#     4  10  20  34  64 101 136 170 231 292 341 406
#     4  12  25  45  75 104 134 184 237 289 342 425
#
# _framework density 20.54804
#
# number of rings (size 3 to 8) (size 9 to 14) (size 15 to 20)
#    0.000    0.444    6.667    3.667    0.000    0.889 
#    0.000    2.222    0.000    0.000    0.000    0.000 
#    0.000    0.000    0.000    0.000    0.000    0.000 
#
# Total GULP energy -100308.621710 kJ/mol
# GULP energy per Si atom -5572.701206 kJ/mol
# Density = 2.050127 g / cm^3
# Si number density = 20.548040 Si / 1000 Ang^3
#
#
#
# Elastic Constant Matrix: (Units=GPa)
#
#
# Indices 1 2 3 4 5 6 
#
# 1 112.1038 39.4460 41.0442 0.0001 -7.7360 0.0001
# 2 39.4460 148.5141 35.9243 0.0007 -6.5582 0.0008
# 3 41.0442 35.9243 120.3924 -0.0013 -3.0445 0.0009
# 4 0.0001 0.0007 -0.0013 -16.3261 0.0004 2.5607
# 5 -7.7360 -6.5582 -3.0445 0.0004 23.3538 0.0005
# 6 0.0001 0.0008 0.0009 2.5607 0.0005 33.0643
#
#
#
# Elastic Compliance Matrix: (Units=1/GPa)
#
#
# Indices 1 2 3 4 5 6 
#
# 1 0.010942 -0.002051 -0.003051 0.000000 0.002651 0.000000
# 2 -0.002051 0.007715 -0.001570 0.000000 0.001282 0.000000
# 3 -0.003051 -0.001570 0.009811 -0.000001 -0.000173 0.000000
# 4 0.000000 0.000000 -0.000001 -0.060516 0.000001 0.004687
# 5 0.002651 0.001282 -0.000173 0.000001 0.044035 -0.000001
# 6 0.000000 0.000000 0.000000 0.004687 -0.000001 0.029881
#
#
# Mechanical properties :
#
#
# Convention : Reuss Voigt Hill
#
# Bulk Modulus (GPa) = 66.12930 68.20437 67.16684
# Shear Modulus (GPa) = 82.98286 25.65812 54.32049
#
# Velocity S-wave (km/s) = 6.36180 3.53751 5.14716
# Velocity P-wave (km/s) = 9.28525 7.06753 8.25124
#
# Compressibility (1/GPa) = 0.01512189
#
# Stress axis : x y z
#
# Youngs Moduli (GPa) = 91.38982 129.62400 101.93032
#
# Poissons Ratio (x) = 0.26588 0.31102
# Poissons Ratio (y) = 0.18745 0.16006
# Poissons Ratio (z) = 0.27886 0.20355
#
# Static dielectric constant tensor:
#      x y z
#    x 1.940020 0.000000 -0.092710 
#    y 0.000000 1.816600 0.000000 
#    z -0.092710 0.000000 1.727240 
# 
# From -- ./inp_files/270494.got.cif
#   From: 2010.05.17/outbox.cif.g08.bks.cpg/sg12_136_cif.got.tgz:270494.got - 2010.06.03 13:09:07.
