data_PCOD9195258
_publ_section_title
;
Structure prediction by ZEFSAII (Michael W. Deem and Ramdas Pophale) SiO2 
 PCOD9195258
Probable space group: C 2/M
;
_chemical_formula_sum "Si O2"
_cell_formula_units_Z 64
_cell_length_a 23.142340
_cell_length_b 7.623105
_cell_length_c 17.077665
_cell_angle_alpha 90.000000
_cell_angle_beta 88.748469
_cell_angle_gamma 90.000000
_cell_volume 3012.062961
_symmetry_space_group_name_H-M "C 2/M"
_symmetry_group_IT_number 12
_symmetry_cell_setting 'monoclinic'
loop_
_space_group_symop_operation_xyz
x,y,z
-x,y,-z
-x,-y,-z
x,-y,z
1/2+x,1/2+y,z
1/2-x,1/2+y,-z
1/2-x,1/2-y,-z
1/2+x,1/2-y,z
loop_
_atom_site_type_symbol
_atom_site_label
_atom_site_fract_x
_atom_site_fract_y
_atom_site_fract_z
Si Si1 0.585015 0.795792 0.774079
Si Si2 0.215338 0.798839 0.759810
Si Si3 0.485213 0.799369 0.084630
Si Si4 0.276874 0.290959 0.915653
Si Si5 0.962819 0.714470 0.386547
Si Si6 0.396643 0.707680 0.844100
Si Si7 0.167523 0.712292 0.314867
Si Si8 0.087028 0.713617 0.452074
O O1 0.653345 0.789235 0.760042
O O2 0.563358 0.718266 0.857167
O O3 0.554561 0.719258 0.698086
O O4 0.567360 0.000000 0.777765
O O5 0.239635 0.792138 0.847361
O O6 0.268047 0.722743 0.706864
O O7 0.206184 0.000000 0.736589
O O8 0.543909 0.797206 0.133695
O O9 0.466720 0.000000 0.067454
O O10 0.500000 0.716640 0.000000
O O11 0.275768 0.500000 0.903105
O O12 0.343330 0.234083 0.901197
O O13 0.250000 0.250000 0.000000
O O14 0.961383 0.500000 0.385139
O O15 0.919751 0.770154 0.457783
O O16 0.027319 0.763757 0.410618
O O17 0.405253 0.500000 0.853640
O O18 0.374368 0.741102 0.756583
O O19 0.170397 0.500000 0.315666
O O20 0.139933 0.773715 0.396997
O O21 0.088537 0.500000 0.452665
#
# Coordination Sequence:
#
# PCOD9195258 Si02
#       8
#     8   8   8   8   8   8   8   8
#     4  10  20  35  53  74 104 140 175 215 263 314
#     4  10  21  35  51  74 102 139 178 214 258 307
#     4  10  22  37  53  75 100 133 174 213 257 310
#     4  10  21  36  55  78 102 131 169 214 260 306
#     4   8  14  25  47  79 106 130 166 214 264 306
#     4  10  21  35  52  77 105 131 164 208 259 308
#     4   9  17  32  54  76 101 135 174 214 254 301
#     4   8  13  25  49  79 105 128 166 218 259 302
#
# _framework density 21.247896000000001
#
# number of rings (size 3 to 8) (size 9 to 14) (size 15 to 20)
#    0.000    2.625    0.000    2.625    1.750    4.750 
#    0.000    0.625    0.000    0.750    0.000    2.625 
#    0.000    0.000    0.000    0.000    0.000    0.000 
#
# Total GULP energy -178569.662154 kJ/mol
# GULP energy per Si atom -5580.301942 kJ/mol
# Density = 2.119953 g / cm^3
# Si number density = 21.247896 Si / 1000 Ang^3
#
#
#
# Elastic Constant Matrix: (Units=GPa)
#
#
# Indices 1 2 3 4 5 6 
#
# 1 72.6891 0.9905 50.3176 0.0000 -20.1289 0.0000
# 2 0.9905 48.5942 3.4773 0.0000 -3.1191 0.0000
# 3 50.3176 3.4773 132.8370 0.0000 -44.6640 0.0000
# 4 0.0000 0.0000 0.0000 -3.2196 0.0000 2.1957
# 5 -20.1289 -3.1191 -44.6640 0.0000 33.2290 0.0000
# 6 0.0000 0.0000 0.0000 2.1957 0.0000 10.5663
#
#
#
# Elastic Compliance Matrix: (Units=1/GPa)
#
#
# Indices 1 2 3 4 5 6 
#
# 1 0.018849 0.000262 -0.006020 0.000000 0.003351 0.000000
# 2 0.000262 0.020710 0.000120 0.000000 0.002264 0.000000
# 3 -0.006020 0.000120 0.015660 0.000000 0.017414 0.000000
# 4 0.000000 0.000000 0.000000 -0.272043 0.000000 0.056532
# 5 0.003351 0.002264 0.017414 0.000000 0.055743 0.000000
# 6 0.000000 0.000000 0.000000 0.056532 0.000000 0.082893
#
#
# Mechanical properties :
#
#
# Convention : Reuss Voigt Hill
#
# Bulk Modulus (GPa) = 22.75715 40.41014 31.58364
# Shear Modulus (GPa) = -95.67006 21.40412 -37.13297
#
# Velocity S-wave (km/s) = -6.71740 3.17732 -4.18497
# Velocity P-wave (km/s) = 7.03072 5.70265 2.90781
#
# Compressibility (1/GPa) = 0.04394224
#
# Stress axis : x y z
#
# Youngs Moduli (GPa) = 53.05384 48.28593 63.85544
#
# Poissons Ratio (x) = -0.01263 0.38441
# Poissons Ratio (y) = -0.01388 -0.00765
# Poissons Ratio (z) = 0.31938 -0.00579
#
# Static dielectric constant tensor:
#      x y z
#    x 1.749220 0.000000 -0.046760 
#    y 0.000000 2.060170 0.000000 
#    z -0.046760 0.000000 1.775650 
# 
# From -- ./inp_files/281236.got.cif
#   From: 2010.05.17/outbox.cif.g08.bks.cpg/sg12_141_cif.got.tgz:281236.got - 2010.06.03 13:09:07.
