data_PCOD9195884
_publ_section_title
;
Structure prediction by ZEFSAII (Michael W. Deem and Ramdas Pophale) SiO2 
 PCOD9195884
Probable space group: C 2/M
;
_chemical_formula_sum "Si O2"
_cell_formula_units_Z 64
_cell_length_a 15.159298
_cell_length_b 22.266107
_cell_length_c 17.838211
_cell_angle_alpha 90.000000
_cell_angle_beta 148.901507
_cell_angle_gamma 90.000000
_cell_volume 3109.954904
_symmetry_space_group_name_H-M "C 2/M"
_symmetry_group_IT_number 12
_symmetry_cell_setting 'monoclinic'
loop_
_space_group_symop_operation_xyz
x,y,z
-x,y,-z
-x,-y,-z
x,-y,z
1/2+x,1/2+y,z
1/2-x,1/2+y,-z
1/2-x,1/2-y,-z
1/2+x,1/2-y,z
loop_
_atom_site_type_symbol
_atom_site_label
_atom_site_fract_x
_atom_site_fract_y
_atom_site_fract_z
Si Si1 0.395120 0.317088 0.345840
Si Si2 0.621742 0.660875 0.019245
Si Si3 0.414821 0.426806 0.146248
Si Si4 0.000353 0.347245 0.721618
Si Si5 0.039633 0.569651 0.863904
Si Si6 0.187702 0.569065 0.173652
Si Si7 0.584676 0.239743 0.209188
Si Si8 0.635624 0.672803 0.384360
O O1 0.500000 0.324192 0.500000
O O2 0.325266 0.380027 0.262777
O O3 0.229498 0.278981 0.254079
O O4 0.520000 0.298093 0.367609
O O5 0.587751 0.605611 0.937239
O O6 0.564269 0.723100 0.938953
O O7 0.500000 0.651353 0.000000
O O8 0.820196 0.668008 0.184953
O O9 0.437041 0.500000 0.161924
O O10 0.551768 0.389532 0.294254
O O11 0.220796 0.408798 0.030070
O O12 0.021669 0.415324 0.764087
O O13 0.989815 0.315446 0.796436
O O14 0.825409 0.336636 0.553007
O O15 0.062422 0.500000 0.890940
O O16 0.862812 0.580973 0.776663
O O17 0.242121 0.500000 0.200094
O O18 0.000000 0.576711 0.000000
O O19 0.648317 0.283854 0.321632
#
# Coordination Sequence:
#
# PCOD9195884 Si02
#       8
#     8   8   8   8   8   8   8   8
#     4  12  24  39  61  92 124 168 211 250 313 371
#     4  10  24  41  66  97 119 161 215 265 317 367
#     4   9  20  41  67  92 127 165 204 258 319 380
#     4  11  21  41  61  86 125 163 207 259 309 367
#     4   9  17  34  57  84 118 159 202 252 307 358
#     4  10  20  35  55  84 120 156 202 251 294 357
#     4  11  24  42  59  87 127 168 209 259 309 371
#     4  11  24  40  63  90 128 170 208 253 315 381
#
# _framework density 20.579076000000001
#
# number of rings (size 3 to 8) (size 9 to 14) (size 15 to 20)
#    0.000    1.625    2.500    1.500    1.750    3.000 
#    0.000    1.875    0.000    0.750    0.000    0.000 
#    0.000    0.000    0.000    0.000    0.000    0.000 
#
# Total GULP energy -178262.287519 kJ/mol
# GULP energy per Si atom -5570.696485 kJ/mol
# Density = 2.053224 g / cm^3
# Si number density = 20.579076 Si / 1000 Ang^3
#
#
#
# Elastic Constant Matrix: (Units=GPa)
#
#
# Indices 1 2 3 4 5 6 
#
# 1 111.3826 18.9837 34.2297 0.0002 19.2928 0.0001
# 2 18.9837 56.0700 17.3351 -0.0005 7.7618 0.0003
# 3 34.2297 17.3351 80.4121 -0.0015 27.3504 0.0016
# 4 0.0002 -0.0005 -0.0015 21.1741 -0.0004 9.4327
# 5 19.2928 7.7618 27.3504 -0.0004 26.9969 0.0005
# 6 0.0001 0.0003 0.0016 9.4327 0.0005 7.7277
#
#
#
# Elastic Compliance Matrix: (Units=1/GPa)
#
#
# Indices 1 2 3 4 5 6 
#
# 1 0.010957 -0.002269 -0.002645 -0.000002 -0.004498 0.000003
# 2 -0.002269 0.019650 -0.002899 0.000000 -0.001091 -0.000001
# 3 -0.002645 -0.002899 0.020232 0.000005 -0.017773 -0.000009
# 4 -0.000002 0.000000 0.000005 0.103519 0.000000 -0.126360
# 5 -0.004498 -0.001091 -0.017773 0.000000 0.058575 0.000000
# 6 0.000003 -0.000001 -0.000009 -0.126360 0.000000 0.283646
#
#
# Mechanical properties :
#
#
# Convention : Reuss Voigt Hill
#
# Bulk Modulus (GPa) = 28.39905 43.21796 35.80851
# Shear Modulus (GPa) = 9.54300 23.00081 16.27191
#
# Velocity S-wave (km/s) = 2.15576 3.34680 2.81499
# Velocity P-wave (km/s) = 4.47508 5.99844 5.29186
#
# Compressibility (1/GPa) = 0.03521244
#
# Stress axis : x y z
#
# Youngs Moduli (GPa) = 91.26774 50.88930 49.42656
#
# Poissons Ratio (x) = 0.11548 0.13073
# Poissons Ratio (y) = 0.20711 0.14330
# Poissons Ratio (z) = 0.24140 0.14754
#
# Static dielectric constant tensor:
#      x y z
#    x 1.884080 0.000000 0.038670 
#    y 0.000000 1.880300 0.000000 
#    z 0.038670 0.000000 1.769300 
# 
# From -- ./inp_files/272862.got.cif
#   From: 2010.05.17/outbox.cif.g08.bks.cpg/sg12_137_cif.got.tgz:272862.got - 2010.06.03 13:09:07.
