data_PCOD9195229
_publ_section_title
;
Structure prediction by ZEFSAII (Michael W. Deem and Ramdas Pophale) SiO2 
 PCOD9195229
Probable space group: C 2/M
;
_chemical_formula_sum "Si O2"
_cell_formula_units_Z 54
_cell_length_a 5.184567
_cell_length_b 32.646148
_cell_length_c 18.344111
_cell_angle_alpha 90.000000
_cell_angle_beta 76.402789
_cell_angle_gamma 90.000000
_cell_volume 3017.832000
_symmetry_space_group_name_H-M "C 2/M"
_symmetry_group_IT_number 12
_symmetry_cell_setting 'monoclinic'
loop_
_space_group_symop_operation_xyz
x,y,z
-x,y,-z
-x,-y,-z
x,-y,z
1/2+x,1/2+y,z
1/2-x,1/2+y,-z
1/2-x,1/2-y,-z
1/2+x,1/2-y,z
loop_
_atom_site_type_symbol
_atom_site_label
_atom_site_fract_x
_atom_site_fract_y
_atom_site_fract_z
Si Si1 0.878677 0.661662 0.937243
Si Si2 0.302787 0.124238 0.214479
Si Si3 0.000000 0.911138 0.000000
Si Si4 0.120556 0.223491 0.853844
Si Si5 0.289117 0.545687 0.872388
Si Si6 0.757435 0.337367 0.718125
Si Si7 0.934395 0.722940 0.589246
Si Si8 0.500000 0.000000 0.000000
O O1 0.744204 0.619782 0.972166
O O2 0.657718 0.688871 0.912348
O O3 0.101733 0.650081 0.862806
O O4 0.000000 0.682721 0.000000
O O5 0.536779 0.131618 0.256947
O O6 0.252813 0.078564 0.187495
O O7 0.030659 0.142037 0.264329
O O8 0.037598 0.936920 0.071692
O O9 0.330234 0.258655 0.861218
O O10 0.224395 0.201865 0.773501
O O11 0.388196 0.500000 0.843525
O O12 0.021713 0.534791 0.934469
O O13 0.862171 0.318480 0.636262
O O14 0.686018 0.754109 0.607574
O O15 0.000000 0.715276 0.500000
#
# Coordination Sequence:
#
# PCOD9195229 Si02
#       8
#     8   8   4   8   8   8   8   2
#     4  11  24  36  53  67  98 137 190 240 288 326
#     4  11  22  39  55  80 108 148 187 228 285 354
#     4  12  21  38  56  70 101 140 178 247 298 364
#     4  11  23  36  51  70  95 133 184 226 269 311
#     4  10  20  35  52  81 101 134 186 232 302 347
#     4  11  22  38  60  78 114 152 182 218 279 344
#     4  10  20  36  62  96 126 152 186 231 275 325
#     4   8  20  30  52  76 104 128 178 244 300 342
#
# _framework density 17.893639
#
# number of rings (size 3 to 8) (size 9 to 14) (size 15 to 20)
#    0.444    0.889    1.481    6.444    2.074    0.593 
#    0.000    0.000    0.000    0.000    0.000    0.000 
#    0.000    3.556    0.000    0.000    0.000    0.000 
#
# Total GULP energy -150509.138167 kJ/mol
# GULP energy per Si atom -5574.412525 kJ/mol
# Density = 1.785291 g / cm^3
# Si number density = 17.893639 Si / 1000 Ang^3
#
#
#
# Elastic Constant Matrix: (Units=GPa)
#
#
# Indices 1 2 3 4 5 6 
#
# 1 69.5922 10.4711 9.2257 0.0000 -14.5811 0.0000
# 2 10.4711 88.4943 18.1678 0.0000 -6.6577 0.0000
# 3 9.2257 18.1678 48.7164 0.0000 -10.3307 0.0000
# 4 0.0000 0.0000 0.0000 22.9232 0.0000 0.4602
# 5 -14.5811 -6.6577 -10.3307 0.0000 15.9476 0.0000
# 6 0.0000 0.0000 0.0000 0.4602 0.0000 50.2459
#
#
#
# Elastic Compliance Matrix: (Units=1/GPa)
#
#
# Indices 1 2 3 4 5 6 
#
# 1 0.017852 -0.000980 0.000417 0.000000 0.016183 0.000000
# 2 -0.000980 0.012377 -0.004086 0.000000 0.001624 0.000000
# 3 0.000417 -0.004086 0.025145 0.000000 0.014964 0.000000
# 4 0.000000 0.000000 0.000000 0.043632 0.000000 -0.000400
# 5 0.016183 0.001624 0.014964 0.000000 0.087874 0.000000
# 6 0.000000 0.000000 0.000000 -0.000400 0.000000 0.019906
#
#
# Mechanical properties :
#
#
# Convention : Reuss Voigt Hill
#
# Bulk Modulus (GPa) = 21.70352 31.39245 26.54798
# Shear Modulus (GPa) = 21.60354 29.08589 25.34472
#
# Velocity S-wave (km/s) = 3.47844 4.03611 3.76760
# Velocity P-wave (km/s) = 5.31867 6.26915 5.81336
#
# Compressibility (1/GPa) = 0.04607548
#
# Stress axis : x y z
#
# Youngs Moduli (GPa) = 56.01461 80.79400 39.76945
#
# Poissons Ratio (x) = 0.07921 -0.01657
# Poissons Ratio (y) = 0.05492 0.16249
# Poissons Ratio (z) = -0.02333 0.33010
#
# Static dielectric constant tensor:
#      x y z
#    x 1.699410 0.000000 -0.019930 
#    y 0.000000 1.634450 0.000000 
#    z -0.019930 0.000000 1.603740 
# 
# From -- ./inp_files/253874.got.cif
#   From: 2010.05.17/outbox.cif.g08.bks.cpg/sg12_127_cif.got.tgz:253874.got - 2010.06.03 13:09:07.
