data_PCOD9195904
_publ_section_title
;
Structure prediction by ZEFSAII (Michael W. Deem and Ramdas Pophale) SiO2 
 PCOD9195904
Probable space group: C 2/M
;
_chemical_formula_sum "Si O2"
_cell_formula_units_Z 56
_cell_length_a 31.170307
_cell_length_b 8.431495
_cell_length_c 21.497171
_cell_angle_alpha 90.000000
_cell_angle_beta 27.394481
_cell_angle_gamma 90.000000
_cell_volume 2599.517077
_symmetry_space_group_name_H-M "C 2/M"
_symmetry_group_IT_number 12
_symmetry_cell_setting 'monoclinic'
loop_
_space_group_symop_operation_xyz
x,y,z
-x,y,-z
-x,-y,-z
x,-y,z
1/2+x,1/2+y,z
1/2-x,1/2+y,-z
1/2-x,1/2-y,-z
1/2+x,1/2-y,z
loop_
_atom_site_type_symbol
_atom_site_label
_atom_site_fract_x
_atom_site_fract_y
_atom_site_fract_z
Si Si1 0.750429 0.179139 0.274140
Si Si2 0.192994 0.817460 0.016895
Si Si3 0.649015 0.172588 0.953467
Si Si4 0.069980 0.678477 0.735889
Si Si5 0.444737 0.688838 0.508123
Si Si6 0.093171 0.810415 0.841154
Si Si7 0.496479 0.190038 0.305574
O O1 0.831737 0.185800 0.117951
O O2 0.665432 0.271687 0.351929
O O3 0.808300 0.249490 0.257224
O O4 0.719184 0.000000 0.327980
O O5 0.085700 0.795054 0.173731
O O6 0.214527 0.000000 0.975768
O O7 0.250000 0.750000 0.000000
O O8 0.209411 0.707438 0.936321
O O9 0.669489 0.000000 0.899367
O O10 0.542251 0.170763 0.111461
O O11 0.108247 0.500000 0.692528
O O12 0.095977 0.774743 0.764014
O O13 0.079910 0.728280 0.650417
O O14 0.500000 0.740653 0.500000
O O15 0.458807 0.500000 0.484692
O O16 0.475442 0.771837 0.404194
O O17 0.093469 0.000000 0.849575
O O18 0.000000 0.750785 0.000000
O O19 0.515159 0.000000 0.275683
#
# Coordination Sequence:
#
# PCOD9195904 Si02
#       7
#     8   8   8   8   8   8   8
#     4  11  23  39  61  90 124 163 208 256 308 365
#     4  11  22  36  57  85 118 156 199 251 310 367
#     4  10  20  35  55  85 123 159 199 249 301 362
#     4   9  19  35  59  90 123 160 197 244 302 362
#     4  11  26  46  66  88 118 161 211 262 312 367
#     4  10  20  35  58  92 130 164 202 249 302 368
#     4  10  22  42  63  88 120 157 206 254 306 370
#
# _framework density 21.542463999999999
#
# number of rings (size 3 to 8) (size 9 to 14) (size 15 to 20)
#    0.000    1.714    1.429    3.857    2.000    5.429 
#    0.000    0.714    0.000    0.000    0.000    0.000 
#    0.000    0.000    0.000    0.000    0.000    0.000 
#
# Total GULP energy -155948.192953 kJ/mol
# GULP energy per Si atom -5569.578320 kJ/mol
# Density = 2.149343 g / cm^3
# Si number density = 21.542464 Si / 1000 Ang^3
#
#
#
# Elastic Constant Matrix: (Units=GPa)
#
#
# Indices 1 2 3 4 5 6 
#
# 1 186.4883 28.6666 24.5488 0.0008 3.5149 0.0000
# 2 28.6666 56.9958 6.0715 -0.0019 -3.8486 0.0006
# 3 24.5488 6.0715 23.0518 0.0016 2.2585 -0.0016
# 4 0.0008 -0.0019 0.0016 24.2629 -0.0005 7.0410
# 5 3.5149 -3.8486 2.2585 -0.0005 29.3507 -0.0005
# 6 0.0000 0.0006 -0.0016 7.0410 -0.0005 32.0367
#
#
#
# Elastic Compliance Matrix: (Units=1/GPa)
#
#
# Indices 1 2 3 4 5 6 
#
# 1 0.006616 -0.002705 -0.006268 0.000000 -0.000665 0.000000
# 2 -0.002705 0.019381 -0.002524 0.000002 0.003059 -0.000001
# 3 -0.006268 -0.002524 0.051064 -0.000004 -0.003510 0.000004
# 4 0.000000 0.000002 -0.000004 0.044023 0.000001 -0.009675
# 5 -0.000665 0.003059 -0.003510 0.000001 0.034822 0.000000
# 6 0.000000 -0.000001 0.000004 -0.009675 0.000000 0.033341
#
#
# Mechanical properties :
#
#
# Convention : Reuss Voigt Hill
#
# Bulk Modulus (GPa) = 18.49538 42.78998 30.64268
# Shear Modulus (GPa) = 21.71445 30.94665 26.33055
#
# Velocity S-wave (km/s) = 3.17832 3.79429 3.49988
# Velocity P-wave (km/s) = 4.69821 6.25313 5.53059
#
# Compressibility (1/GPa) = 0.05406755
#
# Stress axis : x y z
#
# Youngs Moduli (GPa) = 151.15759 51.59713 19.58323
#
# Poissons Ratio (x) = 0.13955 0.12274
# Poissons Ratio (y) = 0.40882 0.04943
# Poissons Ratio (z) = 0.94742 0.13024
#
# Static dielectric constant tensor:
#      x y z
#    x 1.823840 0.000000 0.053800 
#    y 0.000000 1.742690 0.000000 
#    z 0.053800 0.000000 1.794820 
# 
# From -- ./inp_files/329485.got.cif
#   From: 2010.05.17/outbox.cif.g08.bks.cpg/sg12_165_cif.got.tgz:329485.got - 2010.06.03 13:09:07.
