data_PCOD9195978
_publ_section_title
;
Structure prediction by ZEFSAII (Michael W. Deem and Ramdas Pophale) SiO2 
 PCOD9195978
Probable space group: C 2/M
;
_chemical_formula_sum "Si O2"
_cell_formula_units_Z 44
_cell_length_a 9.361789
_cell_length_b 14.852458
_cell_length_c 15.332707
_cell_angle_alpha 90.000000
_cell_angle_beta 52.635644
_cell_angle_gamma 90.000000
_cell_volume 1694.453594
_symmetry_space_group_name_H-M "C 2/M"
_symmetry_group_IT_number 12
_symmetry_cell_setting 'monoclinic'
loop_
_space_group_symop_operation_xyz
x,y,z
-x,y,-z
-x,-y,-z
x,-y,z
1/2+x,1/2+y,z
1/2-x,1/2+y,-z
1/2-x,1/2-y,-z
1/2+x,1/2-y,z
loop_
_atom_site_type_symbol
_atom_site_label
_atom_site_fract_x
_atom_site_fract_y
_atom_site_fract_z
Si Si1 0.031997 0.653978 0.091676
Si Si2 0.087222 0.869418 0.085788
Si Si3 0.922500 0.657208 0.669495
Si Si4 0.741011 0.500000 0.831581
Si Si5 0.644286 0.359580 0.263845
Si Si6 0.756197 0.104803 0.448067
O O1 0.852481 0.620069 0.205814
O O2 0.057411 0.761591 0.093711
O O3 0.000000 0.641946 0.000000
O O4 0.225354 0.607321 0.032700
O O5 0.109721 0.893589 0.178899
O O6 0.919650 0.922453 0.113371
O O7 0.886277 0.578165 0.749006
O O8 0.868519 0.751734 0.730028
O O9 0.802079 0.639301 0.626859
O O10 0.129689 0.657331 0.562021
O O11 0.470146 0.389161 0.382774
O O12 0.703939 0.000000 0.470646
#
# Coordination Sequence:
#
# PCOD9195978 Si02
#       6
#     8   8   8   4   8   8
#     4   9  19  35  55  78 108 143 178 214 271 325
#     4  10  20  35  56  79 111 140 179 226 266 321
#     4  11  20  33  56  82 108 143 184 225 266 317
#     4  12  18  37  58  80 108 142 186 224 268 307
#     4  11  19  33  54  84 107 146 177 224 273 322
#     4  11  20  35  54  84 112 138 185 228 266 314
#
# _framework density 25.967072999999999
#
# number of rings (size 3 to 8) (size 9 to 14) (size 15 to 20)
#    0.000    1.455    5.455    1.091    0.000    0.000 
#    1.636    1.818    0.000    0.000    7.091    6.364 
#    0.000    0.000    0.000    0.000    0.000    0.000 
#
# Total GULP energy -122747.631796 kJ/mol
# GULP energy per Si atom -5579.437809 kJ/mol
# Density = 2.590797 g / cm^3
# Si number density = 25.967073 Si / 1000 Ang^3
#
#
#
# Elastic Constant Matrix: (Units=GPa)
#
#
# Indices 1 2 3 4 5 6 
#
# 1 114.5262 11.7665 66.0053 0.0000 -34.3468 0.0000
# 2 11.7665 86.7854 -0.8509 0.0000 -4.7467 0.0000
# 3 66.0053 -0.8509 183.8315 -0.0001 -57.9479 0.0000
# 4 0.0000 0.0000 -0.0001 23.5981 0.0001 -43.9600
# 5 -34.3468 -4.7467 -57.9479 0.0001 62.8922 0.0000
# 6 0.0000 0.0000 0.0000 -43.9600 0.0000 -10.8837
#
#
#
# Elastic Compliance Matrix: (Units=1/GPa)
#
#
# Indices 1 2 3 4 5 6 
#
# 1 0.011706 -0.001432 -0.003141 0.000000 0.003391 0.000000
# 2 -0.001432 0.011774 0.000849 0.000000 0.000888 0.000000
# 3 -0.003141 0.000849 0.008528 0.000000 0.006206 0.000000
# 4 0.000000 0.000000 0.000000 0.004971 0.000000 -0.020079
# 5 0.003391 0.000888 0.006206 0.000000 0.023537 0.000000
# 6 0.000000 0.000000 0.000000 -0.020079 0.000000 -0.010779
#
#
# Mechanical properties :
#
#
# Convention : Reuss Voigt Hill
#
# Bulk Modulus (GPa) = 40.71875 59.88720 50.30297
# Shear Modulus (GPa) = 76.48518 35.66946 56.07732
#
# Velocity S-wave (km/s) = 5.43310 3.71029 4.65214
# Velocity P-wave (km/s) = 7.42113 6.43955 6.94769
#
# Compressibility (1/GPa) = 0.02455871
#
# Stress axis : x y z
#
# Youngs Moduli (GPa) = 85.42728 84.93434 117.26476
#
# Poissons Ratio (x) = 0.12166 0.36830
# Poissons Ratio (y) = 0.12237 -0.09954
# Poissons Ratio (z) = 0.26831 -0.07210
#
# Static dielectric constant tensor:
#      x y z
#    x 2.084690 0.000000 0.036990 
#    y 0.000000 1.980680 0.000000 
#    z 0.036990 0.000000 2.078140 
# 
# From -- ./inp_files/305304.got.cif
#   From: 2010.05.17/outbox.cif.g08.bks.cpg/sg12_153_cif.got.tgz:305304.got - 2010.06.03 13:09:07.
