data_PCOD9195298
_publ_section_title
;
Structure prediction by ZEFSAII (Michael W. Deem and Ramdas Pophale) SiO2 
 PCOD9195298
Probable space group: C 2/M
;
_chemical_formula_sum "Si O2"
_cell_formula_units_Z 44
_cell_length_a 23.106389
_cell_length_b 18.303030
_cell_length_c 12.261194
_cell_angle_alpha 90.000000
_cell_angle_beta 23.798649
_cell_angle_gamma 90.000000
_cell_volume 2092.458758
_symmetry_space_group_name_H-M "C 2/M"
_symmetry_group_IT_number 12
_symmetry_cell_setting 'monoclinic'
loop_
_space_group_symop_operation_xyz
x,y,z
-x,y,-z
-x,-y,-z
x,-y,z
1/2+x,1/2+y,z
1/2-x,1/2+y,-z
1/2-x,1/2-y,-z
1/2+x,1/2-y,z
loop_
_atom_site_type_symbol
_atom_site_label
_atom_site_fract_x
_atom_site_fract_y
_atom_site_fract_z
Si Si1 0.251077 0.419820 0.845880
Si Si2 0.790568 0.253797 0.556125
Si Si3 0.495199 0.329444 0.671317
Si Si4 0.212748 0.583224 0.165692
Si Si5 0.000000 0.705694 0.500000
Si Si6 0.463287 0.839454 0.936570
O O1 0.307088 0.500000 0.722473
O O2 0.384194 0.365484 0.613210
O O3 0.131603 0.397099 0.965055
O O4 0.193498 0.420667 0.067658
O O5 0.750000 0.250000 0.500000
O O6 0.906603 0.194569 0.396370
O O7 0.644200 0.232289 0.871492
O O8 0.889743 0.325876 0.383000
O O9 0.439796 0.258260 0.700207
O O10 0.372638 0.387003 0.910791
O O11 0.187448 0.500000 0.250604
O O12 0.111555 0.651755 0.366721
O O13 0.500000 0.857139 0.000000
#
# Coordination Sequence:
#
# PCOD9195298 Si02
#       6
#     8   8   8   8   4   8
#     4  10  20  35  53  77 111 147 180 228 284 332
#     4   9  19  33  53  81 110 138 180 237 285 324
#     4  11  21  34  59  81 109 141 194 231 271 336
#     4  11  23  38  53  80 119 151 181 227 289 339
#     4  12  23  34  57  86 108 148 192 232 273 330
#     4   9  18  33  52  79 107 141 185 231 284 333
#
# _framework density 21.027894
#
# number of rings (size 3 to 8) (size 9 to 14) (size 15 to 20)
#    0.000    1.818    1.818    2.455    5.091    1.818 
#    0.000    0.000    0.000    0.000    0.000    1.273 
#    0.000    0.000    0.000    0.000    0.000    0.000 
#
# Total GULP energy -122519.691700 kJ/mol
# GULP energy per Si atom -5569.076895 kJ/mol
# Density = 2.098003 g / cm^3
# Si number density = 21.027894 Si / 1000 Ang^3
#
#
#
# Elastic Constant Matrix: (Units=GPa)
#
#
# Indices 1 2 3 4 5 6 
#
# 1 107.3279 26.7002 16.6557 0.0000 -23.8487 0.0000
# 2 26.7002 95.8385 12.6133 -0.0003 -7.6218 0.0002
# 3 16.6557 12.6133 43.8598 -0.0006 -13.0290 0.0004
# 4 0.0000 -0.0003 -0.0006 23.5797 0.0002 -2.8214
# 5 -23.8487 -7.6218 -13.0290 0.0002 29.1752 -0.0002
# 6 0.0000 0.0002 0.0004 -2.8214 -0.0002 19.2595
#
#
#
# Elastic Compliance Matrix: (Units=1/GPa)
#
#
# Indices 1 2 3 4 5 6 
#
# 1 0.012057 -0.002503 -0.001298 0.000000 0.008623 0.000000
# 2 -0.002503 0.011434 -0.002373 0.000000 -0.000118 0.000000
# 3 -0.001298 -0.002373 0.027067 0.000000 0.010407 0.000000
# 4 0.000000 0.000000 0.000000 0.043166 0.000000 0.006324
# 5 0.008623 -0.000118 0.010407 0.000000 0.045941 0.000000
# 6 0.000000 0.000000 0.000000 0.006324 0.000000 0.052849
#
#
# Mechanical properties :
#
#
# Convention : Reuss Voigt Hill
#
# Bulk Modulus (GPa) = 26.17010 39.88497 33.02754
# Shear Modulus (GPa) = 22.97824 27.14001 25.05912
#
# Velocity S-wave (km/s) = 3.30926 3.59648 3.45586
# Velocity P-wave (km/s) = 5.20328 6.02122 5.62713
#
# Compressibility (1/GPa) = 0.03821155
#
# Stress axis : x y z
#
# Youngs Moduli (GPa) = 82.93815 87.45589 36.94600
#
# Poissons Ratio (x) = 0.21886 0.04794
# Poissons Ratio (y) = 0.20756 0.08768
# Poissons Ratio (z) = 0.10762 0.20754
#
# Static dielectric constant tensor:
#      x y z
#    x 1.759940 0.000000 0.018410 
#    y 0.000000 1.798810 0.000000 
#    z 0.018410 0.000000 1.820010 
# 
# From -- ./inp_files/206345.got.cif
#   From: 2010.05.17/outbox.cif.g08.bks.cpg/sg12_104_cif.got.tgz:206345.got - 2010.06.03 13:09:07.
