data_PCOD9195006
_publ_section_title
;
Structure prediction by ZEFSAII (Michael W. Deem and Ramdas Pophale) SiO2 
 PCOD9195006
Probable space group: C 2/M
;
_chemical_formula_sum "Si O2"
_cell_formula_units_Z 56
_cell_length_a 20.245507
_cell_length_b 13.976576
_cell_length_c 22.441418
_cell_angle_alpha 90.000000
_cell_angle_beta 154.556843
_cell_angle_gamma 90.000000
_cell_volume 2728.095795
_symmetry_space_group_name_H-M "C 2/M"
_symmetry_group_IT_number 12
_symmetry_cell_setting 'monoclinic'
loop_
_space_group_symop_operation_xyz
x,y,z
-x,y,-z
-x,-y,-z
x,-y,z
1/2+x,1/2+y,z
1/2-x,1/2+y,-z
1/2-x,1/2-y,-z
1/2+x,1/2-y,z
loop_
_atom_site_type_symbol
_atom_site_label
_atom_site_fract_x
_atom_site_fract_y
_atom_site_fract_z
Si Si1 0.603039 0.604694 0.192439
Si Si2 0.263759 0.602912 0.970739
Si Si3 0.741437 0.887583 0.551518
Si Si4 0.058684 0.693981 0.112660
Si Si5 0.435279 0.706124 0.603832
Si Si6 0.350023 0.387471 0.413881
Si Si7 0.272537 0.690730 0.100770
O O1 0.644686 0.500000 0.201258
O O2 0.696710 0.619534 0.330245
O O3 0.618103 0.695843 0.162303
O O4 0.424627 0.601174 0.066678
O O5 0.185310 0.500000 0.897257
O O6 0.184994 0.702464 0.888353
O O7 0.300255 0.616672 0.070277
O O8 0.593596 0.819770 0.423234
O O9 0.862141 0.839243 0.604049
O O10 0.720589 0.000000 0.521321
O O11 0.196208 0.633059 0.251797
O O12 0.906463 0.688041 0.029403
O O13 0.000000 0.665880 0.000000
O O14 0.348631 0.663378 0.476492
O O15 0.613862 0.676694 0.751320
O O16 0.500000 0.352664 0.500000
O O17 0.367148 0.500000 0.437771
#
# Coordination Sequence:
#
# PCOD9195006 Si02
#       7
#     8   8   8   8   8   8   8
#     4   9  17  35  60  87 117 151 189 236 293 352
#     4   9  18  33  54  82 120 155 187 230 287 347
#     4  10  20  34  59  90 124 158 192 237 294 357
#     4  11  23  41  61  85 115 154 200 247 294 347
#     4  11  21  37  61  91 124 158 197 242 296 352
#     4  11  25  44  63  84 115 157 203 247 293 350
#     4  10  21  34  57  88 116 151 193 238 290 346
#
# _framework density 20.527137
#
# number of rings (size 3 to 8) (size 9 to 14) (size 15 to 20)
#    0.000    1.857    2.857    1.286    0.000    2.286 
#    0.000    0.000    0.000    3.429    0.000    0.000 
#    0.000    0.000    0.000    0.000    0.000    0.000 
#
# Total GULP energy -156206.456389 kJ/mol
# GULP energy per Si atom -5578.802014 kJ/mol
# Density = 2.048042 g / cm^3
# Si number density = 20.527137 Si / 1000 Ang^3
#
#
#
# Elastic Constant Matrix: (Units=GPa)
#
#
# Indices 1 2 3 4 5 6 
#
# 1 7.3024 -5.1196 6.6670 0.0009 -2.3284 0.0008
# 2 -5.1196 68.7565 1.4174 0.0015 0.9709 0.0017
# 3 6.6670 1.4174 88.2155 0.0013 -6.7523 0.0018
# 4 0.0009 0.0015 0.0013 14.8197 0.0004 -7.8715
# 5 -2.3284 0.9709 -6.7523 0.0004 24.3126 0.0007
# 6 0.0008 0.0017 0.0018 -7.8715 0.0007 -7.7034
#
#
#
# Elastic Compliance Matrix: (Units=1/GPa)
#
#
# Indices 1 2 3 4 5 6 
#
# 1 0.159380 0.011937 -0.011346 0.000000 0.011636 0.000019
# 2 0.011937 0.015453 -0.001134 0.000000 0.000211 0.000004
# 3 -0.011346 -0.001134 0.012395 0.000000 0.002401 0.000001
# 4 0.000000 0.000000 0.000000 0.043739 0.000001 -0.044693
# 5 0.011636 0.000211 0.002401 0.000001 0.042904 0.000005
# 6 0.000019 0.000004 0.000001 -0.044693 0.000005 -0.084144
#
#
# Mechanical properties :
#
#
# Convention : Reuss Voigt Hill
#
# Bulk Modulus (GPa) = 5.37225 18.91154 12.14189
# Shear Modulus (GPa) = 19.77362 17.03975 18.40668
#
# Velocity S-wave (km/s) = 3.10706 2.88429 2.99774
# Velocity P-wave (km/s) = 3.93632 4.50834 4.23200
#
# Compressibility (1/GPa) = 0.18614186
#
# Stress axis : x y z
#
# Youngs Moduli (GPa) = 6.27430 64.71095 80.67495
#
# Poissons Ratio (x) = -0.77247 0.91538
# Poissons Ratio (y) = -0.07490 0.09151
# Poissons Ratio (z) = 0.07119 0.07340
#
# Static dielectric constant tensor:
#      x y z
#    x 1.735080 0.000000 0.004080 
#    y 0.000000 1.752280 0.000000 
#    z 0.004080 0.000000 1.740290 
# 
# From -- ./inp_files/349826.got.cif
#   From: 2010.05.17/outbox.cif.g08.bks.cpg/sg12_175_cif.got.tgz:349826.got - 2010.06.03 13:09:07.
