data_PCOD9195606
_publ_section_title
;
Structure prediction by ZEFSAII (Michael W. Deem and Ramdas Pophale) SiO2 
 PCOD9195606
Probable space group: C 2/M
;
_chemical_formula_sum "Si O2"
_cell_formula_units_Z 64
_cell_length_a 21.851046
_cell_length_b 8.006444
_cell_length_c 14.696466
_cell_angle_alpha 90.000000
_cell_angle_beta 103.895663
_cell_angle_gamma 90.000000
_cell_volume 2495.889497
_symmetry_space_group_name_H-M "C 2/M"
_symmetry_group_IT_number 12
_symmetry_cell_setting 'monoclinic'
loop_
_space_group_symop_operation_xyz
x,y,z
-x,y,-z
-x,-y,-z
x,-y,z
1/2+x,1/2+y,z
1/2-x,1/2+y,-z
1/2-x,1/2-y,-z
1/2+x,1/2-y,z
loop_
_atom_site_type_symbol
_atom_site_label
_atom_site_fract_x
_atom_site_fract_y
_atom_site_fract_z
Si Si1 0.161736 0.190303 0.984747
Si Si2 0.226387 0.299249 0.625378
Si Si3 0.912907 0.196665 0.480546
Si Si4 0.887430 0.696456 0.849455
Si Si5 0.682678 0.195845 0.800700
Si Si6 0.639508 0.302384 0.361353
Si Si7 0.474460 0.806437 0.118670
Si Si8 0.453302 0.306252 0.304430
O O1 0.197873 0.267406 0.910992
O O2 0.087905 0.204930 0.927843
O O3 0.180594 0.000000 0.000680
O O4 0.158981 0.269649 0.083479
O O5 0.221778 0.500000 0.610392
O O6 0.160992 0.219464 0.571355
O O7 0.231268 0.272339 0.736637
O O8 0.289759 0.231207 0.602233
O O9 0.911100 0.263636 0.583448
O O10 0.952128 0.262676 0.407654
O O11 0.927953 0.000000 0.486330
O O12 0.888471 0.500000 0.831828
O O13 0.874535 0.783359 0.749481
O O14 0.959351 0.745180 0.901146
O O15 0.620887 0.299422 0.749858
O O16 0.665240 0.000000 0.789384
O O17 0.643352 0.500000 0.381066
O O18 0.484064 0.790109 0.231378
O O19 0.460878 0.000000 0.090921
O O20 0.474616 0.500000 0.310618
#
# Coordination Sequence:
#
# PCOD9195606 Si02
#       8
#     8   8   8   8   8   8   8   8
#     4  11  21  34  56  82 104 131 168 208 255 309
#     4   9  18  32  54  81 106 136 173 212 254 302
#     4   9  18  32  53  80 108 137 170 212 257 302
#     4  11  24  39  53  73 102 137 175 213 257 306
#     4   9  16  29  50  77 107 134 164 207 255 299
#     4  10  21  37  53  74 106 140 176 216 256 299
#     4  10  20  35  55  78 104 133 168 212 257 303
#     4   9  16  28  49  78 106 132 167 208 253 303
#
# _framework density 25.642161000000002
#
# number of rings (size 3 to 8) (size 9 to 14) (size 15 to 20)
#    0.000    2.250    0.000    4.875    0.000    5.500 
#    0.000    1.250    0.000    3.750    0.000    0.000 
#    0.000    0.000    0.000    0.000    0.000    0.000 
#
# Total GULP energy -178900.093877 kJ/mol
# GULP energy per Si atom -5590.627934 kJ/mol
# Density = 2.558380 g / cm^3
# Si number density = 25.642161 Si / 1000 Ang^3
#
#
#
# Elastic Constant Matrix: (Units=GPa)
#
#
# Indices 1 2 3 4 5 6 
#
# 1 124.9166 10.9165 26.4040 0.0000 -31.4810 0.0000
# 2 10.9165 41.9402 -2.1503 0.0000 -6.7280 0.0000
# 3 26.4040 -2.1503 142.9983 0.0000 -32.8542 0.0000
# 4 0.0000 0.0000 0.0000 11.3904 0.0000 2.0866
# 5 -31.4810 -6.7280 -32.8542 0.0000 55.8111 0.0000
# 6 0.0000 0.0000 0.0000 2.0866 0.0000 5.3654
#
#
#
# Elastic Compliance Matrix: (Units=1/GPa)
#
#
# Indices 1 2 3 4 5 6 
#
# 1 0.009499 -0.001747 -0.000691 0.000000 0.004740 0.000000
# 2 -0.001747 0.024815 0.001338 0.000000 0.002793 0.000000
# 3 -0.000691 0.001338 0.008197 0.000000 0.004597 0.000000
# 4 0.000000 0.000000 0.000000 0.094528 0.000000 -0.036762
# 5 0.004740 0.002793 0.004597 0.000000 0.023634 0.000000
# 6 0.000000 0.000000 0.000000 -0.036762 0.000000 0.200675
#
#
# Mechanical properties :
#
#
# Convention : Reuss Voigt Hill
#
# Bulk Modulus (GPa) = 24.80846 42.24393 33.52619
# Shear Modulus (GPa) = 13.26309 32.82572 23.04440
#
# Velocity S-wave (km/s) = 2.27675 3.58179 3.00107
# Velocity P-wave (km/s) = 4.07521 5.79792 5.01115
#
# Compressibility (1/GPa) = 0.04030884
#
# Stress axis : x y z
#
# Youngs Moduli (GPa) = 105.27655 40.29830 121.99729
#
# Poissons Ratio (x) = 0.07042 0.08431
# Poissons Ratio (y) = 0.18396 -0.16317
# Poissons Ratio (z) = 0.07275 -0.05390
#
# Static dielectric constant tensor:
#      x y z
#    x 2.059540 0.000000 0.021420 
#    y 0.000000 1.936500 0.000000 
#    z 0.021420 0.000000 2.135120 
# 
# From -- ./inp_files/244155.got.cif
#   From: 2010.05.17/outbox.cif.g08.bks.cpg/sg12_123_cif.got.tgz:244155.got - 2010.06.03 13:09:07.
