data_PCOD9195535
_publ_section_title
;
Structure prediction by ZEFSAII (Michael W. Deem and Ramdas Pophale) SiO2 
 PCOD9195535
Probable space group: C 2/M
;
_chemical_formula_sum "Si O2"
_cell_formula_units_Z 58
_cell_length_a 34.485302
_cell_length_b 7.615771
_cell_length_c 28.639866
_cell_angle_alpha 90.000000
_cell_angle_beta 22.631291
_cell_angle_gamma 90.000000
_cell_volume 2894.365313
_symmetry_space_group_name_H-M "C 2/M"
_symmetry_group_IT_number 12
_symmetry_cell_setting 'monoclinic'
loop_
_space_group_symop_operation_xyz
x,y,z
-x,y,-z
-x,-y,-z
x,-y,z
1/2+x,1/2+y,z
1/2-x,1/2+y,-z
1/2-x,1/2-y,-z
1/2+x,1/2-y,z
loop_
_atom_site_type_symbol
_atom_site_label
_atom_site_fract_x
_atom_site_fract_y
_atom_site_fract_z
Si Si1 0.226608 0.710424 0.879683
Si Si2 0.158320 0.703379 0.551886
Si Si3 0.483319 0.698219 0.372767
Si Si4 0.984606 0.283988 0.933230
Si Si5 0.000000 0.000000 0.000000
Si Si6 0.700987 0.200917 0.103314
Si Si7 0.615414 0.199956 0.699519
Si Si8 0.050961 0.784751 0.395530
O O1 0.230997 0.500000 0.877696
O O2 0.224925 0.775550 0.934961
O O3 0.332910 0.771271 0.739555
O O4 0.129777 0.752855 0.956702
O O5 0.183431 0.500000 0.533682
O O6 0.084457 0.711172 0.590413
O O7 0.264907 0.794115 0.423807
O O8 0.107727 0.777269 0.655649
O O9 0.444361 0.500000 0.419572
O O10 0.599237 0.694368 0.227202
O O11 0.489957 0.774607 0.417492
O O12 0.994538 0.500000 0.930507
O O13 0.055280 0.231109 0.810716
O O14 0.007413 0.157424 0.951123
O O15 0.668590 0.000000 0.137357
O O16 0.750000 0.250000 0.000000
O O17 0.578114 0.000000 0.736915
O O18 0.000000 0.727999 0.500000
O O19 0.050490 0.000000 0.395185
#
# Coordination Sequence:
#
# PCOD9195535 Si02
#       8
#     8   8   8   8   2   8   8   8
#     4   9  19  37  60  86 119 156 200 246 304 369
#     4  10  20  35  58  88 121 156 200 254 308 373
#     4  10  20  35  54  83 118 153 195 242 298 360
#     4  10  23  44  67  91 125 165 208 268 326 379
#     4  12  26  44  68  94 126 156 222 268 322 376
#     4  11  22  35  55  84 120 156 197 245 299 364
#     4   9  20  39  60  84 117 160 202 248 315 384
#     4   8  15  32  56  81 110 149 196 240 287 352
#
# _framework density 20.038937000000001
#
# number of rings (size 3 to 8) (size 9 to 14) (size 15 to 20)
#    0.000    2.345    0.000    3.103    3.862    0.552 
#    2.483    0.000    0.000   10.345    0.000    0.000 
#    0.000    0.000    0.000    0.000    0.000    0.000 
#
# Total GULP energy -161435.576566 kJ/mol
# GULP energy per Si atom -5566.744020 kJ/mol
# Density = 1.999333 g / cm^3
# Si number density = 20.038937 Si / 1000 Ang^3
#
#
#
# Elastic Constant Matrix: (Units=GPa)
#
#
# Indices 1 2 3 4 5 6 
#
# 1 127.9433 23.0008 84.1573 0.0025 34.9743 -0.0066
# 2 23.0008 73.9282 17.3511 -0.0536 7.8777 -0.0072
# 3 84.1573 17.3511 100.9098 -0.0141 39.5437 0.0073
# 4 0.0025 -0.0536 -0.0141 7.4997 0.0029 -1.1465
# 5 34.9743 7.8777 39.5437 0.0029 31.6017 0.0030
# 6 -0.0066 -0.0072 0.0073 -1.1465 0.0030 24.6523
#
#
#
# Elastic Compliance Matrix: (Units=1/GPa)
#
#
# Indices 1 2 3 4 5 6 
#
# 1 0.017694 -0.002096 -0.013592 -0.000045 -0.002052 0.000006
# 2 -0.002096 0.014358 -0.000446 0.000104 -0.000702 0.000009
# 3 -0.013592 -0.000446 0.030185 0.000066 -0.022618 -0.000007
# 4 -0.000045 0.000104 0.000066 0.134295 -0.000072 0.006246
# 5 -0.002052 -0.000702 -0.022618 -0.000072 0.062391 -0.000005
# 6 0.000006 0.000009 -0.000007 0.006246 -0.000005 0.040855
#
#
# Mechanical properties :
#
#
# Convention : Reuss Voigt Hill
#
# Bulk Modulus (GPa) = 33.36713 61.31106 47.33910
# Shear Modulus (GPa) = 14.61830 24.63554 19.62692
#
# Velocity S-wave (km/s) = 2.70385 3.51006 3.13299
# Velocity P-wave (km/s) = 5.14150 6.86220 6.06320
#
# Compressibility (1/GPa) = 0.02996961
#
# Stress axis : x y z
#
# Youngs Moduli (GPa) = 56.51518 69.64619 33.12851
#
# Poissons Ratio (x) = 0.14600 0.45029
# Poissons Ratio (y) = 0.11848 0.01476
# Poissons Ratio (z) = 0.76817 0.03103
#
# Static dielectric constant tensor:
#      x y z
#    x 1.698360 -0.000010 0.015010 
#    y -0.000010 1.766760 0.000010 
#    z 0.015010 0.000010 1.718500 
# 
# From -- ./inp_files/353019.got.cif
#   From: 2010.05.17/outbox.cif.g08.bks.cpg/sg12_177_cif.got.tgz:353019.got - 2010.06.03 13:09:07.
