data_PCOD9195371
_publ_section_title
;
Structure prediction by ZEFSAII (Michael W. Deem and Ramdas Pophale) SiO2 
 PCOD9195371
Probable space group: C 2/M
;
_chemical_formula_sum "Si O2"
_cell_formula_units_Z 48
_cell_length_a 15.965994
_cell_length_b 8.776166
_cell_length_c 20.320165
_cell_angle_alpha 90.000000
_cell_angle_beta 135.216519
_cell_angle_gamma 90.000000
_cell_volume 2005.698363
_symmetry_space_group_name_H-M "C 2/M"
_symmetry_group_IT_number 12
_symmetry_cell_setting 'monoclinic'
loop_
_space_group_symop_operation_xyz
x,y,z
-x,y,-z
-x,-y,-z
x,-y,z
1/2+x,1/2+y,z
1/2-x,1/2+y,-z
1/2-x,1/2-y,-z
1/2+x,1/2-y,z
loop_
_atom_site_type_symbol
_atom_site_label
_atom_site_fract_x
_atom_site_fract_y
_atom_site_fract_z
Si Si1 0.505547 0.174225 0.100886
Si Si2 0.224039 0.822570 0.056264
Si Si3 0.659650 0.819480 0.609899
Si Si4 0.286847 0.323969 0.224396
Si Si5 0.587548 0.181926 0.286538
Si Si6 0.879692 0.683632 0.554007
O O1 0.644748 0.184625 0.161988
O O2 0.500057 0.201547 0.176597
O O3 0.467332 0.000000 0.065233
O O4 0.416643 0.285835 0.014816
O O5 0.292125 0.754096 0.156561
O O6 0.246979 0.000000 0.066765
O O7 0.250000 0.750000 0.000000
O O8 0.648845 0.747555 0.676117
O O9 0.796400 0.781289 0.665964
O O10 0.592636 0.766016 0.505327
O O11 0.640956 0.000000 0.606819
O O12 0.320640 0.500000 0.238311
O O13 0.548333 0.220087 0.339018
O O14 0.620161 0.000000 0.303729
O O15 0.873874 0.500000 0.546819
O O16 0.750000 0.750000 0.500000
#
# Coordination Sequence:
#
# PCOD9195371 Si02
#       6
#     8   8   8   8   8   8
#     4   9  18  33  53  76 103 134 167 203 244 291
#     4  12  25  39  55  74  98 127 163 206 252 302
#     4   9  15  23  39  66  98 129 164 203 239 280
#     4  10  20  35  54  75 102 134 167 203 246 295
#     4   8  14  25  41  63  95 133 165 196 239 287
#     4   8  13  21  35  59  93 130 163 195 234 280
#
# _framework density 23.931812999999998
#
# number of rings (size 3 to 8) (size 9 to 14) (size 15 to 20)
#    0.000    2.667    0.000    4.000    0.000    6.000 
#    0.000    0.000    0.000    0.000    0.000    1.167 
#    0.000    9.333    0.000    0.000    0.000    0.000 
#
# Total GULP energy -134078.400254 kJ/mol
# GULP energy per Si atom -5586.600011 kJ/mol
# Density = 2.387734 g / cm^3
# Si number density = 23.931813 Si / 1000 Ang^3
#
#
#
# Elastic Constant Matrix: (Units=GPa)
#
#
# Indices 1 2 3 4 5 6 
#
# 1 117.7677 38.6697 57.3986 0.0000 -45.1904 0.0000
# 2 38.6697 96.5686 87.7669 0.0000 -31.3472 0.0000
# 3 57.3986 87.7669 210.4116 0.0000 -50.9772 0.0000
# 4 0.0000 0.0000 0.0000 27.0927 0.0000 -15.1051
# 5 -45.1904 -31.3472 -50.9772 0.0000 62.8768 0.0000
# 6 0.0000 0.0000 0.0000 -15.1051 0.0000 14.8902
#
#
#
# Elastic Compliance Matrix: (Units=1/GPa)
#
#
# Indices 1 2 3 4 5 6 
#
# 1 0.012270 -0.001797 -0.000844 0.000000 0.007239 0.000000
# 2 -0.001797 0.017520 -0.006240 0.000000 0.002384 0.000000
# 3 -0.000844 -0.006240 0.008319 0.000000 0.003027 0.000000
# 4 0.000000 0.000000 0.000000 0.084964 0.000000 0.086191
# 5 0.007239 0.002384 0.003027 0.000000 0.024750 0.000000
# 6 0.000000 0.000000 0.000000 0.086191 0.000000 0.154593
#
#
# Mechanical properties :
#
#
# Convention : Reuss Voigt Hill
#
# Bulk Modulus (GPa) = 49.14534 88.04648 68.59591
# Shear Modulus (GPa) = 15.29234 37.03278 26.16256
#
# Velocity S-wave (km/s) = 2.53058 3.93800 3.30996
# Velocity P-wave (km/s) = 5.39617 7.58601 6.58279
#
# Compressibility (1/GPa) = 0.02034781
#
# Stress axis : x y z
#
# Youngs Moduli (GPa) = 81.49740 57.07688 120.20416
#
# Poissons Ratio (x) = 0.10254 0.10146
# Poissons Ratio (y) = 0.14641 0.75011
# Poissons Ratio (z) = 0.06879 0.35618
#
# Static dielectric constant tensor:
#      x y z
#    x 2.023430 0.000000 0.045590 
#    y 0.000000 1.812600 0.000000 
#    z 0.045590 0.000000 2.027460 
# 
# From -- ./inp_files/274588.got.cif
#   From: 2010.05.17/outbox.cif.g08.bks.cpg/sg12_138_cif.got.tgz:274588.got - 2010.06.03 13:09:07.
