data_PCOD9195754
_publ_section_title
;
Structure prediction by ZEFSAII (Michael W. Deem and Ramdas Pophale) SiO2 
 PCOD9195754
Probable space group: C 2/M
;
_chemical_formula_sum "Si O2"
_cell_formula_units_Z 40
_cell_length_a 17.631551
_cell_length_b 13.226363
_cell_length_c 16.820368
_cell_angle_alpha 90.000000
_cell_angle_beta 26.538034
_cell_angle_gamma 90.000000
_cell_volume 1752.554901
_symmetry_space_group_name_H-M "C 2/M"
_symmetry_group_IT_number 12
_symmetry_cell_setting 'monoclinic'
loop_
_space_group_symop_operation_xyz
x,y,z
-x,y,-z
-x,-y,-z
x,-y,z
1/2+x,1/2+y,z
1/2-x,1/2+y,-z
1/2-x,1/2-y,-z
1/2+x,1/2-y,z
loop_
_atom_site_type_symbol
_atom_site_label
_atom_site_fract_x
_atom_site_fract_y
_atom_site_fract_z
Si Si1 0.430523 0.759290 0.428719
Si Si2 0.605429 0.619800 0.693436
Si Si3 0.112706 0.621053 0.012589
Si Si4 0.770347 0.620409 0.919664
Si Si5 0.257501 0.621025 0.707191
O O1 0.413342 0.685582 0.368623
O O2 0.276518 0.840163 0.572837
O O3 0.603153 0.821145 0.256490
O O4 0.399299 0.684657 0.530427
O O5 0.615848 0.500000 0.665690
O O6 0.430083 0.636475 0.905912
O O7 0.128525 0.500000 0.997445
O O8 0.181942 0.651369 0.033824
O O9 0.914334 0.641208 0.183510
O O10 0.212287 0.651870 0.839646
O O11 0.801436 0.500000 0.884945
O O12 0.289425 0.500000 0.675135
#
# Coordination Sequence:
#
# PCOD9195754 Si02
#       5
#     8   8   8   8   8
#     4  11  20  32  54  81 109 140 180 221 263 315
#     4  10  21  34  50  77 111 142 175 219 268 317
#     4   8  15  30  51  75 108 145 174 210 269 330
#     4  10  20  35  55  80 110 141 175 218 268 320
#     4   9  17  30  51  80 112 144 176 214 264 322
#
# _framework density 22.823820999999999
#
# number of rings (size 3 to 8) (size 9 to 14) (size 15 to 20)
#    0.000    2.400    0.000    5.400    0.000    1.600 
#    0.000    1.000    0.000    9.600    0.000   35.000 
#    0.000   43.200    0.000    0.000    0.000    0.000 
#
# Total GULP energy -111918.077936 kJ/mol
# GULP energy per Si atom -5595.903897 kJ/mol
# Density = 2.277187 g / cm^3
# Si number density = 22.823821 Si / 1000 Ang^3
#
#
#
# Elastic Constant Matrix: (Units=GPa)
#
#
# Indices 1 2 3 4 5 6 
#
# 1 60.3473 31.4316 56.1693 0.0003 -16.8835 -0.0002
# 2 31.4316 137.9612 78.0717 0.0003 -18.3991 -0.0002
# 3 56.1693 78.0717 194.9361 0.0002 -13.7514 -0.0002
# 4 0.0003 0.0003 0.0002 66.5530 -0.0005 -23.9857
# 5 -16.8835 -18.3991 -13.7514 -0.0005 24.3787 0.0004
# 6 -0.0002 -0.0002 -0.0002 -23.9857 0.0004 109.2296
#
#
#
# Elastic Compliance Matrix: (Units=1/GPa)
#
#
# Indices 1 2 3 4 5 6 
#
# 1 0.027029 -0.000494 -0.006557 0.000000 0.014648 0.000000
# 2 -0.000494 0.010050 -0.003511 0.000000 0.005262 0.000000
# 3 -0.006557 -0.003511 0.008246 0.000000 -0.002540 0.000000
# 4 0.000000 0.000000 0.000000 0.016317 0.000000 0.003583
# 5 0.014648 0.005262 -0.002540 0.000000 0.053702 0.000000
# 6 0.000000 0.000000 0.000000 0.003583 0.000000 0.009942
#
#
# Mechanical properties :
#
#
# Convention : Reuss Voigt Hill
#
# Bulk Modulus (GPa) = 41.32155 80.50999 60.91577
# Shear Modulus (GPa) = 32.36699 55.20372 43.78535
#
# Velocity S-wave (km/s) = 3.76988 4.92335 4.38471
# Velocity P-wave (km/s) = 6.09042 8.22620 7.23753
#
# Compressibility (1/GPa) = 0.02420045
#
# Stress axis : x y z
#
# Youngs Moduli (GPa) = 36.99711 99.50431 121.26449
#
# Poissons Ratio (x) = 0.04915 0.79515
# Poissons Ratio (y) = 0.01827 0.42581
# Poissons Ratio (z) = 0.24260 0.34940
#
# Static dielectric constant tensor:
#      x y z
#    x 1.866240 0.000000 -0.045860 
#    y 0.000000 1.865050 0.000000 
#    z -0.045860 0.000000 1.879110 
# 
# From -- ./inp_files/284403.got.cif
#   From: 2010.05.17/outbox.cif.g08.bks.cpg/sg12_143_cif.got.tgz:284403.got - 2010.06.03 13:09:07.
