data_PCOD9195069
_publ_section_title
;
Structure prediction by ZEFSAII (Michael W. Deem and Ramdas Pophale) SiO2 
 PCOD9195069
Probable space group: C 2/M
;
_chemical_formula_sum "Si O2"
_cell_formula_units_Z 40
_cell_length_a 10.033580
_cell_length_b 17.723111
_cell_length_c 12.029345
_cell_angle_alpha 90.000000
_cell_angle_beta 72.178959
_cell_angle_gamma 90.000000
_cell_volume 2036.491444
_symmetry_space_group_name_H-M "C 2/M"
_symmetry_group_IT_number 12
_symmetry_cell_setting 'monoclinic'
loop_
_space_group_symop_operation_xyz
x,y,z
-x,y,-z
-x,-y,-z
x,-y,z
1/2+x,1/2+y,z
1/2-x,1/2+y,-z
1/2-x,1/2-y,-z
1/2+x,1/2-y,z
loop_
_atom_site_type_symbol
_atom_site_label
_atom_site_fract_x
_atom_site_fract_y
_atom_site_fract_z
Si Si1 0.718481 0.165239 0.899323
Si Si2 0.437326 0.797767 0.860520
Si Si3 0.384145 0.799653 0.624247
Si Si4 0.846953 0.879659 0.658610
Si Si5 0.325455 0.582984 0.418378
O O1 0.592023 0.210216 0.870527
O O2 0.850784 0.219554 0.886798
O O3 0.765688 0.105666 0.794231
O O4 0.649552 0.146359 0.035610
O O5 0.439979 0.821260 0.731882
O O6 0.500000 0.810058 0.500000
O O7 0.347461 0.710936 0.638922
O O8 0.252327 0.850331 0.625220
O O9 0.789405 0.913145 0.558983
O O10 0.007655 0.904899 0.630267
O O11 0.288447 0.500000 0.384876
#
# Coordination Sequence:
#
# PCOD9195069 Si02
#       5
#     8   8   8   8   8
#     4   9  18  32  52  81 115 156 185 244 288 341
#     4   9  19  31  50  83 121 145 193 238 296 334
#     4  11  21  33  59  86 115 150 195 242 287 342
#     4  10  20  34  61  81 112 153 202 235 283 344
#     4  11  23  38  55  87 123 154 193 240 292 349
#
# _framework density 19.641624
#
# number of rings (size 3 to 8) (size 9 to 14) (size 15 to 20)
#    0.000    2.000    2.000    3.000   11.200    0.400 
#    0.000    0.000    0.000    3.600    0.000    8.400 
#    0.000    0.000    0.000    0.000    0.000    0.000 
#
# Total GULP energy -111524.985639 kJ/mol
# GULP energy per Si atom -5576.249282 kJ/mol
# Density = 1.959692 g / cm^3
# Si number density = 19.641624 Si / 1000 Ang^3
#
#
#
# Elastic Constant Matrix: (Units=GPa)
#
#
# Indices 1 2 3 4 5 6 
#
# 1 56.3338 7.6368 12.4297 0.0000 5.1292 0.0000
# 2 7.6368 63.8485 9.8534 0.0000 3.6102 0.0000
# 3 12.4297 9.8534 140.9455 0.0000 -2.6982 0.0000
# 4 0.0000 0.0000 0.0000 -20.0211 0.0000 34.3671
# 5 5.1292 3.6102 -2.6982 0.0000 30.7306 0.0000
# 6 0.0000 0.0000 0.0000 34.3671 0.0000 -42.4388
#
#
#
# Elastic Compliance Matrix: (Units=1/GPa)
#
#
# Indices 1 2 3 4 5 6 
#
# 1 0.018620 -0.001813 -0.001573 0.000000 -0.003033 0.000000
# 2 -0.001813 0.016128 -0.001000 0.000000 -0.001680 0.000000
# 3 -0.001573 -0.001000 0.007323 0.000000 0.001023 0.000000
# 4 0.000000 0.000000 0.000000 0.128049 0.000000 0.103694
# 5 -0.003033 -0.001680 0.001023 0.000000 0.033334 0.000000
# 6 0.000000 0.000000 0.000000 0.103694 0.000000 0.060409
#
#
# Mechanical properties :
#
#
# Convention : Reuss Voigt Hill
#
# Bulk Modulus (GPa) = 30.03034 35.66307 32.84671
# Shear Modulus (GPa) = 17.62206 9.06800 13.34503
#
# Velocity S-wave (km/s) = 2.99854 2.15099 2.60941
# Velocity P-wave (km/s) = 5.22596 4.93612 5.08311
#
# Compressibility (1/GPa) = 0.03329966
#
# Stress axis : x y z
#
# Youngs Moduli (GPa) = 53.70445 62.00321 136.55268
#
# Poissons Ratio (x) = 0.11240 0.21486
# Poissons Ratio (y) = 0.09736 0.13653
# Poissons Ratio (z) = 0.08450 0.06199
#
# Static dielectric constant tensor:
#      x y z
#    x 1.677810 0.000000 -0.022250 
#    y 0.000000 1.674770 0.000000 
#    z -0.022250 0.000000 1.773970 
# 
# From -- ./inp_files/120164.got.cif
#   From: 2010.05.17/outbox.cif.g08.bks.cpg/sg12_61_cif.got.tgz:120164.got - 2010.06.03 13:09:07.
