data_PCOD9195291
_publ_section_title
;
Structure prediction by ZEFSAII (Michael W. Deem and Ramdas Pophale) SiO2 
 PCOD9195291
Probable space group: C 2/M
;
_chemical_formula_sum "Si O2"
_cell_formula_units_Z 56
_cell_length_a 25.886199
_cell_length_b 8.909733
_cell_length_c 14.180653
_cell_angle_alpha 90.000000
_cell_angle_beta 74.735442
_cell_angle_gamma 90.000000
_cell_volume 3155.227617
_symmetry_space_group_name_H-M "C 2/M"
_symmetry_group_IT_number 12
_symmetry_cell_setting 'monoclinic'
loop_
_space_group_symop_operation_xyz
x,y,z
-x,y,-z
-x,-y,-z
x,-y,z
1/2+x,1/2+y,z
1/2-x,1/2+y,-z
1/2-x,1/2-y,-z
1/2+x,1/2-y,z
loop_
_atom_site_type_symbol
_atom_site_label
_atom_site_fract_x
_atom_site_fract_y
_atom_site_fract_z
Si Si1 0.086489 0.678998 0.997714
Si Si2 0.692118 0.819065 0.419712
Si Si3 0.372514 0.181522 0.732649
Si Si4 0.314314 0.680823 0.372455
Si Si5 0.083093 0.180397 0.795646
Si Si6 0.032062 0.821028 0.206369
Si Si7 0.806216 0.321339 0.948171
O O1 0.077981 0.500000 0.005647
O O2 0.075531 0.742387 0.900067
O O3 0.051867 0.756131 0.096315
O O4 0.148190 0.710779 0.996271
O O5 0.652461 0.772630 0.355072
O O6 0.678474 0.748493 0.527019
O O7 0.754195 0.778366 0.368129
O O8 0.689940 0.000000 0.427943
O O9 0.429776 0.249004 0.733171
O O10 0.331611 0.227467 0.836016
O O11 0.376364 0.000000 0.733458
O O12 0.316510 0.500000 0.377804
O O13 0.361842 0.729172 0.280361
O O14 0.031009 0.212903 0.756892
O O15 0.085031 0.000000 0.808727
O O16 0.039116 0.000000 0.203298
O O17 0.799462 0.500000 0.946402
O O18 0.750000 0.250000 0.000000
#
# Coordination Sequence:
#
# PCOD9195291 Si02
#       7
#     8   8   8   8   8   8   8
#     4  10  21  35  51  75 106 141 176 212 257 306
#     4   9  18  35  57  78 103 134 170 212 261 315
#     4   9  19  35  54  75 102 138 174 210 259 311
#     4   9  19  35  55  79 105 133 167 215 265 308
#     4  10  21  35  54  78 105 137 176 216 260 308
#     4  10  20  35  53  77 105 138 178 215 253 308
#     4   9  19  32  47  72 104 134 169 208 249 303
#
# _framework density 17.748322999999999
#
# number of rings (size 3 to 8) (size 9 to 14) (size 15 to 20)
#    0.000    2.571    0.000    2.143    2.000    6.857 
#    0.000    0.714    0.000    4.286    0.000    0.000 
#    0.000    0.000    0.000    0.000    0.000    0.000 
#
# Total GULP energy -156178.131200 kJ/mol
# GULP energy per Si atom -5577.790400 kJ/mol
# Density = 1.770793 g / cm^3
# Si number density = 17.748323 Si / 1000 Ang^3
#
#
#
# Elastic Constant Matrix: (Units=GPa)
#
#
# Indices 1 2 3 4 5 6 
#
# 1 85.6475 30.4729 48.2938 0.0000 16.0157 0.0000
# 2 30.4729 16.1889 14.9226 0.0000 6.1216 0.0000
# 3 48.2938 14.9226 53.5854 0.0000 21.7445 0.0000
# 4 0.0000 0.0000 0.0000 24.9544 0.0000 3.8472
# 5 16.0157 6.1216 21.7445 0.0000 29.9154 0.0000
# 6 0.0000 0.0000 0.0000 3.8472 0.0000 29.7007
#
#
#
# Elastic Compliance Matrix: (Units=1/GPa)
#
#
# Indices 1 2 3 4 5 6 
#
# 1 0.057478 -0.081371 -0.033205 0.000000 0.010015 0.000000
# 2 -0.081371 0.198302 0.023971 0.000000 -0.014439 0.000000
# 3 -0.033205 0.023971 0.052038 0.000000 -0.024953 0.000000
# 4 0.000000 0.000000 0.000000 0.040890 0.000000 -0.005297
# 5 0.010015 -0.014439 -0.024953 0.000000 0.049158 0.000000
# 6 0.000000 0.000000 0.000000 -0.005297 0.000000 0.034355
#
#
# Mechanical properties :
#
#
# Convention : Reuss Voigt Hill
#
# Bulk Modulus (GPa) = 7.89844 38.08892 22.99368
# Shear Modulus (GPa) = 7.62621 21.02960 14.32791
#
# Velocity S-wave (km/s) = 2.07514 3.44594 2.84435
# Velocity P-wave (km/s) = 3.19398 6.11063 4.87552
#
# Compressibility (1/GPa) = 0.12660727
#
# Stress axis : x y z
#
# Youngs Moduli (GPa) = 17.39801 5.04282 19.21663
#
# Poissons Ratio (x) = 0.41034 0.63810
# Poissons Ratio (y) = 1.41570 -0.46065
# Poissons Ratio (z) = 0.57771 -0.12088
#
# Static dielectric constant tensor:
#      x y z
#    x 1.622330 0.000000 0.001940 
#    y 0.000000 1.596240 0.000000 
#    z 0.001940 0.000000 1.573690 
# 
# From -- ./inp_files/180654.got.cif
#   From: 2010.05.17/outbox.cif.g08.bks.cpg/sg12_91_cif.got.tgz:180654.got - 2010.06.03 13:09:07.
