data_PCOD9195151
_publ_section_title
;
Structure prediction by ZEFSAII (Michael W. Deem and Ramdas Pophale) SiO2 
 PCOD9195151
Probable space group: C 2/M
;
_chemical_formula_sum "Si O2"
_cell_formula_units_Z 64
_cell_length_a 27.721815
_cell_length_b 14.782235
_cell_length_c 9.696056
_cell_angle_alpha 90.000000
_cell_angle_beta 101.118759
_cell_angle_gamma 90.000000
_cell_volume 3898.769047
_symmetry_space_group_name_H-M "C 2/M"
_symmetry_group_IT_number 12
_symmetry_cell_setting 'monoclinic'
loop_
_space_group_symop_operation_xyz
x,y,z
-x,y,-z
-x,-y,-z
x,-y,z
1/2+x,1/2+y,z
1/2-x,1/2+y,-z
1/2-x,1/2-y,-z
1/2+x,1/2-y,z
loop_
_atom_site_type_symbol
_atom_site_label
_atom_site_fract_x
_atom_site_fract_y
_atom_site_fract_z
Si Si1 0.968067 0.895162 0.611081
Si Si2 0.038405 0.895916 0.910812
Si Si3 0.669748 0.099518 0.044035
Si Si4 0.130123 0.209210 0.356895
Si Si5 0.135172 0.209285 0.026077
Si Si6 0.783982 0.107030 0.101520
Si Si7 0.172752 0.602041 0.379321
Si Si8 0.214071 0.108605 0.574533
O O1 0.921176 0.834722 0.623287
O O2 0.000000 0.862551 0.500000
O O3 0.007594 0.897168 0.754975
O O4 0.951867 0.000000 0.577036
O O5 0.050636 0.000000 0.956801
O O6 0.087569 0.839093 0.938641
O O7 0.000000 0.858188 0.000000
O O8 0.637222 0.185056 0.988303
O O9 0.726391 0.116450 0.034461
O O10 0.670764 0.096593 0.211475
O O11 0.654485 0.000000 0.985847
O O12 0.134605 0.200471 0.192635
O O13 0.137512 0.315155 0.399038
O O14 0.174254 0.156555 0.457235
O O15 0.182347 0.161979 0.984184
O O16 0.790911 0.134997 0.266145
O O17 0.795877 0.000000 0.100165
O O18 0.162167 0.500000 0.425636
O O19 0.229711 0.626430 0.441675
O O20 0.207694 0.000000 0.565600
#
# Coordination Sequence:
#
# PCOD9195151 Si02
#       8
#     8   8   8   8   8   8   8   8
#     4  10  22  37  52  72  97 126 161 200 245 295
#     4  10  20  35  50  70 102 127 151 199 254 295
#     4   8  16  32  50  71 102 134 165 201 238 285
#     4  11  20  31  52  77  98 126 168 209 241 284
#     4  11  20  30  52  77  98 130 168 201 244 292
#     4   9  18  31  48  73 104 136 164 193 240 295
#     4   8  16  32  51  72 100 133 165 199 243 289
#     4   9  18  31  48  73 105 135 163 196 236 291
#
# _framework density 16.415438000000002
#
# number of rings (size 3 to 8) (size 9 to 14) (size 15 to 20)
#    0.000    2.500    1.250    3.000    1.750    1.500 
#    0.000    0.000    0.000    3.750    0.000    0.000 
#    0.000    0.000    0.000    0.000    0.000    0.000 
#
# Total GULP energy -178279.534955 kJ/mol
# GULP energy per Si atom -5571.235467 kJ/mol
# Density = 1.637808 g / cm^3
# Si number density = 16.415438 Si / 1000 Ang^3
#
#
#
# Elastic Constant Matrix: (Units=GPa)
#
#
# Indices 1 2 3 4 5 6 
#
# 1 80.0723 77.0731 23.0651 0.0000 -6.6058 0.0000
# 2 77.0731 103.7557 16.9248 0.0000 -0.4194 0.0000
# 3 23.0651 16.9248 32.3393 0.0000 -6.4454 0.0000
# 4 0.0000 0.0000 0.0000 14.0368 0.0000 6.6194
# 5 -6.6058 -0.4194 -6.4454 0.0000 23.7223 0.0000
# 6 0.0000 0.0000 0.0000 6.6194 0.0000 38.4134
#
#
#
# Elastic Compliance Matrix: (Units=1/GPa)
#
#
# Indices 1 2 3 4 5 6 
#
# 1 0.054436 -0.037593 -0.017193 0.000000 0.009822 0.000000
# 2 -0.037593 0.036542 0.006058 0.000000 -0.008176 0.000000
# 3 -0.017193 0.006058 0.041319 0.000000 0.006546 0.000000
# 4 0.000000 0.000000 0.000000 0.077543 0.000000 -0.013362
# 5 0.009822 -0.008176 0.006546 0.000000 0.046524 0.000000
# 6 0.000000 0.000000 0.000000 -0.013362 0.000000 0.028335
#
#
# Mechanical properties :
#
#
# Convention : Reuss Voigt Hill
#
# Bulk Modulus (GPa) = 28.70160 50.03259 39.36710
# Shear Modulus (GPa) = 12.69785 21.84144 17.26965
#
# Velocity S-wave (km/s) = 2.78426 3.65162 3.24703
# Velocity P-wave (km/s) = 5.27813 6.95156 6.17183
#
# Compressibility (1/GPa) = 0.03484126
#
# Stress axis : x y z
#
# Youngs Moduli (GPa) = 18.37013 27.36591 24.20210
#
# Poissons Ratio (x) = 1.02876 0.41611
# Poissons Ratio (y) = 0.69058 -0.14662
# Poissons Ratio (z) = 0.31584 -0.16579
#
# Static dielectric constant tensor:
#      x y z
#    x 1.536350 0.000000 -0.013700 
#    y 0.000000 1.578340 0.000000 
#    z -0.013700 0.000000 1.530380 
# 
# From -- ./inp_files/96899.got.cif
#   From: 2010.05.17/outbox.cif.g08.bks.cpg/sg12_49_cif.got.tgz:96899.got - 2010.06.03 13:09:07.
