data_PCOD9195989
_publ_section_title
;
Structure prediction by ZEFSAII (Michael W. Deem and Ramdas Pophale) SiO2 
 PCOD9195989
Probable space group: C 2/M
;
_chemical_formula_sum "Si O2"
_cell_formula_units_Z 56
_cell_length_a 20.675125
_cell_length_b 9.066291
_cell_length_c 16.588524
_cell_angle_alpha 90.000000
_cell_angle_beta 103.466247
_cell_angle_gamma 90.000000
_cell_volume 3023.976435
_symmetry_space_group_name_H-M "C 2/M"
_symmetry_group_IT_number 12
_symmetry_cell_setting 'monoclinic'
loop_
_space_group_symop_operation_xyz
x,y,z
-x,y,-z
-x,-y,-z
x,-y,z
1/2+x,1/2+y,z
1/2-x,1/2+y,-z
1/2-x,1/2-y,-z
1/2+x,1/2-y,z
loop_
_atom_site_type_symbol
_atom_site_label
_atom_site_fract_x
_atom_site_fract_y
_atom_site_fract_z
Si Si1 0.601325 0.325885 0.316646
Si Si2 0.504955 0.821981 0.408227
Si Si3 0.272075 0.680015 0.743970
Si Si4 0.885534 0.674932 0.093205
Si Si5 0.022138 0.169398 0.127016
Si Si6 0.659760 0.673218 0.072239
Si Si7 0.373543 0.820392 0.274575
O O1 0.606122 0.500000 0.336149
O O2 0.568947 0.241398 0.381290
O O3 0.672827 0.271817 0.304657
O O4 0.552351 0.310908 0.225214
O O5 0.500000 0.778084 0.500000
O O6 0.439007 0.771314 0.340858
O O7 0.507263 0.000000 0.405465
O O8 0.275899 0.500000 0.746114
O O9 0.294013 0.726264 0.840662
O O10 0.196463 0.724125 0.706477
O O11 0.878416 0.500000 0.089271
O O12 0.873350 0.727063 0.181191
O O13 0.961332 0.721923 0.096300
O O14 0.838606 0.744432 0.011788
O O15 0.084667 0.187548 0.085872
O O16 0.998163 0.000000 0.111791
O O17 0.673072 0.500000 0.063793
O O18 0.375129 0.000000 0.274622
#
# Coordination Sequence:
#
# PCOD9195989 Si02
#       7
#     8   8   8   8   8   8   8
#     4   9  17  32  56  79  97 127 170 213 251 289
#     4  10  20  35  56  80 105 133 162 197 251 313
#     4   8  16  33  54  72  97 137 177 205 242 298
#     4  11  20  28  44  71 101 133 169 208 249 289
#     4   9  17  30  47  68  96 130 168 207 250 295
#     4   9  18  31  47  68  95 132 173 210 245 288
#     4   9  18  33  51  73 101 134 170 206 247 303
#
# _framework density 18.518661999999999
#
# number of rings (size 3 to 8) (size 9 to 14) (size 15 to 20)
#    0.000    2.714    1.429    2.571    0.000    3.143 
#    0.000    2.857    0.000    4.286    0.000    0.000 
#    0.000    0.000    0.000    0.000    0.000    0.000 
#
# Total GULP energy -156148.784556 kJ/mol
# GULP energy per Si atom -5576.742306 kJ/mol
# Density = 1.847651 g / cm^3
# Si number density = 18.518662 Si / 1000 Ang^3
#
#
#
# Elastic Constant Matrix: (Units=GPa)
#
#
# Indices 1 2 3 4 5 6 
#
# 1 68.6037 12.1423 40.4431 0.0000 8.0439 0.0000
# 2 12.1423 13.2462 25.0076 0.0000 -5.5387 0.0000
# 3 40.4431 25.0076 103.1981 0.0000 -24.2093 0.0000
# 4 0.0000 0.0000 0.0000 22.8135 0.0000 -5.2938
# 5 8.0439 -5.5387 -24.2093 0.0000 7.5817 0.0000
# 6 0.0000 0.0000 0.0000 -5.2938 0.0000 14.3276
#
#
#
# Elastic Compliance Matrix: (Units=1/GPa)
#
#
# Indices 1 2 3 4 5 6 
#
# 1 -0.009186 -0.000875 0.023705 0.000000 0.084798 0.000000
# 2 -0.000875 0.140175 -0.037400 0.000000 -0.016091 0.000000
# 3 0.023705 -0.037400 -0.011342 0.000000 -0.088688 0.000000
# 4 0.000000 0.000000 0.000000 0.047944 0.000000 0.017715
# 5 0.084798 -0.016091 -0.088688 0.000000 -0.253015 0.000000
# 6 0.000000 0.000000 0.000000 0.017715 0.000000 0.076341
#
#
# Mechanical properties :
#
#
# Convention : Reuss Voigt Hill
#
# Bulk Modulus (GPa) = 11.04897 37.80379 24.42638
# Shear Modulus (GPa) = 99.54786 16.10823 57.82804
#
# Velocity S-wave (km/s) = 7.33976 2.95250 5.59417
# Velocity P-wave (km/s) = 8.82093 5.66403 7.41249
#
# Compressibility (1/GPa) = 0.09050620
#
# Stress axis : x y z
#
# Youngs Moduli (GPa) = -108.86620 7.13394 -88.16847
#
# Poissons Ratio (x) = 0.00624 2.09000
# Poissons Ratio (y) = -0.09528 -3.29750
# Poissons Ratio (z) = 2.58063 0.26681
#
# Static dielectric constant tensor:
#      x y z
#    x 1.655340 0.000000 -0.003130 
#    y 0.000000 1.622460 0.000000 
#    z -0.003130 0.000000 1.640360 
# 
# From -- ./inp_files/280231.got.cif
#   From: 2010.05.17/outbox.cif.g08.bks.cpg/sg12_141_cif.got.tgz:280231.got - 2010.06.03 13:09:07.
