data_PCOD9195938
_publ_section_title
;
Structure prediction by ZEFSAII (Michael W. Deem and Ramdas Pophale) SiO2 
 PCOD9195938
Probable space group: C 2/M
;
_chemical_formula_sum "Si O2"
_cell_formula_units_Z 48
_cell_length_a 25.104576
_cell_length_b 8.936194
_cell_length_c 11.889311
_cell_angle_alpha 90.000000
_cell_angle_beta 103.561936
_cell_angle_gamma 90.000000
_cell_volume 2592.869775
_symmetry_space_group_name_H-M "C 2/M"
_symmetry_group_IT_number 12
_symmetry_cell_setting 'monoclinic'
loop_
_space_group_symop_operation_xyz
x,y,z
-x,y,-z
-x,-y,-z
x,-y,z
1/2+x,1/2+y,z
1/2-x,1/2+y,-z
1/2-x,1/2-y,-z
1/2+x,1/2-y,z
loop_
_atom_site_type_symbol
_atom_site_label
_atom_site_fract_x
_atom_site_fract_y
_atom_site_fract_z
Si Si1 0.203645 0.179308 0.756260
Si Si2 0.853547 0.320542 0.063025
Si Si3 0.826798 0.319354 0.793240
Si Si4 0.965566 0.678846 0.240675
Si Si5 0.420843 0.678986 0.690114
Si Si6 0.408168 0.679528 0.422419
O O1 0.188185 0.248653 0.868903
O O2 0.263513 0.225652 0.744110
O O3 0.153726 0.216419 0.647850
O O4 0.204723 0.000000 0.769577
O O5 0.848690 0.500000 0.069198
O O6 0.914827 0.279556 0.134251
O O7 0.841996 0.278505 0.929212
O O8 0.831010 0.500000 0.784825
O O9 0.868908 0.243273 0.729877
O O10 0.970567 0.500000 0.244507
O O11 0.948072 0.738644 0.355034
O O12 0.022829 0.752116 0.235671
O O13 0.422105 0.500000 0.698910
O O14 0.417196 0.719570 0.556130
O O15 0.416056 0.500000 0.414278
#
# Coordination Sequence:
#
# PCOD9195938 Si02
#       6
#     8   8   8   8   8   8
#     4   9  18  34  57  80 102 133 171 210 253 304
#     4   9  19  35  55  79 105 133 167 212 260 301
#     4  10  21  36  53  76 107 139 170 207 254 306
#     4  10  20  35  56  79 102 132 172 214 256 304
#     4  11  23  36  51  74 106 141 173 210 256 302
#     4   9  19  36  55  77 105 134 168 212 258 301
#
# _framework density 18.512305999999999
#
# number of rings (size 3 to 8) (size 9 to 14) (size 15 to 20)
#    0.000    2.333    0.000    2.000    0.000    6.667 
#    0.000    3.333    0.000    0.000    0.000    0.000 
#    0.000    0.000    0.000    0.000    0.000    0.000 
#
# Total GULP energy -134007.110184 kJ/mol
# GULP energy per Si atom -5583.629591 kJ/mol
# Density = 1.847017 g / cm^3
# Si number density = 18.512306 Si / 1000 Ang^3
#
#
#
# Elastic Constant Matrix: (Units=GPa)
#
#
# Indices 1 2 3 4 5 6 
#
# 1 100.5754 29.3875 28.2024 0.0000 12.0514 0.0000
# 2 29.3875 16.3391 12.5134 0.0000 4.4292 0.0000
# 3 28.2024 12.5134 23.5950 0.0000 9.2946 0.0000
# 4 0.0000 0.0000 0.0000 23.1268 0.0000 -6.8386
# 5 12.0514 4.4292 9.2946 0.0000 11.1004 0.0000
# 6 0.0000 0.0000 0.0000 -6.8386 0.0000 35.3738
#
#
#
# Elastic Compliance Matrix: (Units=1/GPa)
#
#
# Indices 1 2 3 4 5 6 
#
# 1 0.022212 -0.033296 -0.006902 0.000000 -0.005051 0.000000
# 2 -0.033296 0.153332 -0.047242 0.000000 0.014524 0.000000
# 3 -0.006902 -0.047242 0.097452 0.000000 -0.055255 0.000000
# 4 0.000000 0.000000 0.000000 0.045862 0.000000 0.008866
# 5 -0.005051 0.014524 -0.055255 0.000000 0.136042 0.000000
# 6 0.000000 0.000000 0.000000 0.008866 0.000000 0.029984
#
#
# Mechanical properties :
#
#
# Convention : Reuss Voigt Hill
#
# Bulk Modulus (GPa) = 10.19194 31.19069 20.69131
# Shear Modulus (GPa) = 7.22054 18.61394 12.91724
#
# Velocity S-wave (km/s) = 1.97709 3.17439 2.64439
# Velocity P-wave (km/s) = 3.27556 5.50644 4.53046
#
# Compressibility (1/GPa) = 0.09811679
#
# Stress axis : x y z
#
# Youngs Moduli (GPa) = 45.02038 6.52178 10.26146
#
# Poissons Ratio (x) = 0.21715 0.07082
# Poissons Ratio (y) = 1.49899 0.48478
# Poissons Ratio (z) = 0.31072 0.30810
#
# Static dielectric constant tensor:
#      x y z
#    x 1.628180 0.000000 0.032630 
#    y 0.000000 1.616720 0.000000 
#    z 0.032630 0.000000 1.627940 
# 
# From -- ./inp_files/172018.got.cif
#   From: 2010.05.17/outbox.cif.g08.bks.cpg/sg12_87_cif.got.tgz:172018.got - 2010.06.03 13:09:07.
