data_PCOD9195518
_publ_section_title
;
Structure prediction by ZEFSAII (Michael W. Deem and Ramdas Pophale) SiO2 
 PCOD9195518
Probable space group: C 2/M
;
_chemical_formula_sum "Si O2"
_cell_formula_units_Z 64
_cell_length_a 22.611174
_cell_length_b 28.451238
_cell_length_c 15.373478
_cell_angle_alpha 90.000000
_cell_angle_beta 19.758633
_cell_angle_gamma 90.000000
_cell_volume 3343.399736
_symmetry_space_group_name_H-M "C 2/M"
_symmetry_group_IT_number 12
_symmetry_cell_setting 'monoclinic'
loop_
_space_group_symop_operation_xyz
x,y,z
-x,y,-z
-x,-y,-z
x,-y,z
1/2+x,1/2+y,z
1/2-x,1/2+y,-z
1/2-x,1/2-y,-z
1/2+x,1/2-y,z
loop_
_atom_site_type_symbol
_atom_site_label
_atom_site_fract_x
_atom_site_fract_y
_atom_site_fract_z
Si Si1 0.204322 0.863015 0.902457
Si Si2 0.059051 0.056962 0.700635
Si Si3 0.482497 0.855860 0.666818
Si Si4 0.424237 0.949774 0.837853
Si Si5 0.481984 0.446562 0.617866
Si Si6 0.460599 0.711057 0.156157
Si Si7 0.448907 0.190872 0.251888
Si Si8 0.551166 0.911306 0.829521
O O1 0.306759 0.858075 0.852119
O O2 0.353606 0.851738 0.624461
O O3 0.103184 0.913240 0.035683
O O4 0.057468 0.824687 0.086321
O O5 0.251169 0.071866 0.467062
O O6 0.062746 0.072648 0.593739
O O7 0.036092 0.000000 0.737555
O O8 0.513637 0.905991 0.669519
O O9 0.474252 0.819217 0.757974
O O10 0.427006 0.940665 0.936970
O O11 0.505862 0.000000 0.704844
O O12 0.225408 0.949913 0.080684
O O13 0.500000 0.421622 0.500000
O O14 0.552227 0.500000 0.511300
O O15 0.516760 0.763481 0.107188
O O16 0.255390 0.701737 0.451463
O O17 0.500000 0.702882 0.000000
O O18 0.469050 0.143366 0.168088
O O19 0.500000 0.919466 0.000000
#
# Coordination Sequence:
#
# PCOD9195518 Si02
#       8
#     8   8   8   8   8   8   8   8
#     4  11  22  39  62  88 121 158 197 242 294 346
#     4  11  22  36  55  85 120 158 203 246 289 342
#     4  10  22  39  61  88 120 158 197 244 292 344
#     4  10  20  35  54  81 118 159 202 245 289 343
#     4   9  17  31  51  74 106 152 199 237 284 340
#     4  11  21  40  67  90 116 150 190 239 302 363
#     4  10  22  39  64  90 116 151 192 243 297 361
#     4  11  22  37  57  86 120 152 198 248 303 352
#
# _framework density 19.142191
#
# number of rings (size 3 to 8) (size 9 to 14) (size 15 to 20)
#    0.000    1.625    3.750    1.500    0.000    3.000 
#    0.000    1.250    0.000    2.625    0.000    0.000 
#    0.000    0.000    0.000    0.000    0.000    0.000 
#
# Total GULP energy -178346.316195 kJ/mol
# GULP energy per Si atom -5573.322381 kJ/mol
# Density = 1.909862 g / cm^3
# Si number density = 19.142191 Si / 1000 Ang^3
#
#
#
# Elastic Constant Matrix: (Units=GPa)
#
#
# Indices 1 2 3 4 5 6 
#
# 1 91.2670 20.1988 2.9432 -0.0362 -12.7334 -0.0020
# 2 20.1988 75.2687 -4.7332 -0.0944 -19.4473 -0.0204
# 3 2.9432 -4.7332 31.2522 -0.0980 -15.2345 -0.0628
# 4 -0.0362 -0.0944 -0.0980 7.4344 0.0157 -4.5504
# 5 -12.7334 -19.4473 -15.2345 0.0157 22.9306 -0.0012
# 6 -0.0020 -0.0204 -0.0628 -4.5504 -0.0012 13.6789
#
#
#
# Elastic Compliance Matrix: (Units=1/GPa)
#
#
# Indices 1 2 3 4 5 6 
#
# 1 0.012160 -0.001323 0.002070 0.000077 0.007006 0.000035
# 2 -0.001323 0.022860 0.018757 0.000679 0.031114 0.000348
# 3 0.002070 0.018757 0.063543 0.001457 0.059273 0.000810
# 4 0.000077 0.000679 0.001457 0.168939 0.001474 0.056207
# 5 0.007006 0.031114 0.059273 0.001474 0.113266 0.000819
# 6 0.000035 0.000348 0.000810 0.056207 0.000819 0.091807
#
#
# Mechanical properties :
#
#
# Convention : Reuss Voigt Hill
#
# Bulk Modulus (GPa) = 7.26896 26.06728 16.66812
# Shear Modulus (GPa) = 10.42914 20.76738 15.59826
#
# Velocity S-wave (km/s) = 2.33668 3.29736 2.85768
# Velocity P-wave (km/s) = 3.32952 5.30509 4.42887
#
# Compressibility (1/GPa) = 0.13757128
#
# Stress axis : x y z
#
# Youngs Moduli (GPa) = 82.23435 43.74419 15.73728
#
# Poissons Ratio (x) = 0.05787 -0.03257
# Poissons Ratio (y) = 0.10879 -0.29518
# Poissons Ratio (z) = -0.17021 -0.82050
#
# Static dielectric constant tensor:
#      x y z
#    x 1.691550 -0.000020 0.015000 
#    y -0.000020 1.674340 0.000050 
#    z 0.015000 0.000050 1.663930 
# 
# From -- ./inp_files/209363.got.cif
#   From: 2010.05.17/outbox.cif.g08.bks.cpg/sg12_105_cif.got.tgz:209363.got - 2010.06.03 13:09:07.
