data_PCOD9195074
_publ_section_title
;
Structure prediction by ZEFSAII (Michael W. Deem and Ramdas Pophale) SiO2 
 PCOD9195074
Probable space group: C 2/M
;
_chemical_formula_sum "Si O2"
_cell_formula_units_Z 44
_cell_length_a 17.769492
_cell_length_b 22.444224
_cell_length_c 5.066782
_cell_angle_alpha 90.000000
_cell_angle_beta 118.147305
_cell_angle_gamma 90.000000
_cell_volume 1781.768301
_symmetry_space_group_name_H-M "C 2/M"
_symmetry_group_IT_number 12
_symmetry_cell_setting 'monoclinic'
loop_
_space_group_symop_operation_xyz
x,y,z
-x,y,-z
-x,-y,-z
x,-y,z
1/2+x,1/2+y,z
1/2-x,1/2+y,-z
1/2-x,1/2-y,-z
1/2+x,1/2-y,z
loop_
_atom_site_type_symbol
_atom_site_label
_atom_site_fract_x
_atom_site_fract_y
_atom_site_fract_z
Si Si1 0.135151 0.818850 0.860653
Si Si2 0.670306 0.431999 0.676022
Si Si3 0.359859 0.066400 0.244889
Si Si4 0.229765 0.643425 0.539485
Si Si5 0.896364 0.741316 0.710665
Si Si6 0.500000 0.842758 0.500000
O O1 0.112710 0.887815 0.757128
O O2 0.130681 0.782559 0.582278
O O3 0.230823 0.825054 0.135778
O O4 0.085284 0.784238 0.009703
O O5 0.641240 0.500000 0.590501
O O6 0.691538 0.392421 0.455096
O O7 0.766698 0.435196 0.956190
O O8 0.336874 0.091810 0.495935
O O9 0.427392 0.114469 0.258766
O O10 0.394244 0.000000 0.301909
O O11 0.179397 0.696815 0.318340
O O12 0.961965 0.697461 0.670332
#
# Coordination Sequence:
#
# PCOD9195074 Si02
#       6
#     8   8   8   8   8   4
#     4  11  22  39  60  89 119 157 195 257 313 358
#     4  10  21  37  62  94 125 157 199 250 311 371
#     4   9  19  36  57  86 126 170 209 245 289 351
#     4  10  20  34  61  88 122 154 198 252 308 363
#     4  11  24  37  60  86 120 161 207 247 299 358
#     4  10  23  40  56  86 121 174 214 252 282 354
#
# _framework density 24.694568
#
# number of rings (size 3 to 8) (size 9 to 14) (size 15 to 20)
#    0.000    1.818    1.818    1.909    7.636    1.455 
#    3.273    0.000    0.000    5.455    0.000    3.818 
#    0.000    0.000    0.000    0.000    0.000    0.000 
#
# Total GULP energy -122726.263211 kJ/mol
# GULP energy per Si atom -5578.466510 kJ/mol
# Density = 2.463836 g / cm^3
# Si number density = 24.694568 Si / 1000 Ang^3
#
#
#
# Elastic Constant Matrix: (Units=GPa)
#
#
# Indices 1 2 3 4 5 6 
#
# 1 69.2961 64.8107 16.5196 0.0000 -20.5776 0.0000
# 2 64.8107 222.9793 56.4244 0.0000 -17.8396 0.0000
# 3 16.5196 56.4244 76.9163 0.0000 -24.5544 0.0000
# 4 0.0000 0.0000 0.0000 25.1007 0.0000 8.2481
# 5 -20.5776 -17.8396 -24.5544 0.0000 34.2039 0.0000
# 6 0.0000 0.0000 0.0000 8.2481 0.0000 36.9580
#
#
#
# Elastic Compliance Matrix: (Units=1/GPa)
#
#
# Indices 1 2 3 4 5 6 
#
# 1 0.024087 -0.007003 0.004442 0.000000 0.014027 0.000000
# 2 -0.007003 0.007543 -0.005343 0.000000 -0.004114 0.000000
# 3 0.004442 -0.005343 0.020666 0.000000 0.014722 0.000000
# 4 0.000000 0.000000 0.000000 0.042992 0.000000 -0.009595
# 5 0.014027 -0.004114 0.014722 0.000000 0.046098 0.000000
# 6 0.000000 0.000000 0.000000 -0.009595 0.000000 0.029199
#
#
# Mechanical properties :
#
#
# Convention : Reuss Voigt Hill
#
# Bulk Modulus (GPa) = 27.40575 71.63347 49.51961
# Shear Modulus (GPa) = 25.18186 34.68166 29.93176
#
# Velocity S-wave (km/s) = 3.19679 3.75163 3.48527
# Velocity P-wave (km/s) = 4.97473 6.91643 6.02433
#
# Compressibility (1/GPa) = 0.03648869
#
# Stress axis : x y z
#
# Youngs Moduli (GPa) = 41.51634 132.57406 48.38824
#
# Poissons Ratio (x) = 0.92839 -0.21494
# Poissons Ratio (y) = 0.29073 0.25853
# Poissons Ratio (z) = -0.18441 0.70832
#
# Static dielectric constant tensor:
#      x y z
#    x 2.047250 0.000000 0.004710 
#    y 0.000000 1.968540 0.000000 
#    z 0.004710 0.000000 2.087400 
# 
# From -- ./inp_files/21082.got.cif
#   From: 2010.05.17/outbox.cif.g08.bks.cpg/sg12_11_cif.got.tgz:21082.got - 2010.06.03 13:09:07.
