data_PCOD9195977
_publ_section_title
;
Structure prediction by ZEFSAII (Michael W. Deem and Ramdas Pophale) SiO2 
 PCOD9195977
Probable space group: C 2/M
;
_chemical_formula_sum "Si O2"
_cell_formula_units_Z 64
_cell_length_a 21.924031
_cell_length_b 22.463532
_cell_length_c 9.543402
_cell_angle_alpha 90.000000
_cell_angle_beta 136.325570
_cell_angle_gamma 90.000000
_cell_volume 3245.659047
_symmetry_space_group_name_H-M "C 2/M"
_symmetry_group_IT_number 12
_symmetry_cell_setting 'monoclinic'
loop_
_space_group_symop_operation_xyz
x,y,z
-x,y,-z
-x,-y,-z
x,-y,z
1/2+x,1/2+y,z
1/2-x,1/2+y,-z
1/2-x,1/2-y,-z
1/2+x,1/2-y,z
loop_
_atom_site_type_symbol
_atom_site_label
_atom_site_fract_x
_atom_site_fract_y
_atom_site_fract_z
Si Si1 0.627457 0.803184 0.383245
Si Si2 0.537970 0.289218 0.421133
Si Si3 0.584676 0.067317 0.242252
Si Si4 0.722290 0.338905 0.838649
Si Si5 0.878629 0.142742 0.053457
Si Si6 0.267576 0.567364 0.377148
Si Si7 0.311192 0.248583 0.802662
Si Si8 0.100806 0.929050 0.165896
O O1 0.554513 0.758421 0.325950
O O2 0.598520 0.871975 0.354830
O O3 0.649514 0.791428 0.256161
O O4 0.719727 0.781508 0.606847
O O5 0.500000 0.259514 0.500000
O O6 0.632652 0.314401 0.620387
O O7 0.473202 0.344987 0.281710
O O8 0.674039 0.065810 0.299371
O O9 0.577035 0.000000 0.294396
O O10 0.500000 0.074904 0.000000
O O11 0.698094 0.350288 0.958823
O O12 0.741862 0.397287 0.781694
O O13 0.794753 0.290144 0.915344
O O14 0.874877 0.197711 0.940991
O O15 0.865973 0.086333 0.934213
O O16 0.295964 0.500000 0.393745
O O17 0.337578 0.594771 0.605871
O O18 0.099834 0.000000 0.181234
O O19 0.000000 0.906778 0.000000
#
# Coordination Sequence:
#
# PCOD9195977 Si02
#       8
#     8   8   8   8   8   8   8   8
#     4  10  20  35  56  79 110 145 185 234 288 339
#     4   9  21  35  50  80 117 148 178 225 285 345
#     4  10  21  36  55  83 111 142 193 245 283 330
#     4  10  20  38  52  79 117 145 180 228 284 341
#     4  11  22  33  56  81 112 148 181 227 284 340
#     4  10  20  37  59  79 110 152 189 236 287 333
#     4  10  21  33  54  83 109 139 187 233 278 341
#     4  10  22  37  55  83 115 148 195 241 276 332
#
# _framework density 19.718646
#
# number of rings (size 3 to 8) (size 9 to 14) (size 15 to 20)
#    0.000    2.000    1.250    1.875    7.000    0.500 
#    0.000    0.000    0.000    4.875    0.000    0.000 
#    0.000    0.000    0.000    0.000    0.000    0.000 
#
# Total GULP energy -178290.530278 kJ/mol
# GULP energy per Si atom -5571.579071 kJ/mol
# Density = 1.967377 g / cm^3
# Si number density = 19.718646 Si / 1000 Ang^3
#
#
#
# Elastic Constant Matrix: (Units=GPa)
#
#
# Indices 1 2 3 4 5 6 
#
# 1 45.0230 3.1436 2.7922 0.0000 -3.9889 0.0000
# 2 3.1436 50.5085 2.4435 0.0000 -3.9310 0.0000
# 3 2.7922 2.4435 35.1766 0.0000 4.5374 0.0000
# 4 0.0000 0.0000 0.0000 19.2556 0.0000 -10.5947
# 5 -3.9889 -3.9310 4.5374 0.0000 25.1546 0.0000
# 6 0.0000 0.0000 0.0000 -10.5947 0.0000 3.6281
#
#
#
# Elastic Compliance Matrix: (Units=1/GPa)
#
#
# Indices 1 2 3 4 5 6 
#
# 1 0.022761 -0.001009 -0.002234 0.000000 0.003855 0.000000
# 2 -0.001009 0.020204 -0.001751 0.000000 0.003313 0.000000
# 3 -0.002234 -0.001751 0.029494 0.000000 -0.005948 0.000000
# 4 0.000000 0.000000 0.000000 -0.085598 0.000000 -0.249958
# 5 0.003855 0.003313 -0.005948 0.000000 0.041956 0.000000
# 6 0.000000 0.000000 0.000000 -0.249958 0.000000 -0.454293
#
#
# Mechanical properties :
#
#
# Convention : Reuss Voigt Hill
#
# Bulk Modulus (GPa) = 16.00690 16.38519 16.19604
# Shear Modulus (GPa) = -12.66901 17.76291 2.54695
#
# Velocity S-wave (km/s) = -2.53749 3.00462 1.13774
# Velocity P-wave (km/s) = 0.67071 4.51271 3.15552
#
# Compressibility (1/GPa) = 0.06247306
#
# Stress axis : x y z
#
# Youngs Moduli (GPa) = 43.93411 49.49515 33.90504
#
# Poissons Ratio (x) = 0.04992 0.07574
# Poissons Ratio (y) = 0.04431 0.05936
# Poissons Ratio (z) = 0.09814 0.08665
#
# Static dielectric constant tensor:
#      x y z
#    x 1.713090 0.000000 0.010080 
#    y 0.000000 1.731350 0.000000 
#    z 0.010080 0.000000 1.734680 
# 
# From -- ./inp_files/90651.got.cif
#   From: 2010.05.17/outbox.cif.g08.bks.cpg/sg12_46_cif.got.tgz:90651.got - 2010.06.03 13:09:07.
