data_PCOD9195763
_publ_section_title
;
Structure prediction by ZEFSAII (Michael W. Deem and Ramdas Pophale) SiO2 
 PCOD9195763
Probable space group: C 2/M
;
_chemical_formula_sum "Si O2"
_cell_formula_units_Z 64
_cell_length_a 20.342805
_cell_length_b 7.426837
_cell_length_c 30.113070
_cell_angle_alpha 90.000000
_cell_angle_beta 142.061975
_cell_angle_gamma 90.000000
_cell_volume 2797.111647
_symmetry_space_group_name_H-M "C 2/M"
_symmetry_group_IT_number 12
_symmetry_cell_setting 'monoclinic'
loop_
_space_group_symop_operation_xyz
x,y,z
-x,y,-z
-x,-y,-z
x,-y,z
1/2+x,1/2+y,z
1/2-x,1/2+y,-z
1/2-x,1/2-y,-z
1/2+x,1/2-y,z
loop_
_atom_site_type_symbol
_atom_site_label
_atom_site_fract_x
_atom_site_fract_y
_atom_site_fract_z
Si Si1 0.520013 0.218261 0.219061
Si Si2 0.405992 0.792888 0.480172
Si Si3 0.050826 0.781400 0.395581
Si Si4 0.678772 0.712646 0.382078
Si Si5 0.873164 0.290223 0.812205
Si Si6 0.049691 0.218441 0.979246
Si Si7 0.787325 0.707835 0.112132
Si Si8 0.177844 0.218592 0.766544
O O1 0.579200 0.266307 0.296033
O O2 0.589820 0.286271 0.215038
O O3 0.398040 0.286198 0.152722
O O4 0.515354 0.000000 0.214731
O O5 0.500000 0.711539 0.500000
O O6 0.439760 0.788015 0.549637
O O7 0.286659 0.710980 0.417675
O O8 0.394541 0.000000 0.458440
O O9 0.143549 0.716920 0.411457
O O10 0.937979 0.730508 0.313438
O O11 0.054313 0.000000 0.399468
O O12 0.698248 0.500000 0.398478
O O13 0.848705 0.500000 0.791185
O O14 0.769782 0.215607 0.782111
O O15 0.972158 0.276782 0.898676
O O16 0.051687 0.000000 0.981001
O O17 0.171264 0.285172 0.038835
O O18 0.000000 0.276628 0.000000
O O19 0.784225 0.500000 0.095907
O O20 0.799279 0.713547 0.171860
O O21 0.181855 0.000000 0.771187
#
# Coordination Sequence:
#
# PCOD9195763 Si02
#       8
#     8   8   8   8   8   8   8   8
#     4  10  22  38  57  83 113 145 183 228 277 328
#     4  10  23  40  57  84 118 148 181 224 273 325
#     4  10  21  37  59  85 111 145 188 229 270 322
#     4  10  21  39  60  82 112 147 185 227 270 324
#     4  10  22  37  54  81 114 146 183 228 278 330
#     4  10  20  35  55  80 110 144 185 230 275 328
#     4  10  20  36  57  81 110 143 184 230 274 325
#     4  10  20  35  56  82 112 143 183 231 274 322
#
# _framework density 22.880745999999998
#
# number of rings (size 3 to 8) (size 9 to 14) (size 15 to 20)
#    0.000    2.000    2.500    0.375    1.750    3.500 
#    0.000    0.000    0.000    0.000    0.000    0.000 
#    0.000    0.000    0.000    0.000    0.000    0.000 
#
# Total GULP energy -178843.756491 kJ/mol
# GULP energy per Si atom -5588.867390 kJ/mol
# Density = 2.282867 g / cm^3
# Si number density = 22.880746 Si / 1000 Ang^3
#
#
#
# Elastic Constant Matrix: (Units=GPa)
#
#
# Indices 1 2 3 4 5 6 
#
# 1 134.6218 3.1661 11.9521 0.0005 24.4754 0.0017
# 2 3.1661 75.0640 -7.7964 0.0026 10.1524 0.0022
# 3 11.9521 -7.7964 61.7372 -0.0001 27.3780 0.0005
# 4 0.0005 0.0026 -0.0001 -7.2102 -0.0003 -4.7908
# 5 24.4754 10.1524 27.3780 -0.0003 48.1297 -0.0004
# 6 0.0017 0.0022 0.0005 -4.7908 -0.0004 30.7188
#
#
#
# Elastic Compliance Matrix: (Units=1/GPa)
#
#
# Indices 1 2 3 4 5 6 
#
# 1 0.008197 0.000306 0.000440 0.000001 -0.004483 0.000000
# 2 0.000306 0.014518 0.004281 0.000006 -0.005654 0.000000
# 3 0.000440 0.004281 0.022940 0.000002 -0.014176 -0.000001
# 4 0.000001 0.000006 0.000002 -0.125670 -0.000004 -0.019599
# 5 -0.004483 -0.005654 -0.014176 -0.000004 0.032313 0.000001
# 6 0.000000 0.000000 -0.000001 -0.019599 0.000001 0.029497
#
#
# Mechanical properties :
#
#
# Convention : Reuss Voigt Hill
#
# Bulk Modulus (GPa) = 17.95008 31.78516 24.86762
# Shear Modulus (GPa) = -516.00930 31.93441 -242.03744
#
# Velocity S-wave (km/s) = -15.03365 3.73995 -10.29620
# Velocity P-wave (km/s) = 17.13142 5.70714 11.42178
#
# Compressibility (1/GPa) = 0.05571004
#
# Stress axis : x y z
#
# Youngs Moduli (GPa) = 121.99494 68.87830 43.59288
#
# Poissons Ratio (x) = -0.02110 -0.01918
# Poissons Ratio (y) = -0.03737 -0.18663
# Poissons Ratio (z) = -0.05367 -0.29489
#
# Static dielectric constant tensor:
#      x y z
#    x 1.857180 0.000000 0.046960 
#    y 0.000000 1.870170 0.000000 
#    z 0.046960 0.000000 1.798910 
# 
# From -- ./inp_files/378422.got.cif
#   From: 2010.05.17/outbox.cif.g08.bks.cpg/sg12_190_cif.got.tgz:378422.got - 2010.06.03 13:09:07.
