data_PCOD9195233
_publ_section_title
;
Structure prediction by ZEFSAII (Michael W. Deem and Ramdas Pophale) SiO2 
 PCOD9195233
Probable space group: C 2/M
;
_chemical_formula_sum "Si O2"
_cell_formula_units_Z 48
_cell_length_a 9.722961
_cell_length_b 25.297552
_cell_length_c 11.448310
_cell_angle_alpha 90.000000
_cell_angle_beta 64.253897
_cell_angle_gamma 90.000000
_cell_volume 2536.366347
_symmetry_space_group_name_H-M "C 2/M"
_symmetry_group_IT_number 12
_symmetry_cell_setting 'monoclinic'
loop_
_space_group_symop_operation_xyz
x,y,z
-x,y,-z
-x,-y,-z
x,-y,z
1/2+x,1/2+y,z
1/2-x,1/2+y,-z
1/2-x,1/2-y,-z
1/2+x,1/2-y,z
loop_
_atom_site_type_symbol
_atom_site_label
_atom_site_fract_x
_atom_site_fract_y
_atom_site_fract_z
Si Si1 0.985467 0.937362 0.371637
Si Si2 0.204039 0.236845 0.235614
Si Si3 0.785753 0.851687 0.146141
Si Si4 0.121554 0.287537 0.599972
Si Si5 0.878883 0.132803 0.871165
Si Si6 0.841864 0.607485 0.572970
O O1 0.103182 0.908391 0.241126
O O2 0.000000 0.918593 0.500000
O O3 0.812788 0.923181 0.398083
O O4 0.009433 0.000000 0.358362
O O5 0.271575 0.288307 0.147022
O O6 0.325112 0.213258 0.284200
O O7 0.160662 0.189392 0.167380
O O8 0.044569 0.259861 0.348556
O O9 0.673034 0.872389 0.287993
O O10 0.952032 0.864016 0.136602
O O11 0.771509 0.876758 0.023069
O O12 0.250000 0.250000 0.500000
O O13 0.141428 0.342431 0.522214
O O14 0.000000 0.576560 0.500000
#
# Coordination Sequence:
#
# PCOD9195233 Si02
#       6
#     8   8   8   8   8   8
#     4  10  22  42  65  86 107 143 194 246 292 334
#     4  12  20  34  53  80 118 162 193 225 279 336
#     4  10  20  35  52  82 119 157 182 232 276 344
#     4  12  20  31  52  81 115 154 193 231 273 332
#     4  10  21  37  56  82 117 150 193 233 284 335
#     4  11  20  36  57  85 120 147 187 241 285 334
#
# _framework density 18.924710999999999
#
# number of rings (size 3 to 8) (size 9 to 14) (size 15 to 20)
#    0.000    1.167    5.000    3.000    0.000    0.333 
#    0.000    6.667    0.000    0.000    0.000    2.333 
#    0.000    0.000    0.000    0.000    0.000    0.000 
#
# Total GULP energy -133804.475653 kJ/mol
# GULP energy per Si atom -5575.186486 kJ/mol
# Density = 1.888164 g / cm^3
# Si number density = 18.924711 Si / 1000 Ang^3
#
#
#
# Elastic Constant Matrix: (Units=GPa)
#
#
# Indices 1 2 3 4 5 6 
#
# 1 34.4745 -0.1662 32.7162 0.0000 1.5855 0.0000
# 2 -0.1662 37.5862 41.9200 0.0000 8.1980 0.0000
# 3 32.7162 41.9200 147.2593 0.0000 17.9835 0.0000
# 4 0.0000 0.0000 0.0000 5.5281 0.0000 1.2892
# 5 1.5855 8.1980 17.9835 0.0000 24.6054 0.0000
# 6 0.0000 0.0000 0.0000 1.2892 0.0000 19.7886
#
#
#
# Elastic Compliance Matrix: (Units=1/GPa)
#
#
# Indices 1 2 3 4 5 6 
#
# 1 0.042320 0.015345 -0.014069 0.000000 0.002443 0.000000
# 2 0.015345 0.045200 -0.015719 0.000000 -0.004560 0.000000
# 3 -0.014069 -0.015719 0.014978 0.000000 -0.004803 0.000000
# 4 0.000000 0.000000 0.000000 0.183685 0.000000 -0.011967
# 5 0.002443 -0.004560 -0.004803 0.000000 0.045514 0.000000
# 6 0.000000 0.000000 0.000000 -0.011967 0.000000 0.051314
#
#
# Mechanical properties :
#
#
# Convention : Reuss Voigt Hill
#
# Bulk Modulus (GPa) = 13.58487 40.91779 27.25133
# Shear Modulus (GPa) = 11.45655 19.64109 15.54882
#
# Velocity S-wave (km/s) = 2.46311 3.22507 2.86949
# Velocity P-wave (km/s) = 3.90937 5.96124 5.04081
#
# Compressibility (1/GPa) = 0.07361130
#
# Stress axis : x y z
#
# Youngs Moduli (GPa) = 23.62969 22.12411 66.76630
#
# Poissons Ratio (x) = -0.33950 0.93931
# Poissons Ratio (y) = -0.36260 1.04951
# Poissons Ratio (z) = 0.33244 0.34777
#
# Static dielectric constant tensor:
#      x y z
#    x 1.708220 0.000000 0.033980 
#    y 0.000000 1.634090 0.000000 
#    z 0.033980 0.000000 1.760220 
# 
# From -- ./inp_files/122450.got.cif
#   From: 2010.05.17/outbox.cif.g08.bks.cpg/sg12_62_cif.got.tgz:122450.got - 2010.06.03 13:09:07.
