data_PCOD9195378
_publ_section_title
;
Structure prediction by ZEFSAII (Michael W. Deem and Ramdas Pophale) SiO2 
 PCOD9195378
Probable space group: C 2/M
;
_chemical_formula_sum "Si O2"
_cell_formula_units_Z 56
_cell_length_a 19.185504
_cell_length_b 8.532810
_cell_length_c 23.382382
_cell_angle_alpha 90.000000
_cell_angle_beta 51.757500
_cell_angle_gamma 90.000000
_cell_volume 3006.379559
_symmetry_space_group_name_H-M "C 2/M"
_symmetry_group_IT_number 12
_symmetry_cell_setting 'monoclinic'
loop_
_space_group_symop_operation_xyz
x,y,z
-x,y,-z
-x,-y,-z
x,-y,z
1/2+x,1/2+y,z
1/2-x,1/2+y,-z
1/2-x,1/2-y,-z
1/2+x,1/2-y,z
loop_
_atom_site_type_symbol
_atom_site_label
_atom_site_fract_x
_atom_site_fract_y
_atom_site_fract_z
Si Si1 0.345613 0.689892 0.431969
Si Si2 0.197116 0.688005 0.295565
Si Si3 0.520329 0.688230 0.869135
Si Si4 0.171624 0.687705 0.000308
Si Si5 0.507798 0.689483 0.430120
Si Si6 0.320981 0.188204 0.135096
Si Si7 0.856946 0.190320 0.296011
O O1 0.344251 0.500000 0.432871
O O2 0.250000 0.750000 0.500000
O O3 0.423324 0.741134 0.435584
O O4 0.363580 0.743727 0.357781
O O5 0.196493 0.500000 0.294551
O O6 0.099513 0.750864 0.357034
O O7 0.240799 0.749863 0.214964
O O8 0.265157 0.738301 0.311692
O O9 0.518845 0.500000 0.871228
O O10 0.423028 0.752614 0.929444
O O11 0.588721 0.747846 0.882475
O O12 0.563471 0.738676 0.786578
O O13 0.171808 0.500000 0.001081
O O14 0.250000 0.750000 0.000000
O O15 0.185005 0.738499 0.927659
O O16 0.500000 0.741683 0.500000
O O17 0.509214 0.500000 0.429002
O O18 0.322203 0.000000 0.136879
O O19 0.857199 0.000000 0.296695
#
# Coordination Sequence:
#
# PCOD9195378 Si02
#       7
#     8   8   8   8   8   8   8
#     4  10  20  35  54  75 104 140 177 218 264 317
#     4  10  20  35  57  82 106 137 181 229 273 323
#     4  10  20  36  59  84 110 143 185 230 276 331
#     4  11  24  39  56  81 113 148 185 228 278 330
#     4  10  21  35  52  78 111 145 180 222 275 331
#     4  10  21  38  59  82 111 147 184 224 276 335
#     4   8  17  34  54  77 104 136 174 216 265 317
#
# _framework density 18.627056
#
# number of rings (size 3 to 8) (size 9 to 14) (size 15 to 20)
#    0.000    2.143    0.000    3.857    0.000    6.000 
#    0.000    6.429    0.000    0.000    0.000    0.000 
#    0.000    0.000    0.000    0.000    0.000    0.000 
#
# Total GULP energy -156373.830102 kJ/mol
# GULP energy per Si atom -5584.779647 kJ/mol
# Density = 1.858466 g / cm^3
# Si number density = 18.627056 Si / 1000 Ang^3
#
#
#
# Elastic Constant Matrix: (Units=GPa)
#
#
# Indices 1 2 3 4 5 6 
#
# 1 178.4662 37.5049 150.7158 0.0000 3.9240 0.0003
# 2 37.5049 27.1885 33.0898 0.0002 0.7229 0.0005
# 3 150.7158 33.0898 177.3283 0.0000 -2.7464 -0.0001
# 4 0.0000 0.0002 0.0000 30.9904 0.0000 -7.7175
# 5 3.9240 0.7229 -2.7464 0.0000 39.3282 0.0000
# 6 0.0003 0.0005 -0.0001 -7.7175 0.0000 24.9939
#
#
#
# Elastic Compliance Matrix: (Units=1/GPa)
#
#
# Indices 1 2 3 4 5 6 
#
# 1 0.022050 -0.009655 -0.016989 0.000000 -0.003209 0.000000
# 2 -0.009655 0.051903 -0.001481 -0.000001 -0.000094 -0.000001
# 3 -0.016989 -0.001481 0.020404 0.000000 0.003147 0.000000
# 4 0.000000 -0.000001 0.000000 0.034956 0.000000 0.010794
# 5 -0.003209 -0.000094 0.003147 0.000000 0.025969 0.000000
# 6 0.000000 -0.000001 0.000000 0.010794 0.000000 0.043342
#
#
# Mechanical properties :
#
#
# Convention : Reuss Voigt Hill
#
# Bulk Modulus (GPa) = 26.24141 91.73379 58.98760
# Shear Modulus (GPa) = 18.68618 29.84067 24.26342
#
# Velocity S-wave (km/s) = 3.17073 4.00685 3.61306
# Velocity P-wave (km/s) = 5.24624 8.41195 7.01014
#
# Compressibility (1/GPa) = 0.03810771
#
# Stress axis : x y z
#
# Youngs Moduli (GPa) = 45.35057 19.26658 49.01028
#
# Poissons Ratio (x) = 0.18602 0.83265
# Poissons Ratio (y) = 0.43787 0.07256
# Poissons Ratio (z) = 0.77047 0.02853
#
# Static dielectric constant tensor:
#      x y z
#    x 1.620780 0.000000 0.022650 
#    y 0.000000 1.642020 0.000000 
#    z 0.022650 0.000000 1.625550 
# 
# From -- ./inp_files/342281.got.cif
#   From: 2010.05.17/outbox.cif.g08.bks.cpg/sg12_172_cif.got.tgz:342281.got - 2010.06.03 13:09:07.
