data_PCOD9195855
_publ_section_title
;
Structure prediction by ZEFSAII (Michael W. Deem and Ramdas Pophale) SiO2 
 PCOD9195855
Probable space group: C 2/M
;
_chemical_formula_sum "Si O2"
_cell_formula_units_Z 64
_cell_length_a 26.363634
_cell_length_b 7.513206
_cell_length_c 15.543877
_cell_angle_alpha 90.000000
_cell_angle_beta 58.273623
_cell_angle_gamma 90.000000
_cell_volume 2618.783091
_symmetry_space_group_name_H-M "C 2/M"
_symmetry_group_IT_number 12
_symmetry_cell_setting 'monoclinic'
loop_
_space_group_symop_operation_xyz
x,y,z
-x,y,-z
-x,-y,-z
x,-y,z
1/2+x,1/2+y,z
1/2-x,1/2+y,-z
1/2-x,1/2-y,-z
1/2+x,1/2-y,z
loop_
_atom_site_type_symbol
_atom_site_label
_atom_site_fract_x
_atom_site_fract_y
_atom_site_fract_z
Si Si1 0.670916 0.780783 0.815031
Si Si2 0.031020 0.209670 0.559517
Si Si3 0.320578 0.288810 0.926249
Si Si4 0.845241 0.717095 0.360609
Si Si5 0.080609 0.297521 0.026340
Si Si6 0.483622 0.214859 0.241524
Si Si7 0.334015 0.799699 0.552930
Si Si8 0.291909 0.294847 0.774772
O O1 0.681365 0.729358 0.707018
O O2 0.726297 0.714534 0.822139
O O3 0.670530 0.000000 0.816582
O O4 0.609455 0.720775 0.913735
O O5 0.094213 0.303730 0.515093
O O6 0.000000 0.272789 0.500000
O O7 0.996002 0.233385 0.680321
O O8 0.043233 0.000000 0.537943
O O9 0.331558 0.500000 0.926401
O O10 0.364266 0.198976 0.955271
O O11 0.331227 0.224709 0.818091
O O12 0.250000 0.250000 0.000000
O O13 0.843775 0.500000 0.366646
O O14 0.817119 0.782343 0.475448
O O15 0.914877 0.771554 0.293866
O O16 0.062968 0.500000 0.020521
O O17 0.026036 0.216013 0.127984
O O18 0.484733 0.000000 0.236799
O O19 0.318703 0.708486 0.655883
O O20 0.310782 0.000000 0.579449
O O21 0.282378 0.500000 0.807474
#
# Coordination Sequence:
#
# PCOD9195855 Si02
#       8
#     8   8   8   8   8   8   8   8
#     4   9  17  33  56  79 109 145 183 223 266 322
#     4  10  21  36  54  76 105 142 184 222 268 328
#     4  11  22  37  56  78 110 146 183 226 272 323
#     4   8  16  33  55  80 109 141 178 226 273 314
#     4  10  20  35  55  83 113 146 184 220 268 323
#     4   9  19  34  54  82 112 139 178 225 270 318
#     4  10  21  36  55  81 110 139 179 227 273 319
#     4  10  21  36  54  79 110 146 184 220 269 327
#
# _framework density 24.438832000000001
#
# number of rings (size 3 to 8) (size 9 to 14) (size 15 to 20)
#    0.000    2.375    1.250    1.875    1.750    3.500 
#    0.000    2.500    0.000    6.750    0.000    4.375 
#    0.000    0.000    0.000    0.000    0.000    0.000 
#
# Total GULP energy -178692.668950 kJ/mol
# GULP energy per Si atom -5584.145905 kJ/mol
# Density = 2.438321 g / cm^3
# Si number density = 24.438832 Si / 1000 Ang^3
#
#
#
# Elastic Constant Matrix: (Units=GPa)
#
#
# Indices 1 2 3 4 5 6 
#
# 1 38.4065 -3.2644 -2.5763 0.0002 16.2199 0.0003
# 2 -3.2644 81.0682 -1.2928 0.0010 1.6061 0.0015
# 3 -2.5763 -1.2928 118.8873 0.0000 14.1100 0.0000
# 4 0.0002 0.0010 0.0000 11.8883 0.0001 -4.0886
# 5 16.2199 1.6061 14.1100 0.0001 41.9523 0.0001
# 6 0.0003 0.0015 0.0000 -4.0886 0.0001 6.2758
#
#
#
# Elastic Compliance Matrix: (Units=1/GPa)
#
#
# Indices 1 2 3 4 5 6 
#
# 1 0.031876 0.001580 0.002268 -0.000001 -0.013148 -0.000002
# 2 0.001580 0.012427 0.000311 -0.000003 -0.001191 -0.000005
# 3 0.002268 0.000311 0.008926 0.000000 -0.003891 0.000000
# 4 -0.000001 -0.000003 0.000000 0.108405 0.000000 0.070625
# 5 -0.013148 -0.001191 -0.003891 0.000000 0.030274 0.000000
# 6 -0.000002 -0.000005 0.000000 0.070625 0.000000 0.205354
#
#
# Mechanical properties :
#
#
# Convention : Reuss Voigt Hill
#
# Bulk Modulus (GPa) = 16.24746 24.89945 20.57345
# Shear Modulus (GPa) = 12.21119 28.38965 20.30042
#
# Velocity S-wave (km/s) = 2.23774 3.41201 2.88525
# Velocity P-wave (km/s) = 3.65230 5.07277 4.41997
#
# Compressibility (1/GPa) = 0.06154809
#
# Stress axis : x y z
#
# Youngs Moduli (GPa) = 31.37127 80.46685 112.03670
#
# Poissons Ratio (x) = -0.12715 -0.25414
# Poissons Ratio (y) = -0.04957 -0.03482
# Poissons Ratio (z) = -0.07116 -0.02501
#
# Static dielectric constant tensor:
#      x y z
#    x 1.939340 0.000000 0.016240 
#    y 0.000000 1.961290 0.000000 
#    z 0.016240 0.000000 2.011050 
# 
# From -- ./inp_files/249099.got.cif
#   From: 2010.05.17/outbox.cif.g08.bks.cpg/sg12_125_cif.got.tgz:249099.got - 2010.06.03 13:09:07.
