data_PCOD9195619
_publ_section_title
;
Structure prediction by ZEFSAII (Michael W. Deem and Ramdas Pophale) SiO2 
 PCOD9195619
Probable space group: C 2/M
;
_chemical_formula_sum "Si O2"
_cell_formula_units_Z 64
_cell_length_a 29.334921
_cell_length_b 8.916387
_cell_length_c 14.565922
_cell_angle_alpha 90.000000
_cell_angle_beta 106.900079
_cell_angle_gamma 90.000000
_cell_volume 3645.347742
_symmetry_space_group_name_H-M "C 2/M"
_symmetry_group_IT_number 12
_symmetry_cell_setting 'monoclinic'
loop_
_space_group_symop_operation_xyz
x,y,z
-x,y,-z
-x,-y,-z
x,-y,z
1/2+x,1/2+y,z
1/2-x,1/2+y,-z
1/2-x,1/2-y,-z
1/2+x,1/2-y,z
loop_
_atom_site_type_symbol
_atom_site_label
_atom_site_fract_x
_atom_site_fract_y
_atom_site_fract_z
Si Si1 0.497868 0.680418 0.391659
Si Si2 0.693951 0.821246 0.868714
Si Si3 0.401825 0.319678 0.637513
Si Si4 0.599398 0.824985 0.709181
Si Si5 0.795097 0.323022 0.907815
Si Si6 0.748148 0.821367 0.397541
Si Si7 0.661104 0.679041 0.234650
Si Si8 0.843660 0.325878 0.441554
O O1 0.500000 0.731547 0.500000
O O2 0.496263 0.500000 0.392632
O O3 0.545442 0.724786 0.364188
O O4 0.450335 0.740037 0.315642
O O5 0.644379 0.768835 0.795052
O O6 0.742124 0.743560 0.861322
O O7 0.698052 0.000000 0.852077
O O8 0.693150 0.799082 0.978079
O O9 0.397207 0.500000 0.621957
O O10 0.385857 0.286282 0.732332
O O11 0.365139 0.239020 0.547580
O O12 0.616894 0.816205 0.614171
O O13 0.592155 0.000000 0.728320
O O14 0.794073 0.500000 0.888937
O O15 0.833033 0.245756 0.863089
O O16 0.750000 0.750000 0.500000
O O17 0.704925 0.749976 0.316682
O O18 0.798366 0.770474 0.384627
O O19 0.743973 0.000000 0.399159
O O20 0.666307 0.500000 0.234258
O O21 0.829733 0.500000 0.444130
#
# Coordination Sequence:
#
# PCOD9195619 Si02
#       8
#     8   8   8   8   8   8   8   8
#     4  10  20  35  55  78 105 140 183 231 277 324
#     4   9  19  37  58  82 114 145 178 223 276 332
#     4  10  21  36  52  72 103 144 183 220 269 323
#     4  10  21  35  54  80 108 140 177 223 276 328
#     4  10  20  35  58  85 111 143 182 225 273 328
#     4  12  23  34  49  73 106 142 181 219 261 317
#     4  11  22  36  54  75 106 147 184 222 270 326
#     4  11  21  32  50  76 107 142 179 218 263 320
#
# _framework density 17.556623999999999
#
# number of rings (size 3 to 8) (size 9 to 14) (size 15 to 20)
#    0.000    1.625    2.500    3.000    0.000    3.750 
#    0.000    0.000    0.000    0.750    0.000    5.250 
#    0.000    0.000    0.000    0.000    0.000    0.000 
#
# Total GULP energy -178651.699911 kJ/mol
# GULP energy per Si atom -5582.865622 kJ/mol
# Density = 1.751666 g / cm^3
# Si number density = 17.556624 Si / 1000 Ang^3
#
#
#
# Elastic Constant Matrix: (Units=GPa)
#
#
# Indices 1 2 3 4 5 6 
#
# 1 127.1689 44.2627 40.6053 0.0000 -7.3992 0.0000
# 2 44.2627 49.6921 30.4457 0.0000 -12.4609 0.0000
# 3 40.6053 30.4457 57.2380 0.0000 -1.6289 0.0000
# 4 0.0000 0.0000 0.0000 24.5721 0.0000 0.1761
# 5 -7.3992 -12.4609 -1.6289 0.0000 27.0975 0.0000
# 6 0.0000 0.0000 0.0000 0.1761 0.0000 27.3476
#
#
#
# Elastic Compliance Matrix: (Units=1/GPa)
#
#
# Indices 1 2 3 4 5 6 
#
# 1 0.012060 -0.008450 -0.004085 0.000000 -0.000838 0.000000
# 2 -0.008450 0.040974 -0.015356 0.000000 0.015611 0.000000
# 3 -0.004085 -0.015356 0.028352 0.000000 -0.006472 0.000000
# 4 0.000000 0.000000 0.000000 0.040698 0.000000 -0.000262
# 5 -0.000838 0.015611 -0.006472 0.000000 0.043465 0.000000
# 6 0.000000 0.000000 0.000000 -0.000262 0.000000 0.036568
#
#
# Mechanical properties :
#
#
# Convention : Reuss Voigt Hill
#
# Bulk Modulus (GPa) = 39.05436 51.63626 45.34531
# Shear Modulus (GPa) = 18.76642 23.72247 21.24445
#
# Velocity S-wave (km/s) = 3.27296 3.67985 3.48236
# Velocity P-wave (km/s) = 6.04782 6.89422 6.48484
#
# Compressibility (1/GPa) = 0.02560534
#
# Stress axis : x y z
#
# Youngs Moduli (GPa) = 82.91736 24.40597 35.27029
#
# Poissons Ratio (x) = 0.20623 0.14407
# Poissons Ratio (y) = 0.70064 0.54160
# Poissons Ratio (z) = 0.33871 0.37477
#
# Static dielectric constant tensor:
#      x y z
#    x 1.616780 0.000000 -0.030800 
#    y 0.000000 1.594150 0.000000 
#    z -0.030800 0.000000 1.606390 
# 
# From -- ./inp_files/244131.got.cif
#   From: 2010.05.17/outbox.cif.g08.bks.cpg/sg12_123_cif.got.tgz:244131.got - 2010.06.03 13:09:07.
