data_PCOD9195309
_publ_section_title
;
Structure prediction by ZEFSAII (Michael W. Deem and Ramdas Pophale) SiO2 
 PCOD9195309
Probable space group: C 2/M
;
_chemical_formula_sum "Si O2"
_cell_formula_units_Z 48
_cell_length_a 16.475530
_cell_length_b 27.735823
_cell_length_c 13.323013
_cell_angle_alpha 90.000000
_cell_angle_beta 25.517373
_cell_angle_gamma 90.000000
_cell_volume 2622.667467
_symmetry_space_group_name_H-M "C 2/M"
_symmetry_group_IT_number 12
_symmetry_cell_setting 'monoclinic'
loop_
_space_group_symop_operation_xyz
x,y,z
-x,y,-z
-x,-y,-z
x,-y,z
1/2+x,1/2+y,z
1/2-x,1/2+y,-z
1/2-x,1/2-y,-z
1/2+x,1/2-y,z
loop_
_atom_site_type_symbol
_atom_site_label
_atom_site_fract_x
_atom_site_fract_y
_atom_site_fract_z
Si Si1 0.363514 0.420757 0.809186
Si Si2 0.500000 0.642546 0.500000
Si Si3 0.224626 0.170192 0.972570
Si Si4 0.811239 0.000000 0.586773
Si Si5 0.290476 0.723525 0.637627
Si Si6 0.606795 0.000000 0.034233
Si Si7 0.500000 0.808186 0.500000
Si Si8 0.554779 0.771616 0.108174
O O1 0.349951 0.391264 0.720008
O O2 0.551419 0.454241 0.590721
O O3 0.180618 0.454341 0.014581
O O4 0.364295 0.380260 0.894182
O O5 0.420603 0.677104 0.502863
O O6 0.340963 0.164111 0.739043
O O7 0.364149 0.189644 0.904672
O O8 0.090754 0.216976 0.105756
O O9 0.735455 0.000000 0.787280
O O10 0.613799 0.000000 0.746063
O O11 0.409808 0.772041 0.517699
O O12 0.157453 0.721619 0.691120
O O13 0.172500 0.723007 0.873376
#
# Coordination Sequence:
#
# PCOD9195309 Si02
#       8
#     8   4   8   4   8   4   4   8
#     4  11  20  37  57  83 117 146 182 234 283 346
#     4  11  18  31  52  85 114 151 186 221 273 340
#     4  10  20  35  53  78 112 153 198 233 275 326
#     4  10  21  39  60  83 114 143 171 228 306 358
#     4   9  18  32  50  75 116 154 186 232 273 325
#     4  10  21  39  60  85 114 140 172 231 304 362
#     4   9  20  36  50  70 114 158 194 238 269 302
#     4   9  18  33  50  76 113 153 191 231 278 326
#
# _framework density 18.301977000000001
#
# number of rings (size 3 to 8) (size 9 to 14) (size 15 to 20)
#    0.000    2.167    3.333    0.500    2.333    2.000 
#    3.000    0.000    0.000    2.000    0.000    1.167 
#    0.000    0.000    0.000    0.000    0.000    0.000 
#
# Total GULP energy -133776.563918 kJ/mol
# GULP energy per Si atom -5574.023497 kJ/mol
# Density = 1.826032 g / cm^3
# Si number density = 18.301977 Si / 1000 Ang^3
#
#
#
# Elastic Constant Matrix: (Units=GPa)
#
#
# Indices 1 2 3 4 5 6 
#
# 1 79.6375 35.2080 21.3195 -0.0087 -29.1491 0.0064
# 2 35.2080 110.1917 44.3188 0.0025 -1.5685 -0.0012
# 3 21.3195 44.3188 72.5142 -0.0090 -5.1268 0.0104
# 4 -0.0087 0.0025 -0.0090 21.1513 0.0091 8.3505
# 5 -29.1491 -1.5685 -5.1268 0.0091 33.9781 -0.0041
# 6 0.0064 -0.0012 0.0104 8.3505 -0.0041 0.7714
#
#
#
# Elastic Compliance Matrix: (Units=1/GPa)
#
#
# Indices 1 2 3 4 5 6 
#
# 1 0.022723 -0.006421 -0.001414 -0.000010 0.018984 0.000029
# 2 -0.006421 0.013858 -0.007001 0.000018 -0.005925 -0.000058
# 3 -0.001414 -0.007001 0.018574 -0.000032 0.001267 0.000100
# 4 -0.000010 0.000018 -0.000032 -0.014441 0.000010 0.156333
# 5 0.018984 -0.005925 0.001267 0.000010 0.045634 -0.000052
# 6 0.000029 -0.000058 0.000100 0.156333 -0.000052 -0.395983
#
#
# Mechanical properties :
#
#
# Convention : Reuss Voigt Hill
#
# Bulk Modulus (GPa) = 39.24150 51.55956 45.40053
# Shear Modulus (GPa) = -18.41835 21.94662 1.76413
#
# Velocity S-wave (km/s) = -3.17576 3.46662 0.98285
# Velocity P-wave (km/s) = 2.83556 6.65252 5.11353
#
# Compressibility (1/GPa) = 0.02548323
#
# Stress axis : x y z
#
# Youngs Moduli (GPa) = 44.00869 72.15948 53.83782
#
# Poissons Ratio (x) = 0.46337 0.07612
# Poissons Ratio (y) = 0.28260 0.37691
# Poissons Ratio (z) = 0.06222 0.50517
#
# Static dielectric constant tensor:
#      x y z
#    x 1.632230 0.000000 -0.000180 
#    y 0.000000 1.631360 0.000000 
#    z -0.000180 0.000000 1.705580 
# 
# From -- ./inp_files/150241.got.cif
#   From: 2010.05.17/outbox.cif.g08.bks.cpg/sg12_76_cif.got.tgz:150241.got - 2010.06.03 13:09:07.
