data_PCOD9195149
_publ_section_title
;
Structure prediction by ZEFSAII (Michael W. Deem and Ramdas Pophale) SiO2 
 PCOD9195149
Probable space group: C 2/M
;
_chemical_formula_sum "Si O2"
_cell_formula_units_Z 64
_cell_length_a 23.378301
_cell_length_b 20.024933
_cell_length_c 12.174068
_cell_angle_alpha 90.000000
_cell_angle_beta 38.107651
_cell_angle_gamma 90.000000
_cell_volume 3517.257042
_symmetry_space_group_name_H-M "C 2/M"
_symmetry_group_IT_number 12
_symmetry_cell_setting 'monoclinic'
loop_
_space_group_symop_operation_xyz
x,y,z
-x,y,-z
-x,-y,-z
x,-y,z
1/2+x,1/2+y,z
1/2-x,1/2+y,-z
1/2-x,1/2-y,-z
1/2+x,1/2-y,z
loop_
_atom_site_type_symbol
_atom_site_label
_atom_site_fract_x
_atom_site_fract_y
_atom_site_fract_z
Si Si1 0.877992 0.242606 0.910348
Si Si2 0.012452 0.359008 0.357414
Si Si3 0.362974 0.423174 0.231665
Si Si4 0.569621 0.575070 0.497456
Si Si5 0.697511 0.320691 0.196648
Si Si6 0.517056 0.619339 0.148305
Si Si7 0.300108 0.924346 0.888507
Si Si8 0.315955 0.919452 0.618684
O O1 0.860592 0.214829 0.812617
O O2 0.929769 0.187422 0.903657
O O3 0.944093 0.305648 0.790164
O O4 0.778635 0.268439 0.106962
O O5 0.916041 0.386625 0.459125
O O6 0.000000 0.330111 0.500000
O O7 0.089774 0.416157 0.259764
O O8 0.363859 0.500000 0.271184
O O9 0.420358 0.376791 0.227342
O O10 0.258798 0.402016 0.360501
O O11 0.417428 0.421535 0.033355
O O12 0.500000 0.576839 0.500000
O O13 0.612954 0.500000 0.434346
O O14 0.637527 0.639014 0.376986
O O15 0.509173 0.584656 0.698133
O O16 0.750211 0.378719 0.050889
O O17 0.279738 0.900695 0.795382
O O18 0.270122 0.000000 0.944815
O O19 0.325074 0.000000 0.605946
#
# Coordination Sequence:
#
# PCOD9195149 Si02
#       8
#     8   8   8   8   8   8   8   8
#     4  10  21  34  52  71 110 149 182 211 257 334
#     4   9  18  30  49  76 110 145 173 214 268 324
#     4  10  21  38  61  79 104 141 182 228 273 320
#     4  11  22  34  55  84 113 139 177 233 283 326
#     4  10  20  35  49  77 107 148 179 210 267 332
#     4  11  21  38  55  81 105 143 181 223 269 324
#     4   9  16  29  51  79 109 135 171 222 275 321
#     4   9  17  30  52  81 104 132 180 229 271 312
#
# _framework density 18.195997999999999
#
# number of rings (size 3 to 8) (size 9 to 14) (size 15 to 20)
#    0.000    2.125    1.250    3.000    1.750    2.500 
#    0.000    0.625    2.750    0.000    0.000    0.000 
#    0.000    7.750    0.000    0.000    0.000    0.000 
#
# Total GULP energy -178418.350464 kJ/mol
# GULP energy per Si atom -5575.573452 kJ/mol
# Density = 1.815458 g / cm^3
# Si number density = 18.195998 Si / 1000 Ang^3
#
#
#
# Elastic Constant Matrix: (Units=GPa)
#
#
# Indices 1 2 3 4 5 6 
#
# 1 113.2331 31.3745 18.4101 0.0000 -18.7002 0.0000
# 2 31.3745 70.2671 9.6671 0.0000 -4.6146 0.0000
# 3 18.4101 9.6671 37.4801 0.0000 3.2227 0.0000
# 4 0.0000 0.0000 0.0000 22.5059 0.0000 -7.6415
# 5 -18.7002 -4.6146 3.2227 0.0000 25.5821 0.0000
# 6 0.0000 0.0000 0.0000 -7.6415 0.0000 14.8516
#
#
#
# Elastic Compliance Matrix: (Units=1/GPa)
#
#
# Indices 1 2 3 4 5 6 
#
# 1 0.012424 -0.004152 -0.005811 0.000000 0.009065 0.000000
# 2 -0.004152 0.016403 -0.002208 0.000000 0.000202 0.000000
# 3 -0.005811 -0.002208 0.030838 0.000000 -0.008531 0.000000
# 4 0.000000 0.000000 0.000000 0.053838 0.000000 0.027701
# 5 0.009065 0.000202 -0.008531 0.000000 0.046827 0.000000
# 6 0.000000 0.000000 0.000000 0.027701 0.000000 0.081586
#
#
# Mechanical properties :
#
#
# Convention : Reuss Voigt Hill
#
# Bulk Modulus (GPa) = 28.31162 37.76483 33.03823
# Shear Modulus (GPa) = 17.98353 23.35650 20.67001
#
# Velocity S-wave (km/s) = 3.14717 3.58663 3.37406
# Velocity P-wave (km/s) = 5.36650 6.16047 5.77714
#
# Compressibility (1/GPa) = 0.03532119
#
# Stress axis : x y z
#
# Youngs Moduli (GPa) = 80.49162 60.96611 32.42735
#
# Poissons Ratio (x) = 0.25316 0.18843
# Poissons Ratio (y) = 0.33424 0.07161
# Poissons Ratio (z) = 0.46772 0.13463
#
# Static dielectric constant tensor:
#      x y z
#    x 1.632440 0.000000 -0.030370 
#    y 0.000000 1.659860 0.000000 
#    z -0.030370 0.000000 1.645690 
# 
# From -- ./inp_files/177714.got.cif
#   From: 2010.05.17/outbox.cif.g08.bks.cpg/sg12_89_cif.got.tgz:177714.got - 2010.06.03 13:09:07.
