data_PCOD9195745
_publ_section_title
;
Structure prediction by ZEFSAII (Michael W. Deem and Ramdas Pophale) SiO2 
 PCOD9195745
Probable space group: C 2/M
;
_chemical_formula_sum "Si O2"
_cell_formula_units_Z 48
_cell_length_a 22.806903
_cell_length_b 14.175446
_cell_length_c 15.970598
_cell_angle_alpha 90.000000
_cell_angle_beta 31.023413
_cell_angle_gamma 90.000000
_cell_volume 2661.085205
_symmetry_space_group_name_H-M "C 2/M"
_symmetry_group_IT_number 12
_symmetry_cell_setting 'monoclinic'
loop_
_space_group_symop_operation_xyz
x,y,z
-x,y,-z
-x,-y,-z
x,-y,z
1/2+x,1/2+y,z
1/2-x,1/2+y,-z
1/2-x,1/2-y,-z
1/2+x,1/2-y,z
loop_
_atom_site_type_symbol
_atom_site_label
_atom_site_fract_x
_atom_site_fract_y
_atom_site_fract_z
Si Si1 0.871784 0.730334 0.192086
Si Si2 0.287500 0.891179 0.149117
Si Si3 0.761072 0.890431 0.228346
Si Si4 0.700550 0.231676 0.152511
Si Si5 0.017169 0.606534 0.606245
Si Si6 0.952782 0.607829 0.235210
O O1 0.800129 0.656812 0.223931
O O2 0.822603 0.832212 0.227240
O O3 0.883285 0.687562 0.270565
O O4 0.000000 0.728285 0.000000
O O5 0.201036 0.830649 0.200099
O O6 0.258554 0.000000 0.189787
O O7 0.413013 0.882941 0.952397
O O8 0.775913 0.835928 0.121769
O O9 0.626765 0.885528 0.413605
O O10 0.794458 0.000000 0.183939
O O11 0.579159 0.182435 0.292502
O O12 0.750000 0.250000 0.000000
O O13 0.969043 0.500000 0.655659
O O14 0.057772 0.615640 0.652511
O O15 0.920531 0.500000 0.249133
#
# Coordination Sequence:
#
# PCOD9195745 Si02
#       6
#     8   8   8   8   8   8
#     4   9  18  32  53  78 105 138 177 220 263 310
#     4   9  17  30  49  76 104 132 171 219 264 306
#     4  10  22  37  54  78 109 144 176 215 269 319
#     4  11  20  32  54  78 103 134 175 223 261 309
#     4  10  20  35  55  80 109 140 177 220 265 314
#     4   9  16  29  52  78 104 135 176 220 257 304
#
# _framework density 18.037754
#
# number of rings (size 3 to 8) (size 9 to 14) (size 15 to 20)
#    0.000    2.333    1.667    1.500    0.000    5.000 
#    0.000    0.000    0.000    9.000    0.000    0.000 
#    0.000    0.000    0.000    0.000    0.000    0.000 
#
# Total GULP energy -133793.710729 kJ/mol
# GULP energy per Si atom -5574.737947 kJ/mol
# Density = 1.799670 g / cm^3
# Si number density = 18.037754 Si / 1000 Ang^3
#
#
#
# Elastic Constant Matrix: (Units=GPa)
#
#
# Indices 1 2 3 4 5 6 
#
# 1 82.2036 61.1455 15.4188 0.0000 5.3023 0.0000
# 2 61.1455 149.0736 14.9141 0.0000 -1.9154 0.0000
# 3 15.4188 14.9141 21.7476 0.0000 8.4410 0.0000
# 4 0.0000 0.0000 0.0000 20.1843 0.0000 -8.4361
# 5 5.3023 -1.9154 8.4410 0.0000 22.0754 0.0000
# 6 0.0000 0.0000 0.0000 -8.4361 0.0000 34.9982
#
#
#
# Elastic Compliance Matrix: (Units=1/GPa)
#
#
# Indices 1 2 3 4 5 6 
#
# 1 0.019009 -0.007046 -0.007793 0.000000 -0.002197 0.000000
# 2 -0.007046 0.009981 -0.003338 0.000000 0.003835 0.000000
# 3 -0.007793 -0.003338 0.062450 0.000000 -0.022297 0.000000
# 4 0.000000 0.000000 0.000000 0.055094 0.000000 0.013280
# 5 -0.002197 0.003835 -0.022297 0.000000 0.054686 0.000000
# 6 0.000000 0.000000 0.000000 0.013280 0.000000 0.031774
#
#
# Mechanical properties :
#
#
# Convention : Reuss Voigt Hill
#
# Bulk Modulus (GPa) = 18.15269 48.44242 33.29755
# Shear Modulus (GPa) = 17.37864 26.22133 21.79999
#
# Velocity S-wave (km/s) = 3.10733 3.81687 3.48023
# Velocity P-wave (km/s) = 4.79162 6.80728 5.88637
#
# Compressibility (1/GPa) = 0.05508826
#
# Stress axis : x y z
#
# Youngs Moduli (GPa) = 52.60667 100.18838 16.01269
#
# Poissons Ratio (x) = 0.70588 0.12478
# Poissons Ratio (y) = 0.37064 0.05345
# Poissons Ratio (z) = 0.40994 0.33443
#
# Static dielectric constant tensor:
#      x y z
#    x 1.649230 0.000000 0.017610 
#    y 0.000000 1.628120 0.000000 
#    z 0.017610 0.000000 1.609650 
# 
# From -- ./inp_files/166889.got.cif
#   From: 2010.05.17/outbox.cif.g08.bks.cpg/sg12_84_cif.got.tgz:166889.got - 2010.06.03 13:09:07.
