data_PCOD9195927
_publ_section_title
;
Structure prediction by ZEFSAII (Michael W. Deem and Ramdas Pophale) SiO2 
 PCOD9195927
Probable space group: C 2/M
;
_chemical_formula_sum "Si O2"
_cell_formula_units_Z 48
_cell_length_a 19.740997
_cell_length_b 18.032564
_cell_length_c 21.385179
_cell_angle_alpha 90.000000
_cell_angle_beta 160.273922
_cell_angle_gamma 90.000000
_cell_volume 2569.471279
_symmetry_space_group_name_H-M "C 2/M"
_symmetry_group_IT_number 12
_symmetry_cell_setting 'monoclinic'
loop_
_space_group_symop_operation_xyz
x,y,z
-x,y,-z
-x,-y,-z
x,-y,z
1/2+x,1/2+y,z
1/2-x,1/2+y,-z
1/2-x,1/2-y,-z
1/2+x,1/2-y,z
loop_
_atom_site_type_symbol
_atom_site_label
_atom_site_fract_x
_atom_site_fract_y
_atom_site_fract_z
Si Si1 0.048216 0.087572 0.727388
Si Si2 0.919566 0.731654 0.834247
Si Si3 0.140831 0.328456 0.915327
Si Si4 0.824513 0.793885 0.260404
Si Si5 0.604728 0.085830 0.396397
Si Si6 0.610100 0.154758 0.533955
O O1 0.089549 0.135550 0.701137
O O2 0.824623 0.101032 0.558780
O O3 0.074432 0.000000 0.739718
O O4 0.205737 0.117122 0.915968
O O5 0.767540 0.692517 0.750744
O O6 0.827538 0.812383 0.740688
O O7 0.956932 0.687721 0.802948
O O8 0.135102 0.734715 0.055124
O O9 0.055069 0.362515 0.777498
O O10 0.250000 0.250000 0.000000
O O11 0.985401 0.728587 0.406208
O O12 0.612935 0.102137 0.477131
O O13 0.555943 0.000000 0.342260
O O14 0.500000 0.124247 0.500000
#
# Coordination Sequence:
#
# PCOD9195927 Si02
#       6
#     8   8   8   8   8   8
#     4  10  21  36  54  79 112 145 175 212 264 320
#     4   9  18  32  53  80 106 132 175 222 259 302
#     4  11  21  35  58  82 105 139 181 222 262 309
#     4   9  18  34  54  79 107 137 176 219 258 307
#     4  11  23  37  53  78 111 141 174 219 267 317
#     4  10  20  35  56  77 101 136 178 222 266 313
#
# _framework density 18.680886000000001
#
# number of rings (size 3 to 8) (size 9 to 14) (size 15 to 20)
#    0.000    2.000    0.000    4.500    0.000    2.333 
#    0.000    7.500    0.000    6.500    0.000   10.500 
#    0.000    0.000    0.000    0.000    0.000    0.000 
#
# Total GULP energy -133995.985129 kJ/mol
# GULP energy per Si atom -5583.166047 kJ/mol
# Density = 1.863837 g / cm^3
# Si number density = 18.680886 Si / 1000 Ang^3
#
#
#
# Elastic Constant Matrix: (Units=GPa)
#
#
# Indices 1 2 3 4 5 6 
#
# 1 116.5578 42.9189 27.5232 0.0068 -4.0873 0.0098
# 2 42.9189 52.2863 35.6281 0.0129 10.3666 0.0183
# 3 27.5232 35.6281 55.2852 0.0118 7.6929 0.0174
# 4 0.0068 0.0129 0.0118 21.0639 0.0109 -1.3520
# 5 -4.0873 10.3666 7.6929 0.0109 19.9707 0.0074
# 6 0.0098 0.0183 0.0174 -1.3520 0.0074 17.6329
#
#
#
# Elastic Compliance Matrix: (Units=1/GPa)
#
#
# Indices 1 2 3 4 5 6 
#
# 1 0.013809 -0.013644 0.000570 -0.000001 0.009689 0.000002
# 2 -0.013644 0.049482 -0.022330 -0.000004 -0.019876 -0.000014
# 3 0.000570 -0.022330 0.032296 -0.000005 -0.000733 -0.000009
# 4 -0.000001 -0.000004 -0.000005 0.047709 -0.000024 0.003658
# 5 0.009689 -0.019876 -0.000733 -0.000024 0.062656 -0.000012
# 6 0.000002 -0.000014 -0.000009 0.003658 -0.000012 0.056993
#
#
# Mechanical properties :
#
#
# Convention : Reuss Voigt Hill
#
# Bulk Modulus (GPa) = 40.35641 48.47440 44.41541
# Shear Modulus (GPa) = 14.61936 19.60411 17.11174
#
# Velocity S-wave (km/s) = 2.80051 3.24299 3.02984
# Velocity P-wave (km/s) = 5.66631 6.32674 6.00561
#
# Compressibility (1/GPa) = 0.02477921
#
# Stress axis : x y z
#
# Youngs Moduli (GPa) = 72.41838 20.20948 30.96329
#
# Poissons Ratio (x) = 0.27575 -0.01766
# Poissons Ratio (y) = 0.98810 0.69140
# Poissons Ratio (z) = -0.04130 0.45127
#
# Static dielectric constant tensor:
#      x y z
#    x 1.674450 0.000000 -0.003040 
#    y 0.000000 1.601460 -0.000020 
#    z -0.003040 -0.000020 1.663310 
# 
# From -- ./inp_files/317534.got.cif
#   From: 2010.05.17/outbox.cif.g08.bks.cpg/sg12_159_cif.got.tgz:317534.got - 2010.06.03 13:09:07.
