data_PCOD9195994
_publ_section_title
;
Structure prediction by ZEFSAII (Michael W. Deem and Ramdas Pophale) SiO2 
 PCOD9195994
Probable space group: C 2/M
;
_chemical_formula_sum "Si O2"
_cell_formula_units_Z 40
_cell_length_a 10.019487
_cell_length_b 10.571937
_cell_length_c 19.946019
_cell_angle_alpha 90.000000
_cell_angle_beta 106.374808
_cell_angle_gamma 90.000000
_cell_volume 2027.090819
_symmetry_space_group_name_H-M "C 2/M"
_symmetry_group_IT_number 12
_symmetry_cell_setting 'monoclinic'
loop_
_space_group_symop_operation_xyz
x,y,z
-x,y,-z
-x,-y,-z
x,-y,z
1/2+x,1/2+y,z
1/2-x,1/2+y,-z
1/2-x,1/2-y,-z
1/2+x,1/2-y,z
loop_
_atom_site_type_symbol
_atom_site_label
_atom_site_fract_x
_atom_site_fract_y
_atom_site_fract_z
Si Si1 0.176065 0.356575 0.751806
Si Si2 0.619345 0.363710 0.939600
Si Si3 0.556930 0.645718 0.303432
Si Si4 0.335432 0.280450 0.904334
Si Si5 0.867709 0.854420 0.529429
O O1 0.122637 0.500000 0.733807
O O2 0.297499 0.331731 0.714431
O O3 0.254060 0.348431 0.834075
O O4 0.057528 0.249994 0.731902
O O5 0.554031 0.500000 0.918953
O O6 0.496846 0.263936 0.909072
O O7 0.749693 0.343969 0.910675
O O8 0.663278 0.351221 0.023390
O O9 0.513846 0.500000 0.281197
O O10 0.583760 0.653560 0.386651
O O11 0.750000 0.750000 0.500000
O O12 0.000000 0.832771 0.500000
O O13 0.818719 0.000000 0.510765
#
# Coordination Sequence:
#
# PCOD9195994 Si02
#       5
#     8   8   8   8   8
#     4  11  22  37  57  82 114 150 189 231 280 336
#     4  10  20  37  56  76 107 141 181 234 285 330
#     4  10  23  40  58  85 118 150 187 230 275 332
#     4  10  20  35  56  80 105 142 186 229 280 335
#     4  10  21  38  61  88 117 149 187 230 275 326
#
# _framework density 19.732713
#
# number of rings (size 3 to 8) (size 9 to 14) (size 15 to 20)
#    0.000    1.800    0.000    4.800    0.000    4.400 
#    0.000   12.000    0.000    0.000    0.000    0.000 
#    0.000    0.000    0.000    0.000    0.000    0.000 
#
# Total GULP energy -111583.297954 kJ/mol
# GULP energy per Si atom -5579.164898 kJ/mol
# Density = 1.968780 g / cm^3
# Si number density = 19.732713 Si / 1000 Ang^3
#
#
#
# Elastic Constant Matrix: (Units=GPa)
#
#
# Indices 1 2 3 4 5 6 
#
# 1 82.9532 64.5853 12.0250 0.0000 2.2949 0.0000
# 2 64.5853 111.9358 18.5488 0.0000 13.2050 0.0000
# 3 12.0250 18.5488 48.0639 0.0000 0.4365 0.0000
# 4 0.0000 0.0000 0.0000 17.3348 0.0000 4.9929
# 5 2.2949 13.2050 0.4365 0.0000 28.6322 0.0000
# 6 0.0000 0.0000 0.0000 4.9929 0.0000 37.2515
#
#
#
# Elastic Compliance Matrix: (Units=1/GPa)
#
#
# Indices 1 2 3 4 5 6 
#
# 1 0.022411 -0.013366 -0.000488 0.000000 0.004376 0.000000
# 2 -0.013366 0.018089 -0.003571 0.000000 -0.007217 0.000000
# 3 -0.000488 -0.003571 0.022294 0.000000 0.001346 0.000000
# 4 0.000000 0.000000 0.000000 0.060004 0.000000 -0.008042
# 5 0.004376 -0.007217 0.001346 0.000000 0.037883 0.000000
# 6 0.000000 0.000000 0.000000 -0.008042 0.000000 0.027922
#
#
# Mechanical properties :
#
#
# Convention : Reuss Voigt Hill
#
# Bulk Modulus (GPa) = 35.78823 48.14122 41.96473
# Shear Modulus (GPa) = 21.48048 26.49662 23.98855
#
# Velocity S-wave (km/s) = 3.30293 3.66837 3.49043
# Velocity P-wave (km/s) = 5.72029 6.51093 6.12837
#
# Compressibility (1/GPa) = 0.02794215
#
# Stress axis : x y z
#
# Youngs Moduli (GPa) = 44.62018 55.28226 44.85544
#
# Poissons Ratio (x) = 0.73892 0.02191
# Poissons Ratio (y) = 0.59641 0.16019
# Poissons Ratio (z) = 0.02180 0.19743
#
# Static dielectric constant tensor:
#      x y z
#    x 1.684040 0.000000 -0.016840 
#    y 0.000000 1.694030 0.000000 
#    z -0.016840 0.000000 1.684700 
# 
# From -- ./inp_files/254730.got.cif
#   From: 2010.05.17/outbox.cif.g08.bks.cpg/sg12_128_cif.got.tgz:254730.got - 2010.06.03 13:09:07.
