data_PCOD9195337
_publ_section_title
;
Structure prediction by ZEFSAII (Michael W. Deem and Ramdas Pophale) SiO2 
 PCOD9195337
Probable space group: C 2/M
;
_chemical_formula_sum "Si O2"
_cell_formula_units_Z 56
_cell_length_a 32.513272
_cell_length_b 7.732295
_cell_length_c 12.252394
_cell_angle_alpha 90.000000
_cell_angle_beta 124.975311
_cell_angle_gamma 90.000000
_cell_volume 2523.977864
_symmetry_space_group_name_H-M "C 2/M"
_symmetry_group_IT_number 12
_symmetry_cell_setting 'monoclinic'
loop_
_space_group_symop_operation_xyz
x,y,z
-x,y,-z
-x,-y,-z
x,-y,z
1/2+x,1/2+y,z
1/2-x,1/2+y,-z
1/2-x,1/2-y,-z
1/2+x,1/2-y,z
loop_
_atom_site_type_symbol
_atom_site_label
_atom_site_fract_x
_atom_site_fract_y
_atom_site_fract_z
Si Si1 0.744847 0.705817 0.865552
Si Si2 0.444332 0.798352 0.419340
Si Si3 0.858843 0.298677 0.662080
Si Si4 0.435047 0.295208 0.165409
Si Si5 0.525357 0.290404 0.154324
Si Si6 0.840224 0.710042 0.873217
Si Si7 0.352697 0.206291 0.416464
O O1 0.744915 0.500000 0.855878
O O2 0.792425 0.772241 0.869056
O O3 0.693158 0.769091 0.735012
O O4 0.750000 0.750000 0.000000
O O5 0.500000 0.719026 0.500000
O O6 0.423869 0.788361 0.264887
O O7 0.403845 0.721613 0.440984
O O8 0.450321 0.000000 0.458504
O O9 0.843726 0.500000 0.640892
O O10 0.919331 0.285663 0.753099
O O11 0.840552 0.223728 0.749298
O O12 0.841604 0.221872 0.520260
O O13 0.438871 0.500000 0.188776
O O14 0.487592 0.234183 0.192817
O O15 0.391081 0.262175 0.012075
O O16 0.529294 0.500000 0.163362
O O17 0.500000 0.244224 0.000000
O O18 0.839808 0.500000 0.870396
O O19 0.359965 0.000000 0.440236
#
# Coordination Sequence:
#
# PCOD9195337 Si02
#       7
#     8   8   8   8   8   8   8
#     4  11  24  42  63  87 115 150 192 239 292 344
#     4  10  21  38  59  83 115 152 191 235 283 337
#     4  10  21  38  61  87 115 152 197 237 282 345
#     4  11  22  35  56  85 117 152 192 237 287 341
#     4  10  20  35  53  81 122 157 188 233 286 337
#     4  10  22  39  59  85 115 147 191 242 285 336
#     4  10  22  40  61  87 118 151 190 239 289 340
#
# _framework density 22.187200000000001
#
# number of rings (size 3 to 8) (size 9 to 14) (size 15 to 20)
#    0.000    1.714    1.429    2.571    0.000    9.143 
#    0.000    0.000    0.000    0.000    0.000    0.000 
#    0.000    0.000    0.000    0.000    0.000    0.000 
#
# Total GULP energy -156542.012810 kJ/mol
# GULP energy per Si atom -5590.786172 kJ/mol
# Density = 2.213670 g / cm^3
# Si number density = 22.187200 Si / 1000 Ang^3
#
#
#
# Elastic Constant Matrix: (Units=GPa)
#
#
# Indices 1 2 3 4 5 6 
#
# 1 156.4285 1.1437 54.1146 0.0000 -22.8593 0.0000
# 2 1.1437 39.3246 -9.8798 0.0000 -3.4487 0.0000
# 3 54.1146 -9.8798 134.1172 0.0000 -25.0884 0.0000
# 4 0.0000 0.0000 0.0000 10.9546 0.0000 13.0659
# 5 -22.8593 -3.4487 -25.0884 0.0000 33.6158 0.0000
# 6 0.0000 0.0000 0.0000 13.0659 0.0000 7.9527
#
#
#
# Elastic Compliance Matrix: (Units=1/GPa)
#
#
# Indices 1 2 3 4 5 6 
#
# 1 0.007765 -0.000577 -0.002556 0.000000 0.003314 0.000000
# 2 -0.000577 0.026620 0.003058 0.000000 0.004621 0.000000
# 3 -0.002556 0.003058 0.009817 0.000000 0.005902 0.000000
# 4 0.000000 0.000000 0.000000 -0.095130 0.000000 0.156293
# 5 0.003314 0.004621 0.005902 0.000000 0.036880 0.000000
# 6 0.000000 0.000000 0.000000 0.156293 0.000000 -0.131038
#
#
# Mechanical properties :
#
#
# Convention : Reuss Voigt Hill
#
# Bulk Modulus (GPa) = 22.70041 46.73638 34.71839
# Shear Modulus (GPa) = -38.38698 29.47076 -4.45811
#
# Velocity S-wave (km/s) = -4.16401 3.64851 -1.41904
# Velocity P-wave (km/s) = 3.58680 6.23371 3.60514
#
# Compressibility (1/GPa) = 0.04405207
#
# Stress axis : x y z
#
# Youngs Moduli (GPa) = 128.77732 37.56610 101.86608
#
# Poissons Ratio (x) = 0.02169 0.26035
# Poissons Ratio (y) = 0.07435 -0.31154
# Poissons Ratio (z) = 0.32914 -0.11489
#
# Static dielectric constant tensor:
#      x y z
#    x 1.816010 0.000000 -0.026110 
#    y 0.000000 1.826570 0.000000 
#    z -0.026110 0.000000 1.778230 
# 
# From -- ./inp_files/180826.got.cif
#   From: 2010.05.17/outbox.cif.g08.bks.cpg/sg12_91_cif.got.tgz:180826.got - 2010.06.03 13:09:07.
