data_PCOD9195206
_publ_section_title
;
Structure prediction by ZEFSAII (Michael W. Deem and Ramdas Pophale) SiO2 
 PCOD9195206
Probable space group: C 2/M
;
_chemical_formula_sum "Si O2"
_cell_formula_units_Z 44
_cell_length_a 14.713359
_cell_length_b 29.828903
_cell_length_c 7.060917
_cell_angle_alpha 90.000000
_cell_angle_beta 128.324086
_cell_angle_gamma 90.000000
_cell_volume 2431.150763
_symmetry_space_group_name_H-M "C 2/M"
_symmetry_group_IT_number 12
_symmetry_cell_setting 'monoclinic'
loop_
_space_group_symop_operation_xyz
x,y,z
-x,y,-z
-x,-y,-z
x,-y,z
1/2+x,1/2+y,z
1/2-x,1/2+y,-z
1/2-x,1/2-y,-z
1/2+x,1/2-y,z
loop_
_atom_site_type_symbol
_atom_site_label
_atom_site_fract_x
_atom_site_fract_y
_atom_site_fract_z
Si Si1 0.883010 0.109778 0.448851
Si Si2 0.156827 0.815125 0.326481
Si Si3 0.750428 0.126116 0.893026
Si Si4 0.637257 0.447109 0.220376
Si Si5 0.000000 0.665265 0.500000
Si Si6 0.094585 0.287675 0.262353
O O1 0.912898 0.151338 0.628313
O O2 0.837004 0.072972 0.537758
O O3 0.000000 0.093418 0.500000
O O4 0.798333 0.123874 0.168526
O O5 0.185197 0.836646 0.158211
O O6 0.107176 0.765445 0.250007
O O7 0.279822 0.809394 0.591460
O O8 0.786788 0.080352 0.832834
O O9 0.612906 0.136517 0.707438
O O10 0.657535 0.500000 0.237736
O O11 0.500000 0.439079 0.000000
O O12 0.047698 0.698602 0.403748
O O13 0.000000 0.306682 0.000000
#
# Coordination Sequence:
#
# PCOD9195206 Si02
#       6
#     8   8   8   8   4   8
#     4  11  21  33  57  84 109 144 180 223 278 330
#     4   9  22  34  49  79 110 143 187 227 275 312
#     4  10  21  39  57  82 111 148 182 225 274 327
#     4  10  21  38  58  86 116 139 173 225 279 331
#     4  10  22  38  59  78 108 150 195 224 264 322
#     4  10  20  35  52  74 107 149 187 232 267 313
#
# _framework density 18.098427000000001
#
# number of rings (size 3 to 8) (size 9 to 14) (size 15 to 20)
#    0.000    2.000    1.818    1.091    3.818    1.091 
#    0.000    5.909    0.000    1.091    0.000    0.000 
#    0.000    0.000    0.000    0.000    0.000    0.000 
#
# Total GULP energy -122647.036890 kJ/mol
# GULP energy per Si atom -5574.865313 kJ/mol
# Density = 1.805723 g / cm^3
# Si number density = 18.098427 Si / 1000 Ang^3
#
#
#
# Elastic Constant Matrix: (Units=GPa)
#
#
# Indices 1 2 3 4 5 6 
#
# 1 64.3740 20.5622 26.3366 0.0000 0.1571 0.0000
# 2 20.5622 87.8742 20.2412 0.0000 -9.1876 0.0000
# 3 26.3366 20.2412 111.2962 0.0000 6.1779 0.0000
# 4 0.0000 0.0000 0.0000 24.0530 0.0000 13.0431
# 5 0.1571 -9.1876 6.1779 0.0000 29.6919 0.0000
# 6 0.0000 0.0000 0.0000 13.0431 0.0000 27.5803
#
#
#
# Elastic Compliance Matrix: (Units=1/GPa)
#
#
# Indices 1 2 3 4 5 6 
#
# 1 0.018125 -0.003445 -0.003640 0.000000 -0.000405 0.000000
# 2 -0.003445 0.013066 -0.001807 0.000000 0.004437 0.000000
# 3 -0.003640 -0.001807 0.010324 0.000000 -0.002688 0.000000
# 4 0.000000 0.000000 0.000000 0.055914 0.000000 -0.026442
# 5 -0.000405 0.004437 -0.002688 0.000000 0.035614 0.000000
# 6 0.000000 0.000000 0.000000 -0.026442 0.000000 0.048763
#
#
# Mechanical properties :
#
#
# Convention : Reuss Voigt Hill
#
# Bulk Modulus (GPa) = 42.13972 44.20271 43.17122
# Shear Modulus (GPa) = 24.09634 29.35868 26.72751
#
# Velocity S-wave (km/s) = 3.65280 4.03198 3.84707
# Velocity P-wave (km/s) = 6.41286 6.79355 6.60595
#
# Compressibility (1/GPa) = 0.02373058
#
# Stress axis : x y z
#
# Youngs Moduli (GPa) = 55.17311 76.53281 96.85875
#
# Poissons Ratio (x) = 0.26365 0.35256
# Poissons Ratio (y) = 0.19007 0.17507
# Poissons Ratio (z) = 0.20083 0.13833
#
# Static dielectric constant tensor:
#      x y z
#    x 1.569970 0.000000 0.064060 
#    y 0.000000 1.604530 0.000000 
#    z 0.064060 0.000000 1.617150 
# 
# From -- ./inp_files/12993.got.cif
#   From: 2010.05.17/outbox.cif.g08.bks.cpg/sg12_7_cif.got.tgz:12993.got - 2010.06.03 13:09:07.
