data_PCOD9195677
_publ_section_title
;
Structure prediction by ZEFSAII (Michael W. Deem and Ramdas Pophale) SiO2 
 PCOD9195677
Probable space group: C 2/M
;
_chemical_formula_sum "Si O2"
_cell_formula_units_Z 48
_cell_length_a 14.071949
_cell_length_b 8.172161
_cell_length_c 27.090087
_cell_angle_alpha 90.000000
_cell_angle_beta 42.714953
_cell_angle_gamma 90.000000
_cell_volume 2113.276483
_symmetry_space_group_name_H-M "C 2/M"
_symmetry_group_IT_number 12
_symmetry_cell_setting 'monoclinic'
loop_
_space_group_symop_operation_xyz
x,y,z
-x,y,-z
-x,-y,-z
x,-y,z
1/2+x,1/2+y,z
1/2-x,1/2+y,-z
1/2-x,1/2-y,-z
1/2+x,1/2-y,z
loop_
_atom_site_type_symbol
_atom_site_label
_atom_site_fract_x
_atom_site_fract_y
_atom_site_fract_z
Si Si1 0.924337 0.302569 0.078311
Si Si2 0.588827 0.693479 0.516777
Si Si3 0.429694 0.694617 0.179929
Si Si4 0.893331 0.200182 0.791100
Si Si5 0.645881 0.310334 0.635683
Si Si6 0.684015 0.695304 0.333667
O O1 0.921246 0.500000 0.077266
O O2 0.991423 0.250791 0.104408
O O3 0.764872 0.241116 0.144310
O O4 0.000000 0.243262 0.000000
O O5 0.500000 0.725949 0.500000
O O6 0.604060 0.500000 0.515557
O O7 0.744767 0.756938 0.447859
O O8 0.478712 0.749077 0.600879
O O9 0.413043 0.500000 0.186798
O O10 0.529560 0.741626 0.187081
O O11 0.277757 0.772998 0.249962
O O12 0.995175 0.262910 0.708475
O O13 0.889946 0.000000 0.788893
O O14 0.620647 0.500000 0.635974
O O15 0.733891 0.284526 0.653076
O O16 0.685687 0.500000 0.342964
#
# Coordination Sequence:
#
# PCOD9195677 Si02
#       6
#     8   8   8   8   8   8
#     4  10  21  38  59  80 103 136 175 210 254 319
#     4   8  14  23  37  63  99 134 171 215 254 293
#     4  10  20  35  55  79 108 138 170 215 265 308
#     4   8  17  34  53  76 108 141 171 210 262 310
#     4   9  15  24  42  68 100 137 173 212 257 302
#     4   9  16  27  44  68 100 137 175 213 253 301
#
# _framework density 22.713545
#
# number of rings (size 3 to 8) (size 9 to 14) (size 15 to 20)
#    0.000    3.000    0.000    3.500    0.000    4.667 
#    0.000    5.000    0.000    1.000    0.000    0.000 
#    0.000    0.000    0.000    0.000    0.000    0.000 
#
# Total GULP energy -133916.217841 kJ/mol
# GULP energy per Si atom -5579.842410 kJ/mol
# Density = 2.266185 g / cm^3
# Si number density = 22.713545 Si / 1000 Ang^3
#
#
#
# Elastic Constant Matrix: (Units=GPa)
#
#
# Indices 1 2 3 4 5 6 
#
# 1 59.7532 -0.8525 39.6806 0.0000 4.4593 0.0003
# 2 -0.8525 10.0009 15.6057 0.0001 0.3149 0.0004
# 3 39.6806 15.6057 159.5482 0.0000 24.0995 0.0001
# 4 0.0000 0.0001 0.0000 29.4921 0.0000 6.9344
# 5 4.4593 0.3149 24.0995 0.0000 41.7099 0.0000
# 6 0.0003 0.0004 0.0001 6.9344 0.0000 3.3758
#
#
#
# Elastic Compliance Matrix: (Units=1/GPa)
#
#
# Indices 1 2 3 4 5 6 
#
# 1 0.021254 0.012237 -0.006711 0.000001 0.001513 -0.000006
# 2 0.012237 0.126592 -0.016526 0.000006 0.007284 -0.000027
# 3 -0.006711 -0.016526 0.010327 -0.000001 -0.005125 0.000004
# 4 0.000001 0.000006 -0.000001 0.065584 0.000000 -0.134720
# 5 0.001513 0.007284 -0.005125 0.000000 0.026719 -0.000002
# 6 -0.000006 -0.000027 0.000004 -0.134720 -0.000002 0.572961
#
#
# Mechanical properties :
#
#
# Convention : Reuss Voigt Hill
#
# Bulk Modulus (GPa) = 7.34362 37.57444 22.45903
# Shear Modulus (GPa) = 5.61274 26.57346 16.09310
#
# Velocity S-wave (km/s) = 1.57368 3.42415 2.66470
# Velocity P-wave (km/s) = 2.55776 5.67554 4.40192
#
# Compressibility (1/GPa) = 0.13617257
#
# Stress axis : x y z
#
# Youngs Moduli (GPa) = 47.04980 7.89939 96.82988
#
# Poissons Ratio (x) = -0.09666 0.64987
# Poissons Ratio (y) = -0.57574 1.60020
# Poissons Ratio (z) = 0.31577 0.13054
#
# Static dielectric constant tensor:
#      x y z
#    x 1.912180 0.000000 0.006840 
#    y 0.000000 1.789860 0.000000 
#    z 0.006840 0.000000 1.877620 
# 
# From -- ./inp_files/360258.got.cif
#   From: 2010.05.17/outbox.cif.g08.bks.cpg/sg12_181_cif.got.tgz:360258.got - 2010.06.03 13:09:07.
