data_PCOD9195749
_publ_section_title
;
Structure prediction by ZEFSAII (Michael W. Deem and Ramdas Pophale) SiO2 
 PCOD9195749
Probable space group: C 2/M
;
_chemical_formula_sum "Si O2"
_cell_formula_units_Z 64
_cell_length_a 21.023533
_cell_length_b 8.526174
_cell_length_c 24.983832
_cell_angle_alpha 90.000000
_cell_angle_beta 53.327618
_cell_angle_gamma 90.000000
_cell_volume 3591.929152
_symmetry_space_group_name_H-M "C 2/M"
_symmetry_group_IT_number 12
_symmetry_cell_setting 'monoclinic'
loop_
_space_group_symop_operation_xyz
x,y,z
-x,y,-z
-x,-y,-z
x,-y,z
1/2+x,1/2+y,z
1/2-x,1/2+y,-z
1/2-x,1/2-y,-z
1/2+x,1/2-y,z
loop_
_atom_site_type_symbol
_atom_site_label
_atom_site_fract_x
_atom_site_fract_y
_atom_site_fract_z
Si Si1 0.572313 0.682287 0.506731
Si Si2 0.397805 0.187863 0.791722
Si Si3 0.570467 0.812130 0.004792
Si Si4 0.316342 0.310193 0.638493
Si Si5 0.834678 0.189171 0.228919
Si Si6 0.283642 0.689612 0.135006
Si Si7 0.545266 0.690220 0.348354
Si Si8 0.516574 0.311934 0.146147
O O1 0.500000 0.682285 0.500000
O O2 0.591145 0.500000 0.508549
O O3 0.646350 0.749237 0.436397
O O4 0.532712 0.748686 0.580333
O O5 0.306125 0.239809 0.831980
O O6 0.444629 0.248938 0.716304
O O7 0.435985 0.248969 0.826940
O O8 0.398749 0.000000 0.790955
O O9 0.553685 0.745809 0.071874
O O10 0.569460 0.000000 0.007510
O O11 0.500000 0.759768 0.000000
O O12 0.653114 0.755111 0.938615
O O13 0.317151 0.500000 0.636554
O O14 0.229772 0.251782 0.697051
O O15 0.377740 0.262742 0.654926
O O16 0.808789 0.240034 0.182195
O O17 0.924565 0.240551 0.194406
O O18 0.832587 0.000000 0.230974
O O19 0.286676 0.500000 0.131951
O O20 0.543253 0.500000 0.349274
O O21 0.517534 0.500000 0.146247
#
# Coordination Sequence:
#
# PCOD9195749 Si02
#       8
#     8   8   8   8   8   8   8   8
#     4   7  12  24  43  73 109 142 177 218 264 315
#     4  11  23  38  56  81 114 144 179 227 272 317
#     4  11  23  38  60  88 113 137 175 227 272 313
#     4   9  16  27  50  81 110 141 180 226 268 312
#     4  10  20  35  55  80 109 142 181 223 269 321
#     4  10  21  38  59  81 109 146 180 217 270 326
#     4   9  16  29  51  77 109 147 183 217 264 325
#     4  11  24  41  60  79 107 147 184 218 267 330
#
# _framework density 17.817723999999998
#
# number of rings (size 3 to 8) (size 9 to 14) (size 15 to 20)
#    0.000    2.250    2.500    2.625    0.000    3.500 
#    0.000    0.625    0.000    3.000    0.000    0.000 
#    0.000    0.000    0.000    0.000    0.000    0.000 
#
# Total GULP energy -178486.148715 kJ/mol
# GULP energy per Si atom -5577.692147 kJ/mol
# Density = 1.777717 g / cm^3
# Si number density = 17.817724 Si / 1000 Ang^3
#
#
#
# Elastic Constant Matrix: (Units=GPa)
#
#
# Indices 1 2 3 4 5 6 
#
# 1 106.9902 23.1270 71.8519 -0.0004 4.1459 0.0001
# 2 23.1270 17.0382 26.7369 -0.0010 1.2078 -0.0007
# 3 71.8519 26.7369 188.6679 -0.0001 -4.3641 0.0001
# 4 -0.0004 -0.0010 -0.0001 35.6369 0.0000 -1.4123
# 5 4.1459 1.2078 -4.3641 0.0000 25.2581 -0.0001
# 6 0.0001 -0.0007 0.0001 -1.4123 -0.0001 22.2600
#
#
#
# Elastic Compliance Matrix: (Units=1/GPa)
#
#
# Indices 1 2 3 4 5 6 
#
# 1 0.015076 -0.014394 -0.003758 0.000000 -0.002436 0.000000
# 2 -0.014394 0.089982 -0.007344 0.000002 -0.003209 0.000003
# 3 -0.003758 -0.007344 0.007826 0.000000 0.002320 0.000000
# 4 0.000000 0.000002 0.000000 0.028132 0.000000 0.001785
# 5 -0.002436 -0.003209 0.002320 0.000000 0.040545 0.000000
# 6 0.000000 0.000003 0.000000 0.001785 0.000000 0.045037
#
#
# Mechanical properties :
#
#
# Convention : Reuss Voigt Hill
#
# Bulk Modulus (GPa) = 16.15734 61.79201 38.97468
# Shear Modulus (GPa) = 16.76610 29.36301 23.06455
#
# Velocity S-wave (km/s) = 3.07087 4.06392 3.60178
# Velocity P-wave (km/s) = 4.65418 7.53498 6.26248
#
# Compressibility (1/GPa) = 0.06189139
#
# Stress axis : x y z
#
# Youngs Moduli (GPa) = 66.32919 11.11339 127.77915
#
# Poissons Ratio (x) = 0.15997 0.48021
# Poissons Ratio (y) = 0.95474 0.93843
# Poissons Ratio (z) = 0.24927 0.08162
#
# Static dielectric constant tensor:
#      x y z
#    x 1.588620 0.000000 -0.011110 
#    y 0.000000 1.612360 0.000000 
#    z -0.011110 0.000000 1.615680 
# 
# From -- ./inp_files/345922.got.cif
#   From: 2010.05.17/outbox.cif.g08.bks.cpg/sg12_173_cif.got.tgz:345922.got - 2010.06.03 13:09:07.
