data_PCOD9195272
_publ_section_title
;
Structure prediction by ZEFSAII (Michael W. Deem and Ramdas Pophale) SiO2 
 PCOD9195272
Probable space group: C 2/M
;
_chemical_formula_sum "Si O2"
_cell_formula_units_Z 56
_cell_length_a 19.138954
_cell_length_b 8.122412
_cell_length_c 25.181259
_cell_angle_alpha 90.000000
_cell_angle_beta 137.754806
_cell_angle_gamma 90.000000
_cell_volume 2631.763204
_symmetry_space_group_name_H-M "C 2/M"
_symmetry_group_IT_number 12
_symmetry_cell_setting 'monoclinic'
loop_
_space_group_symop_operation_xyz
x,y,z
-x,y,-z
-x,-y,-z
x,-y,z
1/2+x,1/2+y,z
1/2-x,1/2+y,-z
1/2-x,1/2-y,-z
1/2+x,1/2-y,z
loop_
_atom_site_type_symbol
_atom_site_label
_atom_site_fract_x
_atom_site_fract_y
_atom_site_fract_z
Si Si1 0.479907 0.192031 0.816936
Si Si2 0.314020 0.808812 0.586562
Si Si3 0.664341 0.197148 0.994085
Si Si4 0.386537 0.305543 0.923301
Si Si5 0.707630 0.199471 0.749566
Si Si6 0.255225 0.690529 0.663952
Si Si7 0.460227 0.310246 0.259568
O O1 0.552803 0.245533 0.906195
O O2 0.375850 0.295674 0.750195
O O3 0.544156 0.211638 0.798190
O O4 0.452156 0.000000 0.807299
O O5 0.250000 0.750000 0.500000
O O6 0.250398 0.783354 0.605478
O O7 0.421406 0.710222 0.653644
O O8 0.341305 0.000000 0.596740
O O9 0.666226 0.000000 0.001015
O O10 0.750000 0.250000 0.000000
O O11 0.677395 0.279678 0.058410
O O12 0.400363 0.500000 0.921063
O O13 0.316412 0.237927 0.836133
O O14 0.500000 0.231792 0.000000
O O15 0.694262 0.255219 0.681219
O O16 0.617187 0.249819 0.738632
O O17 0.712369 0.000000 0.750630
O O18 0.228959 0.500000 0.639634
O O19 0.438131 0.500000 0.234941
#
# Coordination Sequence:
#
# PCOD9195272 Si02
#       7
#     8   8   8   8   8   8   8
#     4  10  20  35  53  75 106 143 186 234 284 335
#     4  11  22  40  65  91 120 148 180 222 270 327
#     4  11  23  35  50  74 104 141 186 238 289 335
#     4  10  21  37  56  78 108 149 193 238 289 340
#     4  10  21  37  56  81 115 151 188 233 284 336
#     4  10  20  36  60  86 111 144 185 224 270 330
#     4  11  22  36  58  86 114 148 190 231 277 332
#
# _framework density 21.278509
#
# number of rings (size 3 to 8) (size 9 to 14) (size 15 to 20)
#    0.000    1.571    0.000    7.286    0.000    8.857 
#    0.000    0.714    0.000    4.286    0.000    0.000 
#    0.000    0.000    0.000    0.000    0.000    0.000 
#
# Total GULP energy -156522.538305 kJ/mol
# GULP energy per Si atom -5590.090654 kJ/mol
# Density = 2.123008 g / cm^3
# Si number density = 21.278509 Si / 1000 Ang^3
#
#
#
# Elastic Constant Matrix: (Units=GPa)
#
#
# Indices 1 2 3 4 5 6 
#
# 1 88.2441 -14.2226 8.9962 0.0000 -19.6353 0.0000
# 2 -14.2226 38.2990 -4.4954 0.0000 -1.7343 0.0000
# 3 8.9962 -4.4954 82.6623 0.0000 -26.4793 0.0000
# 4 0.0000 0.0000 0.0000 22.4402 0.0000 -1.4104
# 5 -19.6353 -1.7343 -26.4793 0.0000 27.6067 0.0000
# 6 0.0000 0.0000 0.0000 -1.4104 0.0000 27.6131
#
#
#
# Elastic Compliance Matrix: (Units=1/GPa)
#
#
# Indices 1 2 3 4 5 6 
#
# 1 0.015309 0.006737 0.003354 0.000000 0.014529 0.000000
# 2 0.006737 0.029612 0.004342 0.000000 0.010816 0.000000
# 3 0.003354 0.004342 0.018506 0.000000 0.020409 0.000000
# 4 0.000000 0.000000 0.000000 0.044706 0.000000 0.002284
# 5 0.014529 0.010816 0.020409 0.000000 0.066812 0.000000
# 6 0.000000 0.000000 0.000000 0.002284 0.000000 0.036331
#
#
# Mechanical properties :
#
#
# Convention : Reuss Voigt Hill
#
# Bulk Modulus (GPa) = 10.83508 21.08466 15.95987
# Shear Modulus (GPa) = 23.45500 30.12715 26.79107
#
# Velocity S-wave (km/s) = 3.32367 3.76686 3.55218
# Velocity P-wave (km/s) = 4.45333 5.37116 4.93363
#
# Compressibility (1/GPa) = 0.09229282
#
# Stress axis : x y z
#
# Youngs Moduli (GPa) = 65.32149 33.77064 54.03617
#
# Poissons Ratio (x) = -0.22750 -0.18126
# Poissons Ratio (y) = -0.44005 -0.23463
# Poissons Ratio (z) = -0.21911 -0.14663
#
# Static dielectric constant tensor:
#      x y z
#    x 1.810000 0.000000 -0.001780 
#    y 0.000000 1.738620 0.000000 
#    z -0.001780 0.000000 1.763790 
# 
# From -- ./inp_files/342593.got.cif
#   From: 2010.05.17/outbox.cif.g08.bks.cpg/sg12_172_cif.got.tgz:342593.got - 2010.06.03 13:09:07.
