data_PCOD9195093
_publ_section_title
;
Structure prediction by ZEFSAII (Michael W. Deem and Ramdas Pophale) SiO2 
 PCOD9195093
Probable space group: C 2/M
;
_chemical_formula_sum "Si O2"
_cell_formula_units_Z 64
_cell_length_a 9.502083
_cell_length_b 16.807956
_cell_length_c 32.694651
_cell_angle_alpha 90.000000
_cell_angle_beta 145.175461
_cell_angle_gamma 90.000000
_cell_volume 2981.920944
_symmetry_space_group_name_H-M "C 2/M"
_symmetry_group_IT_number 12
_symmetry_cell_setting 'monoclinic'
loop_
_space_group_symop_operation_xyz
x,y,z
-x,y,-z
-x,-y,-z
x,-y,z
1/2+x,1/2+y,z
1/2-x,1/2+y,-z
1/2-x,1/2-y,-z
1/2+x,1/2-y,z
loop_
_atom_site_type_symbol
_atom_site_label
_atom_site_fract_x
_atom_site_fract_y
_atom_site_fract_z
Si Si1 0.299587 0.323022 0.270110
Si Si2 0.355857 0.132904 0.282818
Si Si3 0.388187 0.656240 0.433157
Si Si4 0.344832 0.912947 0.191513
Si Si5 0.375461 0.592032 0.204143
Si Si6 0.940361 0.328726 0.940468
Si Si7 0.275468 0.327646 0.568141
Si Si8 0.514909 0.647988 0.959979
O O1 0.326418 0.228277 0.273165
O O2 0.283226 0.360512 0.221492
O O3 0.527931 0.357657 0.351311
O O4 0.050472 0.346149 0.233773
O O5 0.643000 0.114570 0.357977
O O6 0.269461 0.093525 0.220306
O O7 0.170617 0.102849 0.273112
O O8 0.500000 0.614388 0.500000
O O9 0.581926 0.671183 0.441957
O O10 0.285465 0.739201 0.428510
O O11 0.116318 0.897950 0.107490
O O12 0.452490 0.000000 0.208559
O O13 0.308276 0.500000 0.190807
O O14 0.260651 0.629212 0.135518
O O15 0.882881 0.234706 0.931245
O O16 0.000000 0.360757 0.000000
O O17 0.199852 0.336322 0.979616
O O18 0.000000 0.365297 0.500000
O O19 0.500000 0.606318 0.000000
#
# Coordination Sequence:
#
# PCOD9195093 Si02
#       8
#     8   8   8   8   8   8   8   8
#     4  11  23  40  65  92 125 168 216 261 313 377
#     4  11  23  40  65  92 123 168 218 259 312 378
#     4  10  20  34  61  97 131 162 210 273 321 367
#     4  12  24  41  62  91 129 167 207 262 318 375
#     4  12  26  41  62  93 131 169 209 264 322 378
#     4  10  21  39  62  89 123 158 208 259 317 377
#     4  10  20  34  61  97 131 163 209 272 323 366
#     4  10  21  37  62  91 119 160 204 259 313 377
#
# _framework density 21.462675999999998
#
# number of rings (size 3 to 8) (size 9 to 14) (size 15 to 20)
#    0.000    1.250    1.250    6.000    7.000    3.000 
#    0.000    0.000    0.000    4.500    0.000    0.000 
#    0.000    0.000    0.000    0.000    0.000    0.000 
#
# Total GULP energy -178666.267940 kJ/mol
# GULP energy per Si atom -5583.320873 kJ/mol
# Density = 2.141383 g / cm^3
# Si number density = 21.462676 Si / 1000 Ang^3
#
#
#
# Elastic Constant Matrix: (Units=GPa)
#
#
# Indices 1 2 3 4 5 6 
#
# 1 84.9570 -2.3000 18.2279 -0.0001 -11.4253 -0.0002
# 2 -2.3000 54.9428 21.2702 -0.0001 -6.3886 -0.0003
# 3 18.2279 21.2702 110.8977 -0.0011 -5.2453 -0.0014
# 4 -0.0001 -0.0001 -0.0011 6.9684 -0.0004 -4.7233
# 5 -11.4253 -6.3886 -5.2453 -0.0004 38.2316 -0.0008
# 6 -0.0002 -0.0003 -0.0014 -4.7233 -0.0008 4.3588
#
#
#
# Elastic Compliance Matrix: (Units=1/GPa)
#
#
# Indices 1 2 3 4 5 6 
#
# 1 0.012827 0.001867 -0.002285 0.000002 0.003832 0.000003
# 2 0.001867 0.020232 -0.004027 0.000002 0.003386 0.000003
# 3 -0.002285 -0.004027 0.010167 0.000013 0.000039 0.000016
# 4 0.000002 0.000002 0.000013 0.540518 0.000020 0.585720
# 5 0.003832 0.003386 0.000039 0.000020 0.027873 0.000027
# 6 0.000003 0.000003 0.000016 0.585720 0.000027 0.864121
#
#
# Mechanical properties :
#
#
# Convention : Reuss Voigt Hill
#
# Bulk Modulus (GPa) = 29.12452 36.13261 32.62856
# Shear Modulus (GPa) = 3.34208 24.15173 13.74691
#
# Velocity S-wave (km/s) = 1.24922 3.35817 2.53356
# Velocity P-wave (km/s) = 3.95980 5.64872 4.87791
#
# Compressibility (1/GPa) = 0.03433533
#
# Stress axis : x y z
#
# Youngs Moduli (GPa) = 77.96167 49.42731 98.35555
#
# Poissons Ratio (x) = -0.09229 0.22476
# Poissons Ratio (y) = -0.14557 0.39610
# Poissons Ratio (z) = 0.17816 0.19905
#
# Static dielectric constant tensor:
#      x y z
#    x 1.788300 0.000000 0.011430 
#    y 0.000000 1.800730 0.000000 
#    z 0.011430 0.000000 1.821540 
# 
# From -- ./inp_files/373013.got.cif
#   From: 2010.05.17/outbox.cif.g08.bks.cpg/sg12_187_cif.got.tgz:373013.got - 2010.06.03 13:09:07.
