data_PCOD9195451
_publ_section_title
;
Structure prediction by ZEFSAII (Michael W. Deem and Ramdas Pophale) SiO2 
 PCOD9195451
Probable space group: C 2/M
;
_chemical_formula_sum "Si O2"
_cell_formula_units_Z 64
_cell_length_a 23.453014
_cell_length_b 8.340354
_cell_length_c 16.763245
_cell_angle_alpha 90.000000
_cell_angle_beta 91.673482
_cell_angle_gamma 90.000000
_cell_volume 3277.600115
_symmetry_space_group_name_H-M "C 2/M"
_symmetry_group_IT_number 12
_symmetry_cell_setting 'monoclinic'
loop_
_space_group_symop_operation_xyz
x,y,z
-x,y,-z
-x,-y,-z
x,-y,z
1/2+x,1/2+y,z
1/2-x,1/2+y,-z
1/2-x,1/2-y,-z
1/2+x,1/2-y,z
loop_
_atom_site_type_symbol
_atom_site_label
_atom_site_fract_x
_atom_site_fract_y
_atom_site_fract_z
Si Si1 0.359443 0.308616 0.329986
Si Si2 0.663804 0.193777 0.275390
Si Si3 0.078009 0.305937 0.826163
Si Si4 0.776703 0.694513 0.882208
Si Si5 0.964257 0.691098 0.743141
Si Si6 0.522900 0.306991 0.586841
Si Si7 0.754878 0.810418 0.590640
Si Si8 0.838479 0.307696 0.040639
O O1 0.354572 0.500000 0.322291
O O2 0.381062 0.241936 0.245986
O O3 0.410691 0.270907 0.394021
O O4 0.300311 0.243265 0.360821
O O5 0.704874 0.245908 0.204824
O O6 0.599986 0.254029 0.254743
O O7 0.689693 0.247132 0.360309
O O8 0.662653 0.000000 0.274872
O O9 0.076014 0.500000 0.827762
O O10 0.106270 0.247716 0.909533
O O11 0.014291 0.245936 0.803331
O O12 0.773115 0.500000 0.883304
O O13 0.716606 0.762306 0.908905
O O14 0.823522 0.745992 0.950448
O O15 0.961122 0.500000 0.755962
O O16 0.987548 0.725430 0.655754
O O17 0.500000 0.257184 0.500000
O O18 0.516284 0.500000 0.593623
O O19 0.750000 0.750000 0.500000
O O20 0.757402 0.000000 0.589030
O O21 0.842681 0.500000 0.037318
#
# Coordination Sequence:
#
# PCOD9195451 Si02
#       8
#     8   8   8   8   8   8   8   8
#     4  10  20  35  54  78 107 136 172 216 264 316
#     4  10  21  38  56  77 109 144 179 218 268 323
#     4   9  17  32  53  78 108 141 179 221 265 311
#     4   9  18  32  51  77 108 142 177 219 268 315
#     4   9  19  34  52  76 104 139 178 219 264 315
#     4   9  19  34  53  76 101 131 170 217 264 311
#     4  12  26  41  57  78 105 138 176 218 266 318
#     4   9  17  30  51  78 107 138 179 224 265 313
#
# _framework density 19.526484
#
# number of rings (size 3 to 8) (size 9 to 14) (size 15 to 20)
#    0.000    2.375    0.000    2.250    1.750    4.250 
#    0.000    0.625    0.000    3.750    0.000    0.000 
#    0.000    9.000    0.000    0.000    0.000    0.000 
#
# Total GULP energy -178545.661448 kJ/mol
# GULP energy per Si atom -5579.551920 kJ/mol
# Density = 1.948204 g / cm^3
# Si number density = 19.526484 Si / 1000 Ang^3
#
#
#
# Elastic Constant Matrix: (Units=GPa)
#
#
# Indices 1 2 3 4 5 6 
#
# 1 66.6475 7.6499 31.8031 0.0000 15.1105 0.0000
# 2 7.6499 13.3335 5.7036 0.0000 4.2900 0.0000
# 3 31.8031 5.7036 88.9562 0.0000 33.1005 0.0000
# 4 0.0000 0.0000 0.0000 18.0608 0.0000 1.8400
# 5 15.1105 4.2900 33.1005 0.0000 31.1747 0.0000
# 6 0.0000 0.0000 0.0000 1.8400 0.0000 19.7163
#
#
#
# Elastic Compliance Matrix: (Units=1/GPa)
#
#
# Indices 1 2 3 4 5 6 
#
# 1 0.019028 -0.007831 -0.005405 0.000000 -0.002406 0.000000
# 2 -0.007831 0.081847 0.000546 0.000000 -0.008048 0.000000
# 3 -0.005405 0.000546 0.020155 0.000000 -0.018855 0.000000
# 4 0.000000 0.000000 0.000000 0.055900 0.000000 -0.005217
# 5 -0.002406 -0.008048 -0.018855 0.000000 0.054371 0.000000
# 6 0.000000 0.000000 0.000000 -0.005217 0.000000 0.051206
#
#
# Mechanical properties :
#
#
# Convention : Reuss Voigt Hill
#
# Bulk Modulus (GPa) = 10.45472 28.80561 19.63016
# Shear Modulus (GPa) = 14.71582 22.04241 18.37912
#
# Velocity S-wave (km/s) = 2.74822 3.36348 3.07129
# Velocity P-wave (km/s) = 3.92887 5.46517 4.75942
#
# Compressibility (1/GPa) = 0.09565058
#
# Stress axis : x y z
#
# Youngs Moduli (GPa) = 52.55403 12.21788 49.61563
#
# Poissons Ratio (x) = 0.09567 0.26819
# Poissons Ratio (y) = 0.41154 -0.02711
# Poissons Ratio (z) = 0.28408 -0.00667
#
# Static dielectric constant tensor:
#      x y z
#    x 1.706730 0.000000 0.032200 
#    y 0.000000 1.677260 0.000000 
#    z 0.032200 0.000000 1.726950 
# 
# From -- ./inp_files/281278.got.cif
#   From: 2010.05.17/outbox.cif.g08.bks.cpg/sg12_141_cif.got.tgz:281278.got - 2010.06.03 13:09:07.
