data_PCOD9195836
_publ_section_title
;
Structure prediction by ZEFSAII (Michael W. Deem and Ramdas Pophale) SiO2 
 PCOD9195836
Probable space group: C 2/M
;
_chemical_formula_sum "Si O2"
_cell_formula_units_Z 64
_cell_length_a 9.435952
_cell_length_b 29.005722
_cell_length_c 15.409438
_cell_angle_alpha 90.000000
_cell_angle_beta 122.050629
_cell_angle_gamma 90.000000
_cell_volume 3574.675717
_symmetry_space_group_name_H-M "C 2/M"
_symmetry_group_IT_number 12
_symmetry_cell_setting 'monoclinic'
loop_
_space_group_symop_operation_xyz
x,y,z
-x,y,-z
-x,-y,-z
x,-y,z
1/2+x,1/2+y,z
1/2-x,1/2+y,-z
1/2-x,1/2-y,-z
1/2+x,1/2-y,z
loop_
_atom_site_type_symbol
_atom_site_label
_atom_site_fract_x
_atom_site_fract_y
_atom_site_fract_z
Si Si1 0.530799 0.635985 0.871285
Si Si2 0.376180 0.551930 0.541202
Si Si3 0.495851 0.053098 0.103513
Si Si4 0.778851 0.637429 0.100809
Si Si5 0.659022 0.141592 0.488769
Si Si6 0.029034 0.299377 0.709347
Si Si7 0.152474 0.796410 0.313829
Si Si8 0.626466 0.447680 0.783619
O O1 0.364398 0.627415 0.874227
O O2 0.479254 0.672060 0.780874
O O3 0.590017 0.589164 0.845595
O O4 0.676736 0.653212 0.982541
O O5 0.500000 0.556417 0.500000
O O6 0.303540 0.500000 0.515142
O O7 0.244368 0.592885 0.498612
O O8 0.488211 0.556029 0.664157
O O9 0.379684 0.091400 0.108821
O O10 0.688318 0.059717 0.194580
O O11 0.445768 0.000000 0.105577
O O12 0.500000 0.058586 0.000000
O O13 0.898604 0.676013 0.181239
O O14 0.500000 0.135005 0.500000
O O15 0.592269 0.165407 0.380210
O O16 0.784185 0.175979 0.580769
O O17 0.186246 0.290552 0.696215
O O18 0.930890 0.252311 0.693405
O O19 0.625540 0.500000 0.818140
#
# Coordination Sequence:
#
# PCOD9195836 Si02
#       8
#     8   8   8   8   8   8   8   8
#     4  10  20  38  60  81 115 155 190 235 284 335
#     4  10  22  38  57  87 120 152 190 234 284 340
#     4  10  20  35  55  82 115 150 189 234 279 330
#     4  10  22  37  56  85 118 150 190 236 283 338
#     4  10  21  39  62  84 115 149 188 236 287 340
#     4  10  23  38  58  85 113 146 189 237 289 341
#     4  10  21  40  59  83 112 145 191 240 287 339
#     4  10  20  36  57  82 114 152 194 233 281 341
#
# _framework density 17.903721999999998
#
# number of rings (size 3 to 8) (size 9 to 14) (size 15 to 20)
#    0.000    2.000    2.500    0.375    1.750    3.250 
#    0.000    1.250    0.000    0.000    0.000    0.000 
#    0.000    0.000    0.000    0.000    0.000    0.000 
#
# Total GULP energy -178606.034238 kJ/mol
# GULP energy per Si atom -5581.438570 kJ/mol
# Density = 1.786297 g / cm^3
# Si number density = 17.903722 Si / 1000 Ang^3
#
#
#
# Elastic Constant Matrix: (Units=GPa)
#
#
# Indices 1 2 3 4 5 6 
#
# 1 39.7779 65.4876 39.3162 0.0000 15.9539 0.0000
# 2 65.4876 144.6163 72.2716 0.0000 21.5588 0.0000
# 3 39.3162 72.2716 113.2732 0.0000 14.2013 0.0000
# 4 0.0000 0.0000 0.0000 27.3223 0.0000 8.8324
# 5 15.9539 21.5588 14.2013 0.0000 21.7057 0.0000
# 6 0.0000 0.0000 0.0000 8.8324 0.0000 46.6706
#
#
#
# Elastic Compliance Matrix: (Units=1/GPa)
#
#
# Indices 1 2 3 4 5 6 
#
# 1 0.130501 -0.048201 -0.009280 0.000000 -0.041973 0.000000
# 2 -0.048201 0.028833 -0.002742 0.000000 0.008585 0.000000
# 3 -0.009280 -0.002742 0.013728 0.000000 0.000563 0.000000
# 4 0.000000 0.000000 0.000000 0.038985 0.000000 -0.007378
# 5 -0.041973 0.008585 0.000563 0.000000 0.068027 0.000000
# 6 0.000000 0.000000 0.000000 -0.007378 0.000000 0.022823
#
#
# Mechanical properties :
#
#
# Convention : Reuss Voigt Hill
#
# Bulk Modulus (GPa) = 19.00576 72.42425 45.71500
# Shear Modulus (GPa) = 11.34093 27.17917 19.26005
#
# Velocity S-wave (km/s) = 2.51955 3.90047 3.28343
# Velocity P-wave (km/s) = 4.37067 7.79903 6.32169
#
# Compressibility (1/GPa) = 0.05261562
#
# Stress axis : x y z
#
# Youngs Moduli (GPa) = 7.66279 34.68303 72.84212
#
# Poissons Ratio (x) = 1.67175 0.67598
# Poissons Ratio (y) = 0.36935 0.19975
# Poissons Ratio (z) = 0.07111 0.09511
#
# Static dielectric constant tensor:
#      x y z
#    x 1.590980 0.000000 0.012850 
#    y 0.000000 1.578450 0.000000 
#    z 0.012850 0.000000 1.632390 
# 
# From -- ./inp_files/200933.got.cif
#   From: 2010.05.17/outbox.cif.g08.bks.cpg/sg12_101_cif.got.tgz:200933.got - 2010.06.03 13:09:07.
