data_PCOD9195734
_publ_section_title
;
Structure prediction by ZEFSAII (Michael W. Deem and Ramdas Pophale) SiO2 
 PCOD9195734
Probable space group: C 2/M
;
_chemical_formula_sum "Si O2"
_cell_formula_units_Z 64
_cell_length_a 12.188843
_cell_length_b 16.344626
_cell_length_c 14.403758
_cell_angle_alpha 90.000000
_cell_angle_beta 96.006275
_cell_angle_gamma 90.000000
_cell_volume 2853.794087
_symmetry_space_group_name_H-M "C 2/M"
_symmetry_group_IT_number 12
_symmetry_cell_setting 'monoclinic'
loop_
_space_group_symop_operation_xyz
x,y,z
-x,y,-z
-x,-y,-z
x,-y,z
1/2+x,1/2+y,z
1/2-x,1/2+y,-z
1/2-x,1/2-y,-z
1/2+x,1/2-y,z
loop_
_atom_site_type_symbol
_atom_site_label
_atom_site_fract_x
_atom_site_fract_y
_atom_site_fract_z
Si Si1 0.729588 0.204281 0.096078
Si Si2 0.402819 0.908200 0.308345
Si Si3 0.795203 0.901544 0.346521
Si Si4 0.390027 0.407477 0.031307
Si Si5 0.962644 0.098479 0.684486
Si Si6 0.247384 0.600564 0.548235
Si Si7 0.304949 0.372734 0.828325
Si Si8 0.592221 0.902545 0.189855
O O1 0.724903 0.277521 0.167850
O O2 0.619281 0.150524 0.100964
O O3 0.750000 0.250000 0.000000
O O4 0.830791 0.141644 0.105960
O O5 0.357967 0.870687 0.400431
O O6 0.290448 0.913910 0.239295
O O7 0.492394 0.871738 0.245860
O O8 0.446357 0.000000 0.333128
O O9 0.751972 0.871924 0.442557
O O10 0.701969 0.889985 0.261279
O O11 0.916881 0.869296 0.331890
O O12 0.806914 0.000000 0.357027
O O13 0.413580 0.500000 0.063030
O O14 0.313118 0.408089 0.932648
O O15 0.500000 0.367391 0.000000
O O16 0.862539 0.125033 0.607856
O O17 0.919507 0.117456 0.783968
O O18 0.966858 0.000000 0.678009
O O19 0.242626 0.500000 0.550800
O O20 0.578564 0.000000 0.168795
#
# Coordination Sequence:
#
# PCOD9195734 Si02
#       8
#     8   8   8   8   8   8   8   8
#     4  10  23  40  56  79 109 144 183 229 279 336
#     4   9  18  34  57  80 110 148 187 227 263 322
#     4   9  17  28  50  84 117 145 179 228 281 326
#     4  10  21  36  58  84 110 137 172 230 290 340
#     4   9  16  28  51  82 114 147 184 226 271 324
#     4   8  14  27  49  83 117 144 181 226 272 320
#     4  10  20  35  55  80 106 144 187 222 273 329
#     4  10  21  37  56  82 112 147 187 228 277 328
#
# _framework density 22.426283999999999
#
# number of rings (size 3 to 8) (size 9 to 14) (size 15 to 20)
#    0.000    2.625    0.000    2.625    1.750    4.000 
#    0.000    4.375    0.000    9.750    6.500    0.000 
#    0.000    0.000    0.000    0.000    0.000    0.000 
#
# Total GULP energy -178453.379288 kJ/mol
# GULP energy per Si atom -5576.668103 kJ/mol
# Density = 2.237524 g / cm^3
# Si number density = 22.426284 Si / 1000 Ang^3
#
#
#
# Elastic Constant Matrix: (Units=GPa)
#
#
# Indices 1 2 3 4 5 6 
#
# 1 115.6045 17.3132 33.0790 0.0000 -54.8120 0.0000
# 2 17.3132 49.8225 11.1525 0.0000 -17.7083 0.0000
# 3 33.0790 11.1525 79.1421 0.0000 -27.4351 0.0000
# 4 0.0000 0.0000 0.0000 7.1845 0.0000 -5.0804
# 5 -54.8120 -17.7083 -27.4351 0.0000 37.6547 0.0000
# 6 0.0000 0.0000 0.0000 -5.0804 0.0000 -24.0168
#
#
#
# Elastic Compliance Matrix: (Units=1/GPa)
#
#
# Indices 1 2 3 4 5 6 
#
# 1 0.030111 0.006297 0.003677 0.000000 0.049472 0.000000
# 2 0.006297 0.025446 0.001483 0.000000 0.022213 0.000000
# 3 0.003677 0.001483 0.017375 0.000000 0.018709 0.000000
# 4 0.000000 0.000000 0.000000 0.121077 0.000000 -0.025612
# 5 0.049472 0.022213 0.018709 0.000000 0.122648 0.000000
# 6 0.000000 0.000000 0.000000 -0.025612 0.000000 -0.036220
#
#
# Mechanical properties :
#
#
# Convention : Reuss Voigt Hill
#
# Bulk Modulus (GPa) = 10.43346 40.85094 25.64220
# Shear Modulus (GPa) = 17.27267 16.36611 16.81939
#
# Velocity S-wave (km/s) = 2.77825 2.70436 2.74156
# Velocity P-wave (km/s) = 3.86704 5.29213 4.63469
#
# Compressibility (1/GPa) = 0.09584551
#
# Stress axis : x y z
#
# Youngs Moduli (GPa) = 33.21022 39.29829 57.55269
#
# Poissons Ratio (x) = -0.24746 -0.21161
# Poissons Ratio (y) = -0.20912 -0.08533
# Poissons Ratio (z) = -0.12210 -0.05826
#
# Static dielectric constant tensor:
#      x y z
#    x 1.842050 0.000000 -0.018460 
#    y 0.000000 1.875290 0.000000 
#    z -0.018460 0.000000 1.888040 
# 
# From -- ./inp_files/206673.got.cif
#   From: 2010.05.17/outbox.cif.g08.bks.cpg/sg12_104_cif.got.tgz:206673.got - 2010.06.03 13:09:07.
