data_PCOD9195923
_publ_section_title
;
Structure prediction by ZEFSAII (Michael W. Deem and Ramdas Pophale) SiO2 
 PCOD9195923
Probable space group: C 2/M
;
_chemical_formula_sum "Si O2"
_cell_formula_units_Z 64
_cell_length_a 9.472776
_cell_length_b 22.503350
_cell_length_c 13.087096
_cell_angle_alpha 90.000000
_cell_angle_beta 72.005414
_cell_angle_gamma 90.000000
_cell_volume 2653.306300
_symmetry_space_group_name_H-M "C 2/M"
_symmetry_group_IT_number 12
_symmetry_cell_setting 'monoclinic'
loop_
_space_group_symop_operation_xyz
x,y,z
-x,y,-z
-x,-y,-z
x,-y,z
1/2+x,1/2+y,z
1/2-x,1/2+y,-z
1/2-x,1/2-y,-z
1/2+x,1/2-y,z
loop_
_atom_site_type_symbol
_atom_site_label
_atom_site_fract_x
_atom_site_fract_y
_atom_site_fract_z
Si Si1 0.868948 0.366028 0.404427
Si Si2 0.962535 0.930615 0.190931
Si Si3 0.270171 0.789748 0.241399
Si Si4 0.122362 0.269217 0.448974
Si Si5 0.390823 0.932506 0.758120
Si Si6 0.117094 0.819460 0.059880
Si Si7 0.561562 0.169144 0.094924
Si Si8 0.889255 0.069045 0.429959
O O1 0.962978 0.310639 0.430793
O O2 0.994132 0.415179 0.356697
O O3 0.249176 0.388626 0.485703
O O4 0.784251 0.343634 0.321799
O O5 0.784101 0.923728 0.220203
O O6 0.979657 0.916576 0.307219
O O7 0.053807 0.885510 0.100428
O O8 0.999945 0.000000 0.162793
O O9 0.208942 0.735226 0.321771
O O10 0.170067 0.800080 0.163497
O O11 0.441932 0.785118 0.168173
O O12 0.250000 0.250000 0.500000
O O13 0.000000 0.217083 0.500000
O O14 0.436658 0.887273 0.834316
O O15 0.414255 0.000000 0.781998
O O16 0.270194 0.813298 0.962456
O O17 0.000000 0.796040 0.000000
O O18 0.500000 0.150716 0.000000
O O19 0.000000 0.069554 0.500000
O O20 0.835536 0.000000 0.428859
#
# Coordination Sequence:
#
# PCOD9195923 Si02
#       8
#     8   8   8   8   8   8   8   8
#     4  10  21  38  65  93 129 177 221 270 337 406
#     4  10  22  35  53  90 138 181 222 272 324 391
#     4   9  21  41  61  93 135 168 219 285 340 405
#     4  10  23  43  66 100 132 167 218 281 348 414
#     4  10  20  35  55  91 139 181 221 266 321 392
#     4  11  20  36  65  97 126 177 228 282 335 397
#     4   9  19  37  60  91 131 179 230 278 334 390
#     4  10  21  37  58  91 136 183 225 267 325 398
#
# _framework density 24.120847000000001
#
# number of rings (size 3 to 8) (size 9 to 14) (size 15 to 20)
#    0.000    2.125    1.250    1.125    1.750    5.000 
#    0.000    8.125    0.000    0.000    0.000  115.500 
#    0.000    0.000    0.000    0.000    0.000    2.375 
#
# Total GULP energy -178268.056397 kJ/mol
# GULP energy per Si atom -5570.876762 kJ/mol
# Density = 2.406595 g / cm^3
# Si number density = 24.120847 Si / 1000 Ang^3
#
#
#
# Elastic Constant Matrix: (Units=GPa)
#
#
# Indices 1 2 3 4 5 6 
#
# 1 153.6289 46.5597 69.3681 0.0000 7.8846 0.0000
# 2 46.5597 106.8206 58.5443 0.0000 -8.7857 0.0000
# 3 69.3681 58.5443 139.8016 0.0000 0.4335 0.0000
# 4 0.0000 0.0000 0.0000 -14.5729 0.0000 12.1777
# 5 7.8846 -8.7857 0.4335 0.0000 32.5231 0.0000
# 6 0.0000 0.0000 0.0000 12.1777 0.0000 25.9971
#
#
#
# Elastic Compliance Matrix: (Units=1/GPa)
#
#
# Indices 1 2 3 4 5 6 
#
# 1 0.008883 -0.002184 -0.003485 0.000000 -0.002697 0.000000
# 2 -0.002184 0.013063 -0.004400 0.000000 0.004117 0.000000
# 3 -0.003485 -0.004400 0.010726 0.000000 -0.000487 0.000000
# 4 0.000000 0.000000 0.000000 -0.049316 0.000000 0.023101
# 5 -0.002697 0.004117 -0.000487 0.000000 0.032520 0.000000
# 6 0.000000 0.000000 0.000000 0.023101 0.000000 0.027645
#
#
# Mechanical properties :
#
#
# Convention : Reuss Voigt Hill
#
# Bulk Modulus (GPa) = 79.77135 83.24395 81.50765
# Shear Modulus (GPa) = 73.70788 23.84137 48.77463
#
# Velocity S-wave (km/s) = 5.53390 3.14732 4.50165
# Velocity P-wave (km/s) = 8.60090 6.91329 7.80285
#
# Compressibility (1/GPa) = 0.01253583
#
# Stress axis : x y z
#
# Youngs Moduli (GPa) = 112.57588 76.55098 93.23102
#
# Poissons Ratio (x) = 0.16717 0.32489
# Poissons Ratio (y) = 0.24583 0.41019
# Poissons Ratio (z) = 0.39230 0.33680
#
# Static dielectric constant tensor:
#      x y z
#    x 1.824960 0.000000 -0.066640 
#    y 0.000000 1.922130 0.000000 
#    z -0.066640 0.000000 1.946690 
# 
# From -- ./inp_files/198880.got.cif
#   From: 2010.05.17/outbox.cif.g08.bks.cpg/sg12_100_cif.got.tgz:198880.got - 2010.06.03 13:09:07.
