data_PCOD9195064
_publ_section_title
;
Structure prediction by ZEFSAII (Michael W. Deem and Ramdas Pophale) SiO2 
 PCOD9195064
Probable space group: C 2/M
;
_chemical_formula_sum "Si O2"
_cell_formula_units_Z 40
_cell_length_a 11.630777
_cell_length_b 20.607227
_cell_length_c 18.108397
_cell_angle_alpha 90.000000
_cell_angle_beta 156.003585
_cell_angle_gamma 90.000000
_cell_volume 1765.064388
_symmetry_space_group_name_H-M "C 2/M"
_symmetry_group_IT_number 12
_symmetry_cell_setting 'monoclinic'
loop_
_space_group_symop_operation_xyz
x,y,z
-x,y,-z
-x,-y,-z
x,-y,z
1/2+x,1/2+y,z
1/2-x,1/2+y,-z
1/2-x,1/2-y,-z
1/2+x,1/2-y,z
loop_
_atom_site_type_symbol
_atom_site_label
_atom_site_fract_x
_atom_site_fract_y
_atom_site_fract_z
Si Si1 0.164669 0.500000 0.174676
Si Si2 0.168497 0.000000 0.288196
Si Si3 0.910510 0.241450 0.297088
Si Si4 0.527600 0.605259 0.319652
Si Si5 0.740271 0.000000 0.920630
Si Si6 0.500000 0.314717 0.500000
Si Si7 0.487133 0.874040 0.290669
O O1 0.362744 0.562827 0.284083
O O2 0.969772 0.500000 0.131434
O O3 0.000000 0.500000 0.000000
O O4 0.500000 0.000000 0.500000
O O5 0.037054 0.063657 0.251064
O O6 0.054556 0.000000 0.138760
O O7 0.847354 0.227066 0.345743
O O8 0.250000 0.250000 0.500000
O O9 0.879139 0.175462 0.231553
O O10 0.812236 0.308323 0.203813
O O11 0.849816 0.610046 0.537232
O O12 0.672619 0.934891 0.836212
O O13 0.249148 0.355351 0.390325
#
# Coordination Sequence:
#
# PCOD9195064 Si02
#       7
#     4   4   8   8   4   4   8
#     4  11  19  32  61  89 123 148 191 256 301 354
#     4  11  24  41  58  83 112 176 206 240 290 372
#     4   8  16  32  56  88 125 152 196 244 288 368
#     4   9  18  38  58  88 123 154 198 243 304 353
#     4  12  21  36  62  93 123 150 209 248 316 353
#     4   8  14  31  58  93 124 166 190 230 324 351
#     4  10  20  34  60  94 123 152 195 261 291 363
#
# _framework density 22.662061999999999
#
# number of rings (size 3 to 8) (size 9 to 14) (size 15 to 20)
#    0.000    2.800    2.000    3.600    0.000    1.200 
#   16.200    3.000    0.000    0.000    0.000    0.000 
#    0.000    0.000    0.000    0.000    0.000    0.000 
#
# Total GULP energy -111592.096202 kJ/mol
# GULP energy per Si atom -5579.604810 kJ/mol
# Density = 2.261048 g / cm^3
# Si number density = 22.662062 Si / 1000 Ang^3
#
#
#
# Elastic Constant Matrix: (Units=GPa)
#
#
# Indices 1 2 3 4 5 6 
#
# 1 81.1058 53.9353 17.9831 0.0684 -10.3765 -0.0067
# 2 53.9353 219.4808 68.0745 0.0412 -27.8608 0.0060
# 3 17.9831 68.0745 94.8360 0.1090 -8.6646 0.0452
# 4 0.0684 0.0412 0.1090 -84.8411 0.0747 -7.2597
# 5 -10.3765 -27.8608 -8.6646 0.0747 29.3794 -0.0106
# 6 -0.0067 0.0060 0.0452 -7.2597 -0.0106 27.3101
#
#
#
# Elastic Compliance Matrix: (Units=1/GPa)
#
#
# Indices 1 2 3 4 5 6 
#
# 1 0.014848 -0.003313 -0.000252 0.000011 0.002028 0.000009
# 2 -0.003313 0.007223 -0.004149 -0.000001 0.004456 0.000006
# 3 -0.000252 -0.004149 0.013569 0.000017 -0.000022 -0.000017
# 4 0.000011 -0.000001 0.000017 -0.011525 0.000036 -0.003064
# 5 0.002028 0.004456 -0.000022 0.000036 0.038972 0.000024
# 6 0.000009 0.000006 -0.000017 -0.003064 0.000024 0.035802
#
#
# Mechanical properties :
#
#
# Convention : Reuss Voigt Hill
#
# Bulk Modulus (GPa) = 49.47889 75.04537 62.26213
# Shear Modulus (GPa) = 41.30317 11.39834 26.35076
#
# Velocity S-wave (km/s) = 4.27379 2.24513 3.41364
# Velocity P-wave (km/s) = 6.79959 6.31725 6.56285
#
# Compressibility (1/GPa) = 0.02021064
#
# Stress axis : x y z
#
# Youngs Moduli (GPa) = 67.34836 138.44701 73.69874
#
# Poissons Ratio (x) = 0.45870 0.01857
# Poissons Ratio (y) = 0.22314 0.30581
# Poissons Ratio (z) = 0.01697 0.57447
#
# Static dielectric constant tensor:
#      x y z
#    x 1.887360 0.000000 -0.027410 
#    y 0.000000 1.937090 -0.000080 
#    z -0.027410 -0.000080 1.897400 
# 
# From -- ./inp_files/312227.got.cif
#   From: 2010.05.17/outbox.cif.g08.bks.cpg/sg12_157_cif.got.tgz:312227.got - 2010.06.03 13:09:07.
