data_PCOD9195134
_publ_section_title
;
Structure prediction by ZEFSAII (Michael W. Deem and Ramdas Pophale) SiO2 
 PCOD9195134
Probable space group: C 2/M
;
_chemical_formula_sum "Si O2"
_cell_formula_units_Z 48
_cell_length_a 9.187536
_cell_length_b 13.323583
_cell_length_c 28.963426
_cell_angle_alpha 90.000000
_cell_angle_beta 139.417461
_cell_angle_gamma 90.000000
_cell_volume 2306.459805
_symmetry_space_group_name_H-M "C 2/M"
_symmetry_group_IT_number 12
_symmetry_cell_setting 'monoclinic'
loop_
_space_group_symop_operation_xyz
x,y,z
-x,y,-z
-x,-y,-z
x,-y,z
1/2+x,1/2+y,z
1/2-x,1/2+y,-z
1/2-x,1/2-y,-z
1/2+x,1/2-y,z
loop_
_atom_site_type_symbol
_atom_site_label
_atom_site_fract_x
_atom_site_fract_y
_atom_site_fract_z
Si Si1 0.556599 0.690679 0.113104
Si Si2 0.460430 0.244238 0.790571
Si Si3 0.029454 0.118349 0.717501
Si Si4 0.602059 0.887790 0.973593
Si Si5 0.260348 0.394402 0.466220
Si Si6 0.733179 0.318705 0.432885
O O1 0.532482 0.685355 0.162324
O O2 0.811008 0.679719 0.158426
O O3 0.490204 0.804724 0.083083
O O4 0.369233 0.624284 0.043214
O O5 0.251403 0.170592 0.748956
O O6 0.460360 0.314977 0.745297
O O7 0.846451 0.132577 0.633167
O O8 0.060135 0.000000 0.735058
O O9 0.540523 0.000000 0.945024
O O10 0.500000 0.867704 0.000000
O O11 0.500000 0.399588 0.500000
O O12 0.137956 0.500000 0.429508
O O13 0.321094 0.380011 0.534403
O O14 0.142341 0.294640 0.418602
O O15 0.000000 0.311285 0.500000
#
# Coordination Sequence:
#
# PCOD9195134 Si02
#       6
#     8   8   8   8   8   8
#     4  10  20  41  62  94 134 165 210 274 316 372
#     4  10  24  43  65  90 133 178 217 267 324 391
#     4  11  26  46  67  94 129 174 225 273 329 397
#     4  10  20  34  65  98 126 169 216 262 325 382
#     4   9  19  35  60  89 121 160 195 257 331 388
#     4  10  22  40  62  93 128 158 212 280 332 392
#
# _framework density 20.811114
#
# number of rings (size 3 to 8) (size 9 to 14) (size 15 to 20)
#    0.000    2.000    1.667    0.500    7.000    5.333 
#    0.000    3.333    0.000    0.000    0.000    0.000 
#    0.000    0.000    0.000    0.000    0.000    0.000 
#
# Total GULP energy -133972.117926 kJ/mol
# GULP energy per Si atom -5582.171580 kJ/mol
# Density = 2.076375 g / cm^3
# Si number density = 20.811114 Si / 1000 Ang^3
#
#
#
# Elastic Constant Matrix: (Units=GPa)
#
#
# Indices 1 2 3 4 5 6 
#
# 1 111.9983 37.2561 32.6074 0.0000 -6.4076 0.0000
# 2 37.2561 124.3940 17.8625 0.0000 -8.6811 0.0000
# 3 32.6074 17.8625 71.0665 0.0000 4.8678 0.0001
# 4 0.0000 0.0000 0.0000 -3.6881 0.0000 2.9751
# 5 -6.4076 -8.6811 4.8678 0.0000 29.5896 0.0000
# 6 0.0000 0.0000 0.0001 2.9751 0.0000 105.7612
#
#
#
# Elastic Compliance Matrix: (Units=1/GPa)
#
#
# Indices 1 2 3 4 5 6 
#
# 1 0.011284 -0.002530 -0.004711 0.000000 0.002476 0.000000
# 2 -0.002530 0.009147 -0.001299 0.000000 0.002349 0.000000
# 3 -0.004711 -0.001299 0.016845 0.000000 -0.004172 0.000000
# 4 0.000000 0.000000 0.000000 -0.265126 0.000000 0.007458
# 5 0.002476 0.002349 -0.004172 0.000000 0.035708 0.000000
# 6 0.000000 0.000000 0.000000 0.007458 0.000000 0.009245
#
#
# Mechanical properties :
#
#
# Convention : Reuss Voigt Hill
#
# Bulk Modulus (GPa) = 49.51582 53.65675 51.58628
# Shear Modulus (GPa) = -31.42985 40.98138 4.77577
#
# Velocity S-wave (km/s) = -3.89040 4.44239 1.51651
# Velocity P-wave (km/s) = 1.91424 7.22162 5.28281
#
# Compressibility (1/GPa) = 0.02019556
#
# Stress axis : x y z
#
# Youngs Moduli (GPa) = 88.62456 109.32210 59.36421
#
# Poissons Ratio (x) = 0.27660 0.27966
# Poissons Ratio (y) = 0.22424 0.07712
# Poissons Ratio (z) = 0.41750 0.14203
#
# Static dielectric constant tensor:
#      x y z
#    x 1.717050 0.000000 0.024650 
#    y 0.000000 1.768980 0.000000 
#    z 0.024650 0.000000 1.746820 
# 
# From -- ./inp_files/372409.got.cif
#   From: 2010.05.17/outbox.cif.g08.bks.cpg/sg12_187_cif.got.tgz:372409.got - 2010.06.03 13:09:07.
