data_PCOD9195794
_publ_section_title
;
Structure prediction by ZEFSAII (Michael W. Deem and Ramdas Pophale) SiO2 
 PCOD9195794
Probable space group: C 2/M
;
_chemical_formula_sum "Si O2"
_cell_formula_units_Z 26
_cell_length_a 14.306631
_cell_length_b 19.020059
_cell_length_c 4.601677
_cell_angle_alpha 90.000000
_cell_angle_beta 46.312631
_cell_angle_gamma 90.000000
_cell_volume 905.472784
_symmetry_space_group_name_H-M "C 2/M"
_symmetry_group_IT_number 12
_symmetry_cell_setting 'monoclinic'
loop_
_space_group_symop_operation_xyz
x,y,z
-x,y,-z
-x,-y,-z
x,-y,z
1/2+x,1/2+y,z
1/2-x,1/2+y,-z
1/2-x,1/2-y,-z
1/2+x,1/2-y,z
loop_
_atom_site_type_symbol
_atom_site_label
_atom_site_fract_x
_atom_site_fract_y
_atom_site_fract_z
Si Si1 0.859929 0.078776 0.952653
Si Si2 0.132700 0.229201 0.034653
Si Si3 0.500000 0.000000 0.000000
Si Si4 0.871862 0.379430 0.983073
O O1 0.858638 0.152788 0.133107
O O2 0.000000 0.077940 0.500000
O O3 0.848395 0.000000 0.101906
O O4 0.749221 0.095998 0.951862
O O5 0.128225 0.302264 0.871918
O O6 0.000000 0.227082 0.500000
O O7 0.250000 0.250000 0.000000
O O8 0.393047 0.938700 0.173186
O O9 0.000000 0.384605 0.500000
#
# Coordination Sequence:
#
# PCOD9195794 Si02
#       4
#     8   8   2   8
#     4   9  16  29  55  84 102 139 182 213 262 317
#     4   8  15  28  49  75 103 132 171 213 255 309
#     4  12  22  32  54  84 112 134 172 230 268 310
#     4  10  20  35  55  81 106 140 179 218 266 313
#
# _framework density 28.714279999999999
#
# number of rings (size 3 to 8) (size 9 to 14) (size 15 to 20)
#    0.000    2.769    1.538    0.462    0.000    0.000 
#    0.000    0.000    0.000   70.154    0.000    0.000 
#    0.000    0.000    0.000    0.000    0.000    0.000 
#
# Total GULP energy -72457.740783 kJ/mol
# GULP energy per Si atom -5573.672368 kJ/mol
# Density = 2.864892 g / cm^3
# Si number density = 28.714280 Si / 1000 Ang^3
#
#
#
# Elastic Constant Matrix: (Units=GPa)
#
#
# Indices 1 2 3 4 5 6 
#
# 1 142.5478 10.7034 22.8393 0.0000 -47.3307 0.0000
# 2 10.7034 416.1642 37.7684 0.0000 5.9486 0.0000
# 3 22.8393 37.7684 152.4677 0.0000 -34.0748 0.0000
# 4 0.0000 0.0000 0.0000 21.6200 0.0000 -6.1675
# 5 -47.3307 5.9486 -34.0748 0.0000 53.4293 0.0000
# 6 0.0000 0.0000 0.0000 -6.1675 0.0000 21.0954
#
#
#
# Elastic Compliance Matrix: (Units=1/GPa)
#
#
# Indices 1 2 3 4 5 6 
#
# 1 0.010063 -0.000458 0.000711 0.000000 0.009419 0.000000
# 2 -0.000458 0.002507 -0.000823 0.000000 -0.001209 0.000000
# 3 0.000711 -0.000823 0.007950 0.000000 0.005792 0.000000
# 4 0.000000 0.000000 0.000000 0.050462 0.000000 0.014753
# 5 0.009419 -0.001209 0.005792 0.000000 0.030889 0.000000
# 6 0.000000 0.000000 0.000000 0.014753 0.000000 0.051717
#
#
# Mechanical properties :
#
#
# Convention : Reuss Voigt Hill
#
# Bulk Modulus (GPa) = 51.59687 94.86688 73.23187
# Shear Modulus (GPa) = 31.01983 61.88685 46.45334
#
# Velocity S-wave (km/s) = 3.29035 4.64752 4.02653
# Velocity P-wave (km/s) = 5.69590 7.86824 6.86849
#
# Compressibility (1/GPa) = 0.01938102
#
# Stress axis : x y z
#
# Youngs Moduli (GPa) = 99.37354 398.94390 125.77905
#
# Poissons Ratio (x) = 0.18271 -0.08943
# Poissons Ratio (y) = 0.04551 0.10347
# Poissons Ratio (z) = -0.07066 0.32817
#
# Static dielectric constant tensor:
#      x y z
#    x 2.214760 0.000000 -0.092840 
#    y 0.000000 2.242980 0.000000 
#    z -0.092840 0.000000 2.354610 
# 
# From -- ./inp_files/5619.got.cif
#   From: 2010.05.17/outbox.cif.g08.bks.cpg/sg12_3_cif.got.tgz:5619.got - 2010.06.03 13:09:07.
