data_PCOD9195098
_publ_section_title
;
Structure prediction by ZEFSAII (Michael W. Deem and Ramdas Pophale) SiO2 
 PCOD9195098
Probable space group: C 2/M
;
_chemical_formula_sum "Si O2"
_cell_formula_units_Z 64
_cell_length_a 18.428926
_cell_length_b 20.267528
_cell_length_c 8.968370
_cell_angle_alpha 90.000000
_cell_angle_beta 76.571499
_cell_angle_gamma 90.000000
_cell_volume 3258.183910
_symmetry_space_group_name_H-M "C 2/M"
_symmetry_group_IT_number 12
_symmetry_cell_setting 'monoclinic'
loop_
_space_group_symop_operation_xyz
x,y,z
-x,y,-z
-x,-y,-z
x,-y,z
1/2+x,1/2+y,z
1/2-x,1/2+y,-z
1/2-x,1/2-y,-z
1/2+x,1/2-y,z
loop_
_atom_site_type_symbol
_atom_site_label
_atom_site_fract_x
_atom_site_fract_y
_atom_site_fract_z
Si Si1 0.821277 0.800028 0.655312
Si Si2 0.067309 0.423699 0.849275
Si Si3 0.248845 0.161111 0.617344
Si Si4 0.479549 0.149726 0.674031
Si Si5 0.332111 0.075961 0.775998
Si Si6 0.309878 0.843394 0.076259
Si Si7 0.889661 0.791863 0.131911
Si Si8 0.045028 0.209607 0.210464
O O1 0.786815 0.837385 0.529573
O O2 0.805579 0.723278 0.616713
O O3 0.768986 0.820869 0.819421
O O4 0.906019 0.812689 0.669894
O O5 0.060927 0.500000 0.816473
O O6 0.147756 0.405931 0.873605
O O7 0.052804 0.378044 0.715644
O O8 0.000000 0.408616 0.000000
O O9 0.290384 0.094895 0.643941
O O10 0.180615 0.173444 0.762157
O O11 0.500000 0.172101 0.500000
O O12 0.419122 0.091674 0.709911
O O13 0.447981 0.211131 0.780612
O O14 0.321074 0.000000 0.825490
O O15 0.304994 0.131238 0.908913
O O16 0.363110 0.782329 0.100938
O O17 0.956643 0.797322 0.220949
O O18 0.918142 0.817736 0.958752
#
# Coordination Sequence:
#
# PCOD9195098 Si02
#       8
#     8   8   8   8   8   8   8   8
#     4  10  22  36  59  83 121 147 195 246 306 359
#     4  11  21  36  54  77 111 157 206 239 275 339
#     4  10  22  38  56  87 114 155 192 249 301 346
#     4  12  25  35  53  81 122 160 199 241 287 345
#     4  12  24  40  58  80 118 166 210 240 284 347
#     4  11  20  36  56  83 111 156 194 245 286 339
#     4  10  20  34  62  83 116 144 188 240 295 354
#     4  11  20  36  57  90 112 155 187 238 300 359
#
# _framework density 19.642845000000001
#
# number of rings (size 3 to 8) (size 9 to 14) (size 15 to 20)
#    0.000    1.125    5.000    1.500    3.500    3.000 
#    0.000    0.625    0.000    0.000    0.000    9.625 
#    0.000    0.000    0.000    0.000    0.000    0.000 
#
# Total GULP energy -178411.063844 kJ/mol
# GULP energy per Si atom -5575.345745 kJ/mol
# Density = 1.959814 g / cm^3
# Si number density = 19.642845 Si / 1000 Ang^3
#
#
#
# Elastic Constant Matrix: (Units=GPa)
#
#
# Indices 1 2 3 4 5 6 
#
# 1 104.5429 6.4797 22.6297 0.0000 36.4141 0.0000
# 2 6.4797 20.4638 -1.8711 0.0000 5.6090 0.0000
# 3 22.6297 -1.8711 39.5529 0.0000 17.4993 0.0000
# 4 0.0000 0.0000 0.0000 12.6344 0.0000 4.1070
# 5 36.4141 5.6090 17.4993 0.0000 35.6684 0.0000
# 6 0.0000 0.0000 0.0000 4.1070 0.0000 13.6821
#
#
#
# Elastic Compliance Matrix: (Units=1/GPa)
#
#
# Indices 1 2 3 4 5 6 
#
# 1 0.015033 -0.001166 -0.002487 0.000000 -0.013944 0.000000
# 2 -0.001166 0.053024 0.008095 0.000000 -0.011120 0.000000
# 3 -0.002487 0.008095 0.033883 0.000000 -0.015357 0.000000
# 4 0.000000 0.000000 0.000000 0.087707 0.000000 -0.026327
# 5 -0.013944 -0.011120 -0.015357 0.000000 0.051554 0.000000
# 6 0.000000 0.000000 0.000000 -0.026327 0.000000 0.080991
#
#
# Mechanical properties :
#
#
# Convention : Reuss Voigt Hill
#
# Bulk Modulus (GPa) = 9.02330 24.33736 16.68033
# Shear Modulus (GPa) = 14.27558 21.55175 17.91367
#
# Velocity S-wave (km/s) = 2.69877 3.31597 3.02316
# Velocity P-wave (km/s) = 3.78349 5.20362 4.54931
#
# Compressibility (1/GPa) = 0.11082421
#
# Stress axis : x y z
#
# Youngs Moduli (GPa) = 66.52082 18.85947 29.51347
#
# Poissons Ratio (x) = 0.02198 0.07340
# Poissons Ratio (y) = 0.07753 -0.23891
# Poissons Ratio (z) = 0.16543 -0.15266
#
# Static dielectric constant tensor:
#      x y z
#    x 1.758340 0.000000 0.057340 
#    y 0.000000 1.653060 0.000000 
#    z 0.057340 0.000000 1.857750 
# 
# From -- ./inp_files/78771.got.cif
#   From: 2010.05.17/outbox.cif.g08.bks.cpg/sg12_40_cif.got.tgz:78771.got - 2010.06.03 13:09:07.
