data_PCOD9195046
_publ_section_title
;
Structure prediction by ZEFSAII (Michael W. Deem and Ramdas Pophale) SiO2 
 PCOD9195046
Probable space group: C 2/M
;
_chemical_formula_sum "Si O2"
_cell_formula_units_Z 34
_cell_length_a 19.294440
_cell_length_b 18.025785
_cell_length_c 5.074333
_cell_angle_alpha 90.000000
_cell_angle_beta 107.125514
_cell_angle_gamma 90.000000
_cell_volume 1686.590457
_symmetry_space_group_name_H-M "C 2/M"
_symmetry_group_IT_number 12
_symmetry_cell_setting 'monoclinic'
loop_
_space_group_symop_operation_xyz
x,y,z
-x,y,-z
-x,-y,-z
x,-y,z
1/2+x,1/2+y,z
1/2-x,1/2+y,-z
1/2-x,1/2-y,-z
1/2+x,1/2-y,z
loop_
_atom_site_type_symbol
_atom_site_label
_atom_site_fract_x
_atom_site_fract_y
_atom_site_fract_z
Si Si1 0.412868 0.292995 0.370562
Si Si2 0.500000 0.500000 0.000000
Si Si3 0.249329 0.500000 0.633726
Si Si4 0.950737 0.358435 0.193113
Si Si5 0.354101 0.000000 0.981236
Si Si6 0.126358 0.880235 0.184808
O O1 0.500000 0.301250 0.500000
O O2 0.403432 0.210103 0.249328
O O3 0.378428 0.313731 0.611124
O O4 0.382999 0.349707 0.120269
O O5 0.441405 0.435382 0.844321
O O6 0.199074 0.500000 0.324081
O O7 0.301616 0.428522 0.701165
O O8 0.196340 0.500000 0.820710
O O9 0.000000 0.380770 0.500000
O O10 0.904312 0.427464 0.043875
O O11 0.000000 0.332719 0.000000
#
# Coordination Sequence:
#
# PCOD9195046 Si02
#       6
#     8   2   4   8   4   8
#     4  11  20  37  61  95 128 155 196 269 320 365
#     4  10  20  34  60  88 120 172 196 254 300 344
#     4  11  26  42  60  88 130 177 214 251 294 386
#     4  11  23  41  70  99 119 155 209 275 328 373
#     4  12  24  47  64  88 126 169 214 265 316 366
#     4  11  22  38  59  92 130 164 211 246 304 371
#
# _framework density 20.159015
#
# number of rings (size 3 to 8) (size 9 to 14) (size 15 to 20)
#    0.000    0.941    2.353    6.353    0.000    3.765 
#    0.000    7.059    0.000    0.000    0.000    0.000 
#    0.000    0.000    0.000    0.000    0.000    0.000 
#
# Total GULP energy -94786.152740 kJ/mol
# GULP energy per Si atom -5575.656044 kJ/mol
# Density = 2.011313 g / cm^3
# Si number density = 20.159015 Si / 1000 Ang^3
#
#
#
# Elastic Constant Matrix: (Units=GPa)
#
#
# Indices 1 2 3 4 5 6 
#
# 1 33.8159 15.1217 12.7031 0.0000 -4.8770 0.0000
# 2 15.1217 92.8136 18.4376 0.0000 23.5530 0.0000
# 3 12.7031 18.4376 136.1260 0.0000 11.7713 0.0000
# 4 0.0000 0.0000 0.0000 11.1941 0.0000 10.9330
# 5 -4.8770 23.5530 11.7713 0.0000 38.4056 0.0000
# 6 0.0000 0.0000 0.0000 10.9330 0.0000 26.3662
#
#
#
# Elastic Compliance Matrix: (Units=1/GPa)
#
#
# Indices 1 2 3 4 5 6 
#
# 1 0.035738 -0.007806 -0.003168 0.000000 0.010297 0.000000
# 2 -0.007806 0.014622 -0.000401 0.000000 -0.009835 0.000000
# 3 -0.003168 -0.000401 0.007920 0.000000 -0.002583 0.000000
# 4 0.000000 0.000000 0.000000 0.150137 0.000000 -0.062255
# 5 0.010297 -0.009835 -0.002583 0.000000 0.034169 0.000000
# 6 0.000000 0.000000 0.000000 -0.062255 0.000000 0.063742
#
#
# Mechanical properties :
#
#
# Convention : Reuss Voigt Hill
#
# Bulk Modulus (GPa) = 28.14715 39.47558 33.81136
# Shear Modulus (GPa) = 14.66618 29.62605 22.14612
#
# Velocity S-wave (km/s) = 2.70019 3.83772 3.31807
# Velocity P-wave (km/s) = 4.86973 6.26594 5.61143
#
# Compressibility (1/GPa) = 0.03552757
#
# Stress axis : x y z
#
# Youngs Moduli (GPa) = 27.98166 68.39136 126.26980
#
# Poissons Ratio (x) = 0.53387 0.40003
# Poissons Ratio (y) = 0.21843 0.05070
# Poissons Ratio (z) = 0.08865 0.02746
#
# Static dielectric constant tensor:
#      x y z
#    x 1.691640 0.000000 -0.009200 
#    y 0.000000 1.716090 0.000000 
#    z -0.009200 0.000000 1.679010 
# 
# From -- ./inp_files/20030.got.cif
#   From: 2010.05.17/outbox.cif.g08.bks.cpg/sg12_11_cif.got.tgz:20030.got - 2010.06.03 13:09:07.
