data_PCOD9195587
_publ_section_title
;
Structure prediction by ZEFSAII (Michael W. Deem and Ramdas Pophale) SiO2 
 PCOD9195587
Probable space group: C 2/M
;
_chemical_formula_sum "Si O2"
_cell_formula_units_Z 64
_cell_length_a 23.592702
_cell_length_b 22.656022
_cell_length_c 7.051070
_cell_angle_alpha 90.000000
_cell_angle_beta 39.102710
_cell_angle_gamma 90.000000
_cell_volume 2377.101976
_symmetry_space_group_name_H-M "C 2/M"
_symmetry_group_IT_number 12
_symmetry_cell_setting 'monoclinic'
loop_
_space_group_symop_operation_xyz
x,y,z
-x,y,-z
-x,-y,-z
x,-y,z
1/2+x,1/2+y,z
1/2-x,1/2+y,-z
1/2-x,1/2-y,-z
1/2+x,1/2-y,z
loop_
_atom_site_type_symbol
_atom_site_label
_atom_site_fract_x
_atom_site_fract_y
_atom_site_fract_z
Si Si1 0.671306 0.802816 0.159383
Si Si2 0.869856 0.813249 0.804555
Si Si3 0.099521 0.803572 0.826152
Si Si4 0.646561 0.175429 0.795596
Si Si5 0.131236 0.062026 0.176647
Si Si6 0.179085 0.563017 0.475010
Si Si7 0.972123 0.398612 0.371066
Si Si8 0.397350 0.565025 0.199978
O O1 0.763014 0.805698 0.039423
O O2 0.689400 0.807629 0.886733
O O3 0.611514 0.857647 0.362068
O O4 0.603616 0.747149 0.364284
O O5 0.895957 0.809223 0.956046
O O6 0.901138 0.876772 0.652325
O O7 0.137052 0.868225 0.660104
O O8 0.140200 0.737010 0.696860
O O9 0.000000 0.800697 0.000000
O O10 0.550489 0.144370 0.091929
O O11 0.692705 0.121612 0.564045
O O12 0.240062 0.062932 0.888646
O O13 0.107063 0.063155 0.017364
O O14 0.098629 0.000000 0.342045
O O15 0.189810 0.500000 0.552112
O O16 0.078660 0.562967 0.652388
O O17 0.000000 0.426847 0.500000
O O18 0.358278 0.500000 0.362411
O O19 0.500000 0.564652 0.000000
#
# Coordination Sequence:
#
# PCOD9195587 Si02
#       8
#     8   8   8   8   8   8   8   8
#     4   9  18  34  55  78 104 138 186 227 278 325
#     4   9  16  31  55  75 107 139 176 230 273 330
#     4   9  16  28  49  77 106 134 169 217 274 325
#     4  10  21  35  53  75 111 148 184 233 278 324
#     4   9  17  30  51  80 109 144 181 221 272 326
#     4  11  22  36  53  76 112 150 187 234 280 322
#     4  10  20  35  55  77 103 142 189 233 274 329
#     4   8  14  26  47  73 103 133 166 209 264 326
#
# _framework density 26.923541
#
# number of rings (size 3 to 8) (size 9 to 14) (size 15 to 20)
#    0.000    2.625    1.250    1.125    0.000    1.250 
#    0.000    8.125   13.750    0.000    0.000    0.875 
#    0.000    7.000    0.000    1.750    0.000    0.000 
#
# Total GULP energy -178632.239863 kJ/mol
# GULP energy per Si atom -5582.257496 kJ/mol
# Density = 2.686226 g / cm^3
# Si number density = 26.923541 Si / 1000 Ang^3
#
#
#
# Elastic Constant Matrix: (Units=GPa)
#
#
# Indices 1 2 3 4 5 6 
#
# 1 187.9048 28.8920 43.4382 0.0000 -13.6463 0.0000
# 2 28.8920 281.5420 22.0424 0.0000 7.5525 0.0000
# 3 43.4382 22.0424 49.3537 0.0000 -6.3024 0.0000
# 4 0.0000 0.0000 0.0000 -10.9837 0.0000 4.9306
# 5 -13.6463 7.5525 -6.3024 0.0000 45.6956 0.0000
# 6 0.0000 0.0000 0.0000 4.9306 0.0000 -0.0347
#
#
#
# Elastic Compliance Matrix: (Units=1/GPa)
#
#
# Indices 1 2 3 4 5 6 
#
# 1 0.006769 -0.000286 -0.005666 0.000000 0.001287 0.000000
# 2 -0.000286 0.003725 -0.001529 0.000000 -0.000912 0.000000
# 3 -0.005666 -0.001529 0.026209 0.000000 0.002176 0.000000
# 4 0.000000 0.000000 0.000000 0.001450 0.000000 0.206044
# 5 0.001287 -0.000912 0.002176 0.000000 0.022719 0.000000
# 6 0.000000 0.000000 0.000000 0.206044 0.000000 0.458993
#
#
# Mechanical properties :
#
#
# Convention : Reuss Voigt Hill
#
# Bulk Modulus (GPa) = 45.99162 78.61616 62.30389
# Shear Modulus (GPa) = 9.22384 35.23063 22.22723
#
# Velocity S-wave (km/s) = 1.85294 3.62130 2.87639
# Velocity P-wave (km/s) = 4.65803 6.83727 5.85002
#
# Compressibility (1/GPa) = 0.02174309
#
# Stress axis : x y z
#
# Youngs Moduli (GPa) = 147.73246 268.43211 38.15453
#
# Poissons Ratio (x) = 0.07666 0.21617
# Poissons Ratio (y) = 0.04219 0.05833
# Poissons Ratio (z) = 0.83701 0.41041
#
# Static dielectric constant tensor:
#      x y z
#    x 2.128320 0.000000 0.039470 
#    y 0.000000 2.204280 0.000000 
#    z 0.039470 0.000000 2.124760 
# 
# From -- ./inp_files/99067.got.cif
#   From: 2010.05.17/outbox.cif.g08.bks.cpg/sg12_50_cif.got.tgz:99067.got - 2010.06.03 13:09:07.
