data_PCOD9195537
_publ_section_title
;
Structure prediction by ZEFSAII (Michael W. Deem and Ramdas Pophale) SiO2 
 PCOD9195537
Probable space group: C 2/M
;
_chemical_formula_sum "Si O2"
_cell_formula_units_Z 64
_cell_length_a 15.906044
_cell_length_b 27.452076
_cell_length_c 12.945154
_cell_angle_alpha 90.000000
_cell_angle_beta 39.097791
_cell_angle_gamma 90.000000
_cell_volume 3564.758892
_symmetry_space_group_name_H-M "C 2/M"
_symmetry_group_IT_number 12
_symmetry_cell_setting 'monoclinic'
loop_
_space_group_symop_operation_xyz
x,y,z
-x,y,-z
-x,-y,-z
x,-y,z
1/2+x,1/2+y,z
1/2-x,1/2+y,-z
1/2-x,1/2-y,-z
1/2+x,1/2-y,z
loop_
_atom_site_type_symbol
_atom_site_label
_atom_site_fract_x
_atom_site_fract_y
_atom_site_fract_z
Si Si1 0.357401 0.874343 0.019846
Si Si2 0.843264 0.057082 0.124096
Si Si3 0.347921 0.206945 0.436696
Si Si4 0.857079 0.056398 0.866156
Si Si5 0.339523 0.149147 0.654942
Si Si6 0.153200 0.373793 0.739687
Si Si7 0.655450 0.208658 0.139397
Si Si8 0.595169 0.442424 0.507845
O O1 0.245942 0.913603 0.102843
O O2 0.340180 0.852634 0.150522
O O3 0.505591 0.896458 0.871262
O O4 0.345390 0.833838 0.944488
O O5 0.746821 0.099179 0.261033
O O6 0.812816 0.000000 0.181899
O O7 0.829972 0.061390 0.012826
O O8 0.000000 0.065160 0.000000
O O9 0.250000 0.250000 0.500000
O O10 0.312674 0.180630 0.577943
O O11 0.338310 0.166953 0.355426
O O12 0.501320 0.225250 0.297645
O O13 0.006848 0.070562 0.692293
O O14 0.844693 0.000000 0.849179
O O15 0.500000 0.138415 0.500000
O O16 0.308217 0.182633 0.785976
O O17 0.270597 0.412247 0.619777
O O18 0.750000 0.250000 0.000000
O O19 0.500000 0.431859 0.500000
O O20 0.623242 0.500000 0.480136
#
# Coordination Sequence:
#
# PCOD9195537 Si02
#       8
#     8   8   8   8   8   8   8   8
#     4  10  20  38  59  85 115 150 198 240 289 349
#     4  10  22  39  60  89 121 157 201 248 298 354
#     4  10  24  42  58  86 120 149 190 245 299 347
#     4  10  20  36  57  82 118 155 194 242 291 348
#     4  10  22  42  64  87 120 155 199 248 296 357
#     4  10  22  37  58  84 118 155 192 242 287 349
#     4  10  22  40  63  85 111 151 197 242 296 352
#     4  10  20  35  54  83 119 155 193 237 286 339
#
# _framework density 17.953527999999999
#
# number of rings (size 3 to 8) (size 9 to 14) (size 15 to 20)
#    0.000    2.000    2.500    0.000    3.500    2.750 
#    0.000    1.250    0.000    0.000    0.000    0.000 
#    0.000    0.000    0.000    0.000    0.000    0.000 
#
# Total GULP energy -178404.943802 kJ/mol
# GULP energy per Si atom -5575.154494 kJ/mol
# Density = 1.791266 g / cm^3
# Si number density = 17.953528 Si / 1000 Ang^3
#
#
#
# Elastic Constant Matrix: (Units=GPa)
#
#
# Indices 1 2 3 4 5 6 
#
# 1 104.6690 61.6190 57.3843 0.0000 3.1286 0.0000
# 2 61.6190 90.1850 78.1260 0.0000 -13.5248 0.0000
# 3 57.3843 78.1260 121.2034 0.0000 -1.9332 0.0000
# 4 0.0000 0.0000 0.0000 37.4135 0.0000 -3.4080
# 5 3.1286 -13.5248 -1.9332 0.0000 31.9838 0.0000
# 6 0.0000 0.0000 0.0000 -3.4080 0.0000 25.1910
#
#
#
# Elastic Compliance Matrix: (Units=1/GPa)
#
#
# Indices 1 2 3 4 5 6 
#
# 1 0.017403 -0.012980 0.000012 0.000000 -0.007190 0.000000
# 2 -0.012980 0.038164 -0.018195 0.000000 0.016308 0.000000
# 3 0.000012 -0.018195 0.019869 0.000000 -0.006494 0.000000
# 4 0.000000 0.000000 0.000000 0.027062 0.000000 0.003661
# 5 -0.007190 0.016308 -0.006494 0.000000 0.038473 0.000000
# 6 0.000000 0.000000 0.000000 0.003661 0.000000 0.040192
#
#
# Mechanical properties :
#
#
# Convention : Reuss Voigt Hill
#
# Bulk Modulus (GPa) = 76.26377 78.92401 77.59389
# Shear Modulus (GPa) = 20.17274 26.84620 23.50947
#
# Velocity S-wave (km/s) = 3.35566 3.87113 3.62258
# Velocity P-wave (km/s) = 7.58845 8.00228 7.79811
#
# Compressibility (1/GPa) = 0.01311239
#
# Stress axis : x y z
#
# Youngs Moduli (GPa) = 57.46001 26.20245 50.32876
#
# Poissons Ratio (x) = 0.34010 -0.00061
# Poissons Ratio (y) = 0.74582 0.91572
# Poissons Ratio (z) = -0.00070 0.47675
#
# Static dielectric constant tensor:
#      x y z
#    x 1.614240 0.000000 0.004710 
#    y 0.000000 1.580570 0.000000 
#    z 0.004710 0.000000 1.656850 
# 
# From -- ./inp_files/149729.got.cif
#   From: 2010.05.17/outbox.cif.g08.bks.cpg/sg12_75_cif.got.tgz:149729.got - 2010.06.03 13:09:07.
