data_PCOD9195246
_publ_section_title
;
Structure prediction by ZEFSAII (Michael W. Deem and Ramdas Pophale) SiO2 
 PCOD9195246
Probable space group: C 2/M
;
_chemical_formula_sum "Si O2"
_cell_formula_units_Z 56
_cell_length_a 30.751015
_cell_length_b 8.408045
_cell_length_c 19.420694
_cell_angle_alpha 90.000000
_cell_angle_beta 38.249847
_cell_angle_gamma 90.000000
_cell_volume 3108.667811
_symmetry_space_group_name_H-M "C 2/M"
_symmetry_group_IT_number 12
_symmetry_cell_setting 'monoclinic'
loop_
_space_group_symop_operation_xyz
x,y,z
-x,y,-z
-x,-y,-z
x,-y,z
1/2+x,1/2+y,z
1/2-x,1/2+y,-z
1/2-x,1/2-y,-z
1/2+x,1/2-y,z
loop_
_atom_site_type_symbol
_atom_site_label
_atom_site_fract_x
_atom_site_fract_y
_atom_site_fract_z
Si Si1 0.383077 0.307782 0.249478
Si Si2 0.463439 0.811167 0.797920
Si Si3 0.964471 0.812973 0.950307
Si Si4 0.692770 0.188908 0.017900
Si Si5 0.189993 0.190320 0.866074
Si Si6 0.608569 0.692217 0.599814
Si Si7 0.244012 0.189718 0.346463
O O1 0.384200 0.500000 0.244374
O O2 0.458314 0.251086 0.124357
O O3 0.379913 0.262310 0.334215
O O4 0.313711 0.248209 0.298840
O O5 0.466299 0.710730 0.865155
O O6 0.387716 0.775238 0.859418
O O7 0.533817 0.764196 0.670624
O O8 0.465133 0.000000 0.812254
O O9 0.963298 0.000000 0.969179
O O10 0.887176 0.747033 0.063256
O O11 0.698981 0.000000 0.004780
O O12 0.750000 0.250000 0.000000
O O13 0.701292 0.258754 0.930597
O O14 0.248002 0.252203 0.741503
O O15 0.187413 0.000000 0.866182
O O16 0.604345 0.500000 0.602688
O O17 0.674154 0.746317 0.472535
O O18 0.243148 0.000000 0.348951
#
# Coordination Sequence:
#
# PCOD9195246 Si02
#       7
#     8   8   8   8   8   8   8
#     4   9  17  31  49  69  93 128 176 220 253 292
#     4   9  17  29  50  78 102 124 159 204 244 284
#     4   8  16  31  49  68  95 130 167 205 249 300
#     4  10  20  35  57  85 109 128 154 194 243 298
#     4  10  20  35  53  73 100 135 168 202 250 303
#     4   9  19  34  50  68  97 137 176 210 249 295
#     4  11  22  33  46  69 101 136 173 214 253 293
#
# _framework density 18.014149
#
# number of rings (size 3 to 8) (size 9 to 14) (size 15 to 20)
#    0.000    2.571    0.000    3.000    0.000    6.286 
#    0.000    2.857    0.000    0.857    0.000    6.000 
#    0.000    0.000    0.000    0.000    0.000    0.000 
#
# Total GULP energy -156092.174401 kJ/mol
# GULP energy per Si atom -5574.720514 kJ/mol
# Density = 1.797315 g / cm^3
# Si number density = 18.014149 Si / 1000 Ang^3
#
#
#
# Elastic Constant Matrix: (Units=GPa)
#
#
# Indices 1 2 3 4 5 6 
#
# 1 102.2019 17.3475 54.7867 -0.0036 -15.7406 0.0030
# 2 17.3475 16.3878 20.3437 -0.0072 -1.4871 0.0019
# 3 54.7867 20.3437 142.0865 -0.0050 -10.5274 0.0019
# 4 -0.0036 -0.0072 -0.0050 21.9546 0.0024 -1.0630
# 5 -15.7406 -1.4871 -10.5274 0.0024 18.3580 -0.0017
# 6 0.0030 0.0019 0.0019 -1.0630 -0.0017 25.7916
#
#
#
# Elastic Compliance Matrix: (Units=1/GPa)
#
#
# Indices 1 2 3 4 5 6 
#
# 1 0.015017 -0.010605 -0.003531 -0.000003 0.009991 0.000000
# 2 -0.010605 0.081702 -0.008138 0.000024 -0.007142 -0.000004
# 3 -0.003531 -0.008138 0.009704 -0.000001 0.001878 0.000000
# 4 -0.000003 0.000024 -0.000001 0.045640 -0.000007 0.001881
# 5 0.009991 -0.007142 0.001878 -0.000007 0.063537 0.000003
# 6 0.000000 -0.000004 0.000000 0.001881 0.000003 0.038850
#
#
# Mechanical properties :
#
#
# Convention : Reuss Voigt Hill
#
# Bulk Modulus (GPa) = 16.16212 49.51466 32.83839
# Shear Modulus (GPa) = 15.64345 24.43406 20.03875
#
# Velocity S-wave (km/s) = 2.95006 3.68690 3.33887
# Velocity P-wave (km/s) = 4.53819 6.75800 5.75611
#
# Compressibility (1/GPa) = 0.06187307
#
# Stress axis : x y z
#
# Youngs Moduli (GPa) = 66.59292 12.23963 103.05136
#
# Poissons Ratio (x) = 0.12981 0.36392
# Poissons Ratio (y) = 0.70625 0.83860
# Poissons Ratio (z) = 0.23517 0.09960
#
# Static dielectric constant tensor:
#      x y z
#    x 1.582760 0.000000 -0.017020 
#    y 0.000000 1.636040 0.000000 
#    z -0.017020 0.000000 1.659260 
# 
# From -- ./inp_files/287370.got.cif
#   From: 2010.05.17/outbox.cif.g08.bks.cpg/sg12_144_cif.got.tgz:287370.got - 2010.06.03 13:09:07.
