data_PCOD9195664
_publ_section_title
;
Structure prediction by ZEFSAII (Michael W. Deem and Ramdas Pophale) SiO2 
 PCOD9195664
Probable space group: C 2/M
;
_chemical_formula_sum "Si O2"
_cell_formula_units_Z 48
_cell_length_a 18.540131
_cell_length_b 8.906001
_cell_length_c 16.513231
_cell_angle_alpha 90.000000
_cell_angle_beta 90.825060
_cell_angle_gamma 90.000000
_cell_volume 2726.356005
_symmetry_space_group_name_H-M "C 2/M"
_symmetry_group_IT_number 12
_symmetry_cell_setting 'monoclinic'
loop_
_space_group_symop_operation_xyz
x,y,z
-x,y,-z
-x,-y,-z
x,-y,z
1/2+x,1/2+y,z
1/2-x,1/2+y,-z
1/2-x,1/2-y,-z
1/2+x,1/2-y,z
loop_
_atom_site_type_symbol
_atom_site_label
_atom_site_fract_x
_atom_site_fract_y
_atom_site_fract_z
Si Si1 0.174685 0.172535 0.668677
Si Si2 0.780700 0.181080 0.082377
Si Si3 0.796918 0.821672 0.762643
Si Si4 0.922323 0.827167 0.168688
Si Si5 0.967638 0.180672 0.411760
Si Si6 0.047382 0.677954 0.259711
O O1 0.243346 0.273672 0.688841
O O2 0.125852 0.174613 0.749771
O O3 0.117269 0.218988 0.599332
O O4 0.197591 0.000000 0.656002
O O5 0.735907 0.246332 0.157146
O O6 0.865126 0.219884 0.099355
O O7 0.775866 0.000000 0.082686
O O8 0.750000 0.250000 0.000000
O O9 0.876477 0.758854 0.749990
O O10 0.797482 0.000000 0.771367
O O11 0.991420 0.726948 0.188326
O O12 0.944646 0.000000 0.155527
O O13 0.000000 0.213011 0.500000
O O14 0.011562 0.265107 0.342740
O O15 0.972831 0.000000 0.397367
O O16 0.056331 0.500000 0.260608
#
# Coordination Sequence:
#
# PCOD9195664 Si02
#       6
#     8   8   8   8   8   8
#     4   8  15  30  51  74 100 130 167 208 249 298
#     4  10  20  35  55  79 106 134 167 207 251 299
#     4  11  21  34  53  75 102 136 173 210 252 301
#     4   8  16  32  52  73 100 134 168 203 247 301
#     4   9  18  34  55  77 103 135 168 205 253 306
#     4  11  21  33  52  77 104 133 170 214 254 297
#
# _framework density 17.605919
#
# number of rings (size 3 to 8) (size 9 to 14) (size 15 to 20)
#    0.000    2.500    0.000    5.500    0.000    7.000 
#    0.000    1.667    0.000    5.000    0.000    0.000 
#    0.000    0.000    0.000    0.000    0.000    0.000 
#
# Total GULP energy -133811.617243 kJ/mol
# GULP energy per Si atom -5575.484052 kJ/mol
# Density = 1.756585 g / cm^3
# Si number density = 17.605919 Si / 1000 Ang^3
#
#
#
# Elastic Constant Matrix: (Units=GPa)
#
#
# Indices 1 2 3 4 5 6 
#
# 1 137.3173 74.5110 53.0989 0.0000 31.4502 0.0000
# 2 74.5110 101.9631 39.9714 0.0000 16.8523 0.0000
# 3 53.0989 39.9714 77.4334 0.0000 38.4697 0.0000
# 4 0.0000 0.0000 0.0000 24.1319 0.0000 3.6514
# 5 31.4502 16.8523 38.4697 0.0000 32.6887 0.0000
# 6 0.0000 0.0000 0.0000 3.6514 0.0000 31.7012
#
#
#
# Elastic Compliance Matrix: (Units=1/GPa)
#
#
# Indices 1 2 3 4 5 6 
#
# 1 0.014249 -0.008518 -0.001793 0.000000 -0.007207 0.000000
# 2 -0.008518 0.017490 -0.006691 0.000000 0.007053 0.000000
# 3 -0.001793 -0.006691 0.036181 0.000000 -0.037405 0.000000
# 4 0.000000 0.000000 0.000000 0.042174 0.000000 -0.004858
# 5 -0.007207 0.007053 -0.037405 0.000000 0.077910 0.000000
# 6 0.000000 0.000000 0.000000 -0.004858 0.000000 0.032104
#
#
# Mechanical properties :
#
#
# Convention : Reuss Voigt Hill
#
# Bulk Modulus (GPa) = 29.48590 72.43072 50.95831
# Shear Modulus (GPa) = 18.83827 27.64652 23.24239
#
# Velocity S-wave (km/s) = 3.27463 3.96700 3.63732
# Velocity P-wave (km/s) = 5.57509 7.88746 6.82985
#
# Compressibility (1/GPa) = 0.03391451
#
# Stress axis : x y z
#
# Youngs Moduli (GPa) = 70.18232 57.17683 27.63862
#
# Poissons Ratio (x) = 0.48705 0.04956
# Poissons Ratio (y) = 0.59783 0.18493
# Poissons Ratio (z) = 0.12584 0.38258
#
# Static dielectric constant tensor:
#      x y z
#    x 1.606700 0.000000 0.035480 
#    y 0.000000 1.586280 0.000000 
#    z 0.035480 0.000000 1.608070 
# 
# From -- ./inp_files/273645.got.cif
#   From: 2010.05.17/outbox.cif.g08.bks.cpg/sg12_137_cif.got.tgz:273645.got - 2010.06.03 13:09:07.
