data_PCOD9195220
_publ_section_title
;
Structure prediction by ZEFSAII (Michael W. Deem and Ramdas Pophale) SiO2 
 PCOD9195220
Probable space group: C 2/M
;
_chemical_formula_sum "Si O2"
_cell_formula_units_Z 56
_cell_length_a 10.065798
_cell_length_b 15.515455
_cell_length_c 29.248295
_cell_angle_alpha 90.000000
_cell_angle_beta 138.768623
_cell_angle_gamma 90.000000
_cell_volume 3010.686398
_symmetry_space_group_name_H-M "C 2/M"
_symmetry_group_IT_number 12
_symmetry_cell_setting 'monoclinic'
loop_
_space_group_symop_operation_xyz
x,y,z
-x,y,-z
-x,-y,-z
x,-y,z
1/2+x,1/2+y,z
1/2-x,1/2+y,-z
1/2-x,1/2-y,-z
1/2+x,1/2-y,z
loop_
_atom_site_type_symbol
_atom_site_label
_atom_site_fract_x
_atom_site_fract_y
_atom_site_fract_z
Si Si1 0.483036 0.901958 0.441219
Si Si2 0.951628 0.337152 0.161548
Si Si3 0.065014 0.500000 0.069641
Si Si4 0.585843 0.398268 0.475178
Si Si5 0.425870 0.303444 0.683490
Si Si6 0.280780 0.345000 0.319065
Si Si7 0.260197 0.670707 0.161351
Si Si8 0.238588 0.000000 0.065583
O O1 0.500000 0.905755 0.500000
O O2 0.281397 0.852248 0.377960
O O3 0.692607 0.861875 0.478023
O O4 0.462615 0.000000 0.418716
O O5 0.835614 0.254354 0.152529
O O6 0.805737 0.413797 0.109305
O O7 0.116085 0.378353 0.239663
O O8 0.078055 0.307902 0.149418
O O9 0.190644 0.586956 0.114817
O O10 0.868436 0.500000 0.052022
O O11 0.000000 0.500000 0.000000
O O12 0.500000 0.359778 0.500000
O O13 0.618527 0.500000 0.491124
O O14 0.429806 0.393164 0.392582
O O15 0.562860 0.296452 0.674070
O O16 0.359673 0.211750 0.685011
O O17 0.554631 0.349922 0.756468
O O18 0.000000 0.000000 0.000000
#
# Coordination Sequence:
#
# PCOD9195220 Si02
#       8
#     8   8   4   8   8   8   8   4
#     4  10  20  35  52  77 105 141 191 234 282 330
#     4   9  20  39  61  88 120 155 195 240 287 345
#     4  10  22  40  64  92 122 157 192 230 288 349
#     4  10  22  37  52  74 108 147 187 234 287 335
#     4  10  21  35  56  80 108 143 188 234 282 335
#     4  10  21  36  56  79 107 146 187 232 283 337
#     4   9  20  39  60  88 121 156 195 237 290 342
#     4  10  22  40  64  94 120 154 196 232 282 350
#
# _framework density 18.600408999999999
#
# number of rings (size 3 to 8) (size 9 to 14) (size 15 to 20)
#    0.000    2.286    1.429    0.000    4.000    2.857 
#    0.000    2.857    0.000    0.000    0.000    0.000 
#    0.000    0.000    0.000    0.000    0.000    0.000 
#
# Total GULP energy -155908.015649 kJ/mol
# GULP energy per Si atom -5568.143416 kJ/mol
# Density = 1.855807 g / cm^3
# Si number density = 18.600409 Si / 1000 Ang^3
#
#
#
# Elastic Constant Matrix: (Units=GPa)
#
#
# Indices 1 2 3 4 5 6 
#
# 1 104.1292 30.7395 43.3260 0.0000 7.5094 0.0000
# 2 30.7395 48.8665 31.2991 0.0000 1.6204 0.0000
# 3 43.3260 31.2991 91.0257 0.0001 15.0490 -0.0001
# 4 0.0000 0.0000 0.0001 106.2941 0.0000 -69.0884
# 5 7.5094 1.6204 15.0490 0.0000 33.6571 0.0000
# 6 0.0000 0.0000 -0.0001 -69.0884 0.0000 92.9226
#
#
#
# Elastic Compliance Matrix: (Units=1/GPa)
#
#
# Indices 1 2 3 4 5 6 
#
# 1 0.013019 -0.005484 -0.004183 0.000000 -0.000770 0.000000
# 2 -0.005484 0.028836 -0.007859 0.000000 0.003349 0.000000
# 3 -0.004183 -0.007859 0.016697 0.000000 -0.006154 0.000000
# 4 0.000000 0.000000 0.000000 0.018206 0.000000 0.013536
# 5 -0.000770 0.003349 -0.006154 0.000000 0.032474 0.000000
# 6 0.000000 0.000000 0.000000 0.013536 0.000000 0.020826
#
#
# Mechanical properties :
#
#
# Convention : Reuss Voigt Hill
#
# Bulk Modulus (GPa) = 42.55540 50.52784 46.54162
# Shear Modulus (GPa) = 28.91125 55.81855 42.36490
#
# Velocity S-wave (km/s) = 3.94678 5.48402 4.77763
# Velocity P-wave (km/s) = 6.61044 8.20507 7.45054
#
# Compressibility (1/GPa) = 0.02349878
#
# Stress axis : x y z
#
# Youngs Moduli (GPa) = 76.81289 34.67855 59.89210
#
# Poissons Ratio (x) = 0.19019 0.25056
# Poissons Ratio (y) = 0.42127 0.47067
# Poissons Ratio (z) = 0.32134 0.27253
#
# Static dielectric constant tensor:
#      x y z
#    x 1.664700 0.000000 -0.007130 
#    y 0.000000 1.690510 0.000000 
#    z -0.007130 0.000000 1.660130 
# 
# From -- ./inp_files/356788.got.cif
#   From: 2010.05.17/outbox.cif.g08.bks.cpg/sg12_179_cif.got.tgz:356788.got - 2010.06.03 13:09:07.
