data_PCOD9195439
_publ_section_title
;
Structure prediction by ZEFSAII (Michael W. Deem and Ramdas Pophale) SiO2 
 PCOD9195439
Probable space group: C 2/M
;
_chemical_formula_sum "Si O2"
_cell_formula_units_Z 56
_cell_length_a 23.343780
_cell_length_b 16.420832
_cell_length_c 10.165464
_cell_angle_alpha 90.000000
_cell_angle_beta 131.300953
_cell_angle_gamma 90.000000
_cell_volume 2927.385083
_symmetry_space_group_name_H-M "C 2/M"
_symmetry_group_IT_number 12
_symmetry_cell_setting 'monoclinic'
loop_
_space_group_symop_operation_xyz
x,y,z
-x,y,-z
-x,-y,-z
x,-y,z
1/2+x,1/2+y,z
1/2-x,1/2+y,-z
1/2-x,1/2-y,-z
1/2+x,1/2-y,z
loop_
_atom_site_type_symbol
_atom_site_label
_atom_site_fract_x
_atom_site_fract_y
_atom_site_fract_z
Si Si1 0.730350 0.405422 0.473966
Si Si2 0.956673 0.866141 0.561094
Si Si3 0.669355 0.139430 0.616601
Si Si4 0.279968 0.325046 0.274545
Si Si5 0.436219 0.591823 0.816632
Si Si6 0.656775 0.095250 0.901945
Si Si7 0.501171 0.178251 0.347839
O O1 0.720841 0.500000 0.500063
O O2 0.781192 0.401467 0.421831
O O3 0.755163 0.355957 0.640263
O O4 0.647020 0.369784 0.311249
O O5 0.866343 0.860074 0.394018
O O6 0.963785 0.911858 0.708853
O O7 0.000000 0.899199 0.500000
O O8 0.992041 0.776236 0.643991
O O9 0.705211 0.228803 0.696435
O O10 0.665700 0.100274 0.756349
O O11 0.583561 0.146574 0.427904
O O12 0.225933 0.357144 0.077032
O O13 0.425631 0.500000 0.854254
O O14 0.500000 0.634558 0.000000
O O15 0.577088 0.139464 0.822150
O O16 0.656167 0.000000 0.938744
O O17 0.500000 0.156355 0.500000
#
# Coordination Sequence:
#
# PCOD9195439 Si02
#       7
#     8   8   8   8   8   8   8
#     4  10  20  35  54  77 109 146 182 226 280 331
#     4   9  18  35  56  76 102 140 182 221 266 325
#     4  10  20  36  58  81 105 144 193 229 263 325
#     4  10  21  37  55  79 114 147 179 226 282 331
#     4   9  19  33  48  72 106 138 171 220 276 321
#     4  11  22  36  57  85 115 145 180 228 281 328
#     4   8  18  35  54  78 107 139 178 224 273 318
#
# _framework density 19.129698999999999
#
# number of rings (size 3 to 8) (size 9 to 14) (size 15 to 20)
#    0.000    2.429    0.000    2.571    0.000    6.286 
#    0.000    2.143    0.000    1.714    0.000    0.000 
#    0.000    0.000    0.000    0.000    0.000    0.000 
#
# Total GULP energy -155964.151876 kJ/mol
# GULP energy per Si atom -5570.148281 kJ/mol
# Density = 1.908616 g / cm^3
# Si number density = 19.129699 Si / 1000 Ang^3
#
#
#
# Elastic Constant Matrix: (Units=GPa)
#
#
# Indices 1 2 3 4 5 6 
#
# 1 100.4355 20.1062 33.4872 0.0000 -2.6572 0.0000
# 2 20.1062 62.1156 27.2794 0.0000 13.6083 0.0000
# 3 33.4872 27.2794 71.3814 0.0000 11.5433 0.0000
# 4 0.0000 0.0000 0.0000 15.0867 0.0000 -23.4805
# 5 -2.6572 13.6083 11.5433 0.0000 19.0546 0.0000
# 6 0.0000 0.0000 0.0000 -23.4805 0.0000 -99.0045
#
#
#
# Elastic Compliance Matrix: (Units=1/GPa)
#
#
# Indices 1 2 3 4 5 6 
#
# 1 0.012813 -0.003186 -0.006043 0.000000 0.007723 0.000000
# 2 -0.003186 0.022174 -0.004819 0.000000 -0.013361 0.000000
# 3 -0.006043 -0.004819 0.020249 0.000000 -0.009668 0.000000
# 4 0.000000 0.000000 0.000000 0.048413 0.000000 -0.011482
# 5 0.007723 -0.013361 -0.009668 0.000000 0.068956 0.000000
# 6 0.000000 0.000000 0.000000 -0.011482 0.000000 -0.007377
#
#
# Mechanical properties :
#
#
# Convention : Reuss Voigt Hill
#
# Bulk Modulus (GPa) = 36.84349 43.96425 40.40387
# Shear Modulus (GPa) = 24.70724 -2.76866 10.96929
#
# Velocity S-wave (km/s) = 3.59773 -1.20435 2.39721
# Velocity P-wave (km/s) = 6.04648 4.59327 5.36927
#
# Compressibility (1/GPa) = 0.02714184
#
# Stress axis : x y z
#
# Youngs Moduli (GPa) = 78.04327 45.09880 49.38509
#
# Poissons Ratio (x) = 0.14367 0.29841
# Poissons Ratio (y) = 0.24862 0.23798
# Poissons Ratio (z) = 0.47158 0.21732
#
# Static dielectric constant tensor:
#      x y z
#    x 1.677540 0.000000 0.026840 
#    y 0.000000 1.684010 0.000000 
#    z 0.026840 0.000000 1.691810 
# 
# From -- ./inp_files/98198.got.cif
#   From: 2010.05.17/outbox.cif.g08.bks.cpg/sg12_50_cif.got.tgz:98198.got - 2010.06.03 13:09:07.
