data_PCOD9195764
_publ_section_title
;
Structure prediction by ZEFSAII (Michael W. Deem and Ramdas Pophale) SiO2 
 PCOD9195764
Probable space group: C 2/M
;
_chemical_formula_sum "Si O2"
_cell_formula_units_Z 60
_cell_length_a 18.317666
_cell_length_b 9.415630
_cell_length_c 19.031839
_cell_angle_alpha 90.000000
_cell_angle_beta 51.505221
_cell_angle_gamma 90.000000
_cell_volume 2569.071085
_symmetry_space_group_name_H-M "C 2/M"
_symmetry_group_IT_number 12
_symmetry_cell_setting 'monoclinic'
loop_
_space_group_symop_operation_xyz
x,y,z
-x,y,-z
-x,-y,-z
x,-y,z
1/2+x,1/2+y,z
1/2-x,1/2+y,-z
1/2-x,1/2-y,-z
1/2+x,1/2-y,z
loop_
_atom_site_type_symbol
_atom_site_label
_atom_site_fract_x
_atom_site_fract_y
_atom_site_fract_z
Si Si1 0.284552 0.000000 0.967600
Si Si2 0.978656 0.330705 0.214642
Si Si3 0.394504 0.330335 0.140705
Si Si4 0.657674 0.831984 0.579802
Si Si5 0.719015 0.663207 0.300072
Si Si6 0.678153 0.762515 0.960355
Si Si7 0.378794 0.657326 0.781315
Si Si8 0.082384 0.162643 0.506124
O O1 0.216464 0.878101 0.973662
O O2 0.349737 0.875862 0.965061
O O3 0.981403 0.500000 0.204630
O O4 0.967333 0.242546 0.149789
O O5 0.885416 0.301053 0.318048
O O6 0.061492 0.274287 0.214963
O O7 0.403653 0.500000 0.134817
O O8 0.294804 0.278389 0.232288
O O9 0.389291 0.273073 0.063897
O O10 0.750000 0.750000 0.500000
O O11 0.582720 0.774717 0.568091
O O12 0.672036 0.000000 0.565549
O O13 0.756051 0.500000 0.271112
O O14 0.634825 0.673878 0.293737
O O15 0.675406 0.678394 0.402870
O O16 0.772115 0.836674 0.872346
O O17 0.416695 0.500000 0.774606
O O18 0.000000 0.179832 0.500000
O O19 0.079926 0.000000 0.534822
#
# Coordination Sequence:
#
# PCOD9195764 Si02
#       8
#     4   8   8   8   8   8   8   8
#     4  10  20  38  66  96 128 148 186 232 280 336
#     4  11  25  39  57  81 117 158 197 245 293 347
#     4  11  22  37  58  86 115 148 195 236 281 332
#     4  11  24  40  56  80 111 153 202 248 299 351
#     4   9  19  34  56  82 111 146 191 242 289 345
#     4  10  21  38  65  98 120 154 191 232 277 338
#     4  10  20  37  60  88 120 154 195 235 289 341
#     4  10  20  35  55  80 110 146 189 240 297 351
#
# _framework density 23.354744
#
# number of rings (size 3 to 8) (size 9 to 14) (size 15 to 20)
#    0.000    1.733    1.333    2.800    2.800    7.733 
#    0.000    0.000    0.000    4.800    0.000    0.000 
#    0.000    0.000    0.000    0.000    0.000    0.000 
#
# Total GULP energy -167375.388377 kJ/mol
# GULP energy per Si atom -5579.179613 kJ/mol
# Density = 2.330159 g / cm^3
# Si number density = 23.354744 Si / 1000 Ang^3
#
#
#
# Elastic Constant Matrix: (Units=GPa)
#
#
# Indices 1 2 3 4 5 6 
#
# 1 122.5229 54.0183 22.2884 0.0000 22.1027 0.0000
# 2 54.0183 144.2914 34.0509 0.0000 30.9160 0.0000
# 3 22.2884 34.0509 85.9073 0.0000 17.8130 0.0000
# 4 0.0000 0.0000 0.0000 23.5115 0.0000 -2.2588
# 5 22.1027 30.9160 17.8130 0.0000 46.3131 0.0000
# 6 0.0000 0.0000 0.0000 -2.2588 0.0000 41.4386
#
#
#
# Elastic Compliance Matrix: (Units=1/GPa)
#
#
# Indices 1 2 3 4 5 6 
#
# 1 0.010111 -0.003048 -0.000909 0.000000 -0.002441 0.000000
# 2 -0.003048 0.009433 -0.002113 0.000000 -0.004030 0.000000
# 3 -0.000909 -0.002113 0.013400 0.000000 -0.003310 0.000000
# 4 0.000000 0.000000 0.000000 0.042756 0.000000 0.002331
# 5 -0.002441 -0.004030 -0.003310 0.000000 0.026721 0.000000
# 6 0.000000 0.000000 0.000000 0.002331 0.000000 0.024259
#
#
# Mechanical properties :
#
#
# Convention : Reuss Voigt Hill
#
# Bulk Modulus (GPa) = 48.06393 63.71521 55.88957
# Shear Modulus (GPa) = 34.30413 38.41023 36.35718
#
# Velocity S-wave (km/s) = 3.83669 4.05982 3.94983
# Velocity P-wave (km/s) = 6.34441 7.02260 6.69210
#
# Compressibility (1/GPa) = 0.02080562
#
# Stress axis : x y z
#
# Youngs Moduli (GPa) = 98.90000 106.00546 74.62683
#
# Poissons Ratio (x) = 0.32307 0.06784
# Poissons Ratio (y) = 0.30142 0.15767
# Poissons Ratio (z) = 0.08991 0.22396
#
# Static dielectric constant tensor:
#      x y z
#    x 1.918570 0.000000 -0.041520 
#    y 0.000000 1.778880 0.000000 
#    z -0.041520 0.000000 2.012760 
# 
# From -- ./inp_files/314820.got.cif
#   From: 2010.05.17/outbox.cif.g08.bks.cpg/sg12_158_cif.got.tgz:314820.got - 2010.06.03 13:09:07.
