data_PCOD9195403
_publ_section_title
;
Structure prediction by ZEFSAII (Michael W. Deem and Ramdas Pophale) SiO2 
 PCOD9195403
Probable space group: C 2/M
;
_chemical_formula_sum "Si O2"
_cell_formula_units_Z 60
_cell_length_a 18.402548
_cell_length_b 9.353083
_cell_length_c 19.214283
_cell_angle_alpha 90.000000
_cell_angle_beta 50.982040
_cell_angle_gamma 90.000000
_cell_volume 2569.503716
_symmetry_space_group_name_H-M "C 2/M"
_symmetry_group_IT_number 12
_symmetry_cell_setting 'monoclinic'
loop_
_space_group_symop_operation_xyz
x,y,z
-x,y,-z
-x,-y,-z
x,-y,z
1/2+x,1/2+y,z
1/2-x,1/2+y,-z
1/2-x,1/2-y,-z
1/2+x,1/2-y,z
loop_
_atom_site_type_symbol
_atom_site_label
_atom_site_fract_x
_atom_site_fract_y
_atom_site_fract_z
Si Si1 0.285606 0.000000 0.967121
Si Si2 0.978600 0.328187 0.212686
Si Si3 0.393422 0.328529 0.140280
Si Si4 0.663865 0.834323 0.584644
Si Si5 0.711449 0.667334 0.305635
Si Si6 0.678112 0.762111 0.960354
Si Si7 0.379629 0.658871 0.781276
Si Si8 0.098350 0.337717 0.478562
O O1 0.217751 0.877707 0.973158
O O2 0.350564 0.875708 0.964944
O O3 0.976780 0.500000 0.207460
O O4 0.968147 0.242608 0.147018
O O5 0.885761 0.287340 0.314805
O O6 0.062216 0.275687 0.212351
O O7 0.399050 0.500000 0.138146
O O8 0.294630 0.269371 0.230031
O O9 0.389573 0.275134 0.062628
O O10 0.750000 0.750000 0.500000
O O11 0.588809 0.824076 0.566987
O O12 0.690307 0.000000 0.576645
O O13 0.740113 0.500000 0.290843
O O14 0.631094 0.679365 0.294698
O O15 0.668547 0.723465 0.403101
O O16 0.772044 0.837347 0.872009
O O17 0.417639 0.500000 0.773502
O O18 0.134236 0.500000 0.443552
O O19 0.000000 0.323848 0.500000
#
# Coordination Sequence:
#
# PCOD9195403 Si02
#       8
#     4   8   8   8   8   8   8   8
#     4  10  20  38  66  98 126 148 190 234 284 338
#     4  11  24  38  59  84 117 157 199 248 292 349
#     4  11  22  38  59  86 117 152 194 234 288 339
#     4  10  22  38  54  78 108 149 197 243 297 349
#     4  10  21  35  56  83 112 147 195 249 291 344
#     4  10  21  38  66  97 121 155 192 236 279 343
#     4  10  21  38  58  86 122 156 195 237 292 343
#     4  10  20  35  54  76 107 145 191 245 300 350
#
# _framework density 23.350812999999999
#
# number of rings (size 3 to 8) (size 9 to 14) (size 15 to 20)
#    0.000    1.733    1.333    2.800    2.800    6.133 
#    0.000    0.000    0.000    4.800    0.000    0.000 
#    0.000    0.000    0.000    0.000    0.000    0.000 
#
# Total GULP energy -167284.992701 kJ/mol
# GULP energy per Si atom -5576.166423 kJ/mol
# Density = 2.329767 g / cm^3
# Si number density = 23.350813 Si / 1000 Ang^3
#
#
#
# Elastic Constant Matrix: (Units=GPa)
#
#
# Indices 1 2 3 4 5 6 
#
# 1 134.7111 51.9943 21.8150 0.0000 29.1219 0.0000
# 2 51.9943 136.7351 32.7994 0.0000 21.5234 0.0000
# 3 21.8150 32.7994 84.5911 0.0000 22.2041 0.0000
# 4 0.0000 0.0000 0.0000 6.2004 0.0000 -9.2015
# 5 29.1219 21.5234 22.2041 0.0000 42.9361 0.0000
# 6 0.0000 0.0000 0.0000 -9.2015 0.0000 35.4316
#
#
#
# Elastic Compliance Matrix: (Units=1/GPa)
#
#
# Indices 1 2 3 4 5 6 
#
# 1 0.009629 -0.002851 -0.000045 0.000000 -0.005079 0.000000
# 2 -0.002851 0.009211 -0.002467 0.000000 -0.001408 0.000000
# 3 -0.000045 -0.002467 0.014414 0.000000 -0.006187 0.000000
# 4 0.000000 0.000000 0.000000 0.262415 0.000000 0.068148
# 5 -0.005079 -0.001408 -0.006187 0.000000 0.030640 0.000000
# 6 0.000000 0.000000 0.000000 0.068148 0.000000 0.045921
#
#
# Mechanical properties :
#
#
# Convention : Reuss Voigt Hill
#
# Bulk Modulus (GPa) = 44.38844 63.25054 53.81949
# Shear Modulus (GPa) = 12.80527 33.54218 23.17373
#
# Velocity S-wave (km/s) = 2.34431 3.79416 3.15368
# Velocity P-wave (km/s) = 5.13598 6.80735 6.02986
#
# Compressibility (1/GPa) = 0.02252839
#
# Stress axis : x y z
#
# Youngs Moduli (GPa) = 103.85383 108.56668 69.37932
#
# Poissons Ratio (x) = 0.30956 0.00309
# Poissons Ratio (y) = 0.29612 0.17113
# Poissons Ratio (z) = 0.00463 0.26779
#
# Static dielectric constant tensor:
#      x y z
#    x 1.906810 0.000000 -0.012270 
#    y 0.000000 1.803530 0.000000 
#    z -0.012270 0.000000 1.975500 
# 
# From -- ./inp_files/314819.got.cif
#   From: 2010.05.17/outbox.cif.g08.bks.cpg/sg12_158_cif.got.tgz:314819.got - 2010.06.03 13:09:07.
