data_PCOD9195308
_publ_section_title
;
Structure prediction by ZEFSAII (Michael W. Deem and Ramdas Pophale) SiO2 
 PCOD9195308
Probable space group: C 2/M
;
_chemical_formula_sum "Si O2"
_cell_formula_units_Z 56
_cell_length_a 27.265603
_cell_length_b 9.676762
_cell_length_c 19.066547
_cell_angle_alpha 90.000000
_cell_angle_beta 36.853135
_cell_angle_gamma 90.000000
_cell_volume 3017.164590
_symmetry_space_group_name_H-M "C 2/M"
_symmetry_group_IT_number 12
_symmetry_cell_setting 'monoclinic'
loop_
_space_group_symop_operation_xyz
x,y,z
-x,y,-z
-x,-y,-z
x,-y,z
1/2+x,1/2+y,z
1/2-x,1/2+y,-z
1/2-x,1/2-y,-z
1/2+x,1/2-y,z
loop_
_atom_site_type_symbol
_atom_site_label
_atom_site_fract_x
_atom_site_fract_y
_atom_site_fract_z
Si Si1 0.321939 0.161401 0.952299
Si Si2 0.286545 0.663213 0.391969
Si Si3 0.375196 0.340791 0.661192
Si Si4 0.457893 0.154753 0.680412
Si Si5 0.135603 0.655188 0.460586
Si Si6 0.095049 0.166169 0.868311
Si Si7 0.817944 0.338782 0.110429
O O1 0.397341 0.169589 0.813854
O O2 0.296072 0.000000 0.987562
O O3 0.250000 0.250000 0.000000
O O4 0.350386 0.205859 0.997172
O O5 0.294527 0.500000 0.402485
O O6 0.250000 0.750000 0.500000
O O7 0.214496 0.675801 0.417046
O O8 0.368630 0.702303 0.251814
O O9 0.397896 0.500000 0.630390
O O10 0.432039 0.262888 0.651167
O O11 0.375938 0.265374 0.586457
O O12 0.279545 0.330745 0.790587
O O13 0.550875 0.164429 0.599548
O O14 0.447492 0.000000 0.661879
O O15 0.141072 0.500000 0.423746
O O16 0.150389 0.245259 0.862471
O O17 0.105738 0.000000 0.861810
O O18 0.000000 0.195930 0.000000
O O19 0.838341 0.500000 0.101373
#
# Coordination Sequence:
#
# PCOD9195308 Si02
#       7
#     8   8   8   8   8   8   8
#     4  10  20  35  53  78 112 149 188 231 276 329
#     4  10  22  40  63  88 116 151 192 241 294 349
#     4  11  21  34  55  84 115 147 187 233 279 327
#     4  10  21  35  55  81 113 153 194 230 273 334
#     4  10  21  38  57  81 111 150 194 231 276 340
#     4  10  22  41  64  90 117 148 192 242 293 352
#     4  10  21  36  57  85 114 147 188 231 279 338
#
# _framework density 18.560472000000001
#
# number of rings (size 3 to 8) (size 9 to 14) (size 15 to 20)
#    0.000    1.857    2.857    0.857    0.000    6.000 
#    0.000    1.429    0.000    0.000    0.000    0.000 
#    0.000    0.000    0.000    0.000    0.000    0.000 
#
# Total GULP energy -155997.073930 kJ/mol
# GULP energy per Si atom -5571.324069 kJ/mol
# Density = 1.851823 g / cm^3
# Si number density = 18.560472 Si / 1000 Ang^3
#
#
#
# Elastic Constant Matrix: (Units=GPa)
#
#
# Indices 1 2 3 4 5 6 
#
# 1 37.3682 27.9291 29.5101 0.0008 5.9221 -0.0004
# 2 27.9291 63.9897 51.4824 0.0003 11.0121 0.0001
# 3 29.5101 51.4824 100.0967 0.0011 3.4308 -0.0006
# 4 0.0008 0.0003 0.0011 25.6335 -0.0004 6.2003
# 5 5.9221 11.0121 3.4308 -0.0004 33.0814 0.0002
# 6 -0.0004 0.0001 -0.0006 6.2003 0.0002 27.1818
#
#
#
# Elastic Compliance Matrix: (Units=1/GPa)
#
#
# Indices 1 2 3 4 5 6 
#
# 1 0.041268 -0.013443 -0.005171 -0.000001 -0.002377 0.000001
# 2 -0.013443 0.033018 -0.012770 0.000001 -0.007260 -0.000001
# 3 -0.005171 -0.012770 0.017969 -0.000001 0.003313 0.000000
# 4 -0.000001 0.000001 -0.000001 0.041290 0.000001 -0.009418
# 5 -0.002377 -0.007260 0.003313 0.000001 0.032727 0.000000
# 6 0.000001 -0.000001 0.000000 -0.009418 0.000000 0.038938
#
#
# Mechanical properties :
#
#
# Convention : Reuss Voigt Hill
#
# Bulk Modulus (GPa) = 33.91227 46.58864 40.25045
# Shear Modulus (GPa) = 17.99804 23.34818 20.67311
#
# Velocity S-wave (km/s) = 3.11737 3.55061 3.34102
# Velocity P-wave (km/s) = 5.59180 6.47801 6.05115
#
# Compressibility (1/GPa) = 0.02948785
#
# Stress axis : x y z
#
# Youngs Moduli (GPa) = 24.23176 30.28614 55.64999
#
# Poissons Ratio (x) = 0.40712 0.28778
# Poissons Ratio (y) = 0.32574 0.71067
# Poissons Ratio (z) = 0.12531 0.38676
#
# Static dielectric constant tensor:
#      x y z
#    x 1.589940 0.000000 -0.012780 
#    y 0.000000 1.643880 0.000000 
#    z -0.012780 0.000000 1.755720 
# 
# From -- ./inp_files/288394.got.cif
#   From: 2010.05.17/outbox.cif.g08.bks.cpg/sg12_145_cif.got.tgz:288394.got - 2010.06.03 13:09:07.
