data_PCOD9195647
_publ_section_title
;
Structure prediction by ZEFSAII (Michael W. Deem and Ramdas Pophale) SiO2 
 PCOD9195647
Probable space group: C 2/M
;
_chemical_formula_sum "Si O2"
_cell_formula_units_Z 56
_cell_length_a 26.996601
_cell_length_b 11.485964
_cell_length_c 12.057698
_cell_angle_alpha 90.000000
_cell_angle_beta 51.652062
_cell_angle_gamma 90.000000
_cell_volume 2932.240883
_symmetry_space_group_name_H-M "C 2/M"
_symmetry_group_IT_number 12
_symmetry_cell_setting 'monoclinic'
loop_
_space_group_symop_operation_xyz
x,y,z
-x,y,-z
-x,-y,-z
x,-y,z
1/2+x,1/2+y,z
1/2-x,1/2+y,-z
1/2-x,1/2-y,-z
1/2+x,1/2-y,z
loop_
_atom_site_type_symbol
_atom_site_label
_atom_site_fract_x
_atom_site_fract_y
_atom_site_fract_z
Si Si1 0.619171 0.360519 0.679901
Si Si2 0.212103 0.729824 0.939571
Si Si3 0.184058 0.865980 0.368313
Si Si4 0.085800 0.373167 0.194555
Si Si5 0.874306 0.130841 0.082185
Si Si6 0.929988 0.868681 0.647721
Si Si7 0.494603 0.794776 0.884804
O O1 0.604498 0.500000 0.684758
O O2 0.663825 0.321925 0.517295
O O3 0.649821 0.347647 0.759062
O O4 0.556201 0.281533 0.769846
O O5 0.260542 0.693455 0.777018
O O6 0.176424 0.842176 0.941178
O O7 0.250000 0.750000 0.000000
O O8 0.154871 0.639794 0.041387
O O9 0.121731 0.862700 0.377791
O O10 0.202905 0.000000 0.356479
O O11 0.084198 0.500000 0.255724
O O12 0.078728 0.250288 0.270105
O O13 0.029418 0.372390 0.182930
O O14 0.895881 0.000000 0.047105
O O15 0.935649 0.207999 0.980253
O O16 0.000000 0.866119 0.500000
O O17 0.922431 0.000000 0.711157
O O18 0.500000 0.850674 0.000000
#
# Coordination Sequence:
#
# PCOD9195647 Si02
#       7
#     8   8   8   8   8   8   8
#     4   9  17  33  58  87 113 141 185 244 302 349
#     4  11  22  38  53  76 111 159 201 240 285 347
#     4  10  20  35  55  78 109 147 191 242 292 345
#     4  11  23  37  56  84 117 153 195 241 292 348
#     4   9  19  33  56  86 113 145 189 245 298 343
#     4  10  21  38  60  86 112 147 193 238 292 353
#     4   9  18  34  56  83 115 148 185 232 291 358
#
# _framework density 19.098020999999999
#
# number of rings (size 3 to 8) (size 9 to 14) (size 15 to 20)
#    0.000    2.143    1.429    1.714    0.000    8.000 
#    0.000    0.000    0.000    0.857    0.000    0.000 
#    0.000    0.000    0.000    0.000    0.000    0.000 
#
# Total GULP energy -155944.139772 kJ/mol
# GULP energy per Si atom -5569.433563 kJ/mol
# Density = 1.905455 g / cm^3
# Si number density = 19.098021 Si / 1000 Ang^3
#
#
#
# Elastic Constant Matrix: (Units=GPa)
#
#
# Indices 1 2 3 4 5 6 
#
# 1 67.3073 12.2516 6.1993 0.0000 8.6228 0.0000
# 2 12.2516 95.8478 33.7223 0.0000 11.5301 0.0000
# 3 6.1993 33.7223 96.4176 0.0000 3.2981 0.0000
# 4 0.0000 0.0000 0.0000 13.0050 0.0000 10.8599
# 5 8.6228 11.5301 3.2981 0.0000 29.3304 0.0000
# 6 0.0000 0.0000 0.0000 10.8599 0.0000 9.2418
#
#
#
# Elastic Compliance Matrix: (Units=1/GPa)
#
#
# Indices 1 2 3 4 5 6 
#
# 1 0.015659 -0.001383 -0.000386 0.000000 -0.004017 0.000000
# 2 -0.001383 0.012565 -0.004167 0.000000 -0.004064 0.000000
# 3 -0.000386 -0.004167 0.011839 0.000000 0.000420 0.000000
# 4 0.000000 0.000000 0.000000 4.101168 0.000000 -4.819196
# 5 -0.004017 -0.004064 0.000420 0.000000 0.036826 0.000000
# 6 0.000000 0.000000 0.000000 -4.819196 0.000000 5.771138
#
#
# Mechanical properties :
#
#
# Convention : Reuss Voigt Hill
#
# Bulk Modulus (GPa) = 35.47000 40.43548 37.95274
# Shear Modulus (GPa) = 0.50148 24.14209 12.32178
#
# Velocity S-wave (km/s) = 0.51298 3.55930 2.54281
# Velocity P-wave (km/s) = 4.35474 6.17333 5.34199
#
# Compressibility (1/GPa) = 0.02819284
#
# Stress axis : x y z
#
# Youngs Moduli (GPa) = 63.86098 79.58725 84.46458
#
# Poissons Ratio (x) = 0.11004 0.03259
# Poissons Ratio (y) = 0.08830 0.35193
# Poissons Ratio (z) = 0.02464 0.33161
#
# Static dielectric constant tensor:
#      x y z
#    x 1.670400 0.000000 0.038900 
#    y 0.000000 1.686460 0.000000 
#    z 0.038900 0.000000 1.693120 
# 
# From -- ./inp_files/182453.got.cif
#   From: 2010.05.17/outbox.cif.g08.bks.cpg/sg12_92_cif.got.tgz:182453.got - 2010.06.03 13:09:07.
