data_PCOD9195321
_publ_section_title
;
Structure prediction by ZEFSAII (Michael W. Deem and Ramdas Pophale) SiO2 
 PCOD9195321
Probable space group: C 2/M
;
_chemical_formula_sum "Si O2"
_cell_formula_units_Z 64
_cell_length_a 9.188867
_cell_length_b 25.399672
_cell_length_c 18.026625
_cell_angle_alpha 90.000000
_cell_angle_beta 119.727515
_cell_angle_gamma 90.000000
_cell_volume 3653.600459
_symmetry_space_group_name_H-M "C 2/M"
_symmetry_group_IT_number 12
_symmetry_cell_setting 'monoclinic'
loop_
_space_group_symop_operation_xyz
x,y,z
-x,y,-z
-x,-y,-z
x,-y,z
1/2+x,1/2+y,z
1/2-x,1/2+y,-z
1/2-x,1/2-y,-z
1/2+x,1/2-y,z
loop_
_atom_site_type_symbol
_atom_site_label
_atom_site_fract_x
_atom_site_fract_y
_atom_site_fract_z
Si Si1 0.165866 0.436655 0.499311
Si Si2 0.166240 0.058771 0.091053
Si Si3 0.483638 0.631794 0.823969
Si Si4 0.340775 0.166506 0.908900
Si Si5 0.353928 0.291006 0.900293
Si Si6 0.844486 0.437304 0.675487
Si Si7 0.945000 0.372289 0.160937
Si Si8 0.003479 0.937161 0.321034
O O1 0.152165 0.500000 0.495005
O O2 0.175199 0.421428 0.415435
O O3 0.337021 0.425582 0.586328
O O4 0.000000 0.416259 0.500000
O O5 0.328109 0.083488 0.093367
O O6 0.122577 0.093610 0.150792
O O7 0.202343 0.000000 0.122881
O O8 0.000000 0.060066 0.000000
O O9 0.677127 0.637249 0.895360
O O10 0.414154 0.688976 0.833997
O O11 0.484659 0.604552 0.743687
O O12 0.318679 0.229306 0.897969
O O13 0.392526 0.144259 0.842733
O O14 0.500000 0.157030 0.000000
O O15 0.181274 0.322626 0.869750
O O16 0.500000 0.303365 0.000000
O O17 0.888589 0.500000 0.690270
O O18 0.669407 0.431785 0.676305
O O19 0.986559 0.400613 0.748039
O O20 0.012889 0.000000 0.300149
#
# Coordination Sequence:
#
# PCOD9195321 Si02
#       8
#     8   8   8   8   8   8   8   8
#     4   9  19  33  55  83 108 139 176 214 258 314
#     4  10  21  35  49  70 107 152 186 215 260 321
#     4  11  20  34  54  80 106 142 182 223 274 325
#     4  11  21  36  56  80 106 136 186 243 281 316
#     4  10  22  37  55  77 106 143 183 236 290 320
#     4  10  20  35  53  79 114 145 174 214 264 319
#     4  11  20  34  54  80 106 142 182 223 274 325
#     4  10  20  35  53  79 114 145 174 214 264 319
#
# _framework density 17.516967000000001
#
# number of rings (size 3 to 8) (size 9 to 14) (size 15 to 20)
#    0.000    1.750    1.250    4.875    3.500    3.500 
#    0.000    0.000    0.000    3.000    0.000    5.250 
#    0.000    0.000    0.000    0.000    0.000    0.000 
#
# Total GULP energy -178182.964021 kJ/mol
# GULP energy per Si atom -5568.217626 kJ/mol
# Density = 1.747710 g / cm^3
# Si number density = 17.516967 Si / 1000 Ang^3
#
#
#
# Elastic Constant Matrix: (Units=GPa)
#
#
# Indices 1 2 3 4 5 6 
#
# 1 72.5467 19.5802 17.9852 0.0000 6.3770 0.0000
# 2 19.5802 61.5651 36.0194 0.0000 5.3692 0.0000
# 3 17.9852 36.0194 89.4158 0.0000 1.2141 0.0000
# 4 0.0000 0.0000 0.0000 16.0765 0.0000 -1.8224
# 5 6.3770 5.3692 1.2141 0.0000 29.8999 0.0000
# 6 0.0000 0.0000 0.0000 -1.8224 0.0000 -0.0253
#
#
#
# Elastic Compliance Matrix: (Units=1/GPa)
#
#
# Indices 1 2 3 4 5 6 
#
# 1 0.015410 -0.003776 -0.001544 0.000000 -0.002546 0.000000
# 2 -0.003776 0.022543 -0.008282 0.000000 -0.002907 0.000000
# 3 -0.001544 -0.008282 0.014814 0.000000 0.001215 0.000000
# 4 0.000000 0.000000 0.000000 0.006795 0.000000 -0.488783
# 5 -0.002546 -0.002907 0.001215 0.000000 0.034461 0.000000
# 6 0.000000 0.000000 0.000000 -0.488783 0.000000 -4.311877
#
#
# Mechanical properties :
#
#
# Convention : Reuss Voigt Hill
#
# Bulk Modulus (GPa) = 39.11855 41.18858 40.15356
# Shear Modulus (GPa) = -1.19556 19.18641 8.99542
#
# Velocity S-wave (km/s) = -0.82704 3.31313 2.26857
# Velocity P-wave (km/s) = 4.63339 6.18064 5.46208
#
# Compressibility (1/GPa) = 0.02556332
#
# Stress axis : x y z
#
# Youngs Moduli (GPa) = 64.89374 44.36022 67.50357
#
# Poissons Ratio (x) = 0.16748 0.10423
# Poissons Ratio (y) = 0.24501 0.55907
# Poissons Ratio (z) = 0.10020 0.36739
#
# Static dielectric constant tensor:
#      x y z
#    x 1.647390 0.000000 -0.029420 
#    y 0.000000 1.607080 0.000000 
#    z -0.029420 0.000000 1.615510 
# 
# From -- ./inp_files/199892.got.cif
#   From: 2010.05.17/outbox.cif.g08.bks.cpg/sg12_100_cif.got.tgz:199892.got - 2010.06.03 13:09:07.
