data_PCOD9195604
_publ_section_title
;
Structure prediction by ZEFSAII (Michael W. Deem and Ramdas Pophale) SiO2 
 PCOD9195604
Probable space group: C 2/M
;
_chemical_formula_sum "Si O2"
_cell_formula_units_Z 48
_cell_length_a 15.012344
_cell_length_b 7.611864
_cell_length_c 16.438423
_cell_angle_alpha 90.000000
_cell_angle_beta 77.228704
_cell_angle_gamma 90.000000
_cell_volume 1831.977734
_symmetry_space_group_name_H-M "C 2/M"
_symmetry_group_IT_number 12
_symmetry_cell_setting 'monoclinic'
loop_
_space_group_symop_operation_xyz
x,y,z
-x,y,-z
-x,-y,-z
x,-y,z
1/2+x,1/2+y,z
1/2-x,1/2+y,-z
1/2-x,1/2-y,-z
1/2+x,1/2-y,z
loop_
_atom_site_type_symbol
_atom_site_label
_atom_site_fract_x
_atom_site_fract_y
_atom_site_fract_z
Si Si1 0.614585 0.711328 0.807814
Si Si2 0.546140 0.708886 0.572212
Si Si3 0.779747 0.301498 0.376356
Si Si4 0.621536 0.284952 0.298686
Si Si5 0.942437 0.710463 0.935950
Si Si6 0.728702 0.202907 0.114241
O O1 0.624708 0.500000 0.799529
O O2 0.657984 0.790153 0.718057
O O3 0.510100 0.752705 0.847101
O O4 0.675865 0.779124 0.872219
O O5 0.500000 0.781120 0.500000
O O6 0.534228 0.500000 0.572247
O O7 0.652677 0.736301 0.567412
O O8 0.481125 0.768420 0.659400
O O9 0.758343 0.500000 0.402018
O O10 0.685026 0.224857 0.362118
O O11 0.627074 0.500000 0.291043
O O12 0.666752 0.210510 0.208737
O O13 0.934616 0.500000 0.946555
O O14 0.840475 0.780264 0.938983
O O15 0.000000 0.784335 0.000000
O O16 0.744482 0.000000 0.091173
#
# Coordination Sequence:
#
# PCOD9195604 Si02
#       6
#     8   8   8   8   8   8
#     4  10  20  35  55  78 103 133 173 217 259 306
#     4  10  21  36  53  76 108 142 173 210 259 310
#     4  10  20  35  55  78 103 133 173 217 259 306
#     4   9  19  35  54  76 102 134 172 214 259 307
#     4  10  21  36  53  76 108 142 173 210 259 310
#     4   9  19  35  54  76 102 134 172 214 259 307
#
# _framework density 26.201194999999998
#
# number of rings (size 3 to 8) (size 9 to 14) (size 15 to 20)
#    0.000    2.333    0.000    2.000    0.000    7.333 
#    0.000    0.000    0.000    0.000    0.000    0.000 
#    0.000    0.000    0.000    0.000    0.000    0.000 
#
# Total GULP energy -134181.163556 kJ/mol
# GULP energy per Si atom -5590.881815 kJ/mol
# Density = 2.614156 g / cm^3
# Si number density = 26.201195 Si / 1000 Ang^3
#
#
#
# Elastic Constant Matrix: (Units=GPa)
#
#
# Indices 1 2 3 4 5 6 
#
# 1 170.1486 5.2491 14.4400 0.0000 19.2352 0.0000
# 2 5.2491 74.4039 7.8592 0.0000 0.4615 0.0000
# 3 14.4400 7.8592 76.5767 0.0000 21.8452 0.0000
# 4 0.0000 0.0000 0.0000 22.9478 0.0000 2.9005
# 5 19.2352 0.4615 21.8452 0.0000 49.8116 0.0000
# 6 0.0000 0.0000 0.0000 2.9005 0.0000 14.0235
#
#
#
# Elastic Compliance Matrix: (Units=1/GPa)
#
#
# Indices 1 2 3 4 5 6 
#
# 1 0.006176 -0.000368 -0.000511 0.000000 -0.002157 0.000000
# 2 -0.000368 0.013623 -0.001524 0.000000 0.000684 0.000000
# 3 -0.000511 -0.001524 0.015146 0.000000 -0.006431 0.000000
# 4 0.000000 0.000000 0.000000 0.044747 0.000000 -0.009255
# 5 -0.002157 0.000684 -0.006431 0.000000 0.023723 0.000000
# 6 0.000000 0.000000 0.000000 -0.009255 0.000000 0.073223
#
#
# Mechanical properties :
#
#
# Convention : Reuss Voigt Hill
#
# Bulk Modulus (GPa) = 33.18104 41.80286 37.49195
# Shear Modulus (GPa) = 26.11091 36.92864 31.51977
#
# Velocity S-wave (km/s) = 3.16025 3.75830 3.47218
# Velocity P-wave (km/s) = 5.09977 5.90105 5.51498
#
# Compressibility (1/GPa) = 0.03013769
#
# Stress axis : x y z
#
# Youngs Moduli (GPa) = 161.92119 73.40602 66.02320
#
# Poissons Ratio (x) = 0.02704 0.03376
# Poissons Ratio (y) = 0.05964 0.10061
# Poissons Ratio (z) = 0.08280 0.11186
#
# Static dielectric constant tensor:
#      x y z
#    x 2.044020 0.000000 0.066780 
#    y 0.000000 1.957020 0.000000 
#    z 0.066780 0.000000 2.141020 
# 
# From -- ./inp_files/267631.got.cif
#   From: 2010.05.17/outbox.cif.g08.bks.cpg/sg12_134_cif.got.tgz:267631.got - 2010.06.03 13:09:07.
