data_PCOD9195092
_publ_section_title
;
Structure prediction by ZEFSAII (Michael W. Deem and Ramdas Pophale) SiO2 
 PCOD9195092
Probable space group: C 2/M
;
_chemical_formula_sum "Si O2"
_cell_formula_units_Z 58
_cell_length_a 30.016318
_cell_length_b 8.144316
_cell_length_c 27.278421
_cell_angle_alpha 90.000000
_cell_angle_beta 23.105748
_cell_angle_gamma 90.000000
_cell_volume 2616.934120
_symmetry_space_group_name_H-M "C 2/M"
_symmetry_group_IT_number 12
_symmetry_cell_setting 'monoclinic'
loop_
_space_group_symop_operation_xyz
x,y,z
-x,y,-z
-x,-y,-z
x,-y,z
1/2+x,1/2+y,z
1/2-x,1/2+y,-z
1/2-x,1/2-y,-z
1/2+x,1/2-y,z
loop_
_atom_site_type_symbol
_atom_site_label
_atom_site_fract_x
_atom_site_fract_y
_atom_site_fract_z
Si Si1 0.090131 0.191737 0.645131
Si Si2 0.000000 0.000000 0.000000
Si Si3 0.347905 0.184929 0.866314
Si Si4 0.208626 0.185683 0.727909
Si Si5 0.377576 0.813855 0.086825
Si Si6 0.978237 0.690680 0.466093
Si Si7 0.197246 0.306877 0.633387
Si Si8 0.815448 0.184866 0.798447
O O1 0.109979 0.278370 0.677260
O O2 0.182830 0.252787 0.511573
O O3 0.963615 0.213798 0.754212
O O4 0.115694 0.000000 0.626912
O O5 0.956201 0.847398 0.006278
O O6 0.303447 0.195863 0.856049
O O7 0.377640 0.000000 0.849502
O O8 0.250000 0.250000 0.000000
O O9 0.170295 0.307603 0.809130
O O10 0.345495 0.194519 0.588375
O O11 0.169441 0.218381 0.712449
O O12 0.172498 0.000000 0.782372
O O13 0.273194 0.787068 0.155450
O O14 0.422935 0.000000 0.031295
O O15 0.015841 0.500000 0.424167
O O16 0.057998 0.795021 0.350583
O O17 0.000000 0.742687 0.500000
O O18 0.206655 0.500000 0.634907
O O19 0.797968 0.000000 0.834515
#
# Coordination Sequence:
#
# PCOD9195092 Si02
#       8
#     8   2   8   8   8   8   8   8
#     4  10  21  41  65  93 128 168 216 269 335 397
#     4  12  26  48  72  88 132 172 226 276 332 380
#     4  12  26  45  69  94 128 168 220 276 332 396
#     4  11  21  37  61  96 135 173 215 267 327 395
#     4  11  25  45  69  97 130 172 224 276 329 399
#     4  10  20  34  61  96 136 175 214 256 319 399
#     4  10  21  37  62  94 132 171 215 268 328 402
#     4  11  24  42  67  98 134 171 216 268 330 398
#
# _framework density 22.163340000000002
#
# number of rings (size 3 to 8) (size 9 to 14) (size 15 to 20)
#    0.000    1.241    2.069    3.931    1.931    5.241 
#    2.483    0.000    0.000    0.000    0.000    0.000 
#    0.000    0.000    0.000    0.000    0.000    0.000 
#
# Total GULP energy -161934.854974 kJ/mol
# GULP energy per Si atom -5583.960516 kJ/mol
# Density = 2.211290 g / cm^3
# Si number density = 22.163340 Si / 1000 Ang^3
#
#
#
# Elastic Constant Matrix: (Units=GPa)
#
#
# Indices 1 2 3 4 5 6 
#
# 1 101.2258 14.4653 31.0550 0.0009 12.5873 0.0022
# 2 14.4653 95.0147 20.4530 -0.0156 -1.8732 0.0095
# 3 31.0550 20.4530 45.7312 0.0013 -2.3754 -0.0038
# 4 0.0009 -0.0156 0.0013 33.7670 0.0034 -0.2486
# 5 12.5873 -1.8732 -2.3754 0.0034 37.5498 -0.0005
# 6 0.0022 0.0095 -0.0038 -0.2486 -0.0005 33.8962
#
#
#
# Elastic Compliance Matrix: (Units=1/GPa)
#
#
# Indices 1 2 3 4 5 6 
#
# 1 0.013380 -0.000138 -0.009288 0.000000 -0.005080 -0.000002
# 2 -0.000138 0.011650 -0.005101 0.000006 0.000305 -0.000004
# 3 -0.009288 -0.005101 0.030705 -0.000004 0.004801 0.000005
# 4 0.000000 0.000006 -0.000004 0.029616 -0.000003 0.000217
# 5 -0.005080 0.000305 0.004801 -0.000003 0.028653 0.000001
# 6 -0.000002 -0.000004 0.000005 0.000217 0.000001 0.029503
#
#
# Mechanical properties :
#
#
# Convention : Reuss Voigt Hill
#
# Bulk Modulus (GPa) = 37.47995 41.54647 39.51321
# Shear Modulus (GPa) = 27.55517 32.77583 30.16550
#
# Velocity S-wave (km/s) = 3.52984 3.84973 3.69325
# Velocity P-wave (km/s) = 5.79314 6.20861 6.00447
#
# Compressibility (1/GPa) = 0.02668093
#
# Stress axis : x y z
#
# Youngs Moduli (GPa) = 74.74008 85.83914 32.56799
#
# Poissons Ratio (x) = 0.01182 0.30249
# Poissons Ratio (y) = 0.01029 0.16613
# Poissons Ratio (z) = 0.69419 0.43786
#
# Static dielectric constant tensor:
#      x y z
#    x 1.761380 0.000000 -0.010740 
#    y 0.000000 1.802950 0.000000 
#    z -0.010740 0.000000 1.710530 
# 
# From -- ./inp_files/351448.got.cif
#   From: 2010.05.17/outbox.cif.g08.bks.cpg/sg12_176_cif.got.tgz:351448.got - 2010.06.03 13:09:07.
