data_PCOD9195438
_publ_section_title
;
Structure prediction by ZEFSAII (Michael W. Deem and Ramdas Pophale) SiO2 
 PCOD9195438
Probable space group: C 2/M
;
_chemical_formula_sum "Si O2"
_cell_formula_units_Z 64
_cell_length_a 19.263943
_cell_length_b 7.531071
_cell_length_c 31.017105
_cell_angle_alpha 90.000000
_cell_angle_beta 142.740347
_cell_angle_gamma 90.000000
_cell_volume 2724.367883
_symmetry_space_group_name_H-M "C 2/M"
_symmetry_group_IT_number 12
_symmetry_cell_setting 'monoclinic'
loop_
_space_group_symop_operation_xyz
x,y,z
-x,y,-z
-x,-y,-z
x,-y,z
1/2+x,1/2+y,z
1/2-x,1/2+y,-z
1/2-x,1/2-y,-z
1/2+x,1/2-y,z
loop_
_atom_site_type_symbol
_atom_site_label
_atom_site_fract_x
_atom_site_fract_y
_atom_site_fract_z
Si Si1 0.241475 0.297199 0.432576
Si Si2 0.570603 0.716697 0.098886
Si Si3 0.874588 0.217163 0.778957
Si Si4 0.024363 0.214748 0.418026
Si Si5 0.827830 0.708832 0.382824
Si Si6 0.517592 0.701196 0.693902
Si Si7 0.330055 0.285947 0.942830
Si Si8 0.925317 0.791517 0.185153
O O1 0.215886 0.500000 0.431725
O O2 0.344345 0.223520 0.512823
O O3 0.296802 0.297864 0.412266
O O4 0.121029 0.197776 0.371198
O O5 0.572323 0.500000 0.099539
O O6 0.616220 0.778105 0.167341
O O7 0.642820 0.773438 0.092790
O O8 0.438566 0.770282 0.025141
O O9 0.760897 0.271921 0.697616
O O10 0.982786 0.277530 0.803632
O O11 0.875799 0.000000 0.780914
O O12 0.964058 0.282322 0.344427
O O13 0.952625 0.264229 0.424541
O O14 0.029007 0.000000 0.417966
O O15 0.809396 0.500000 0.380804
O O16 0.563342 0.500000 0.714745
O O17 0.562372 0.786153 0.760326
O O18 0.329500 0.500000 0.942637
O O19 0.204760 0.225586 0.894501
O O20 0.953413 0.000000 0.203854
#
# Coordination Sequence:
#
# PCOD9195438 Si02
#       8
#     8   8   8   8   8   8   8   8
#     4  11  22  38  59  81 110 145 183 230 281 329
#     4   8  16  33  55  79 109 142 175 219 265 309
#     4   9  18  34  54  76 106 144 182 218 264 319
#     4  10  23  39  56  81 112 145 181 231 286 327
#     4  11  22  37  58  83 110 146 188 227 273 333
#     4  10  21  39  58  79 112 148 184 226 278 332
#     4   9  18  33  56  83 108 138 178 220 264 312
#     4  10  20  35  54  77 109 145 175 216 271 321
#
# _framework density 23.491689000000001
#
# number of rings (size 3 to 8) (size 9 to 14) (size 15 to 20)
#    0.000    2.250    1.250    2.250    1.750    4.000 
#    0.000    1.250    0.000    2.250    0.000    0.000 
#    0.000    0.000    0.000    0.000    0.000    0.000 
#
# Total GULP energy -178875.057148 kJ/mol
# GULP energy per Si atom -5589.845536 kJ/mol
# Density = 2.343822 g / cm^3
# Si number density = 23.491689 Si / 1000 Ang^3
#
#
#
# Elastic Constant Matrix: (Units=GPa)
#
#
# Indices 1 2 3 4 5 6 
#
# 1 58.2231 -0.0067 2.1777 0.0001 0.0415 0.0001
# 2 -0.0067 69.3583 2.1373 0.0004 -8.7552 -0.0004
# 3 2.1777 2.1373 69.7856 -0.0001 -3.3455 0.0002
# 4 0.0001 0.0004 -0.0001 12.2405 0.0000 8.7325
# 5 0.0415 -8.7552 -3.3455 0.0000 45.9316 0.0002
# 6 0.0001 -0.0004 0.0002 8.7325 0.0002 13.8373
#
#
#
# Elastic Compliance Matrix: (Units=1/GPa)
#
#
# Indices 1 2 3 4 5 6 
#
# 1 0.017196 0.000012 -0.000539 0.000000 -0.000053 0.000000
# 2 0.000012 0.014780 -0.000319 -0.000001 0.002794 0.000001
# 3 -0.000539 -0.000319 0.014404 0.000001 0.000989 -0.000001
# 4 0.000000 -0.000001 0.000001 0.148598 0.000000 -0.093778
# 5 -0.000053 0.002794 0.000989 0.000000 0.022376 0.000000
# 6 0.000000 0.000001 -0.000001 -0.093778 0.000000 0.131451
#
#
# Mechanical properties :
#
#
# Convention : Reuss Voigt Hill
#
# Bulk Modulus (GPa) = 22.37853 22.88708 22.63280
# Shear Modulus (GPa) = 13.68387 27.27247 20.47817
#
# Velocity S-wave (km/s) = 2.41612 3.41096 2.95569
# Velocity P-wave (km/s) = 4.16297 5.02758 4.61557
#
# Compressibility (1/GPa) = 0.04468569
#
# Stress axis : x y z
#
# Youngs Moduli (GPa) = 58.15465 67.65706 69.42708
#
# Poissons Ratio (x) = -0.00079 0.03745
# Poissons Ratio (y) = -0.00068 0.02215
# Poissons Ratio (z) = 0.03137 0.02159
#
# Static dielectric constant tensor:
#      x y z
#    x 1.864220 0.000000 -0.031060 
#    y 0.000000 1.899140 0.000000 
#    z -0.031060 0.000000 1.865060 
# 
# From -- ./inp_files/378378.got.cif
#   From: 2010.05.17/outbox.cif.g08.bks.cpg/sg12_190_cif.got.tgz:378378.got - 2010.06.03 13:09:07.
