data_PCOD9195212
_publ_section_title
;
Structure prediction by ZEFSAII (Michael W. Deem and Ramdas Pophale) SiO2 
 PCOD9195212
Probable space group: C 2/M
;
_chemical_formula_sum "Si O2"
_cell_formula_units_Z 64
_cell_length_a 16.003375
_cell_length_b 14.534643
_cell_length_c 16.142036
_cell_angle_alpha 90.000000
_cell_angle_beta 58.638986
_cell_angle_gamma 90.000000
_cell_volume 3206.150290
_symmetry_space_group_name_H-M "C 2/M"
_symmetry_group_IT_number 12
_symmetry_cell_setting 'monoclinic'
loop_
_space_group_symop_operation_xyz
x,y,z
-x,y,-z
-x,-y,-z
x,-y,z
1/2+x,1/2+y,z
1/2-x,1/2+y,-z
1/2-x,1/2-y,-z
1/2+x,1/2-y,z
loop_
_atom_site_type_symbol
_atom_site_label
_atom_site_fract_x
_atom_site_fract_y
_atom_site_fract_z
Si Si1 0.709218 0.391761 0.947622
Si Si2 0.124191 0.672666 0.716117
Si Si3 0.570490 0.231160 0.394529
Si Si4 0.090168 0.391153 0.231728
Si Si5 0.536352 0.399457 0.143102
Si Si6 0.677718 0.400761 0.429541
Si Si7 0.916109 0.752302 0.098869
Si Si8 0.577520 0.655332 0.642344
O O1 0.696968 0.500000 0.927510
O O2 0.824239 0.372860 0.879543
O O3 0.655669 0.317114 0.916944
O O4 0.651754 0.384714 0.065066
O O5 0.206095 0.605939 0.639124
O O6 0.134084 0.685257 0.809658
O O7 0.139233 0.771773 0.664333
O O8 0.014209 0.642660 0.749137
O O9 0.500000 0.184772 0.500000
O O10 0.616167 0.160443 0.304909
O O11 0.636980 0.309388 0.403934
O O12 0.495672 0.288538 0.377568
O O13 0.084972 0.500000 0.249032
O O14 0.512812 0.500000 0.119966
O O15 0.478661 0.322836 0.122730
O O16 0.493646 0.396257 0.257101
O O17 0.642127 0.500000 0.413891
O O18 0.645199 0.396410 0.542162
O O19 0.000000 0.705282 0.000000
#
# Coordination Sequence:
#
# PCOD9195212 Si02
#       8
#     8   8   8   8   8   8   8   8
#     4   9  17  30  51  78 106 136 171 215 263 308
#     4  10  20  35  52  75 107 140 177 215 250 305
#     4   9  20  36  53  77 105 135 174 221 264 307
#     4  10  20  36  56  77 106 142 176 212 257 309
#     4   9  16  28  49  78 107 133 170 219 265 310
#     4  11  21  34  55  78 105 142 176 214 265 314
#     4   9  17  31  51  75 103 138 174 214 265 309
#     4   9  19  34  52  75 105 137 173 218 264 309
#
# _framework density 19.961634
#
# number of rings (size 3 to 8) (size 9 to 14) (size 15 to 20)
#    0.000    2.500    0.000    2.250    0.000    4.500 
#    0.000   11.250    0.000   11.250    0.000    0.000 
#    0.000    0.000    0.000    0.000    0.000    0.000 
#
# Total GULP energy -178136.529912 kJ/mol
# GULP energy per Si atom -5566.766560 kJ/mol
# Density = 1.991620 g / cm^3
# Si number density = 19.961634 Si / 1000 Ang^3
#
#
#
# Elastic Constant Matrix: (Units=GPa)
#
#
# Indices 1 2 3 4 5 6 
#
# 1 26.0196 -3.6319 27.5190 0.0000 -6.0899 0.0000
# 2 -3.6319 60.7931 33.4170 0.0000 -4.1697 0.0000
# 3 27.5190 33.4170 145.9489 0.0000 -17.8534 0.0000
# 4 0.0000 0.0000 0.0000 11.9569 0.0000 -2.3681
# 5 -6.0899 -4.1697 -17.8534 0.0000 24.9052 0.0000
# 6 0.0000 0.0000 0.0000 -2.3681 0.0000 7.7235
#
#
#
# Elastic Compliance Matrix: (Units=1/GPa)
#
#
# Indices 1 2 3 4 5 6 
#
# 1 0.053636 0.010035 -0.011620 0.000000 0.006466 0.000000
# 2 0.010035 0.020695 -0.006474 0.000000 0.001278 0.000000
# 3 -0.011620 -0.006474 0.011010 0.000000 0.003968 0.000000
# 4 0.000000 0.000000 0.000000 0.089041 0.000000 0.027301
# 5 0.006466 0.001278 0.003968 0.000000 0.044791 0.000000
# 6 0.000000 0.000000 0.000000 0.027301 0.000000 0.137845
#
#
# Mechanical properties :
#
#
# Convention : Reuss Voigt Hill
#
# Bulk Modulus (GPa) = 14.44598 38.59663 26.52130
# Shear Modulus (GPa) = 12.61950 20.61429 16.61689
#
# Velocity S-wave (km/s) = 2.51706 3.21704 2.88834
# Velocity P-wave (km/s) = 3.96233 5.75991 4.94351
#
# Compressibility (1/GPa) = 0.06922342
#
# Stress axis : x y z
#
# Youngs Moduli (GPa) = 18.64416 48.32029 90.82319
#
# Poissons Ratio (x) = -0.48490 1.05536
# Poissons Ratio (y) = -0.18710 0.58802
# Poissons Ratio (z) = 0.21664 0.31284
#
# Static dielectric constant tensor:
#      x y z
#    x 1.690180 0.000000 -0.020800 
#    y 0.000000 1.730060 0.000000 
#    z -0.020800 0.000000 1.792870 
# 
# From -- ./inp_files/225668.got.cif
#   From: 2010.05.17/outbox.cif.g08.bks.cpg/sg12_113_cif.got.tgz:225668.got - 2010.06.03 13:09:07.
