data_PCOD9195719
_publ_section_title
;
Structure prediction by ZEFSAII (Michael W. Deem and Ramdas Pophale) SiO2 
 PCOD9195719
Probable space group: C 2/M
;
_chemical_formula_sum "Si O2"
_cell_formula_units_Z 48
_cell_length_a 32.921844
_cell_length_b 9.052729
_cell_length_c 16.699654
_cell_angle_alpha 90.000000
_cell_angle_beta 31.316159
_cell_angle_gamma 90.000000
_cell_volume 2586.866755
_symmetry_space_group_name_H-M "C 2/M"
_symmetry_group_IT_number 12
_symmetry_cell_setting 'monoclinic'
loop_
_space_group_symop_operation_xyz
x,y,z
-x,y,-z
-x,-y,-z
x,-y,z
1/2+x,1/2+y,z
1/2-x,1/2+y,-z
1/2-x,1/2-y,-z
1/2+x,1/2-y,z
loop_
_atom_site_type_symbol
_atom_site_label
_atom_site_fract_x
_atom_site_fract_y
_atom_site_fract_z
Si Si1 0.485878 0.327580 0.615988
Si Si2 0.230369 0.321830 0.801431
Si Si3 0.107093 0.675457 0.526153
Si Si4 0.175572 0.330314 0.724815
Si Si5 0.693778 0.673130 0.030493
Si Si6 0.361266 0.669019 0.367950
O O1 0.500000 0.285599 0.500000
O O2 0.510319 0.500000 0.584041
O O3 0.535713 0.228480 0.591978
O O4 0.394675 0.317555 0.789348
O O5 0.236245 0.500000 0.794617
O O6 0.315279 0.253678 0.639604
O O7 0.175324 0.283710 0.817990
O O8 0.201203 0.255250 0.933380
O O9 0.116550 0.500000 0.508835
O O10 0.098846 0.732235 0.631238
O O11 0.149397 0.500000 0.762057
O O12 0.268168 0.328160 0.545780
O O13 0.132272 0.231282 0.732537
O O14 0.714329 0.500000 0.986978
O O15 0.750000 0.750000 0.000000
O O16 0.387347 0.500000 0.329986
#
# Coordination Sequence:
#
# PCOD9195719 Si02
#       6
#     8   8   8   8   8   8
#     4  10  22  40  59  79 107 142 177 218 271 324
#     4  10  20  35  55  79 112 148 181 223 272 320
#     4  11  21  33  54  82 111 143 183 227 267 317
#     4   8  15  27  45  72 104 140 180 220 263 312
#     4  11  23  38  59  84 110 141 178 221 268 324
#     4   9  16  27  46  73 107 143 177 219 269 317
#
# _framework density 18.555264999999999
#
# number of rings (size 3 to 8) (size 9 to 14) (size 15 to 20)
#    0.000    2.167    0.000    5.000    0.000    7.667 
#    0.000    0.000    0.000    1.000    0.000    7.000 
#    0.000    0.000    0.000    0.000    0.000    0.000 
#
# Total GULP energy -133972.710882 kJ/mol
# GULP energy per Si atom -5582.196287 kJ/mol
# Density = 1.851303 g / cm^3
# Si number density = 18.555265 Si / 1000 Ang^3
#
#
#
# Elastic Constant Matrix: (Units=GPa)
#
#
# Indices 1 2 3 4 5 6 
#
# 1 147.0743 88.3348 51.2792 0.0000 35.3802 0.0000
# 2 88.3348 127.5873 37.8694 0.0000 15.1648 0.0000
# 3 51.2792 37.8694 42.7321 0.0000 21.0865 0.0000
# 4 0.0000 0.0000 0.0000 21.4534 0.0000 2.5821
# 5 35.3802 15.1648 21.0865 0.0000 30.0085 0.0000
# 6 0.0000 0.0000 0.0000 2.5821 0.0000 34.2444
#
#
#
# Elastic Compliance Matrix: (Units=1/GPa)
#
#
# Indices 1 2 3 4 5 6 
#
# 1 0.016960 -0.008117 -0.008137 0.000000 -0.010176 0.000000
# 2 -0.008117 0.014592 -0.006544 0.000000 0.006794 0.000000
# 3 -0.008137 -0.006544 0.049903 0.000000 -0.022166 0.000000
# 4 0.000000 0.000000 0.000000 0.047040 0.000000 -0.003547
# 5 -0.010176 0.006794 -0.022166 0.000000 0.057463 0.000000
# 6 0.000000 0.000000 0.000000 -0.003547 0.000000 0.029469
#
#
# Mechanical properties :
#
#
# Convention : Reuss Voigt Hill
#
# Bulk Modulus (GPa) = 27.88680 74.70671 51.29675
# Shear Modulus (GPa) = 18.31666 26.46861 22.39264
#
# Velocity S-wave (km/s) = 3.14529 3.78097 3.47768
# Velocity P-wave (km/s) = 5.31527 7.70779 6.62051
#
# Compressibility (1/GPa) = 0.03585927
#
# Stress axis : x y z
#
# Youngs Moduli (GPa) = 58.96389 68.52846 20.03893
#
# Poissons Ratio (x) = 0.55627 0.16305
# Poissons Ratio (y) = 0.47863 0.13113
# Poissons Ratio (z) = 0.47978 0.44843
#
# Static dielectric constant tensor:
#      x y z
#    x 1.633210 0.000000 0.012000 
#    y 0.000000 1.629800 0.000000 
#    z 0.012000 0.000000 1.634130 
# 
# From -- ./inp_files/244746.got.cif
#   From: 2010.05.17/outbox.cif.g08.bks.cpg/sg12_123_cif.got.tgz:244746.got - 2010.06.03 13:09:07.
