data_PCOD9195547
_publ_section_title
;
Structure prediction by ZEFSAII (Michael W. Deem and Ramdas Pophale) SiO2 
 PCOD9195547
Probable space group: C 2/M
;
_chemical_formula_sum "Si O2"
_cell_formula_units_Z 60
_cell_length_a 24.525245
_cell_length_b 7.866900
_cell_length_c 20.772849
_cell_angle_alpha 90.000000
_cell_angle_beta 142.077135
_cell_angle_gamma 90.000000
_cell_volume 2463.233827
_symmetry_space_group_name_H-M "C 2/M"
_symmetry_group_IT_number 12
_symmetry_cell_setting 'monoclinic'
loop_
_space_group_symop_operation_xyz
x,y,z
-x,y,-z
-x,-y,-z
x,-y,z
1/2+x,1/2+y,z
1/2-x,1/2+y,-z
1/2-x,1/2-y,-z
1/2+x,1/2-y,z
loop_
_atom_site_type_symbol
_atom_site_label
_atom_site_fract_x
_atom_site_fract_y
_atom_site_fract_z
Si Si1 0.621583 0.795557 0.914761
Si Si2 0.125394 0.822347 0.132688
Si Si3 0.246356 0.703895 0.422468
Si Si4 0.184022 0.192021 0.694024
Si Si5 0.158707 0.000000 0.032285
Si Si6 0.937521 0.694713 0.804651
Si Si7 0.070868 0.205688 0.475178
Si Si8 0.386667 0.808393 0.244983
O O1 0.684449 0.654876 0.005523
O O2 0.525769 0.733859 0.854454
O O3 0.616857 0.772155 0.833493
O O4 0.635608 0.000000 0.941119
O O5 0.229521 0.796598 0.242864
O O6 0.069761 0.695040 0.124406
O O7 0.091669 0.000000 0.129605
O O8 0.127685 0.853253 0.058620
O O9 0.245088 0.500000 0.413639
O O10 0.250000 0.750000 0.500000
O O11 0.154658 0.771482 0.307020
O O12 0.338239 0.757928 0.475600
O O13 0.096710 0.244722 0.573407
O O14 0.167051 0.197658 0.753964
O O15 0.204085 0.000000 0.692354
O O16 0.939117 0.500000 0.784146
O O17 0.987763 0.292881 0.364304
O O18 0.056228 0.000000 0.456922
O O19 0.352000 0.000000 0.224504
#
# Coordination Sequence:
#
# PCOD9195547 Si02
#       8
#     8   8   8   8   4   8   8   8
#     4  10  24  44  67  96 135 175 219 273 338 399
#     4  10  23  40  63  96 126 162 216 271 328 388
#     4  10  20  35  54  86 130 172 219 259 310 383
#     4  11  22  41  67  93 130 172 218 272 329 391
#     4  10  26  45  72  98 134 164 230 276 341 394
#     4  10  20  39  64  91 130 176 212 264 331 391
#     4  10  21  37  59  93 128 173 219 262 320 393
#     4  11  24  41  64  93 132 172 218 269 330 392
#
# _framework density 24.358225000000001
#
# number of rings (size 3 to 8) (size 9 to 14) (size 15 to 20)
#    0.400    1.333    1.333    2.400    2.800    6.933 
#    0.000    2.000    0.000    0.000    0.000    0.000 
#    0.000    0.000    0.000    0.000    0.000    0.000 
#
# Total GULP energy -167020.489627 kJ/mol
# GULP energy per Si atom -5567.349654 kJ/mol
# Density = 2.430278 g / cm^3
# Si number density = 24.358225 Si / 1000 Ang^3
#
#
#
# Elastic Constant Matrix: (Units=GPa)
#
#
# Indices 1 2 3 4 5 6 
#
# 1 101.7955 13.1446 39.8592 0.0000 -20.4230 0.0000
# 2 13.1446 67.9584 26.2818 0.0000 -11.1580 0.0000
# 3 39.8592 26.2818 92.7366 0.0000 -17.8819 0.0000
# 4 0.0000 0.0000 0.0000 38.9758 0.0000 -20.9074
# 5 -20.4230 -11.1580 -17.8819 0.0000 49.4010 0.0000
# 6 0.0000 0.0000 0.0000 -20.9074 0.0000 33.8887
#
#
#
# Elastic Compliance Matrix: (Units=1/GPa)
#
#
# Indices 1 2 3 4 5 6 
#
# 1 0.012325 -0.000033 -0.004630 0.000000 0.003412 0.000000
# 2 -0.000033 0.016750 -0.004306 0.000000 0.002211 0.000000
# 3 -0.004630 -0.004306 0.014445 0.000000 0.002342 0.000000
# 4 0.000000 0.000000 0.000000 0.038348 0.000000 0.023658
# 5 0.003412 0.002211 0.002342 0.000000 0.023000 0.000000
# 6 0.000000 0.000000 0.000000 0.023658 0.000000 0.044104
#
#
# Mechanical properties :
#
#
# Convention : Reuss Voigt Hill
#
# Bulk Modulus (GPa) = 39.09162 46.78462 42.93812
# Shear Modulus (GPa) = 28.49991 36.66679 32.58335
#
# Velocity S-wave (km/s) = 3.42428 3.88405 3.66139
# Velocity P-wave (km/s) = 5.63185 6.27400 5.96158
#
# Compressibility (1/GPa) = 0.02558093
#
# Stress axis : x y z
#
# Youngs Moduli (GPa) = 81.13269 59.70262 69.22604
#
# Poissons Ratio (x) = 0.00198 0.32054
# Poissons Ratio (y) = 0.00268 0.29812
# Poissons Ratio (z) = 0.37567 0.25710
#
# Static dielectric constant tensor:
#      x y z
#    x 1.916200 0.000000 0.046710 
#    y 0.000000 1.915370 0.000000 
#    z 0.046710 0.000000 2.029990 
# 
# From -- ./inp_files/327296.got.cif
#   From: 2010.05.17/outbox.cif.g08.bks.cpg/sg12_164_cif.got.tgz:327296.got - 2010.06.03 13:09:07.
