data_PCOD9195522
_publ_section_title
;
Structure prediction by ZEFSAII (Michael W. Deem and Ramdas Pophale) SiO2 
 PCOD9195522
Probable space group: C 2/M
;
_chemical_formula_sum "Si O2"
_cell_formula_units_Z 40
_cell_length_a 23.593220
_cell_length_b 13.446115
_cell_length_c 22.162079
_cell_angle_alpha 90.000000
_cell_angle_beta 161.471711
_cell_angle_gamma 90.000000
_cell_volume 2234.144772
_symmetry_space_group_name_H-M "C 2/M"
_symmetry_group_IT_number 12
_symmetry_cell_setting 'monoclinic'
loop_
_space_group_symop_operation_xyz
x,y,z
-x,y,-z
-x,-y,-z
x,-y,z
1/2+x,1/2+y,z
1/2-x,1/2+y,-z
1/2-x,1/2-y,-z
1/2+x,1/2-y,z
loop_
_atom_site_type_symbol
_atom_site_label
_atom_site_fract_x
_atom_site_fract_y
_atom_site_fract_z
Si Si1 0.327805 0.807764 0.174594
Si Si2 0.755163 0.389194 0.974004
Si Si3 0.267376 0.175995 0.426742
Si Si4 0.315921 0.111885 0.610407
Si Si5 0.545443 0.616764 0.977683
O O1 0.334503 0.695012 0.156822
O O2 0.528568 0.845684 0.385024
O O3 0.235184 0.864919 0.024743
O O4 0.206664 0.822584 0.110366
O O5 0.692951 0.500000 0.898077
O O6 0.968486 0.382870 0.177854
O O7 0.240741 0.131983 0.467193
O O8 0.241641 0.295114 0.407283
O O9 0.126456 0.133460 0.237881
O O10 0.269302 0.000000 0.582999
O O11 0.593199 0.500000 0.025791
O O12 0.500000 0.646646 0.000000
#
# Coordination Sequence:
#
# PCOD9195522 Si02
#       5
#     8   8   8   8   8
#     4  10  20  35  54  82 113 142 181 224 272 323
#     4   9  17  31  54  84 116 144 173 219 277 331
#     4  10  20  35  54  82 113 142 181 224 272 323
#     4   9  17  31  54  84 116 144 173 219 277 331
#     4  11  24  40  57  77 107 149 189 224 268 322
#
# _framework density 17.903943000000002
#
# number of rings (size 3 to 8) (size 9 to 14) (size 15 to 20)
#    0.000    2.200    2.000    1.200    2.800    4.000 
#    0.000    2.000    0.000    2.400    0.000    2.800 
#    0.000    0.000    0.000    0.000    0.000    0.000 
#
# Total GULP energy -111673.921260 kJ/mol
# GULP energy per Si atom -5583.696063 kJ/mol
# Density = 1.786319 g / cm^3
# Si number density = 17.903943 Si / 1000 Ang^3
#
#
#
# Elastic Constant Matrix: (Units=GPa)
#
#
# Indices 1 2 3 4 5 6 
#
# 1 70.0616 0.0358 2.2795 -0.0063 13.2088 -0.0025
# 2 0.0358 60.4364 -17.7670 -0.0107 6.6315 -0.0050
# 3 2.2795 -17.7670 30.5154 -0.0075 4.6736 -0.0032
# 4 -0.0063 -0.0107 -0.0075 18.4652 0.0001 0.5990
# 5 13.2088 6.6315 4.6736 0.0001 18.2800 -0.0008
# 6 -0.0025 -0.0050 -0.0032 0.5990 -0.0008 15.7364
#
#
#
# Elastic Compliance Matrix: (Units=1/GPa)
#
#
# Indices 1 2 3 4 5 6 
#
# 1 0.016720 0.002033 0.001975 0.000008 -0.013324 0.000003
# 2 0.002033 0.022414 0.014954 0.000019 -0.013423 0.000009
# 3 0.001975 0.014954 0.044106 0.000027 -0.018129 0.000012
# 4 0.000008 0.000019 0.000027 0.054223 -0.000020 -0.002064
# 5 -0.013324 -0.013423 -0.018129 -0.000020 0.073837 -0.000006
# 6 0.000003 0.000009 0.000012 -0.002064 -0.000006 0.063625
#
#
# Mechanical properties :
#
#
# Convention : Reuss Voigt Hill
#
# Bulk Modulus (GPa) = 8.25322 14.45666 11.35494
# Shear Modulus (GPa) = 18.02523 22.26067 20.14295
#
# Velocity S-wave (km/s) = 3.17641 3.52993 3.35783
# Velocity P-wave (km/s) = 4.25118 4.97051 4.62485
#
# Compressibility (1/GPa) = 0.12116480
#
# Stress axis : x y z
#
# Youngs Moduli (GPa) = 59.80930 44.61440 22.67254
#
# Poissons Ratio (x) = -0.09069 -0.04478
# Poissons Ratio (y) = -0.12158 -0.33905
# Poissons Ratio (z) = -0.11813 -0.66718
#
# Static dielectric constant tensor:
#      x y z
#    x 1.577780 0.000000 0.025770 
#    y 0.000000 1.634490 0.000000 
#    z 0.025770 0.000000 1.622910 
# 
# From -- ./inp_files/60874.got.cif
#   From: 2010.05.17/outbox.cif.g08.bks.cpg/sg12_31_cif.got.tgz:60874.got - 2010.06.03 13:09:07.
