data_PCOD9195839
_publ_section_title
;
Structure prediction by ZEFSAII (Michael W. Deem and Ramdas Pophale) SiO2 
 PCOD9195839
Probable space group: C 2/M
;
_chemical_formula_sum "Si O2"
_cell_formula_units_Z 56
_cell_length_a 10.027550
_cell_length_b 20.905312
_cell_length_c 18.304146
_cell_angle_alpha 90.000000
_cell_angle_beta 52.020764
_cell_angle_gamma 90.000000
_cell_volume 3024.516962
_symmetry_space_group_name_H-M "C 2/M"
_symmetry_group_IT_number 12
_symmetry_cell_setting 'monoclinic'
loop_
_space_group_symop_operation_xyz
x,y,z
-x,y,-z
-x,-y,-z
x,-y,z
1/2+x,1/2+y,z
1/2-x,1/2+y,-z
1/2-x,1/2-y,-z
1/2+x,1/2-y,z
loop_
_atom_site_type_symbol
_atom_site_label
_atom_site_fract_x
_atom_site_fract_y
_atom_site_fract_z
Si Si1 0.567936 0.370660 0.191119
Si Si2 0.410959 0.927057 0.102324
Si Si3 0.997536 0.573442 0.229474
Si Si4 0.631685 0.384510 0.893083
Si Si5 0.801837 0.254787 0.067207
Si Si6 0.724708 0.422455 0.617590
Si Si7 0.067519 0.422702 0.591267
O O1 0.713070 0.423153 0.154003
O O2 0.468866 0.380400 0.148668
O O3 0.675891 0.304996 0.148381
O O4 0.432444 0.381820 0.300519
O O5 0.451874 0.895700 0.166768
O O6 0.473017 0.000000 0.087521
O O7 0.500000 0.901147 0.000000
O O8 0.934720 0.500000 0.248052
O O9 0.925058 0.602951 0.328718
O O10 0.200231 0.573638 0.168832
O O11 0.699126 0.314379 0.894018
O O12 0.500000 0.405719 0.000000
O O13 0.750000 0.250000 0.000000
O O14 0.000000 0.272093 0.000000
O O15 0.693462 0.500000 0.631868
O O16 0.786083 0.405361 0.515234
O O17 0.886421 0.408499 0.615120
O O18 0.071890 0.500000 0.594044
#
# Coordination Sequence:
#
# PCOD9195839 Si02
#       7
#     8   8   8   8   8   8   8
#     4  12  21  34  57  80 107 143 186 233 279 323
#     4  10  22  35  49  77 118 155 178 215 280 338
#     4  10  20  35  55  82 115 153 184 219 278 333
#     4  11  22  35  54  81 106 143 190 229 266 328
#     4  11  23  40  56  78 107 144 193 235 275 328
#     4   9  17  31  55  88 114 140 183 232 280 329
#     4   8  15  31  55  82 114 145 182 230 273 326
#
# _framework density 18.515353000000001
#
# number of rings (size 3 to 8) (size 9 to 14) (size 15 to 20)
#    0.000    1.857    4.286    2.571    2.000    0.857 
#    0.000    0.714    0.000    4.286    0.000    0.000 
#    0.000    0.000    0.000    0.000    0.000    0.000 
#
# Total GULP energy -156023.484159 kJ/mol
# GULP energy per Si atom -5572.267291 kJ/mol
# Density = 1.847321 g / cm^3
# Si number density = 18.515353 Si / 1000 Ang^3
#
#
#
# Elastic Constant Matrix: (Units=GPa)
#
#
# Indices 1 2 3 4 5 6 
#
# 1 116.8270 6.7859 59.4549 0.0000 18.1698 0.0000
# 2 6.7859 35.0531 22.6002 0.0000 0.7602 0.0000
# 3 59.4549 22.6002 180.3841 0.0000 13.2002 0.0000
# 4 0.0000 0.0000 0.0000 22.9506 0.0000 -4.3248
# 5 18.1698 0.7602 13.2002 0.0000 37.6551 0.0000
# 6 0.0000 0.0000 0.0000 -4.3248 0.0000 22.0327
#
#
#
# Elastic Compliance Matrix: (Units=1/GPa)
#
#
# Indices 1 2 3 4 5 6 
#
# 1 0.010867 0.000110 -0.003296 0.000000 -0.004090 0.000000
# 2 0.000110 0.031057 -0.003980 0.000000 0.000715 0.000000
# 3 -0.003296 -0.003980 0.007191 0.000000 -0.000850 0.000000
# 4 0.000000 0.000000 0.000000 0.045245 0.000000 0.008881
# 5 -0.004090 0.000715 -0.000850 0.000000 0.028814 0.000000
# 6 0.000000 0.000000 0.000000 0.008881 0.000000 0.047130
#
#
# Mechanical properties :
#
#
# Convention : Reuss Voigt Hill
#
# Bulk Modulus (GPa) = 28.74922 56.66069 42.70496
# Shear Modulus (GPa) = 25.48014 32.75589 29.11802
#
# Velocity S-wave (km/s) = 3.71369 4.21065 3.96996
# Velocity P-wave (km/s) = 5.82663 7.36939 6.64295
#
# Compressibility (1/GPa) = 0.03478355
#
# Stress axis : x y z
#
# Youngs Moduli (GPa) = 92.02239 32.19859 139.06285
#
# Poissons Ratio (x) = -0.00355 0.45838
# Poissons Ratio (y) = -0.01014 0.55344
# Poissons Ratio (z) = 0.30333 0.12814
#
# Static dielectric constant tensor:
#      x y z
#    x 1.655620 0.000000 0.018960 
#    y 0.000000 1.656080 0.000000 
#    z 0.018960 0.000000 1.668180 
# 
# From -- ./inp_files/259138.got.cif
#   From: 2010.05.17/outbox.cif.g08.bks.cpg/sg12_130_cif.got.tgz:259138.got - 2010.06.03 13:09:07.
