data_PCOD9195414
_publ_section_title
;
Structure prediction by ZEFSAII (Michael W. Deem and Ramdas Pophale) SiO2 
 PCOD9195414
Probable space group: C 2/M
;
_chemical_formula_sum "Si O2"
_cell_formula_units_Z 56
_cell_length_a 15.112941
_cell_length_b 8.169195
_cell_length_c 25.588846
_cell_angle_alpha 90.000000
_cell_angle_beta 63.258733
_cell_angle_gamma 90.000000
_cell_volume 2821.327664
_symmetry_space_group_name_H-M "C 2/M"
_symmetry_group_IT_number 12
_symmetry_cell_setting 'monoclinic'
loop_
_space_group_symop_operation_xyz
x,y,z
-x,y,-z
-x,-y,-z
x,-y,z
1/2+x,1/2+y,z
1/2-x,1/2+y,-z
1/2-x,1/2-y,-z
1/2+x,1/2-y,z
loop_
_atom_site_type_symbol
_atom_site_label
_atom_site_fract_x
_atom_site_fract_y
_atom_site_fract_z
Si Si1 0.467343 0.312589 0.064121
Si Si2 0.879154 0.305538 0.190163
Si Si3 0.568638 0.303887 0.409848
Si Si4 0.663644 0.803425 0.061372
Si Si5 0.585455 0.801719 0.188378
Si Si6 0.352074 0.302375 0.500097
Si Si7 0.835516 0.693632 0.723107
O O1 0.435662 0.500000 0.062636
O O2 0.391828 0.233335 0.125046
O O3 0.569809 0.299494 0.067736
O O4 0.500000 0.235662 0.000000
O O5 0.873298 0.500000 0.197491
O O6 0.780770 0.227782 0.239466
O O7 0.978462 0.248794 0.194405
O O8 0.564728 0.500000 0.415207
O O9 0.454030 0.246661 0.444470
O O10 0.630887 0.246612 0.444216
O O11 0.619607 0.261088 0.342085
O O12 0.668657 0.767875 0.121917
O O13 0.646092 0.000000 0.060728
O O14 0.750000 0.750000 0.000000
O O15 0.612723 0.737407 0.238073
O O16 0.581003 0.000000 0.192759
O O17 0.351321 0.500000 0.500126
O O18 0.250000 0.250000 0.500000
O O19 0.851365 0.500000 0.718214
#
# Coordination Sequence:
#
# PCOD9195414 Si02
#       7
#     8   8   8   8   8   8   8
#     4  10  21  36  54  77 106 140 179 232 292 349
#     4  10  21  39  58  79 109 147 188 236 289 350
#     4   9  20  39  57  83 120 156 191 232 280 336
#     4  10  20  35  54  77 104 138 181 232 288 350
#     4   8  19  38  55  73 107 146 181 226 286 343
#     4   9  19  37  62  87 119 157 193 233 281 329
#     4  11  22  37  59  85 113 152 193 235 285 341
#
# _framework density 19.848811999999999
#
# number of rings (size 3 to 8) (size 9 to 14) (size 15 to 20)
#    0.000    2.429    0.000    3.429    2.000    3.429 
#    0.000   13.571    0.000    0.000    0.000    0.000 
#    0.000    0.000    0.000    0.000    0.000    0.000 
#
# Total GULP energy -156056.287672 kJ/mol
# GULP energy per Si atom -5573.438845 kJ/mol
# Density = 1.980364 g / cm^3
# Si number density = 19.848812 Si / 1000 Ang^3
#
#
#
# Elastic Constant Matrix: (Units=GPa)
#
#
# Indices 1 2 3 4 5 6 
#
# 1 126.4909 4.2398 83.1411 0.0000 6.8370 0.0000
# 2 4.2398 19.8499 6.8583 0.0000 5.3955 0.0000
# 3 83.1411 6.8583 189.7047 0.0000 9.7860 0.0000
# 4 0.0000 0.0000 0.0000 30.1476 0.0000 -3.1816
# 5 6.8370 5.3955 9.7860 0.0000 20.6373 0.0000
# 6 0.0000 0.0000 0.0000 -3.1816 0.0000 22.9865
#
#
#
# Elastic Compliance Matrix: (Units=1/GPa)
#
#
# Indices 1 2 3 4 5 6 
#
# 1 0.011147 -0.000362 -0.004804 0.000000 -0.001320 0.000000
# 2 -0.000362 0.054539 -0.001111 0.000000 -0.013612 0.000000
# 3 -0.004804 -0.001111 0.007503 0.000000 -0.001676 0.000000
# 4 0.000000 0.000000 0.000000 0.033662 0.000000 0.004659
# 5 -0.001320 -0.013612 -0.001676 0.000000 0.053247 0.000000
# 6 0.000000 0.000000 0.000000 0.004659 0.000000 0.044149
#
#
# Mechanical properties :
#
#
# Convention : Reuss Voigt Hill
#
# Bulk Modulus (GPa) = 16.49201 58.28044 37.38622
# Shear Modulus (GPa) = 21.09587 30.87469 25.98528
#
# Velocity S-wave (km/s) = 3.26364 3.94825 3.62216
# Velocity P-wave (km/s) = 4.74644 7.08596 6.03073
#
# Compressibility (1/GPa) = 0.06063543
#
# Stress axis : x y z
#
# Youngs Moduli (GPa) = 89.71112 18.33539 133.27203
#
# Poissons Ratio (x) = 0.00664 0.64025
# Poissons Ratio (y) = 0.03250 0.14804
# Poissons Ratio (z) = 0.43098 0.02037
#
# Static dielectric constant tensor:
#      x y z
#    x 1.724050 0.000000 0.024730 
#    y 0.000000 1.712120 0.000000 
#    z 0.024730 0.000000 1.720910 
# 
# From -- ./inp_files/338491.got.cif
#   From: 2010.05.17/outbox.cif.g08.bks.cpg/sg12_170_cif.got.tgz:338491.got - 2010.06.03 13:09:07.
