data_PCOD9195351
_publ_section_title
;
Structure prediction by ZEFSAII (Michael W. Deem and Ramdas Pophale) SiO2 
 PCOD9195351
Probable space group: C 2/M
;
_chemical_formula_sum "Si O2"
_cell_formula_units_Z 56
_cell_length_a 15.645050
_cell_length_b 7.917511
_cell_length_c 21.171138
_cell_angle_alpha 90.000000
_cell_angle_beta 127.519476
_cell_angle_gamma 90.000000
_cell_volume 2079.999218
_symmetry_space_group_name_H-M "C 2/M"
_symmetry_group_IT_number 12
_symmetry_cell_setting 'monoclinic'
loop_
_space_group_symop_operation_xyz
x,y,z
-x,y,-z
-x,-y,-z
x,-y,z
1/2+x,1/2+y,z
1/2-x,1/2+y,-z
1/2-x,1/2-y,-z
1/2+x,1/2-y,z
loop_
_atom_site_type_symbol
_atom_site_label
_atom_site_fract_x
_atom_site_fract_y
_atom_site_fract_z
Si Si1 0.876315 0.299481 0.053604
Si Si2 0.639687 0.304840 0.228812
Si Si3 0.868997 0.200285 0.911427
Si Si4 0.318864 0.707205 0.619181
Si Si5 0.908273 0.303254 0.523960
Si Si6 0.110604 0.297906 0.803014
Si Si7 0.123613 0.189350 0.672435
O O1 0.882259 0.500000 0.058492
O O2 0.914866 0.244731 0.001334
O O3 0.750000 0.250000 0.000000
O O4 0.924370 0.236333 0.142444
O O5 0.606339 0.500000 0.215052
O O6 0.606039 0.222205 0.146808
O O7 0.623209 0.230018 0.291179
O O8 0.771957 0.306824 0.284909
O O9 0.740542 0.231736 0.861275
O O10 0.883170 0.000000 0.911245
O O11 0.323237 0.500000 0.618576
O O12 0.192837 0.759817 0.562316
O O13 0.365208 0.781688 0.576158
O O14 0.921718 0.500000 0.516676
O O15 0.025818 0.222319 0.580575
O O16 0.093906 0.500000 0.790506
O O17 0.076367 0.210548 0.722588
O O18 0.164088 0.000000 0.683915
#
# Coordination Sequence:
#
# PCOD9195351 Si02
#       7
#     8   8   8   8   8   8   8
#     4   9  15  22  35  56  85 120 154 189 228 273
#     4   9  18  33  50  70  99 130 159 195 240 284
#     4   8  14  24  39  60  88 121 153 187 228 275
#     4   9  19  36  56  74  93 123 162 198 234 284
#     4  10  20  35  54  73  96 125 157 197 242 286
#     4   8  15  27  40  58  88 124 158 192 234 278
#     4  11  21  31  47  72 100 128 161 200 238 282
#
# _framework density 26.923089000000001
#
# number of rings (size 3 to 8) (size 9 to 14) (size 15 to 20)
#    0.000    2.857    0.000    3.857    0.000    7.429 
#    0.000    2.857    0.000    0.000    0.000    1.000 
#    0.000    8.000    0.000    0.000    0.000    0.000 
#
# Total GULP energy -156615.209630 kJ/mol
# GULP energy per Si atom -5593.400344 kJ/mol
# Density = 2.686181 g / cm^3
# Si number density = 26.923089 Si / 1000 Ang^3
#
#
#
# Elastic Constant Matrix: (Units=GPa)
#
#
# Indices 1 2 3 4 5 6 
#
# 1 92.8191 -0.5677 17.5519 0.0000 -25.2652 0.0000
# 2 -0.5677 56.3125 1.2406 0.0000 -0.7913 0.0000
# 3 17.5519 1.2406 220.5669 0.0000 3.5802 0.0000
# 4 0.0000 0.0000 0.0000 20.2273 0.0000 -2.1311
# 5 -25.2652 -0.7913 3.5802 0.0000 59.8265 0.0000
# 6 0.0000 0.0000 0.0000 -2.1311 0.0000 26.1478
#
#
#
# Elastic Compliance Matrix: (Units=1/GPa)
#
#
# Indices 1 2 3 4 5 6 
#
# 1 0.012425 0.000224 -0.001076 0.000000 0.005315 0.000000
# 2 0.000224 0.017768 -0.000123 0.000000 0.000337 0.000000
# 3 -0.001076 -0.000123 0.004632 0.000000 -0.000733 0.000000
# 4 0.000000 0.000000 0.000000 0.049866 0.000000 0.004064
# 5 0.005315 0.000337 -0.000733 0.000000 0.019008 0.000000
# 6 0.000000 0.000000 0.000000 0.004064 0.000000 0.038575
#
#
# Mechanical properties :
#
#
# Convention : Reuss Voigt Hill
#
# Bulk Modulus (GPa) = 30.41986 45.12759 37.77372
# Shear Modulus (GPa) = 32.21988 44.67191 38.44589
#
# Velocity S-wave (km/s) = 3.46314 4.07780 3.78297
# Velocity P-wave (km/s) = 5.22632 6.24254 5.75690
#
# Compressibility (1/GPa) = 0.03287327
#
# Stress axis : x y z
#
# Youngs Moduli (GPa) = 80.48188 56.28175 215.88880
#
# Poissons Ratio (x) = -0.01259 0.23236
# Poissons Ratio (y) = -0.01800 0.02660
# Poissons Ratio (z) = 0.08662 0.00693
#
# Static dielectric constant tensor:
#      x y z
#    x 2.280870 0.000000 0.006900 
#    y 0.000000 1.918210 0.000000 
#    z 0.006900 0.000000 2.135060 
# 
# From -- ./inp_files/319346.got.cif
#   From: 2010.05.17/outbox.cif.g08.bks.cpg/sg12_160_cif.got.tgz:319346.got - 2010.06.03 13:09:07.
