data_PCOD9195200
_publ_section_title
;
Structure prediction by ZEFSAII (Michael W. Deem and Ramdas Pophale) SiO2 
 PCOD9195200
Probable space group: C 2/M
;
_chemical_formula_sum "Si O2"
_cell_formula_units_Z 48
_cell_length_a 23.271316
_cell_length_b 8.719582
_cell_length_c 20.491442
_cell_angle_alpha 90.000000
_cell_angle_beta 136.820382
_cell_angle_gamma 90.000000
_cell_volume 2845.298878
_symmetry_space_group_name_H-M "C 2/M"
_symmetry_group_IT_number 12
_symmetry_cell_setting 'monoclinic'
loop_
_space_group_symop_operation_xyz
x,y,z
-x,y,-z
-x,-y,-z
x,-y,z
1/2+x,1/2+y,z
1/2-x,1/2+y,-z
1/2-x,1/2-y,-z
1/2+x,1/2-y,z
loop_
_atom_site_type_symbol
_atom_site_label
_atom_site_fract_x
_atom_site_fract_y
_atom_site_fract_z
Si Si1 0.062746 0.323399 0.489463
Si Si2 0.553978 0.815354 0.953451
Si Si3 0.657685 0.815213 0.911796
Si Si4 0.618299 0.316952 0.140871
Si Si5 0.202993 0.818589 0.687274
Si Si6 0.405476 0.813821 0.283293
O O1 0.088514 0.500000 0.500123
O O2 0.142344 0.225232 0.576781
O O3 0.000000 0.322530 0.500000
O O4 0.001564 0.270949 0.380667
O O5 0.597251 0.770667 0.921460
O O6 0.460385 0.750060 0.884258
O O7 0.551783 0.000000 0.956681
O O8 0.606563 0.749178 0.057944
O O9 0.622132 0.768195 0.811846
O O10 0.662475 0.000000 0.915631
O O11 0.750000 0.750000 0.000000
O O12 0.613288 0.500000 0.134563
O O13 0.707171 0.262418 0.241944
O O14 0.155729 0.757868 0.713198
O O15 0.213705 0.000000 0.700405
O O16 0.400655 0.000000 0.285472
#
# Coordination Sequence:
#
# PCOD9195200 Si02
#       6
#     8   8   8   8   8   8
#     4   8  15  29  48  69  96 129 162 198 241 290
#     4  10  20  35  52  74 101 127 160 203 247 283
#     4  10  21  34  51  74 101 132 162 195 236 286
#     4  11  21  34  52  72  96 130 167 201 241 291
#     4  11  20  30  48  75 102 127 161 206 248 284
#     4   9  18  33  50  71 101 134 164 195 239 294
#
# _framework density 16.869931999999999
#
# number of rings (size 3 to 8) (size 9 to 14) (size 15 to 20)
#    0.000    2.167    0.000    6.500    0.000    7.667 
#    0.000    0.000    0.000    1.000    0.000    0.000 
#    0.000    0.000    0.000    0.000    0.000    0.000 
#
# Total GULP energy -133908.041282 kJ/mol
# GULP energy per Si atom -5579.501720 kJ/mol
# Density = 1.683154 g / cm^3
# Si number density = 16.869932 Si / 1000 Ang^3
#
#
#
# Elastic Constant Matrix: (Units=GPa)
#
#
# Indices 1 2 3 4 5 6 
#
# 1 69.2412 30.1454 64.9460 0.0000 -4.7913 0.0000
# 2 30.1454 74.1371 42.0201 0.0000 5.9591 0.0000
# 3 64.9460 42.0201 152.7870 0.0000 4.0600 0.0000
# 4 0.0000 0.0000 0.0000 25.8839 0.0000 5.8517
# 5 -4.7913 5.9591 4.0600 0.0000 23.7053 0.0000
# 6 0.0000 0.0000 0.0000 5.8517 0.0000 20.3044
#
#
#
# Elastic Compliance Matrix: (Units=1/GPa)
#
#
# Indices 1 2 3 4 5 6 
#
# 1 0.027158 -0.006006 -0.010124 0.000000 0.008733 0.000000
# 2 -0.006006 0.017566 -0.002138 0.000000 -0.005264 0.000000
# 3 -0.010124 -0.002138 0.011529 0.000000 -0.003483 0.000000
# 4 0.000000 0.000000 0.000000 0.041327 0.000000 -0.011910
# 5 0.008733 -0.005264 -0.003483 0.000000 0.045870 0.000000
# 6 0.000000 0.000000 0.000000 -0.011910 0.000000 0.052683
#
#
# Mechanical properties :
#
#
# Convention : Reuss Voigt Hill
#
# Bulk Modulus (GPa) = 50.72177 63.37648 57.04913
# Shear Modulus (GPa) = 20.89943 24.58231 22.74087
#
# Velocity S-wave (km/s) = 3.52356 3.82143 3.67551
# Velocity P-wave (km/s) = 6.83269 7.55780 7.20437
#
# Compressibility (1/GPa) = 0.01971540
#
# Stress axis : x y z
#
# Youngs Moduli (GPa) = 36.82185 56.92917 86.73647
#
# Poissons Ratio (x) = 0.34194 0.87814
# Poissons Ratio (y) = 0.22117 0.18544
# Poissons Ratio (z) = 0.37279 0.12171
#
# Static dielectric constant tensor:
#      x y z
#    x 1.544370 0.000000 -0.006010 
#    y 0.000000 1.567260 0.000000 
#    z -0.006010 0.000000 1.585270 
# 
# From -- ./inp_files/323871.got.cif
#   From: 2010.05.17/outbox.cif.g08.bks.cpg/sg12_162_cif.got.tgz:323871.got - 2010.06.03 13:09:07.
