data_PCOD9195184
_publ_section_title
;
Structure prediction by ZEFSAII (Michael W. Deem and Ramdas Pophale) SiO2 
 PCOD9195184
Probable space group: C 2/M
;
_chemical_formula_sum "Si O2"
_cell_formula_units_Z 64
_cell_length_a 12.951207
_cell_length_b 13.621670
_cell_length_c 17.181929
_cell_angle_alpha 90.000000
_cell_angle_beta 100.759681
_cell_angle_gamma 90.000000
_cell_volume 2977.893860
_symmetry_space_group_name_H-M "C 2/M"
_symmetry_group_IT_number 12
_symmetry_cell_setting 'monoclinic'
loop_
_space_group_symop_operation_xyz
x,y,z
-x,y,-z
-x,-y,-z
x,-y,z
1/2+x,1/2+y,z
1/2-x,1/2+y,-z
1/2-x,1/2-y,-z
1/2+x,1/2-y,z
loop_
_atom_site_type_symbol
_atom_site_label
_atom_site_fract_x
_atom_site_fract_y
_atom_site_fract_z
Si Si1 0.516332 0.385811 0.806912
Si Si2 0.390401 0.381688 0.018921
Si Si3 0.234189 0.108505 0.615160
Si Si4 0.100780 0.106301 0.433750
Si Si5 0.215066 0.116266 0.147458
Si Si6 0.135062 0.259619 0.722487
Si Si7 0.812471 0.612195 0.398213
Si Si8 0.919054 0.681874 0.547897
O O1 0.528092 0.500000 0.783106
O O2 0.400289 0.377732 0.828136
O O3 0.542621 0.304185 0.746809
O O4 0.601431 0.365884 0.888119
O O5 0.394398 0.500000 0.010805
O O6 0.300043 0.353602 0.945379
O O7 0.500000 0.341229 0.000000
O O8 0.162672 0.103501 0.525785
O O9 0.198332 0.186654 0.674032
O O10 0.354953 0.129727 0.606179
O O11 0.228118 0.000000 0.648924
O O12 0.185434 0.112733 0.374841
O O13 0.041498 0.209579 0.425589
O O14 0.046304 0.000000 0.418974
O O15 0.292974 0.189369 0.202002
O O16 0.246292 0.000000 0.157500
O O17 0.115893 0.352679 0.662582
O O18 0.833442 0.500000 0.423298
O O19 0.828820 0.689358 0.469138
O O20 0.000000 0.629784 0.500000
#
# Coordination Sequence:
#
# PCOD9195184 Si02
#       8
#     8   8   8   8   8   8   8   8
#     4   9  19  35  55  80 108 141 178 215 260 314
#     4   7  12  29  54  76 104 138 174 216 254 300
#     4  10  20  35  52  68  95 134 169 207 258 306
#     4   9  17  35  55  69  89 124 170 209 247 299
#     4   9  19  35  55  80 108 141 178 215 260 314
#     4  12  20  32  54  80 112 136 170 216 274 320
#     4  10  20  35  52  68  95 134 169 207 258 306
#     4  11  20  34  53  72  95 128 176 219 251 305
#
# _framework density 21.491700000000002
#
# number of rings (size 3 to 8) (size 9 to 14) (size 15 to 20)
#    0.000    2.375    2.500    4.125    0.000    2.750 
#    0.000    0.000    0.000    2.250    0.000    0.000 
#    0.000   15.000    0.000    0.000    0.000    0.000 
#
# Total GULP energy -178148.331026 kJ/mol
# GULP energy per Si atom -5567.135345 kJ/mol
# Density = 2.144278 g / cm^3
# Si number density = 21.491700 Si / 1000 Ang^3
#
#
#
# Elastic Constant Matrix: (Units=GPa)
#
#
# Indices 1 2 3 4 5 6 
#
# 1 39.5026 19.5898 0.3127 0.0000 -9.8697 0.0000
# 2 19.5898 97.4864 20.7341 0.0000 3.2959 0.0000
# 3 0.3127 20.7341 58.7087 0.0000 13.9983 0.0000
# 4 0.0000 0.0000 0.0000 33.6799 0.0000 -3.2431
# 5 -9.8697 3.2959 13.9983 0.0000 28.9875 0.0000
# 6 0.0000 0.0000 0.0000 -3.2431 0.0000 24.0262
#
#
#
# Elastic Compliance Matrix: (Units=1/GPa)
#
#
# Indices 1 2 3 4 5 6 
#
# 1 0.031542 -0.006599 -0.000652 0.000000 0.011805 0.000000
# 2 -0.006599 0.012484 -0.003955 0.000000 -0.001756 0.000000
# 3 -0.000652 -0.003955 0.020771 0.000000 -0.009803 0.000000
# 4 0.000000 0.000000 0.000000 0.030082 0.000000 0.004061
# 5 0.011805 -0.001756 -0.009803 0.000000 0.043450 0.000000
# 6 0.000000 0.000000 0.000000 0.004061 0.000000 0.042169
#
#
# Mechanical properties :
#
#
# Convention : Reuss Voigt Hill
#
# Bulk Modulus (GPa) = 23.59334 30.77456 27.18395
# Shear Modulus (GPa) = 23.03729 27.67614 25.35671
#
# Velocity S-wave (km/s) = 3.27756 3.59243 3.43860
# Velocity P-wave (km/s) = 5.03239 5.61763 5.33304
#
# Compressibility (1/GPa) = 0.04238485
#
# Stress axis : x y z
#
# Youngs Moduli (GPa) = 31.70413 80.09971 48.14418
#
# Poissons Ratio (x) = 0.52855 0.03140
# Poissons Ratio (y) = 0.20920 0.19042
# Poissons Ratio (z) = 0.02068 0.31681
#
# Static dielectric constant tensor:
#      x y z
#    x 1.970210 0.000000 0.087410 
#    y 0.000000 1.773470 0.000000 
#    z 0.087410 0.000000 1.880170 
# 
# From -- ./inp_files/269848.got.cif
#   From: 2010.05.17/outbox.cif.g08.bks.cpg/sg12_135_cif.got.tgz:269848.got - 2010.06.03 13:09:07.
