data_PCOD9195865
_publ_section_title
;
Structure prediction by ZEFSAII (Michael W. Deem and Ramdas Pophale) SiO2 
 PCOD9195865
Probable space group: C 2/M
;
_chemical_formula_sum "Si O2"
_cell_formula_units_Z 56
_cell_length_a 26.751312
_cell_length_b 8.654360
_cell_length_c 13.376388
_cell_angle_alpha 90.000000
_cell_angle_beta 67.964435
_cell_angle_gamma 90.000000
_cell_volume 2870.620272
_symmetry_space_group_name_H-M "C 2/M"
_symmetry_group_IT_number 12
_symmetry_cell_setting 'monoclinic'
loop_
_space_group_symop_operation_xyz
x,y,z
-x,y,-z
-x,-y,-z
x,-y,z
1/2+x,1/2+y,z
1/2-x,1/2+y,-z
1/2-x,1/2-y,-z
1/2+x,1/2-y,z
loop_
_atom_site_type_symbol
_atom_site_label
_atom_site_fract_x
_atom_site_fract_y
_atom_site_fract_z
Si Si1 0.975744 0.686358 0.264794
Si Si2 0.404478 0.814335 0.127712
Si Si3 0.881395 0.815134 0.457670
Si Si4 0.196247 0.685334 0.329671
Si Si5 0.089961 0.686950 0.105139
Si Si6 0.689633 0.314116 0.678683
Si Si7 0.798379 0.816050 0.896890
O O1 0.973188 0.500000 0.273032
O O2 0.946689 0.732892 0.182040
O O3 0.940020 0.756878 0.379897
O O4 0.038065 0.731777 0.209687
O O5 0.347079 0.744612 0.202457
O O6 0.400634 0.000000 0.134585
O O7 0.420416 0.772867 0.003359
O O8 0.857271 0.748223 0.577293
O O9 0.840551 0.761262 0.399374
O O10 0.880970 0.000000 0.461146
O O11 0.194772 0.500000 0.329233
O O12 0.248943 0.737048 0.353541
O O13 0.203705 0.747731 0.212884
O O14 0.095646 0.500000 0.106554
O O15 0.144732 0.764645 0.099123
O O16 0.688956 0.500000 0.679135
O O17 0.794277 0.000000 0.896352
O O18 0.750000 0.750000 0.000000
#
# Coordination Sequence:
#
# PCOD9195865 Si02
#       7
#     8   8   8   8   8   8   8
#     4   9  18  34  56  83 115 149 185 226 274 329
#     4   9  17  30  53  84 115 147 183 224 272 328
#     4  10  20  35  55  83 117 148 182 226 277 330
#     4  11  22  38  59  82 110 147 190 231 276 328
#     4  10  20  36  58  83 112 148 189 231 276 326
#     4   9  19  33  52  81 115 148 182 224 274 330
#     4  12  26  43  61  83 112 145 184 229 276 326
#
# _framework density 19.507978999999999
#
# number of rings (size 3 to 8) (size 9 to 14) (size 15 to 20)
#    0.000    2.000    0.000    3.857    0.000    6.857 
#    0.000    0.714    0.000    8.571    0.000    0.000 
#    0.000    0.000    0.000    0.000    0.000    0.000 
#
# Total GULP energy -156403.146258 kJ/mol
# GULP energy per Si atom -5585.826652 kJ/mol
# Density = 1.946358 g / cm^3
# Si number density = 19.507979 Si / 1000 Ang^3
#
#
#
# Elastic Constant Matrix: (Units=GPa)
#
#
# Indices 1 2 3 4 5 6 
#
# 1 90.1996 28.6782 48.0589 0.0000 -36.2694 0.0000
# 2 28.6782 41.5618 36.7149 0.0000 -14.1843 0.0000
# 3 48.0589 36.7149 142.4784 0.0000 -37.0848 0.0000
# 4 0.0000 0.0000 0.0000 29.2670 0.0000 -4.1418
# 5 -36.2694 -14.1843 -37.0848 0.0000 31.7387 0.0000
# 6 0.0000 0.0000 0.0000 -4.1418 0.0000 26.5588
#
#
#
# Elastic Compliance Matrix: (Units=1/GPa)
#
#
# Indices 1 2 3 4 5 6 
#
# 1 0.022566 -0.008202 0.000373 0.000000 0.022558 0.000000
# 2 -0.008202 0.035103 -0.006661 0.000000 -0.001468 0.000000
# 3 0.000373 -0.006661 0.011418 0.000000 0.010791 0.000000
# 4 0.000000 0.000000 0.000000 0.034939 0.000000 0.005449
# 5 0.022558 -0.001468 0.010791 0.000000 0.069238 0.000000
# 6 0.000000 0.000000 0.000000 0.005449 0.000000 0.038502
#
#
# Mechanical properties :
#
#
# Convention : Reuss Voigt Hill
#
# Bulk Modulus (GPa) = 24.93300 55.68265 40.30782
# Shear Modulus (GPa) = 19.67611 28.23210 23.95410
#
# Velocity S-wave (km/s) = 3.17932 3.80835 3.50796
# Velocity P-wave (km/s) = 5.12700 6.92412 6.09219
#
# Compressibility (1/GPa) = 0.04010748
#
# Stress axis : x y z
#
# Youngs Moduli (GPa) = 44.31448 28.48724 87.58218
#
# Poissons Ratio (x) = 0.23365 -0.03270
# Poissons Ratio (y) = 0.36347 0.58341
# Poissons Ratio (z) = -0.01655 0.18976
#
# Static dielectric constant tensor:
#      x y z
#    x 1.686130 0.000000 0.008980 
#    y 0.000000 1.651810 0.000000 
#    z 0.008980 0.000000 1.673890 
# 
# From -- ./inp_files/180775.got.cif
#   From: 2010.05.17/outbox.cif.g08.bks.cpg/sg12_91_cif.got.tgz:180775.got - 2010.06.03 13:09:07.
