data_PCOD9195433
_publ_section_title
;
Structure prediction by ZEFSAII (Michael W. Deem and Ramdas Pophale) SiO2 
 PCOD9195433
Probable space group: C 2/M
;
_chemical_formula_sum "Si O2"
_cell_formula_units_Z 56
_cell_length_a 14.008048
_cell_length_b 28.344672
_cell_length_c 11.977386
_cell_angle_alpha 90.000000
_cell_angle_beta 139.663339
_cell_angle_gamma 90.000000
_cell_volume 3078.234566
_symmetry_space_group_name_H-M "C 2/M"
_symmetry_group_IT_number 12
_symmetry_cell_setting 'monoclinic'
loop_
_space_group_symop_operation_xyz
x,y,z
-x,y,-z
-x,-y,-z
x,-y,z
1/2+x,1/2+y,z
1/2-x,1/2+y,-z
1/2-x,1/2-y,-z
1/2+x,1/2-y,z
loop_
_atom_site_type_symbol
_atom_site_label
_atom_site_fract_x
_atom_site_fract_y
_atom_site_fract_z
Si Si1 0.667731 0.260818 0.689093
Si Si2 0.325764 0.902395 0.215060
Si Si3 0.994217 0.240164 0.237596
Si Si4 0.274723 0.816144 0.583764
Si Si5 0.642203 0.681027 0.075108
Si Si6 0.676945 0.094453 0.520112
Si Si7 0.324313 0.500000 0.950318
Si Si8 0.651889 0.500000 0.299550
O O1 0.500000 0.254046 0.500000
O O2 0.638726 0.267193 0.794114
O O3 0.742110 0.302922 0.684972
O O4 0.755782 0.212022 0.751716
O O5 0.243386 0.855643 0.098262
O O6 0.296953 0.896079 0.323759
O O7 0.499853 0.906770 0.353496
O O8 0.257592 0.950336 0.105347
O O9 0.136300 0.210010 0.402604
O O10 0.066675 0.292030 0.300130
O O11 0.935690 0.220732 0.069586
O O12 0.273069 0.867197 0.526157
O O13 0.500000 0.654747 0.000000
O O14 0.763312 0.045659 0.579410
O O15 0.338117 0.500000 0.827067
O O16 0.475804 0.500000 0.154738
#
# Coordination Sequence:
#
# PCOD9195433 Si02
#       8
#     8   8   8   8   8   8   4   4
#     4  10  22  37  53  73 109 152 183 228 272 313
#     4  10  22  32  53  78 111 146 176 226 269 336
#     4  10  21  35  53  76 112 147 188 227 269 317
#     4  10  20  36  54  78 107 147 186 228 267 325
#     4  12  22  33  53  81 110 146 189 223 269 324
#     4  10  20  35  54  77 108 145 187 213 278 331
#     4   9  19  35  49  79 114 136 176 222 286 323
#     4   9  19  33  57  77 106 144 174 231 270 337
#
# _framework density 18.192246000000001
#
# number of rings (size 3 to 8) (size 9 to 14) (size 15 to 20)
#    0.000    1.857    1.429    2.571   12.000    1.714 
#    0.000    0.000    0.000    0.000    0.000    5.500 
#    0.000    4.571    0.000    0.000    0.000    0.000 
#
# Total GULP energy -155891.402693 kJ/mol
# GULP energy per Si atom -5567.550096 kJ/mol
# Density = 1.815084 g / cm^3
# Si number density = 18.192246 Si / 1000 Ang^3
#
#
#
# Elastic Constant Matrix: (Units=GPa)
#
#
# Indices 1 2 3 4 5 6 
#
# 1 89.8067 40.3899 26.5458 0.0000 11.3177 0.0000
# 2 40.3899 128.0210 41.3488 0.0000 18.0043 0.0000
# 3 26.5458 41.3488 49.4066 0.0000 20.9400 0.0000
# 4 0.0000 0.0000 0.0000 19.4695 0.0000 10.8281
# 5 11.3177 18.0043 20.9400 0.0000 27.0961 0.0000
# 6 0.0000 0.0000 0.0000 10.8281 0.0000 13.7605
#
#
#
# Elastic Compliance Matrix: (Units=1/GPa)
#
#
# Indices 1 2 3 4 5 6 
#
# 1 0.013887 -0.002702 -0.005209 0.000000 0.000020 0.000000
# 2 -0.002702 0.011232 -0.007827 0.000000 -0.000286 0.000000
# 3 -0.005209 -0.007827 0.039353 0.000000 -0.023035 0.000000
# 4 0.000000 0.000000 0.000000 0.091333 0.000000 -0.071869
# 5 0.000020 -0.000286 -0.023035 0.000000 0.054889 0.000000
# 6 0.000000 0.000000 0.000000 -0.071869 0.000000 0.129225
#
#
# Mechanical properties :
#
#
# Convention : Reuss Voigt Hill
#
# Bulk Modulus (GPa) = 30.30696 53.75593 42.03145
# Shear Modulus (GPa) = 13.07554 22.66190 17.86872
#
# Velocity S-wave (km/s) = 2.68385 3.53326 3.13743
# Velocity P-wave (km/s) = 5.12830 6.80134 6.02319
#
# Compressibility (1/GPa) = 0.03299572
#
# Stress axis : x y z
#
# Youngs Moduli (GPa) = 72.00824 89.03211 25.41122
#
# Poissons Ratio (x) = 0.24055 0.13237
# Poissons Ratio (y) = 0.19455 0.19890
# Poissons Ratio (z) = 0.37509 0.69688
#
# Static dielectric constant tensor:
#      x y z
#    x 1.695200 0.000000 -0.010440 
#    y 0.000000 1.634650 0.000000 
#    z -0.010440 0.000000 1.660770 
# 
# From -- ./inp_files/149527.got.cif
#   From: 2010.05.17/outbox.cif.g08.bks.cpg/sg12_75_cif.got.tgz:149527.got - 2010.06.03 13:09:07.
