data_PCOD9195381
_publ_section_title
;
Structure prediction by ZEFSAII (Michael W. Deem and Ramdas Pophale) SiO2 
 PCOD9195381
Probable space group: C 2/M
;
_chemical_formula_sum "Si O2"
_cell_formula_units_Z 40
_cell_length_a 13.248722
_cell_length_b 10.137527
_cell_length_c 21.981203
_cell_angle_alpha 90.000000
_cell_angle_beta 140.895999
_cell_angle_gamma 90.000000
_cell_volume 1862.091231
_symmetry_space_group_name_H-M "C 2/M"
_symmetry_group_IT_number 12
_symmetry_cell_setting 'monoclinic'
loop_
_space_group_symop_operation_xyz
x,y,z
-x,y,-z
-x,-y,-z
x,-y,z
1/2+x,1/2+y,z
1/2-x,1/2+y,-z
1/2-x,1/2-y,-z
1/2+x,1/2-y,z
loop_
_atom_site_type_symbol
_atom_site_label
_atom_site_fract_x
_atom_site_fract_y
_atom_site_fract_z
Si Si1 0.173363 0.852366 0.051424
Si Si2 0.578157 0.650821 0.866009
Si Si3 0.834175 0.233494 0.442200
Si Si4 0.459530 0.349374 0.631087
Si Si5 0.717280 0.849519 0.262057
O O1 0.702980 0.732461 0.882757
O O2 0.772236 0.000000 0.902577
O O3 0.851284 0.860607 0.032805
O O4 0.000000 0.827143 0.000000
O O5 0.546235 0.500000 0.830536
O O6 0.425988 0.746258 0.802580
O O7 0.670728 0.308927 0.380578
O O8 0.876595 0.166451 0.526148
O O9 0.791088 0.143886 0.364722
O O10 0.000000 0.306184 0.500000
O O11 0.497115 0.500000 0.657741
O O12 0.636165 0.287989 0.708725
O O13 0.669582 0.000000 0.222125
#
# Coordination Sequence:
#
# PCOD9195381 Si02
#       5
#     8   8   8   8   8
#     4   9  19  38  61  81 105 140 176 210 258 319
#     4  10  21  36  55  82 111 136 172 220 263 309
#     4   9  18  33  52  75 102 137 181 223 266 313
#     4   9  18  33  52  75 103 138 182 225 264 310
#     4  10  20  35  54  75 106 145 179 214 261 318
#
# _framework density 21.481224999999998
#
# number of rings (size 3 to 8) (size 9 to 14) (size 15 to 20)
#    0.000    2.600    0.000    1.200    0.000    6.400 
#    0.000   13.000    0.000    0.000    0.000    0.000 
#    0.000    0.000    0.000    0.000    0.000    0.000 
#
# Total GULP energy -111348.120740 kJ/mol
# GULP energy per Si atom -5567.406037 kJ/mol
# Density = 2.143233 g / cm^3
# Si number density = 21.481225 Si / 1000 Ang^3
#
#
#
# Elastic Constant Matrix: (Units=GPa)
#
#
# Indices 1 2 3 4 5 6 
#
# 1 116.1992 43.7192 17.7743 0.0000 36.9367 0.0000
# 2 43.7192 127.0902 43.2099 0.0000 49.9765 0.0000
# 3 17.7743 43.2099 44.7550 0.0000 21.7316 0.0000
# 4 0.0000 0.0000 0.0000 18.9700 0.0000 5.8648
# 5 36.9367 49.9765 21.7316 0.0000 58.7086 0.0000
# 6 0.0000 0.0000 0.0000 5.8648 0.0000 12.1429
#
#
#
# Elastic Compliance Matrix: (Units=1/GPa)
#
#
# Indices 1 2 3 4 5 6 
#
# 1 0.010969 -0.001537 -0.000191 0.000000 -0.005522 0.000000
# 2 -0.001537 0.014940 -0.009884 0.000000 -0.008092 0.000000
# 3 -0.000191 -0.009884 0.033915 0.000000 -0.004019 0.000000
# 4 0.000000 0.000000 0.000000 0.061968 0.000000 -0.029929
# 5 -0.005522 -0.008092 -0.004019 0.000000 0.028884 0.000000
# 6 0.000000 0.000000 0.000000 -0.029929 0.000000 0.096808
#
#
# Mechanical properties :
#
#
# Convention : Reuss Voigt Hill
#
# Bulk Modulus (GPa) = 27.32364 55.27235 41.29800
# Shear Modulus (GPa) = 17.67367 30.18705 23.93036
#
# Velocity S-wave (km/s) = 2.87147 3.75277 3.34130
# Velocity P-wave (km/s) = 4.87249 6.67563 5.84403
#
# Compressibility (1/GPa) = 0.03659834
#
# Stress axis : x y z
#
# Youngs Moduli (GPa) = 91.16891 66.93529 29.48574
#
# Poissons Ratio (x) = 0.10287 0.00564
# Poissons Ratio (y) = 0.14011 0.29145
# Poissons Ratio (z) = 0.01742 0.66162
#
# Static dielectric constant tensor:
#      x y z
#    x 1.872850 0.000000 0.015380 
#    y 0.000000 1.773480 0.000000 
#    z 0.015380 0.000000 1.808740 
# 
# From -- ./inp_files/335403.got.cif
#   From: 2010.05.17/outbox.cif.g08.bks.cpg/sg12_168_cif.got.tgz:335403.got - 2010.06.03 13:09:07.
