data_PCOD9195588
_publ_section_title
;
Structure prediction by ZEFSAII (Michael W. Deem and Ramdas Pophale) SiO2 
 PCOD9195588
Probable space group: C 2/M
;
_chemical_formula_sum "Si O2"
_cell_formula_units_Z 64
_cell_length_a 30.838358
_cell_length_b 8.993286
_cell_length_c 24.761289
_cell_angle_alpha 90.000000
_cell_angle_beta 32.272069
_cell_angle_gamma 90.000000
_cell_volume 3666.701403
_symmetry_space_group_name_H-M "C 2/M"
_symmetry_group_IT_number 12
_symmetry_cell_setting 'monoclinic'
loop_
_space_group_symop_operation_xyz
x,y,z
-x,y,-z
-x,-y,-z
x,-y,z
1/2+x,1/2+y,z
1/2-x,1/2+y,-z
1/2-x,1/2-y,-z
1/2+x,1/2-y,z
loop_
_atom_site_type_symbol
_atom_site_label
_atom_site_fract_x
_atom_site_fract_y
_atom_site_fract_z
Si Si1 0.500087 0.823577 0.767408
Si Si2 0.252641 0.321816 0.734645
Si Si3 0.168029 0.822703 0.564435
Si Si4 0.546129 0.175753 0.308969
Si Si5 0.621000 0.322080 0.490128
Si Si6 0.208968 0.822122 0.181537
Si Si7 0.122908 0.177686 0.018998
Si Si8 0.914015 0.177974 0.067157
O O1 0.588726 0.748626 0.675674
O O2 0.466706 0.801104 0.741692
O O3 0.438844 0.749405 0.873859
O O4 0.506701 0.000000 0.769969
O O5 0.244580 0.500000 0.739503
O O6 0.316268 0.273765 0.622083
O O7 0.284477 0.286450 0.761381
O O8 0.164030 0.250303 0.822578
O O9 0.250000 0.750000 0.500000
O O10 0.157736 0.794649 0.511021
O O11 0.168871 0.000000 0.571941
O O12 0.465240 0.240576 0.421906
O O13 0.626068 0.258562 0.245056
O O14 0.553079 0.000000 0.311566
O O15 0.607937 0.500000 0.498845
O O16 0.212511 0.000000 0.171722
O O17 0.287465 0.747875 0.071228
O O18 0.126717 0.000000 0.021981
O O19 0.093020 0.209587 0.989321
O O20 0.909356 0.000000 0.078926
O O21 0.000000 0.229934 0.000000
#
# Coordination Sequence:
#
# PCOD9195588 Si02
#       8
#     8   8   8   8   8   8   8   8
#     4  10  21  37  55  76 104 137 174 215 258 306
#     4   9  19  35  54  77 103 134 173 212 252 301
#     4  10  20  35  55  78 106 139 174 214 258 304
#     4  10  21  36  54  77 104 135 172 213 257 306
#     4   9  19  36  55  76 104 137 173 212 255 304
#     4  10  20  35  55  77 104 137 171 211 257 305
#     4  10  20  35  55  78 105 136 172 214 257 305
#     4   9  19  35  53  76 106 137 169 208 256 306
#
# _framework density 17.45438
#
# number of rings (size 3 to 8) (size 9 to 14) (size 15 to 20)
#    0.000    2.375    0.000    1.875    0.000    5.750 
#    0.000    5.000    0.000    0.000    0.000    0.000 
#    0.000    0.000    0.000    0.000    0.000    0.000 
#
# Total GULP energy -178616.759647 kJ/mol
# GULP energy per Si atom -5581.773739 kJ/mol
# Density = 1.741465 g / cm^3
# Si number density = 17.454380 Si / 1000 Ang^3
#
#
#
# Elastic Constant Matrix: (Units=GPa)
#
#
# Indices 1 2 3 4 5 6 
#
# 1 77.7148 58.9811 86.0997 0.0086 -34.0705 -0.0019
# 2 58.9811 68.0144 84.5004 -0.0039 -12.0998 0.0005
# 3 86.0997 84.5004 211.6382 -0.0013 -12.0306 -0.0035
# 4 0.0086 -0.0039 -0.0013 37.5404 0.0009 -7.7433
# 5 -34.0705 -12.0998 -12.0306 0.0009 33.8370 0.0005
# 6 -0.0019 0.0005 -0.0035 -7.7433 0.0005 25.2397
#
#
#
# Elastic Compliance Matrix: (Units=1/GPa)
#
#
# Indices 1 2 3 4 5 6 
#
# 1 0.145115 -0.080766 -0.020540 -0.000046 0.109933 -0.000007
# 2 -0.080766 0.075560 -0.000406 0.000028 -0.054448 0.000002
# 3 -0.020540 -0.000406 0.012308 0.000006 -0.016451 0.000002
# 4 -0.000046 0.000028 0.000006 0.028438 -0.000035 0.008724
# 5 0.109933 -0.054448 -0.016451 -0.000035 0.114926 -0.000006
# 6 -0.000007 0.000002 0.000002 0.008724 -0.000006 0.042297
#
#
# Mechanical properties :
#
#
# Convention : Reuss Voigt Hill
#
# Bulk Modulus (GPa) = 33.83034 90.72553 62.27793
# Shear Modulus (GPa) = 7.91238 27.84249 17.87744
#
# Velocity S-wave (km/s) = 2.13144 3.99828 3.20384
# Velocity P-wave (km/s) = 5.04793 8.56776 7.03164
#
# Compressibility (1/GPa) = 0.02955927
#
# Stress axis : x y z
#
# Youngs Moduli (GPa) = 6.89107 13.23451 81.24557
#
# Poissons Ratio (x) = 1.06890 1.66880
# Poissons Ratio (y) = 0.55656 0.03301
# Poissons Ratio (z) = 0.14154 0.00538
#
# Static dielectric constant tensor:
#      x y z
#    x 1.579180 0.000000 0.010220 
#    y 0.000000 1.580940 0.000000 
#    z 0.010220 0.000000 1.561830 
# 
# From -- ./inp_files/243781.got.cif
#   From: 2010.05.17/outbox.cif.g08.bks.cpg/sg12_122_cif.got.tgz:243781.got - 2010.06.03 13:09:07.
