data_PCOD9195558
_publ_section_title
;
Structure prediction by ZEFSAII (Michael W. Deem and Ramdas Pophale) SiO2 
 PCOD9195558
Probable space group: C 2/M
;
_chemical_formula_sum "Si O2"
_cell_formula_units_Z 64
_cell_length_a 21.186035
_cell_length_b 7.586846
_cell_length_c 24.937705
_cell_angle_alpha 90.000000
_cell_angle_beta 126.006762
_cell_angle_gamma 90.000000
_cell_volume 3242.558636
_symmetry_space_group_name_H-M "C 2/M"
_symmetry_group_IT_number 12
_symmetry_cell_setting 'monoclinic'
loop_
_space_group_symop_operation_xyz
x,y,z
-x,y,-z
-x,-y,-z
x,-y,z
1/2+x,1/2+y,z
1/2-x,1/2+y,-z
1/2-x,1/2-y,-z
1/2+x,1/2-y,z
loop_
_atom_site_type_symbol
_atom_site_label
_atom_site_fract_x
_atom_site_fract_y
_atom_site_fract_z
Si Si1 0.198920 0.786379 0.347902
Si Si2 0.921275 0.283158 0.228544
Si Si3 0.146691 0.211886 0.205589
Si Si4 0.682223 0.211378 0.509517
Si Si5 0.319400 0.790171 0.993058
Si Si6 0.564382 0.790570 0.367440
Si Si7 0.532777 0.211348 0.867929
Si Si8 0.754847 0.207363 0.845195
O O1 0.181575 0.722335 0.279492
O O2 0.279714 0.724591 0.415954
O O3 0.127717 0.734895 0.351528
O O4 0.200608 0.000000 0.348005
O O5 0.921896 0.500000 0.228553
O O6 0.950784 0.225834 0.184498
O O7 0.833062 0.221634 0.193829
O O8 0.982440 0.222646 0.304180
O O9 0.193492 0.280930 0.177521
O O10 0.054792 0.249563 0.158113
O O11 0.153984 0.000000 0.210015
O O12 0.750000 0.250000 0.500000
O O13 0.603898 0.280827 0.441787
O O14 0.673950 0.000000 0.509942
O O15 0.297318 0.722895 0.923455
O O16 0.325427 0.000000 0.991424
O O17 0.250000 0.750000 0.000000
O O18 0.400161 0.721387 0.058608
O O19 0.555050 0.000000 0.370420
O O20 0.541044 0.000000 0.870293
O O21 0.745206 0.000000 0.829462
#
# Coordination Sequence:
#
# PCOD9195558 Si02
#       8
#     8   8   8   8   8   8   8   8
#     4   9  16  27  42  66  99 129 155 194 247 290
#     4   9  16  30  51  72  95 127 165 203 242 286
#     4  10  21  34  51  74 102 136 167 202 247 295
#     4   8  14  23  38  63  95 123 154 196 239 285
#     4  11  22  37  57  79 101 129 163 204 252 296
#     4   9  15  25  45  70  91 122 164 202 239 282
#     4  10  20  35  55  75  98 129 163 203 247 293
#     4  10  21  38  54  72 101 134 169 203 245 299
#
# _framework density 19.737499
#
# number of rings (size 3 to 8) (size 9 to 14) (size 15 to 20)
#    0.000    2.500    2.500    0.375    0.000    2.000 
#    0.000    3.125    0.000    0.750    0.000    5.250 
#    0.000    0.000    0.000   20.625    0.000   15.250 
#
# Total GULP energy -178430.555595 kJ/mol
# GULP energy per Si atom -5575.954862 kJ/mol
# Density = 1.969258 g / cm^3
# Si number density = 19.737499 Si / 1000 Ang^3
#
#
#
# Elastic Constant Matrix: (Units=GPa)
#
#
# Indices 1 2 3 4 5 6 
#
# 1 117.1973 -2.7623 84.2440 0.0000 12.4424 0.0000
# 2 -2.7623 40.4393 -7.0982 0.0000 5.7165 0.0000
# 3 84.2440 -7.0982 194.3998 0.0000 34.9352 0.0000
# 4 0.0000 0.0000 0.0000 9.4771 0.0000 -0.3715
# 5 12.4424 5.7165 34.9352 0.0000 26.5734 0.0000
# 6 0.0000 0.0000 0.0000 -0.3715 0.0000 14.1399
#
#
#
# Elastic Compliance Matrix: (Units=1/GPa)
#
#
# Indices 1 2 3 4 5 6 
#
# 1 0.012455 -0.000410 -0.005735 0.000000 0.001796 0.000000
# 2 -0.000410 0.026489 0.002795 0.000000 -0.009180 0.000000
# 3 -0.005735 0.002795 0.009633 0.000000 -0.010580 0.000000
# 4 0.000000 0.000000 0.000000 0.105626 0.000000 0.002775
# 5 0.001796 -0.009180 -0.010580 0.000000 0.052674 0.000000
# 6 0.000000 0.000000 0.000000 0.002775 0.000000 0.070795
#
#
# Mechanical properties :
#
#
# Convention : Reuss Voigt Hill
#
# Bulk Modulus (GPa) = 23.88041 55.64481 39.76261
# Shear Modulus (GPa) = 16.75994 28.54827 22.65411
#
# Velocity S-wave (km/s) = 2.91717 3.80728 3.39155
# Velocity P-wave (km/s) = 4.84476 6.89788 5.96039
#
# Compressibility (1/GPa) = 0.04187533
#
# Stress axis : x y z
#
# Youngs Moduli (GPa) = 80.29058 37.75205 103.81389
#
# Poissons Ratio (x) = 0.01547 0.59538
# Poissons Ratio (y) = 0.03290 -0.29011
# Poissons Ratio (z) = 0.46047 -0.10550
#
# Static dielectric constant tensor:
#      x y z
#    x 1.653010 0.000000 0.022070 
#    y 0.000000 1.743960 0.000000 
#    z 0.022070 0.000000 1.727540 
# 
# From -- ./inp_files/345564.got.cif
#   From: 2010.05.17/outbox.cif.g08.bks.cpg/sg12_173_cif.got.tgz:345564.got - 2010.06.03 13:09:07.
