data_PCOD9195460
_publ_section_title
;
Structure prediction by ZEFSAII (Michael W. Deem and Ramdas Pophale) SiO2 
 PCOD9195460
Probable space group: C 2/M
;
_chemical_formula_sum "Si O2"
_cell_formula_units_Z 52
_cell_length_a 10.622227
_cell_length_b 21.657527
_cell_length_c 15.298844
_cell_angle_alpha 90.000000
_cell_angle_beta 135.446889
_cell_angle_gamma 90.000000
_cell_volume 2469.187913
_symmetry_space_group_name_H-M "C 2/M"
_symmetry_group_IT_number 12
_symmetry_cell_setting 'monoclinic'
loop_
_space_group_symop_operation_xyz
x,y,z
-x,y,-z
-x,-y,-z
x,-y,z
1/2+x,1/2+y,z
1/2-x,1/2+y,-z
1/2-x,1/2-y,-z
1/2+x,1/2-y,z
loop_
_atom_site_type_symbol
_atom_site_label
_atom_site_fract_x
_atom_site_fract_y
_atom_site_fract_z
Si Si1 0.871907 0.732936 0.142507
Si Si2 0.354766 0.196253 0.852122
Si Si3 0.400164 0.114602 0.251084
Si Si4 0.843233 0.435131 0.765887
Si Si5 0.500000 0.607342 0.500000
Si Si6 0.248376 0.324277 0.509239
Si Si7 0.712014 0.069469 0.627855
O O1 0.831890 0.779408 0.201744
O O2 0.807767 0.666501 0.146184
O O3 0.071867 0.727131 0.201255
O O4 0.750000 0.750000 0.000000
O O5 0.354681 0.124158 0.832467
O O6 0.500000 0.208851 0.000000
O O7 0.509941 0.071748 0.238734
O O8 0.552612 0.153477 0.378469
O O9 0.281306 0.081219 0.264713
O O10 0.866632 0.500000 0.823696
O O11 0.650143 0.431313 0.624156
O O12 0.605861 0.650204 0.485692
O O13 0.250000 0.250000 0.500000
O O14 0.277628 0.368516 0.609693
O O15 0.500000 0.065392 0.500000
O O16 0.786007 0.000000 0.641891
#
# Coordination Sequence:
#
# PCOD9195460 Si02
#       7
#     8   8   8   8   4   8   8
#     4   9  18  34  55  80 111 140 181 234 290 343
#     4   9  19  35  57  83 107 142 184 233 287 334
#     4   9  19  33  54  77 103 141 185 228 269 329
#     4  10  20  35  54  78 109 146 182 221 272 338
#     4  10  23  36  50  76 113 152 180 218 280 338
#     4  10  22  33  52  77 110 146 185 228 272 330
#     4   9  18  33  51  74 106 146 188 228 270 326
#
# _framework density 21.059555
#
# number of rings (size 3 to 8) (size 9 to 14) (size 15 to 20)
#    0.000    2.615    0.000    0.692    5.385    7.077 
#    0.000    0.000    0.000    0.000    0.000    0.000 
#    0.000   18.154    0.000    0.000    0.000    0.000 
#
# Total GULP energy -144854.594338 kJ/mol
# GULP energy per Si atom -5571.330551 kJ/mol
# Density = 2.101162 g / cm^3
# Si number density = 21.059555 Si / 1000 Ang^3
#
#
#
# Elastic Constant Matrix: (Units=GPa)
#
#
# Indices 1 2 3 4 5 6 
#
# 1 107.3681 72.9566 9.6870 -0.0006 -24.0645 -0.0001
# 2 72.9566 170.7849 10.2636 0.0000 -16.3974 0.0000
# 3 9.6870 10.2636 31.1079 -0.0003 -9.4847 -0.0001
# 4 -0.0006 0.0000 -0.0003 -261.1105 -0.0001 -4.3912
# 5 -24.0645 -16.3974 -9.4847 -0.0001 15.0101 -0.0001
# 6 -0.0001 0.0000 -0.0001 -4.3912 -0.0001 2.4210
#
#
#
# Elastic Compliance Matrix: (Units=1/GPa)
#
#
# Indices 1 2 3 4 5 6 
#
# 1 0.018747 -0.005720 0.004098 0.000000 0.026396 0.000001
# 2 -0.005720 0.008287 -0.001225 0.000000 -0.000892 0.000000
# 3 0.004098 -0.001225 0.040713 0.000000 0.030957 0.000002
# 4 0.000000 0.000000 0.000000 -0.003716 0.000000 -0.006741
# 5 0.026396 -0.000892 0.030957 0.000000 0.127527 0.000005
# 6 0.000001 0.000000 0.000002 -0.006741 0.000005 0.400825
#
#
# Mechanical properties :
#
#
# Convention : Reuss Voigt Hill
#
# Bulk Modulus (GPa) = 16.11563 55.00837 35.56200
# Shear Modulus (GPa) = 8.08065 -34.31228 -13.11581
#
# Velocity S-wave (km/s) = 1.96096 -4.04083 -2.49830
# Velocity P-wave (km/s) = 3.57718 2.09904 2.93276
#
# Compressibility (1/GPa) = 0.06205156
#
# Stress axis : x y z
#
# Youngs Moduli (GPa) = 53.34111 120.67179 24.56222
#
# Poissons Ratio (x) = 0.69030 -0.10064
# Poissons Ratio (y) = 0.30514 0.03009
# Poissons Ratio (z) = -0.21857 0.14781
#
# Static dielectric constant tensor:
#      x y z
#    x 1.766700 0.000000 -0.015050 
#    y 0.000000 1.815900 0.000000 
#    z -0.015050 0.000000 1.799920 
# 
# From -- ./inp_files/207760.got.cif
#   From: 2010.05.17/outbox.cif.g08.bks.cpg/sg12_104_cif.got.tgz:207760.got - 2010.06.03 13:09:07.
