data_PCOD9195056
_publ_section_title
;
Structure prediction by ZEFSAII (Michael W. Deem and Ramdas Pophale) SiO2 
 PCOD9195056
Probable space group: C 2/M
;
_chemical_formula_sum "Si O2"
_cell_formula_units_Z 48
_cell_length_a 13.105782
_cell_length_b 18.651974
_cell_length_c 11.942099
_cell_angle_alpha 90.000000
_cell_angle_beta 60.055416
_cell_angle_gamma 90.000000
_cell_volume 2529.538436
_symmetry_space_group_name_H-M "C 2/M"
_symmetry_group_IT_number 12
_symmetry_cell_setting 'monoclinic'
loop_
_space_group_symop_operation_xyz
x,y,z
-x,y,-z
-x,-y,-z
x,-y,z
1/2+x,1/2+y,z
1/2-x,1/2+y,-z
1/2-x,1/2-y,-z
1/2+x,1/2-y,z
loop_
_atom_site_type_symbol
_atom_site_label
_atom_site_fract_x
_atom_site_fract_y
_atom_site_fract_z
Si Si1 0.525777 0.156353 0.196456
Si Si2 0.268045 0.500000 0.091525
Si Si3 0.500000 0.759238 0.000000
Si Si4 0.699833 0.652604 0.906894
Si Si5 0.143348 0.500000 0.408307
Si Si6 0.074586 0.763468 0.564182
Si Si7 0.029003 0.500000 0.117117
Si Si8 0.736861 0.350001 0.622145
O O1 0.668715 0.159891 0.115438
O O2 0.490264 0.204767 0.321481
O O3 0.492326 0.072284 0.204088
O O4 0.463953 0.191487 0.122905
O O5 0.340593 0.572261 0.044083
O O6 0.191280 0.500000 0.251421
O O7 0.170516 0.500000 0.048587
O O8 0.395439 0.710827 0.008919
O O9 0.708173 0.655831 0.768310
O O10 0.198976 0.426884 0.428850
O O11 0.000000 0.500000 0.500000
O O12 0.176756 0.715065 0.454483
O O13 0.123965 0.829791 0.609176
O O14 0.000000 0.789413 0.500000
O O15 0.000000 0.500000 0.000000
#
# Coordination Sequence:
#
# PCOD9195056 Si02
#       8
#     8   4   4   8   4   8   4   8
#     4  11  22  37  58  85 116 152 195 242 295 345
#     4   8  20  35  56  83 112 144 189 244 273 343
#     4  12  22  36  58  80 116 160 190 246 288 352
#     4  10  20  37  55  86 114 148 201 236 291 344
#     4  10  20  34  60  90 120 145 191 244 285 341
#     4  11  21  37  60  85 119 153 191 244 299 354
#     4  10  20  36  55  81 116 151 187 236 295 333
#     4  10  21  35  57  89 116 152 194 238 299 352
#
# _framework density 18.975795000000002
#
# number of rings (size 3 to 8) (size 9 to 14) (size 15 to 20)
#    0.000    1.667    4.167    1.000    4.667    0.333 
#    0.000    0.833    0.000    0.000    0.000    1.167 
#    0.000    0.000    0.000    0.000    0.000    0.000 
#
# Total GULP energy -133708.788016 kJ/mol
# GULP energy per Si atom -5571.199501 kJ/mol
# Density = 1.893261 g / cm^3
# Si number density = 18.975795 Si / 1000 Ang^3
#
#
#
# Elastic Constant Matrix: (Units=GPa)
#
#
# Indices 1 2 3 4 5 6 
#
# 1 76.7665 50.2759 5.5669 0.0000 17.0662 0.0000
# 2 50.2759 137.3583 14.8207 0.0000 8.4896 0.0000
# 3 5.5669 14.8207 20.7101 0.0000 11.9385 0.0000
# 4 0.0000 0.0000 0.0000 33.8752 0.0000 18.3167
# 5 17.0662 8.4896 11.9385 0.0000 24.6520 0.0000
# 6 0.0000 0.0000 0.0000 18.3167 0.0000 34.9103
#
#
#
# Elastic Compliance Matrix: (Units=1/GPa)
#
#
# Indices 1 2 3 4 5 6 
#
# 1 0.021041 -0.007691 0.009320 0.000000 -0.016431 0.000000
# 2 -0.007691 0.010701 -0.009067 0.000000 0.006030 0.000000
# 3 0.009320 -0.009067 0.075175 0.000000 -0.039735 0.000000
# 4 0.000000 0.000000 0.000000 0.041212 0.000000 -0.021623
# 5 -0.016431 0.006030 -0.039735 0.000000 0.069106 0.000000
# 6 0.000000 0.000000 0.000000 -0.021623 0.000000 0.039990
#
#
# Mechanical properties :
#
#
# Convention : Reuss Voigt Hill
#
# Bulk Modulus (GPa) = 10.86477 41.79575 26.33026
# Shear Modulus (GPa) = 16.51365 29.63229 23.07297
#
# Velocity S-wave (km/s) = 2.95320 3.95597 3.49078
# Velocity P-wave (km/s) = 4.16732 6.55286 5.49120
#
# Compressibility (1/GPa) = 0.09204057
#
# Stress axis : x y z
#
# Youngs Moduli (GPa) = 47.52682 93.44912 13.30237
#
# Poissons Ratio (x) = 0.71876 -0.12398
# Poissons Ratio (y) = 0.36555 0.12061
# Poissons Ratio (z) = -0.44296 0.84727
#
# Static dielectric constant tensor:
#      x y z
#    x 1.703320 0.000000 -0.006040 
#    y 0.000000 1.689250 0.000000 
#    z -0.006040 0.000000 1.661650 
# 
# From -- ./inp_files/131725.got.cif
#   From: 2010.05.17/outbox.cif.g08.bks.cpg/sg12_66_cif.got.tgz:131725.got - 2010.06.03 13:09:07.
