data_PCOD9195856
_publ_section_title
;
Structure prediction by ZEFSAII (Michael W. Deem and Ramdas Pophale) SiO2 
 PCOD9195856
Probable space group: C 2/M
;
_chemical_formula_sum "Si O2"
_cell_formula_units_Z 60
_cell_length_a 24.761307
_cell_length_b 23.414798
_cell_length_c 5.462403
_cell_angle_alpha 90.000000
_cell_angle_beta 71.765292
_cell_angle_gamma 90.000000
_cell_volume 3007.959339
_symmetry_space_group_name_H-M "C 2/M"
_symmetry_group_IT_number 12
_symmetry_cell_setting 'monoclinic'
loop_
_space_group_symop_operation_xyz
x,y,z
-x,y,-z
-x,-y,-z
x,-y,z
1/2+x,1/2+y,z
1/2-x,1/2+y,-z
1/2-x,1/2-y,-z
1/2+x,1/2-y,z
loop_
_atom_site_type_symbol
_atom_site_label
_atom_site_fract_x
_atom_site_fract_y
_atom_site_fract_z
Si Si1 0.350314 0.126958 0.727286
Si Si2 0.000000 0.332564 0.000000
Si Si3 0.550023 0.936152 0.223359
Si Si4 0.599642 0.774052 0.597236
Si Si5 0.700871 0.563454 0.122190
Si Si6 0.297607 0.788647 0.169542
Si Si7 0.176275 0.189613 0.252027
Si Si8 0.773671 0.561989 0.516858
O O1 0.386450 0.073391 0.765523
O O2 0.393986 0.177624 0.616760
O O3 0.319178 0.109253 0.521988
O O4 0.307481 0.157207 0.974266
O O5 0.959938 0.379889 0.925837
O O6 0.039433 0.289341 0.793703
O O7 0.500000 0.934092 0.500000
O O8 0.547263 0.000000 0.115936
O O9 0.650539 0.785496 0.716719
O O10 0.618881 0.714634 0.451074
O O11 0.672673 0.500000 0.176078
O O12 0.668949 0.623794 0.191286
O O13 0.741677 0.565259 0.304689
O O14 0.732272 0.564168 0.813827
O O15 0.232152 0.798774 0.346765
O O16 0.305736 0.730371 0.000392
O O17 0.802299 0.500000 0.479446
#
# Coordination Sequence:
#
# PCOD9195856 Si02
#       8
#     8   4   8   8   8   8   8   8
#     4  11  20  35  55  79 109 153 196 250 299 343
#     4  12  23  42  58  78 111 150 206 254 306 348
#     4  11  23  39  56  76 108 153 206 255 291 334
#     4  11  23  35  58  79 108 151 193 251 304 349
#     4  10  21  37  58  84 123 159 187 235 295 366
#     4  10  20  35  55  83 113 148 187 241 294 357
#     4  10  21  35  56  86 114 146 192 235 302 363
#     4  10  21  35  54  84 118 158 199 238 289 354
#
# _framework density 19.947078000000001
#
# number of rings (size 3 to 8) (size 9 to 14) (size 15 to 20)
#    0.000    1.467    4.000    1.800    1.867    0.000 
#    0.000    0.000    0.000    0.000    0.000    0.467 
#    0.000    1.067    0.000    0.000    0.000    0.000 
#
# Total GULP energy -167131.076112 kJ/mol
# GULP energy per Si atom -5571.035870 kJ/mol
# Density = 1.990168 g / cm^3
# Si number density = 19.947078 Si / 1000 Ang^3
#
#
#
# Elastic Constant Matrix: (Units=GPa)
#
#
# Indices 1 2 3 4 5 6 
#
# 1 28.5283 17.9890 12.5320 0.0000 -3.1614 0.0000
# 2 17.9890 168.4470 33.6043 0.0000 -21.4667 0.0000
# 3 12.5320 33.6043 56.9814 0.0000 -12.9301 0.0000
# 4 0.0000 0.0000 0.0000 16.0392 0.0000 1.2589
# 5 -3.1614 -21.4667 -12.9301 0.0000 37.0446 0.0000
# 6 0.0000 0.0000 0.0000 1.2589 0.0000 23.9172
#
#
#
# Elastic Compliance Matrix: (Units=1/GPa)
#
#
# Indices 1 2 3 4 5 6 
#
# 1 0.039996 -0.002928 -0.007255 0.000000 -0.000816 0.000000
# 2 -0.002928 0.007207 -0.002949 0.000000 0.002897 0.000000
# 3 -0.007255 -0.002949 0.022107 0.000000 0.005388 0.000000
# 4 0.000000 0.000000 0.000000 0.062606 0.000000 -0.003295
# 5 -0.000816 0.002897 0.005388 0.000000 0.030484 0.000000
# 6 0.000000 0.000000 0.000000 -0.003295 0.000000 0.041984
#
#
# Mechanical properties :
#
#
# Convention : Reuss Voigt Hill
#
# Bulk Modulus (GPa) = 23.23070 42.46748 32.84909
# Shear Modulus (GPa) = 20.40856 28.05564 24.23210
#
# Velocity S-wave (km/s) = 3.20212 3.75441 3.48921
# Velocity P-wave (km/s) = 5.03417 6.33486 5.72159
#
# Compressibility (1/GPa) = 0.04304649
#
# Stress axis : x y z
#
# Youngs Moduli (GPa) = 25.00272 138.75917 45.23488
#
# Poissons Ratio (x) = 0.40628 0.32816
# Poissons Ratio (y) = 0.07321 0.13339
# Poissons Ratio (z) = 0.18139 0.40917
#
# Static dielectric constant tensor:
#      x y z
#    x 1.825450 0.000000 0.005280 
#    y 0.000000 1.747880 0.000000 
#    z 0.005280 0.000000 1.836750 
# 
# From -- ./inp_files/26031.got.cif
#   From: 2010.05.17/outbox.cif.g08.bks.cpg/sg12_14_cif.got.tgz:26031.got - 2010.06.03 13:09:07.
