data_PCOD9195851
_publ_section_title
;
Structure prediction by ZEFSAII (Michael W. Deem and Ramdas Pophale) SiO2 
 PCOD9195851
Probable space group: C 2/M
;
_chemical_formula_sum "Si O2"
_cell_formula_units_Z 56
_cell_length_a 11.265695
_cell_length_b 28.957249
_cell_length_c 9.588369
_cell_angle_alpha 90.000000
_cell_angle_beta 70.003118
_cell_angle_gamma 90.000000
_cell_volume 2939.371282
_symmetry_space_group_name_H-M "C 2/M"
_symmetry_group_IT_number 12
_symmetry_cell_setting 'monoclinic'
loop_
_space_group_symop_operation_xyz
x,y,z
-x,y,-z
-x,-y,-z
x,-y,z
1/2+x,1/2+y,z
1/2-x,1/2+y,-z
1/2-x,1/2-y,-z
1/2+x,1/2-y,z
loop_
_atom_site_type_symbol
_atom_site_label
_atom_site_fract_x
_atom_site_fract_y
_atom_site_fract_z
Si Si1 0.473348 0.552309 0.671130
Si Si2 0.745873 0.382877 0.190959
Si Si3 0.962137 0.447336 0.179832
Si Si4 0.150923 0.192902 0.436064
Si Si5 0.329404 0.875060 0.852612
Si Si6 0.352900 0.197973 0.602610
Si Si7 0.868919 0.950425 0.137128
O O1 0.500000 0.563706 0.500000
O O2 0.418994 0.500000 0.699429
O O3 0.383906 0.589521 0.779768
O O4 0.599028 0.550708 0.712504
O O5 0.828702 0.421687 0.235270
O O6 0.715882 0.339593 0.297416
O O7 0.816734 0.366430 0.023051
O O8 0.962070 0.500000 0.232400
O O9 0.056492 0.411325 0.214625
O O10 0.000000 0.449633 0.000000
O O11 0.238409 0.186012 0.539771
O O12 0.156751 0.246440 0.386906
O O13 0.000000 0.181575 0.500000
O O14 0.335410 0.830563 0.752349
O O15 0.208329 0.905759 0.867204
O O16 0.500000 0.188131 0.500000
O O17 0.804670 0.000000 0.128088
O O18 0.000000 0.950983 0.000000
#
# Coordination Sequence:
#
# PCOD9195851 Si02
#       7
#     8   8   8   8   8   8   8
#     4  10  21  35  53  81 118 157 193 233 283 345
#     4  11  21  35  60  88 116 149 198 248 295 349
#     4   9  19  35  56  83 117 160 200 237 289 356
#     4  10  23  42  65  88 117 159 199 243 312 373
#     4  11  22  35  60  88 116 151 203 246 296 347
#     4  10  23  44  64  86 118 158 199 249 308 370
#     4  10  20  35  55  82 120 155 189 236 293 345
#
# _framework density 19.051693
#
# number of rings (size 3 to 8) (size 9 to 14) (size 15 to 20)
#    0.000    1.857    1.429    2.143    4.000    1.714 
#    0.000    0.000    0.000    7.714    0.000    0.000 
#    0.000    0.000    0.000    0.000    0.000    0.000 
#
# Total GULP energy -156022.531758 kJ/mol
# GULP energy per Si atom -5572.233277 kJ/mol
# Density = 1.900833 g / cm^3
# Si number density = 19.051693 Si / 1000 Ang^3
#
#
#
# Elastic Constant Matrix: (Units=GPa)
#
#
# Indices 1 2 3 4 5 6 
#
# 1 74.6815 28.2413 19.2148 0.0000 5.0188 0.0000
# 2 28.2413 80.8482 51.8642 0.0000 3.7143 0.0000
# 3 19.2148 51.8642 75.2952 0.0000 9.5418 0.0000
# 4 0.0000 0.0000 0.0000 32.7552 0.0000 -1.5744
# 5 5.0188 3.7143 9.5418 0.0000 19.6664 0.0000
# 6 0.0000 0.0000 0.0000 -1.5744 0.0000 24.7020
#
#
#
# Elastic Compliance Matrix: (Units=1/GPa)
#
#
# Indices 1 2 3 4 5 6 
#
# 1 0.015600 -0.005379 0.000106 0.000000 -0.003017 0.000000
# 2 -0.005379 0.024236 -0.015892 0.000000 0.004506 0.000000
# 3 0.000106 -0.015892 0.025384 0.000000 -0.009342 0.000000
# 4 0.000000 0.000000 0.000000 0.030623 0.000000 0.001952
# 5 -0.003017 0.004506 -0.009342 0.000000 0.055299 0.000000
# 6 0.000000 0.000000 0.000000 0.001952 0.000000 0.040607
#
#
# Mechanical properties :
#
#
# Convention : Reuss Voigt Hill
#
# Bulk Modulus (GPa) = 43.68631 47.71840 45.70235
# Shear Modulus (GPa) = 20.68610 24.19170 22.43890
#
# Velocity S-wave (km/s) = 3.29870 3.56728 3.43562
# Velocity P-wave (km/s) = 6.12281 6.48602 6.30703
#
# Compressibility (1/GPa) = 0.02289047
#
# Stress axis : x y z
#
# Youngs Moduli (GPa) = 64.10425 41.26175 39.39430
#
# Poissons Ratio (x) = 0.22194 -0.00419
# Poissons Ratio (y) = 0.34480 0.62606
# Poissons Ratio (z) = -0.00682 0.65574
#
# Static dielectric constant tensor:
#      x y z
#    x 1.781490 0.000000 0.027580 
#    y 0.000000 1.650840 0.000000 
#    z 0.027580 0.000000 1.687670 
# 
# From -- ./inp_files/54169.got.cif
#   From: 2010.05.17/outbox.cif.g08.bks.cpg/sg12_28_cif.got.tgz:54169.got - 2010.06.03 13:09:07.
