data_PCOD9195858
_publ_section_title
;
Structure prediction by ZEFSAII (Michael W. Deem and Ramdas Pophale) SiO2 
 PCOD9195858
Probable space group: C 2/M
;
_chemical_formula_sum "Si O2"
_cell_formula_units_Z 56
_cell_length_a 25.039231
_cell_length_b 8.104583
_cell_length_c 14.197746
_cell_angle_alpha 90.000000
_cell_angle_beta 57.197713
_cell_angle_gamma 90.000000
_cell_volume 2421.765133
_symmetry_space_group_name_H-M "C 2/M"
_symmetry_group_IT_number 12
_symmetry_cell_setting 'monoclinic'
loop_
_space_group_symop_operation_xyz
x,y,z
-x,y,-z
-x,-y,-z
x,-y,z
1/2+x,1/2+y,z
1/2-x,1/2+y,-z
1/2-x,1/2-y,-z
1/2+x,1/2-y,z
loop_
_atom_site_type_symbol
_atom_site_label
_atom_site_fract_x
_atom_site_fract_y
_atom_site_fract_z
Si Si1 0.594215 0.813015 0.475136
Si Si2 0.704778 0.195615 0.243689
Si Si3 0.155258 0.800446 0.889880
Si Si4 0.351496 0.699227 0.885536
Si Si5 0.494094 0.695945 0.715699
Si Si6 0.319578 0.313431 0.449632
Si Si7 0.411075 0.191065 0.217900
O O1 0.640255 0.733040 0.352342
O O2 0.531979 0.734750 0.582770
O O3 0.642856 0.805992 0.516640
O O4 0.578172 0.000000 0.463544
O O5 0.773962 0.256481 0.211433
O O6 0.698645 0.222816 0.138037
O O7 0.703426 0.000000 0.265291
O O8 0.096791 0.732412 0.884378
O O9 0.153541 0.000000 0.887925
O O10 0.151577 0.751750 0.002688
O O11 0.345520 0.500000 0.886195
O O12 0.421474 0.748912 0.782339
O O13 0.496901 0.500000 0.726575
O O14 0.527675 0.773411 0.776062
O O15 0.321272 0.500000 0.485053
O O16 0.250000 0.250000 0.500000
O O17 0.357601 0.305152 0.316302
O O18 0.394970 0.000000 0.245361
#
# Coordination Sequence:
#
# PCOD9195858 Si02
#       7
#     8   8   8   8   8   8   8
#     4  10  20  35  55  83 114 149 190 235 286 345
#     4  10  22  38  60  86 115 149 188 236 293 342
#     4  10  21  40  61  85 116 152 190 237 292 348
#     4  10  23  40  61  84 112 152 198 240 285 341
#     4  10  21  39  59  84 116 154 193 235 286 344
#     4  11  20  32  52  80 114 152 189 234 286 342
#     4  11  22  36  57  86 115 150 191 237 288 344
#
# _framework density 23.123631
#
# number of rings (size 3 to 8) (size 9 to 14) (size 15 to 20)
#    0.000    1.714    0.000    6.429    0.000    5.714 
#    0.000    5.714    0.000    0.000    0.000    0.000 
#    0.000    0.000    0.000    0.000    0.000    0.000 
#
# Total GULP energy -156356.396149 kJ/mol
# GULP energy per Si atom -5584.157005 kJ/mol
# Density = 2.307100 g / cm^3
# Si number density = 23.123631 Si / 1000 Ang^3
#
#
#
# Elastic Constant Matrix: (Units=GPa)
#
#
# Indices 1 2 3 4 5 6 
#
# 1 71.0341 3.0571 10.5493 0.0000 3.8992 0.0000
# 2 3.0571 52.6126 0.9876 0.0000 -3.7247 0.0000
# 3 10.5493 0.9876 67.9565 0.0000 8.2443 0.0000
# 4 0.0000 0.0000 0.0000 22.9000 0.0000 9.6665
# 5 3.8992 -3.7247 8.2443 0.0000 40.2773 0.0000
# 6 0.0000 0.0000 0.0000 9.6665 0.0000 15.4392
#
#
#
# Elastic Compliance Matrix: (Units=1/GPa)
#
#
# Indices 1 2 3 4 5 6 
#
# 1 0.014486 -0.000877 -0.002108 0.000000 -0.001052 0.000000
# 2 -0.000877 0.019202 -0.000378 0.000000 0.001938 0.000000
# 3 -0.002108 -0.000378 0.015410 0.000000 -0.002985 0.000000
# 4 0.000000 0.000000 0.000000 0.059355 0.000000 -0.037162
# 5 -0.001052 0.001938 -0.002985 0.000000 0.025720 0.000000
# 6 0.000000 0.000000 0.000000 -0.037162 0.000000 0.088037
#
#
# Mechanical properties :
#
#
# Convention : Reuss Voigt Hill
#
# Bulk Modulus (GPa) = 23.60030 24.53235 24.06632
# Shear Modulus (GPa) = 20.57097 27.52393 24.04745
#
# Velocity S-wave (km/s) = 2.98587 3.45381 3.22833
# Velocity P-wave (km/s) = 4.70271 5.15144 4.93218
#
# Compressibility (1/GPa) = 0.04237235
#
# Stress axis : x y z
#
# Youngs Moduli (GPa) = 69.03052 52.07765 64.89187
#
# Poissons Ratio (x) = 0.04565 0.13682
# Poissons Ratio (y) = 0.06052 0.02453
# Poissons Ratio (z) = 0.14555 0.01969
#
# Static dielectric constant tensor:
#      x y z
#    x 1.858200 0.000000 0.028720 
#    y 0.000000 2.081620 0.000000 
#    z 0.028720 0.000000 2.021920 
# 
# From -- ./inp_files/238312.got.cif
#   From: 2010.05.17/outbox.cif.g08.bks.cpg/sg12_120_cif.got.tgz:238312.got - 2010.06.03 13:09:07.
