data_PCOD9195198
_publ_section_title
;
Structure prediction by ZEFSAII (Michael W. Deem and Ramdas Pophale) SiO2 
 PCOD9195198
Probable space group: C 2/M
;
_chemical_formula_sum "Si O2"
_cell_formula_units_Z 56
_cell_length_a 19.648038
_cell_length_b 7.414392
_cell_length_c 26.093064
_cell_angle_alpha 90.000000
_cell_angle_beta 143.760319
_cell_angle_gamma 90.000000
_cell_volume 2247.129409
_symmetry_space_group_name_H-M "C 2/M"
_symmetry_group_IT_number 12
_symmetry_cell_setting 'monoclinic'
loop_
_space_group_symop_operation_xyz
x,y,z
-x,y,-z
-x,-y,-z
x,-y,z
1/2+x,1/2+y,z
1/2-x,1/2+y,-z
1/2-x,1/2-y,-z
1/2+x,1/2-y,z
loop_
_atom_site_type_symbol
_atom_site_label
_atom_site_fract_x
_atom_site_fract_y
_atom_site_fract_z
Si Si1 0.481795 0.202844 0.550403
Si Si2 0.386104 0.216541 0.088407
Si Si3 0.763850 0.281807 0.174199
Si Si4 0.443852 0.792128 0.016147
Si Si5 0.012928 0.283819 0.742550
Si Si6 0.236937 0.279628 0.716330
Si Si7 0.763707 0.786071 0.617817
O O1 0.500000 0.188249 0.500000
O O2 0.603746 0.282170 0.640344
O O3 0.355200 0.286976 0.478538
O O4 0.478990 0.000000 0.571444
O O5 0.440925 0.284224 0.174338
O O6 0.399643 0.000000 0.096312
O O7 0.250000 0.250000 0.000000
O O8 0.450167 0.288401 0.076494
O O9 0.759893 0.500000 0.170174
O O10 0.689742 0.211555 0.081931
O O11 0.895489 0.225123 0.244306
O O12 0.712169 0.224630 0.197849
O O13 0.481562 0.000000 0.041563
O O14 0.500000 0.704329 0.000000
O O15 0.018596 0.500000 0.747249
O O16 0.879391 0.238334 0.656345
O O17 0.238614 0.500000 0.716459
O O18 0.281023 0.218686 0.687313
O O19 0.742536 0.000000 0.609713
#
# Coordination Sequence:
#
# PCOD9195198 Si02
#       7
#     8   8   8   8   8   8   8
#     4   7  11  24  47  73  98 122 155 200 242 279
#     4  10  20  36  54  71  95 130 167 198 237 289
#     4  10  20  35  52  72  99 130 164 199 240 289
#     4  10  22  37  53  73  98 128 162 202 247 291
#     4  10  21  34  48  70 102 133 158 193 244 293
#     4   8  15  29  51  76  98 124 161 205 245 279
#     4   9  17  30  52  78  97 122 165 206 237 280
#
# _framework density 24.920683
#
# number of rings (size 3 to 8) (size 9 to 14) (size 15 to 20)
#    0.000    2.857    1.429    1.714    2.000    1.429 
#    0.000    0.714    0.000    4.714    0.000    0.000 
#    0.000    0.000    0.000    0.000    0.000    0.000 
#
# Total GULP energy -156255.457543 kJ/mol
# GULP energy per Si atom -5580.552055 kJ/mol
# Density = 2.486396 g / cm^3
# Si number density = 24.920683 Si / 1000 Ang^3
#
#
#
# Elastic Constant Matrix: (Units=GPa)
#
#
# Indices 1 2 3 4 5 6 
#
# 1 99.2312 4.1557 -4.7294 0.0000 15.1218 0.0002
# 2 4.1557 87.7803 -3.7353 -0.0002 -3.0946 0.0012
# 3 -4.7294 -3.7353 31.1373 0.0000 15.0166 0.0000
# 4 0.0000 -0.0002 0.0000 -6.8211 0.0000 9.6053
# 5 15.1218 -3.0946 15.0166 0.0000 49.3467 0.0000
# 6 0.0002 0.0012 0.0000 9.6053 0.0000 6.2080
#
#
#
# Elastic Compliance Matrix: (Units=1/GPa)
#
#
# Indices 1 2 3 4 5 6 
#
# 1 0.010974 -0.000518 0.003800 0.000000 -0.004552 0.000000
# 2 -0.000518 0.011480 0.001025 -0.000001 0.000567 -0.000001
# 3 0.003800 0.001025 0.039082 0.000000 -0.012993 0.000000
# 4 0.000000 -0.000001 0.000000 -0.046119 0.000000 0.071358
# 5 -0.004552 0.000567 -0.012993 0.000000 0.025649 0.000000
# 6 0.000000 -0.000001 0.000000 0.071358 0.000000 0.050674
#
#
# Mechanical properties :
#
#
# Convention : Reuss Voigt Hill
#
# Bulk Modulus (GPa) = 14.25528 23.28117 18.76823
# Shear Modulus (GPa) = 46.94393 24.57725 35.76059
#
# Velocity S-wave (km/s) = 4.34491 3.14382 3.79222
# Velocity P-wave (km/s) = 5.55911 4.74769 5.16934
#
# Compressibility (1/GPa) = 0.07014946
#
# Stress axis : x y z
#
# Youngs Moduli (GPa) = 91.12528 87.10638 25.58714
#
# Poissons Ratio (x) = 0.04515 -0.09723
# Poissons Ratio (y) = 0.04723 -0.02623
# Poissons Ratio (z) = -0.34625 -0.08930
#
# Static dielectric constant tensor:
#      x y z
#    x 1.980430 0.000000 0.038920 
#    y 0.000000 1.977310 0.000000 
#    z 0.038920 0.000000 2.021020 
# 
# From -- ./inp_files/276933.got.cif
#   From: 2010.05.17/outbox.cif.g08.bks.cpg/sg12_139_cif.got.tgz:276933.got - 2010.06.03 13:09:07.
