data_PCOD9195512
_publ_section_title
;
Structure prediction by ZEFSAII (Michael W. Deem and Ramdas Pophale) SiO2 
 PCOD9195512
Probable space group: C 2/M
;
_chemical_formula_sum "Si O2"
_cell_formula_units_Z 56
_cell_length_a 18.647171
_cell_length_b 11.452589
_cell_length_c 17.623719
_cell_angle_alpha 90.000000
_cell_angle_beta 44.831573
_cell_angle_gamma 90.000000
_cell_volume 2653.498069
_symmetry_space_group_name_H-M "C 2/M"
_symmetry_group_IT_number 12
_symmetry_cell_setting 'monoclinic'
loop_
_space_group_symop_operation_xyz
x,y,z
-x,y,-z
-x,-y,-z
x,-y,z
1/2+x,1/2+y,z
1/2-x,1/2+y,-z
1/2-x,1/2-y,-z
1/2+x,1/2-y,z
loop_
_atom_site_type_symbol
_atom_site_label
_atom_site_fract_x
_atom_site_fract_y
_atom_site_fract_z
Si Si1 0.732417 0.875449 0.836694
Si Si2 0.881903 0.864411 0.113963
Si Si3 0.555827 0.134309 0.334639
Si Si4 0.541400 0.630648 0.781964
Si Si5 0.639262 0.285995 0.557554
Si Si6 0.653707 0.740958 0.126025
Si Si7 0.115052 0.830388 0.407140
O O1 0.671701 0.751401 0.880675
O O2 0.816319 0.864322 0.840249
O O3 0.798951 0.881232 0.710940
O O4 0.675623 0.000000 0.888255
O O5 0.883694 0.845643 0.204001
O O6 0.844315 0.000000 0.127201
O O7 0.000000 0.863443 0.000000
O O8 0.445623 0.185852 0.394176
O O9 0.625963 0.158640 0.207827
O O10 0.596493 0.206335 0.376862
O O11 0.551097 0.000000 0.356169
O O12 0.502222 0.500000 0.824665
O O13 0.593474 0.639096 0.660791
O O14 0.445512 0.716044 0.849457
O O15 0.750000 0.250000 0.500000
O O16 0.651976 0.338388 0.464982
O O17 0.750000 0.750000 0.000000
O O18 0.000000 0.877518 0.500000
#
# Coordination Sequence:
#
# PCOD9195512 Si02
#       7
#     8   8   8   8   8   8   8
#     4  11  23  38  61  93 122 154 201 252 299 357
#     4  10  22  42  65  87 118 162 203 244 300 363
#     4   9  20  37  58  85 115 152 201 252 300 358
#     4  10  21  38  59  83 112 149 198 245 286 348
#     4  10  20  35  54  81 115 150 191 240 298 353
#     4  10  21  38  59  85 119 154 193 244 304 361
#     4   9  20  37  56  80 115 157 196 238 293 357
#
# _framework density 21.104217999999999
#
# number of rings (size 3 to 8) (size 9 to 14) (size 15 to 20)
#    0.000    2.143    0.000    3.000    0.000    7.714 
#    0.000    7.143    0.000    0.000    0.000    0.000 
#    0.000    0.000    0.000    0.000    0.000    0.000 
#
# Total GULP energy -155955.474998 kJ/mol
# GULP energy per Si atom -5569.838393 kJ/mol
# Density = 2.105618 g / cm^3
# Si number density = 21.104218 Si / 1000 Ang^3
#
#
#
# Elastic Constant Matrix: (Units=GPa)
#
#
# Indices 1 2 3 4 5 6 
#
# 1 80.0041 9.7255 -7.7927 0.0000 11.2529 0.0000
# 2 9.7255 130.8222 -14.0438 0.0000 -0.8667 0.0000
# 3 -7.7927 -14.0438 88.1769 0.0000 9.2624 0.0000
# 4 0.0000 0.0000 0.0000 -58.2716 0.0000 19.6578
# 5 11.2529 -0.8667 9.2624 0.0000 34.5393 0.0000
# 6 0.0000 0.0000 0.0000 19.6578 0.0000 -1.5112
#
#
#
# Elastic Compliance Matrix: (Units=1/GPa)
#
#
# Indices 1 2 3 4 5 6 
#
# 1 0.013433 -0.000864 0.001555 0.000000 -0.004815 0.000000
# 2 -0.000864 0.007833 0.001154 0.000000 0.000169 0.000000
# 3 0.001555 0.001154 0.012052 0.000000 -0.003710 0.000000
# 4 0.000000 0.000000 0.000000 0.005065 0.000000 0.065884
# 5 -0.004815 0.000169 -0.003710 0.000000 0.031520 0.000000
# 6 0.000000 0.000000 0.000000 0.065884 0.000000 0.195300
#
#
# Mechanical properties :
#
#
# Convention : Reuss Voigt Hill
#
# Bulk Modulus (GPa) = 27.02062 30.53126 28.77594
# Shear Modulus (GPa) = 18.25828 15.69225 16.97526
#
# Velocity S-wave (km/s) = 2.94453 2.72979 2.83919
# Velocity P-wave (km/s) = 4.93878 4.94307 4.94093
#
# Compressibility (1/GPa) = 0.03700878
#
# Stress axis : x y z
#
# Youngs Moduli (GPa) = 74.44279 127.66316 82.97585
#
# Poissons Ratio (x) = 0.11025 -0.12906
# Poissons Ratio (y) = 0.06429 -0.09572
# Poissons Ratio (z) = -0.11579 -0.14726
#
# Static dielectric constant tensor:
#      x y z
#    x 1.698520 0.000000 -0.145550 
#    y 0.000000 1.789130 0.000000 
#    z -0.145550 0.000000 1.292970 
# 
# From -- ./inp_files/276932.got.cif
#   From: 2010.05.17/outbox.cif.g08.bks.cpg/sg12_139_cif.got.tgz:276932.got - 2010.06.03 13:09:07.
