data_PCOD9195329
_publ_section_title
;
Structure prediction by ZEFSAII (Michael W. Deem and Ramdas Pophale) SiO2 
 PCOD9195329
Probable space group: C 2/M
;
_chemical_formula_sum "Si O2"
_cell_formula_units_Z 64
_cell_length_a 25.951969
_cell_length_b 7.925144
_cell_length_c 31.064528
_cell_angle_alpha 90.000000
_cell_angle_beta 151.812977
_cell_angle_gamma 90.000000
_cell_volume 3017.916418
_symmetry_space_group_name_H-M "C 2/M"
_symmetry_group_IT_number 12
_symmetry_cell_setting 'monoclinic'
loop_
_space_group_symop_operation_xyz
x,y,z
-x,y,-z
-x,-y,-z
x,-y,z
1/2+x,1/2+y,z
1/2-x,1/2+y,-z
1/2-x,1/2-y,-z
1/2+x,1/2-y,z
loop_
_atom_site_type_symbol
_atom_site_label
_atom_site_fract_x
_atom_site_fract_y
_atom_site_fract_z
Si Si1 0.652505 0.702586 0.897228
Si Si2 0.455109 0.197617 0.330786
Si Si3 0.136405 0.801428 0.395814
Si Si4 0.818615 0.206301 0.756219
Si Si5 0.411204 0.293186 0.734293
Si Si6 0.234210 0.201060 0.865598
Si Si7 0.927892 0.706961 0.405939
Si Si8 0.982714 0.795940 0.036379
O O1 0.647436 0.500000 0.890444
O O2 0.537253 0.759314 0.831144
O O3 0.676887 0.765966 0.867084
O O4 0.750000 0.750000 0.000000
O O5 0.536980 0.264882 0.354845
O O6 0.331518 0.224850 0.223200
O O7 0.469540 0.266002 0.389792
O O8 0.476926 0.000000 0.349167
O O9 0.250000 0.750000 0.500000
O O10 0.124696 0.729564 0.339029
O O11 0.137172 0.000000 0.390454
O O12 0.842832 0.261110 0.725190
O O13 0.698220 0.259087 0.681863
O O14 0.918081 0.262149 0.860174
O O15 0.819318 0.000000 0.757623
O O16 0.407707 0.500000 0.732009
O O17 0.220900 0.000000 0.853691
O O18 0.361893 0.241999 0.961407
O O19 0.929774 0.500000 0.406999
O O20 0.000000 0.760211 0.500000
O O21 0.984416 0.000000 0.038172
O O22 0.000000 0.739096 0.000000
#
# Coordination Sequence:
#
# PCOD9195329 Si02
#       8
#     8   8   8   8   8   8   8   8
#     4  10  20  35  53  80 113 152 195 236 286 347
#     4  11  22  38  62  91 120 155 198 245 297 352
#     4  11  23  40  61  88 119 155 200 246 296 356
#     4   9  17  31  54  83 116 150 188 244 299 343
#     4   9  18  34  55  79 115 153 188 231 290 350
#     4  11  22  37  57  83 119 158 193 238 294 353
#     4   9  19  34  56  89 119 146 193 249 297 349
#     4  10  20  35  57  85 115 151 199 250 295 347
#
# _framework density 21.206683999999999
#
# number of rings (size 3 to 8) (size 9 to 14) (size 15 to 20)
#    0.000    2.000    1.250    2.625    1.750    4.250 
#    0.000    0.000    0.000    2.250    0.000    0.000 
#    0.000    0.000    0.000    0.000    0.000    0.000 
#
# Total GULP energy -178744.105819 kJ/mol
# GULP energy per Si atom -5585.753307 kJ/mol
# Density = 2.115842 g / cm^3
# Si number density = 21.206684 Si / 1000 Ang^3
#
#
#
# Elastic Constant Matrix: (Units=GPa)
#
#
# Indices 1 2 3 4 5 6 
#
# 1 124.5370 5.4591 42.2572 0.0000 -16.9330 0.0009
# 2 5.4591 16.0628 -4.0909 -0.0004 -1.9664 0.0015
# 3 42.2572 -4.0909 120.5133 0.0001 -16.4232 0.0006
# 4 0.0000 -0.0004 0.0001 20.1272 -0.0002 5.8761
# 5 -16.9330 -1.9664 -16.4232 -0.0002 40.1915 0.0000
# 6 0.0009 0.0015 0.0006 5.8761 0.0000 19.1815
#
#
#
# Elastic Compliance Matrix: (Units=1/GPa)
#
#
# Indices 1 2 3 4 5 6 
#
# 1 0.009613 -0.003752 -0.003146 0.000000 0.002581 0.000000
# 2 -0.003752 0.064932 0.003958 0.000003 0.003213 -0.000006
# 3 -0.003146 0.003958 0.009934 0.000000 0.002928 -0.000001
# 4 0.000000 0.000003 0.000000 0.054564 0.000000 -0.016715
# 5 0.002581 0.003213 0.002928 0.000000 0.027322 -0.000001
# 6 0.000000 -0.000006 -0.000001 -0.016715 -0.000001 0.057254
#
#
# Mechanical properties :
#
#
# Convention : Reuss Voigt Hill
#
# Bulk Modulus (GPa) = 12.72301 38.70709 25.71505
# Shear Modulus (GPa) = 19.55412 30.39920 24.97666
#
# Velocity S-wave (km/s) = 3.03986 3.79023 3.43559
# Velocity P-wave (km/s) = 4.28177 6.11935 5.28110
#
# Compressibility (1/GPa) = 0.07859774
#
# Stress axis : x y z
#
# Youngs Moduli (GPa) = 104.02896 15.40063 100.66047
#
# Poissons Ratio (x) = 0.05779 0.31671
# Poissons Ratio (y) = 0.39036 -0.39840
# Poissons Ratio (z) = 0.32731 -0.06095
#
# Static dielectric constant tensor:
#      x y z
#    x 1.775110 0.000000 -0.022160 
#    y 0.000000 1.793890 0.000000 
#    z -0.022160 0.000000 1.730950 
# 
# From -- ./inp_files/382230.got.cif
#   From: 2010.05.17/outbox.cif.g08.bks.cpg/sg12_192_cif.got.tgz:382230.got - 2010.06.03 13:09:07.
