data_PCOD9195473
_publ_section_title
;
Structure prediction by ZEFSAII (Michael W. Deem and Ramdas Pophale) SiO2 
 PCOD9195473
Probable space group: C 2/M
;
_chemical_formula_sum "Si O2"
_cell_formula_units_Z 48
_cell_length_a 20.463709
_cell_length_b 7.573490
_cell_length_c 27.068595
_cell_angle_alpha 90.000000
_cell_angle_beta 147.931465
_cell_angle_gamma 90.000000
_cell_volume 2227.337744
_symmetry_space_group_name_H-M "C 2/M"
_symmetry_group_IT_number 12
_symmetry_cell_setting 'monoclinic'
loop_
_space_group_symop_operation_xyz
x,y,z
-x,y,-z
-x,-y,-z
x,-y,z
1/2+x,1/2+y,z
1/2-x,1/2+y,-z
1/2-x,1/2-y,-z
1/2+x,1/2-y,z
loop_
_atom_site_type_symbol
_atom_site_label
_atom_site_fract_x
_atom_site_fract_y
_atom_site_fract_z
Si Si1 0.847847 0.294873 0.634432
Si Si2 0.150204 0.787891 0.977646
Si Si3 0.609297 0.705923 0.227258
Si Si4 0.189839 0.715927 0.717972
Si Si5 0.858169 0.215194 0.917841
Si Si6 0.078914 0.714780 0.426177
O O1 0.880341 0.500000 0.658152
O O2 0.886486 0.216082 0.711223
O O3 0.908793 0.224322 0.623034
O O4 0.701500 0.274940 0.532654
O O5 0.016778 0.717516 0.875362
O O6 0.141768 0.000000 0.975476
O O7 0.250000 0.750000 0.000000
O O8 0.181532 0.725829 0.052952
O O9 0.606921 0.500000 0.211878
O O10 0.732030 0.776455 0.279431
O O11 0.183790 0.500000 0.713990
O O12 0.268137 0.770792 0.816280
O O13 0.048987 0.774388 0.632142
O O14 0.857108 0.000000 0.915998
O O15 0.000000 0.268421 0.000000
O O16 0.082610 0.500000 0.428174
#
# Coordination Sequence:
#
# PCOD9195473 Si02
#       6
#     8   8   8   8   8   8
#     4  10  21  36  55  79 108 139 169 212 268 321
#     4  10  21  34  53  80 110 142 174 214 263 310
#     4  10  20  35  54  79 108 138 174 219 264 306
#     4   9  17  31  54  80 102 133 181 224 257 296
#     4   9  15  29  53  79 105 134 174 221 257 294
#     4   9  19  36  57  79 101 134 179 221 260 307
#
# _framework density 21.550391999999999
#
# number of rings (size 3 to 8) (size 9 to 14) (size 15 to 20)
#    0.000    2.500    1.667    0.500    2.333    2.000 
#    0.000    4.167    0.000    1.500    0.000    0.000 
#    0.000    0.000    0.000    0.000    0.000    0.000 
#
# Total GULP energy -133989.125931 kJ/mol
# GULP energy per Si atom -5582.880247 kJ/mol
# Density = 2.150134 g / cm^3
# Si number density = 21.550392 Si / 1000 Ang^3
#
#
#
# Elastic Constant Matrix: (Units=GPa)
#
#
# Indices 1 2 3 4 5 6 
#
# 1 69.0749 0.1218 -4.9796 -0.0002 5.3299 0.0001
# 2 0.1218 43.2545 -6.5776 -0.0002 2.2801 0.0008
# 3 -4.9796 -6.5776 14.0845 0.0000 1.1031 0.0001
# 4 -0.0002 -0.0002 0.0000 2.0020 0.0000 -3.0396
# 5 5.3299 2.2801 1.1031 0.0000 39.5798 -0.0001
# 6 0.0001 0.0008 0.0001 -3.0396 -0.0001 19.5407
#
#
#
# Elastic Compliance Matrix: (Units=1/GPa)
#
#
# Indices 1 2 3 4 5 6 
#
# 1 0.015079 0.000984 0.005967 0.000002 -0.002254 0.000000
# 2 0.000984 0.025074 0.012207 0.000002 -0.001917 -0.000001
# 3 0.005967 0.012207 0.079101 0.000002 -0.003711 -0.000001
# 4 0.000002 0.000002 0.000002 0.653931 0.000000 0.101720
# 5 -0.002254 -0.001917 -0.003711 0.000000 0.025783 0.000000
# 6 0.000000 -0.000001 -0.000001 0.101720 0.000000 0.066998
#
#
# Mechanical properties :
#
#
# Convention : Reuss Voigt Hill
#
# Bulk Modulus (GPa) = 6.34634 11.50482 8.92558
# Shear Modulus (GPa) = 5.68071 21.41448 13.54759
#
# Velocity S-wave (km/s) = 1.62534 3.15571 2.51000
# Velocity P-wave (km/s) = 2.54432 4.31604 3.54272
#
# Compressibility (1/GPa) = 0.15757112
#
# Stress axis : x y z
#
# Youngs Moduli (GPa) = 66.31580 39.88261 12.64202
#
# Poissons Ratio (x) = -0.03923 -0.07544
# Poissons Ratio (y) = -0.06524 -0.15433
# Poissons Ratio (z) = -0.39572 -0.48687
#
# Static dielectric constant tensor:
#      x y z
#    x 1.775260 0.000000 0.009760 
#    y 0.000000 1.846420 0.000000 
#    z 0.009760 0.000000 1.735640 
# 
# From -- ./inp_files/365538.got.cif
#   From: 2010.05.17/outbox.cif.g08.bks.cpg/sg12_183_cif.got.tgz:365538.got - 2010.06.03 13:09:07.
