data_PCOD9195916
_publ_section_title
;
Structure prediction by ZEFSAII (Michael W. Deem and Ramdas Pophale) SiO2 
 PCOD9195916
Probable space group: C 2/M
;
_chemical_formula_sum "Si O2"
_cell_formula_units_Z 64
_cell_length_a 21.615587
_cell_length_b 16.333282
_cell_length_c 18.046634
_cell_angle_alpha 90.000000
_cell_angle_beta 31.271257
_cell_angle_gamma 90.000000
_cell_volume 3307.346531
_symmetry_space_group_name_H-M "C 2/M"
_symmetry_group_IT_number 12
_symmetry_cell_setting 'monoclinic'
loop_
_space_group_symop_operation_xyz
x,y,z
-x,y,-z
-x,-y,-z
x,-y,z
1/2+x,1/2+y,z
1/2-x,1/2+y,-z
1/2-x,1/2-y,-z
1/2+x,1/2-y,z
loop_
_atom_site_type_symbol
_atom_site_label
_atom_site_fract_x
_atom_site_fract_y
_atom_site_fract_z
Si Si1 0.705402 0.402272 0.675200
Si Si2 0.376176 0.256577 0.328484
Si Si3 0.405441 0.298600 0.648645
Si Si4 0.763303 0.597707 0.076016
Si Si5 0.692761 0.687136 0.840584
Si Si6 0.286822 0.093804 0.887144
Si Si7 0.531362 0.829241 0.627138
Si Si8 0.016162 0.327763 0.064723
O O1 0.696535 0.500000 0.675952
O O2 0.622270 0.348800 0.705010
O O3 0.675578 0.372953 0.789229
O O4 0.841025 0.370539 0.520305
O O5 0.250000 0.250000 0.500000
O O6 0.464189 0.224747 0.302208
O O7 0.401376 0.197544 0.231550
O O8 0.500000 0.343067 0.500000
O O9 0.337093 0.358478 0.773216
O O10 0.301036 0.250046 0.712270
O O11 0.483196 0.231160 0.612912
O O12 0.752830 0.500000 0.087665
O O13 0.751655 0.627424 0.003427
O O14 0.891007 0.622418 0.979991
O O15 0.732640 0.641027 0.873737
O O16 0.582131 0.742890 0.976551
O O17 0.429777 0.102451 0.737974
O O18 0.250830 0.000000 0.919072
O O19 0.000000 0.367929 0.000000
#
# Coordination Sequence:
#
# PCOD9195916 Si02
#       8
#     8   8   8   8   8   8   8   8
#     4  11  21  37  57  89 123 149 187 241 287 339
#     4  10  22  38  58  84 112 157 199 235 281 342
#     4  10  20  36  60  84 116 150 193 232 287 353
#     4  10  23  38  57  88 116 146 195 250 292 329
#     4  10  21  34  57  88 118 154 189 224 290 355
#     4  10  20  35  55  87 119 147 185 236 291 340
#     4  10  20  36  61  83 112 158 195 228 282 345
#     4  11  21  39  63  80 113 156 202 237 283 349
#
# _framework density 19.350860000000001
#
# number of rings (size 3 to 8) (size 9 to 14) (size 15 to 20)
#    0.000    1.750    3.750    0.750    1.750    2.000 
#    0.000    4.375    0.000    3.000    0.000    0.000 
#    0.000    0.000    0.000    0.000    0.000    0.000 
#
# Total GULP energy -178427.422437 kJ/mol
# GULP energy per Si atom -5575.856951 kJ/mol
# Density = 1.930682 g / cm^3
# Si number density = 19.350860 Si / 1000 Ang^3
#
#
#
# Elastic Constant Matrix: (Units=GPa)
#
#
# Indices 1 2 3 4 5 6 
#
# 1 58.4550 14.9143 6.1673 0.0000 12.3145 0.0000
# 2 14.9143 74.3853 14.6511 0.0000 8.0626 0.0000
# 3 6.1673 14.6511 93.8919 0.0000 19.2865 0.0000
# 4 0.0000 0.0000 0.0000 20.9675 0.0000 3.0475
# 5 12.3145 8.0626 19.2865 0.0000 22.2595 0.0000
# 6 0.0000 0.0000 0.0000 3.0475 0.0000 21.6716
#
#
#
# Elastic Compliance Matrix: (Units=1/GPa)
#
#
# Indices 1 2 3 4 5 6 
#
# 1 0.020121 -0.003102 0.001482 0.000000 -0.011292 0.000000
# 2 -0.003102 0.014622 -0.001633 0.000000 -0.002165 0.000000
# 3 0.001482 -0.001633 0.013205 0.000000 -0.011670 0.000000
# 4 0.000000 0.000000 0.000000 0.048688 0.000000 -0.006847
# 5 -0.011292 -0.002165 -0.011670 0.000000 0.062067 0.000000
# 6 0.000000 0.000000 0.000000 -0.006847 0.000000 0.047106
#
#
# Mechanical properties :
#
#
# Convention : Reuss Voigt Hill
#
# Bulk Modulus (GPa) = 24.13062 33.13307 28.63185
# Shear Modulus (GPa) = 22.11119 25.71302 23.91211
#
# Velocity S-wave (km/s) = 3.38397 3.64920 3.51908
# Velocity P-wave (km/s) = 5.26930 5.90889 5.59823
#
# Compressibility (1/GPa) = 0.04144112
#
# Stress axis : x y z
#
# Youngs Moduli (GPa) = 49.69893 68.39084 75.72796
#
# Poissons Ratio (x) = 0.21217 -0.11222
# Poissons Ratio (y) = 0.15418 0.12368
# Poissons Ratio (z) = -0.07365 0.11169
#
# Static dielectric constant tensor:
#      x y z
#    x 1.711670 0.000000 0.011970 
#    y 0.000000 1.644020 0.000000 
#    z 0.011970 0.000000 1.722540 
# 
# From -- ./inp_files/290102.got.cif
#   From: 2010.05.17/outbox.cif.g08.bks.cpg/sg12_146_cif.got.tgz:290102.got - 2010.06.03 13:09:07.
