data_PCOD9195299
_publ_section_title
;
Structure prediction by ZEFSAII (Michael W. Deem and Ramdas Pophale) SiO2 
 PCOD9195299
Probable space group: C 2/M
;
_chemical_formula_sum "Si O2"
_cell_formula_units_Z 56
_cell_length_a 30.504120
_cell_length_b 8.807372
_cell_length_c 12.651664
_cell_angle_alpha 90.000000
_cell_angle_beta 59.153849
_cell_angle_gamma 90.000000
_cell_volume 2918.210755
_symmetry_space_group_name_H-M "C 2/M"
_symmetry_group_IT_number 12
_symmetry_cell_setting 'monoclinic'
loop_
_space_group_symop_operation_xyz
x,y,z
-x,y,-z
-x,-y,-z
x,-y,z
1/2+x,1/2+y,z
1/2-x,1/2+y,-z
1/2-x,1/2-y,-z
1/2+x,1/2-y,z
loop_
_atom_site_type_symbol
_atom_site_label
_atom_site_fract_x
_atom_site_fract_y
_atom_site_fract_z
Si Si1 0.104964 0.180192 0.868522
Si Si2 0.910526 0.684934 0.881356
Si Si3 0.905927 0.683086 0.338312
Si Si4 0.199065 0.667916 0.028406
Si Si5 0.287883 0.829927 0.237524
Si Si6 0.210612 0.681513 0.463132
Si Si7 0.004999 0.315260 0.615138
O O1 0.079893 0.246052 0.792858
O O2 0.164593 0.228774 0.783834
O O3 0.100022 0.000000 0.878733
O O4 0.086394 0.251245 0.002941
O O5 0.907955 0.500000 0.892534
O O6 0.857469 0.737561 0.891775
O O7 0.957485 0.727340 0.748650
O O8 0.908448 0.500000 0.324544
O O9 0.847645 0.722923 0.440604
O O10 0.944014 0.730612 0.384865
O O11 0.198191 0.500000 0.078415
O O12 0.250000 0.750000 0.000000
O O13 0.204521 0.655820 0.895790
O O14 0.233803 0.754828 0.329017
O O15 0.291768 0.000000 0.280054
O O16 0.214511 0.500000 0.454406
O O17 0.250000 0.750000 0.500000
O O18 0.005418 0.500000 0.610495
O O19 0.000000 0.261841 0.500000
#
# Coordination Sequence:
#
# PCOD9195299 Si02
#       7
#     8   8   8   8   8   8   8
#     4  11  21  34  56  84 114 147 187 231 285 349
#     4   9  19  37  60  83 113 149 186 237 291 335
#     4  10  21  36  57  85 116 150 190 238 286 337
#     4   9  19  33  52  79 109 144 183 230 282 335
#     4  10  20  35  53  77 113 150 187 232 282 335
#     4  11  21  32  52  82 117 153 186 226 279 339
#     4   9  19  38  63  87 110 145 196 243 282 333
#
# _framework density 19.189841000000001
#
# number of rings (size 3 to 8) (size 9 to 14) (size 15 to 20)
#    0.000    2.143    1.429    3.000    0.000    5.143 
#    0.000    6.429    0.000    1.714    0.000    0.000 
#    0.000    0.000    0.000    0.000    0.000    0.000 
#
# Total GULP energy -156093.310104 kJ/mol
# GULP energy per Si atom -5574.761075 kJ/mol
# Density = 1.914616 g / cm^3
# Si number density = 19.189841 Si / 1000 Ang^3
#
#
#
# Elastic Constant Matrix: (Units=GPa)
#
#
# Indices 1 2 3 4 5 6 
#
# 1 144.5666 30.8295 69.1274 0.0000 -1.8359 0.0000
# 2 30.8295 44.2939 28.4700 0.0000 -2.0266 0.0000
# 3 69.1274 28.4700 122.6023 0.0000 -14.2064 0.0000
# 4 0.0000 0.0000 0.0000 23.9593 0.0000 0.9118
# 5 -1.8359 -2.0266 -14.2064 0.0000 27.2513 0.0000
# 6 0.0000 0.0000 0.0000 0.9118 0.0000 18.1399
#
#
#
# Elastic Compliance Matrix: (Units=1/GPa)
#
#
# Indices 1 2 3 4 5 6 
#
# 1 0.010149 -0.003904 -0.005077 0.000000 -0.002253 0.000000
# 2 -0.003904 0.028083 -0.004373 0.000000 -0.000454 0.000000
# 3 -0.005077 -0.004373 0.012726 0.000000 0.005967 0.000000
# 4 0.000000 0.000000 0.000000 0.041818 0.000000 -0.002102
# 5 -0.002253 -0.000454 0.005967 0.000000 0.039620 0.000000
# 6 0.000000 0.000000 0.000000 -0.002102 0.000000 0.055233
#
#
# Mechanical properties :
#
#
# Convention : Reuss Voigt Hill
#
# Bulk Modulus (GPa) = 41.23531 63.14631 52.19081
# Shear Modulus (GPa) = 22.48010 26.07250 24.27630
#
# Velocity S-wave (km/s) = 3.42637 3.69000 3.56063
# Velocity P-wave (km/s) = 6.09820 7.15069 6.64532
#
# Compressibility (1/GPa) = 0.02425106
#
# Stress axis : x y z
#
# Youngs Moduli (GPa) = 98.53536 35.60817 78.58066
#
# Poissons Ratio (x) = 0.13900 0.39893
# Poissons Ratio (y) = 0.38465 0.34363
# Poissons Ratio (z) = 0.50024 0.15571
#
# Static dielectric constant tensor:
#      x y z
#    x 1.694860 0.000000 0.004520 
#    y 0.000000 1.678810 0.000000 
#    z 0.004520 0.000000 1.720480 
# 
# From -- ./inp_files/187161.got.cif
#   From: 2010.05.17/outbox.cif.g08.bks.cpg/sg12_94_cif.got.tgz:187161.got - 2010.06.03 13:09:07.
