data_PCOD9195877
_publ_section_title
;
Structure prediction by ZEFSAII (Michael W. Deem and Ramdas Pophale) SiO2 
 PCOD9195877
Probable space group: C 2/M
;
_chemical_formula_sum "Si O2"
_cell_formula_units_Z 64
_cell_length_a 20.566815
_cell_length_b 17.569165
_cell_length_c 24.038214
_cell_angle_alpha 90.000000
_cell_angle_beta 158.410281
_cell_angle_gamma 90.000000
_cell_volume 3196.084609
_symmetry_space_group_name_H-M "C 2/M"
_symmetry_group_IT_number 12
_symmetry_cell_setting 'monoclinic'
loop_
_space_group_symop_operation_xyz
x,y,z
-x,y,-z
-x,-y,-z
x,-y,z
1/2+x,1/2+y,z
1/2-x,1/2+y,-z
1/2-x,1/2-y,-z
1/2+x,1/2-y,z
loop_
_atom_site_type_symbol
_atom_site_label
_atom_site_fract_x
_atom_site_fract_y
_atom_site_fract_z
Si Si1 0.970513 0.199486 0.824545
Si Si2 0.401164 0.588978 0.158096
Si Si3 0.187948 0.413580 0.478879
Si Si4 0.917347 0.641455 0.485485
Si Si5 0.087067 0.199089 0.647996
Si Si6 0.692333 0.839058 0.366623
Si Si7 0.685776 0.911789 0.243642
Si Si8 0.149084 0.322877 0.042576
O O1 0.783564 0.162179 0.691074
O O2 0.910551 0.261705 0.730425
O O3 0.093471 0.135436 0.895343
O O4 0.060455 0.248785 0.944050
O O5 0.351948 0.500000 0.113772
O O6 0.602507 0.592003 0.341121
O O7 0.277160 0.634910 0.101030
O O8 0.148252 0.500000 0.432092
O O9 0.093617 0.393178 0.461678
O O10 0.144924 0.363742 0.390836
O O11 0.000000 0.595661 0.500000
O O12 0.035265 0.717687 0.585381
O O13 0.162880 0.143566 0.660406
O O14 0.238844 0.199811 0.814949
O O15 0.904188 0.171018 0.530334
O O16 0.655032 0.895508 0.284994
O O17 0.725402 0.000000 0.265510
O O18 0.507472 0.883264 0.072234
#
# Coordination Sequence:
#
# PCOD9195877 Si02
#       8
#     8   8   8   8   8   8   8   8
#     4   9  21  36  60  83 115 152 192 236 286 340
#     4  10  20  35  55  84 116 150 191 238 288 338
#     4  10  21  36  60  88 112 145 189 243 297 338
#     4  10  21  39  60  84 113 145 191 240 285 347
#     4  11  22  36  58  82 113 156 195 232 275 337
#     4  10  20  38  60  84 115 149 196 234 280 342
#     4  11  24  38  54  84 123 158 189 230 282 337
#     4  11  21  36  56  81 116 155 196 233 276 333
#
# _framework density 20.024501000000001
#
# number of rings (size 3 to 8) (size 9 to 14) (size 15 to 20)
#    0.000    1.750    1.250    4.125    1.750    4.750 
#    0.000    0.000    0.000    0.000    0.000    0.000 
#    0.000   10.000    0.000    0.000    0.000    0.000 
#
# Total GULP energy -178691.491803 kJ/mol
# GULP energy per Si atom -5584.109119 kJ/mol
# Density = 1.997892 g / cm^3
# Si number density = 20.024501 Si / 1000 Ang^3
#
#
#
# Elastic Constant Matrix: (Units=GPa)
#
#
# Indices 1 2 3 4 5 6 
#
# 1 111.6507 3.1186 19.5459 -0.0026 -3.3709 -0.0015
# 2 3.1186 33.2053 1.7076 0.0060 1.5046 0.0023
# 3 19.5459 1.7076 71.9259 0.0182 -15.4624 0.0016
# 4 -0.0026 0.0060 0.0182 8.2378 0.0035 0.0118
# 5 -3.3709 1.5046 -15.4624 0.0035 26.1311 -0.0042
# 6 -0.0015 0.0023 0.0016 0.0118 -0.0042 5.9947
#
#
#
# Elastic Compliance Matrix: (Units=1/GPa)
#
#
# Indices 1 2 3 4 5 6 
#
# 1 0.009425 -0.000738 -0.002604 0.000009 -0.000283 0.000003
# 2 -0.000738 0.030351 -0.001050 -0.000019 -0.002464 -0.000013
# 3 -0.002604 -0.001050 0.016701 -0.000041 0.009607 0.000002
# 4 0.000009 -0.000019 -0.000041 0.121391 -0.000039 -0.000240
# 5 -0.000283 -0.002464 0.009607 -0.000039 0.044059 0.000030
# 6 0.000003 -0.000013 0.000002 -0.000240 0.000030 0.166815
#
#
# Mechanical properties :
#
#
# Convention : Reuss Voigt Hill
#
# Bulk Modulus (GPa) = 20.96805 29.50290 25.23548
# Shear Modulus (GPa) = 12.09415 20.90005 16.49710
#
# Velocity S-wave (km/s) = 2.46024 3.23418 2.87339
# Velocity P-wave (km/s) = 4.30863 5.35835 4.86190
#
# Compressibility (1/GPa) = 0.04769160
#
# Stress axis : x y z
#
# Youngs Moduli (GPa) = 106.10613 32.94827 59.87619
#
# Poissons Ratio (x) = 0.02433 0.15594
# Poissons Ratio (y) = 0.07835 0.06284
# Poissons Ratio (z) = 0.27634 0.03458
#
# Static dielectric constant tensor:
#      x y z
#    x 1.750520 0.000000 0.006970 
#    y 0.000000 1.698810 -0.000010 
#    z 0.006970 -0.000010 1.708990 
# 
# From -- ./inp_files/347939.got.cif
#   From: 2010.05.17/outbox.cif.g08.bks.cpg/sg12_174_cif.got.tgz:347939.got - 2010.06.03 13:09:07.
