data_PCOD9195906
_publ_section_title
;
Structure prediction by ZEFSAII (Michael W. Deem and Ramdas Pophale) SiO2 
 PCOD9195906
Probable space group: C 2/M
;
_chemical_formula_sum "Si O2"
_cell_formula_units_Z 56
_cell_length_a 24.382833
_cell_length_b 8.545515
_cell_length_c 16.059914
_cell_angle_alpha 90.000000
_cell_angle_beta 55.908907
_cell_angle_gamma 90.000000
_cell_volume 2771.234677
_symmetry_space_group_name_H-M "C 2/M"
_symmetry_group_IT_number 12
_symmetry_cell_setting 'monoclinic'
loop_
_space_group_symop_operation_xyz
x,y,z
-x,y,-z
-x,-y,-z
x,-y,z
1/2+x,1/2+y,z
1/2-x,1/2+y,-z
1/2-x,1/2-y,-z
1/2+x,1/2-y,z
loop_
_atom_site_type_symbol
_atom_site_label
_atom_site_fract_x
_atom_site_fract_y
_atom_site_fract_z
Si Si1 0.069390 0.811234 0.980488
Si Si2 0.576667 0.187515 0.644983
Si Si3 0.565513 0.689957 0.176612
Si Si4 0.423107 0.812525 0.547089
Si Si5 0.205100 0.312742 0.794342
Si Si6 0.333703 0.687195 0.770750
Si Si7 0.206342 0.814818 0.612869
O O1 0.132708 0.749357 0.877681
O O2 0.070327 0.000000 0.975856
O O3 0.073326 0.764501 0.073860
O O4 0.000000 0.757451 0.000000
O O5 0.502850 0.241641 0.729895
O O6 0.591534 0.228992 0.536073
O O7 0.630618 0.268369 0.657513
O O8 0.581686 0.000000 0.648918
O O9 0.561618 0.500000 0.183972
O O10 0.626509 0.744743 0.182312
O O11 0.500000 0.776341 0.500000
O O12 0.377550 0.728592 0.652882
O O13 0.414724 0.000000 0.563290
O O14 0.204103 0.500000 0.796109
O O15 0.259776 0.254545 0.814390
O O16 0.225651 0.257085 0.685050
O O17 0.329858 0.500000 0.781683
O O18 0.250000 0.750000 0.500000
O O19 0.213822 0.000000 0.610547
#
# Coordination Sequence:
#
# PCOD9195906 Si02
#       7
#     8   8   8   8   8   8   8
#     4  10  22  41  64  89 118 156 203 255 311 368
#     4  11  22  37  60  90 123 159 203 253 304 358
#     4  10  21  38  60  88 122 160 204 251 303 361
#     4  10  20  35  55  85 123 161 200 245 294 352
#     4  11  24  42  63  90 123 160 204 253 306 363
#     4  10  22  38  58  87 123 162 204 250 302 362
#     4  12  25  42  63  89 122 160 202 248 303 363
#
# _framework density 20.207599999999999
#
# number of rings (size 3 to 8) (size 9 to 14) (size 15 to 20)
#    0.000    1.429    1.429    3.857    0.000    7.429 
#    0.000    0.000    0.000    0.000    0.000    0.000 
#    0.000    0.000    0.000    0.000    0.000    0.000 
#
# Total GULP energy -156580.233498 kJ/mol
# GULP energy per Si atom -5592.151196 kJ/mol
# Density = 2.016161 g / cm^3
# Si number density = 20.207600 Si / 1000 Ang^3
#
#
#
# Elastic Constant Matrix: (Units=GPa)
#
#
# Indices 1 2 3 4 5 6 
#
# 1 154.9337 21.1530 55.0422 0.0000 0.4301 0.0000
# 2 21.1530 18.4352 18.0705 -0.0001 2.6073 0.0000
# 3 55.0422 18.0705 109.0219 0.0000 8.4488 0.0000
# 4 0.0000 -0.0001 0.0000 27.1405 0.0000 -3.6727
# 5 0.4301 2.6073 8.4488 0.0000 33.0760 0.0000
# 6 0.0000 0.0000 0.0000 -3.6727 0.0000 19.8177
#
#
#
# Elastic Compliance Matrix: (Units=1/GPa)
#
#
# Indices 1 2 3 4 5 6 
#
# 1 0.008542 -0.006754 -0.003291 0.000000 0.001262 0.000000
# 2 -0.006754 0.070296 -0.007977 0.000000 -0.003416 0.000000
# 3 -0.003291 -0.007977 0.012349 0.000000 -0.002483 0.000000
# 4 0.000000 0.000000 0.000000 0.037793 0.000000 0.007004
# 5 0.001262 -0.003416 -0.002483 0.000000 0.031120 0.000000
# 6 0.000000 0.000000 0.000000 0.007004 0.000000 0.051758
#
#
# Mechanical properties :
#
#
# Convention : Reuss Voigt Hill
#
# Bulk Modulus (GPa) = 18.13473 52.32469 35.22971
# Shear Modulus (GPa) = 18.77697 28.54852 23.66275
#
# Velocity S-wave (km/s) = 3.05159 3.76275 3.42567
# Velocity P-wave (km/s) = 4.62709 6.69533 5.75489
#
# Compressibility (1/GPa) = 0.05514282
#
# Stress axis : x y z
#
# Youngs Moduli (GPa) = 117.06612 14.22550 80.98082
#
# Poissons Ratio (x) = 0.09608 0.26651
# Poissons Ratio (y) = 0.79068 0.64599
# Poissons Ratio (z) = 0.38527 0.11348
#
# Static dielectric constant tensor:
#      x y z
#    x 1.737960 0.000000 0.013070 
#    y 0.000000 1.689880 0.000000 
#    z 0.013070 0.000000 1.674360 
# 
# From -- ./inp_files/238289.got.cif
#   From: 2010.05.17/outbox.cif.g08.bks.cpg/sg12_120_cif.got.tgz:238289.got - 2010.06.03 13:09:07.
