data_PCOD9195310
_publ_section_title
;
Structure prediction by ZEFSAII (Michael W. Deem and Ramdas Pophale) SiO2 
 PCOD9195310
Probable space group: C 2/M
;
_chemical_formula_sum "Si O2"
_cell_formula_units_Z 40
_cell_length_a 19.182592
_cell_length_b 8.431752
_cell_length_c 21.986663
_cell_angle_alpha 90.000000
_cell_angle_beta 152.724323
_cell_angle_gamma 90.000000
_cell_volume 1629.701341
_symmetry_space_group_name_H-M "C 2/M"
_symmetry_group_IT_number 12
_symmetry_cell_setting 'monoclinic'
loop_
_space_group_symop_operation_xyz
x,y,z
-x,y,-z
-x,-y,-z
x,-y,z
1/2+x,1/2+y,z
1/2-x,1/2+y,-z
1/2-x,1/2-y,-z
1/2+x,1/2-y,z
loop_
_atom_site_type_symbol
_atom_site_label
_atom_site_fract_x
_atom_site_fract_y
_atom_site_fract_z
Si Si1 0.475067 0.681405 0.069103
Si Si2 0.777262 0.183866 0.265929
Si Si3 0.690891 0.185415 0.331370
Si Si4 0.546012 0.305531 0.384992
Si Si5 0.816455 0.815442 0.113566
O O1 0.430211 0.500000 0.029558
O O2 0.618643 0.721494 0.137791
O O3 0.552142 0.715745 0.195669
O O4 0.325063 0.787522 0.949909
O O5 0.803613 0.186775 0.359449
O O6 0.919152 0.239437 0.336940
O O7 0.748075 0.000000 0.228117
O O8 0.790296 0.249355 0.464181
O O9 0.646771 0.000000 0.305393
O O10 0.554366 0.500000 0.390662
O O11 0.469291 0.247160 0.262891
O O12 0.840784 0.000000 0.125074
O O13 0.750000 0.750000 0.000000
#
# Coordination Sequence:
#
# PCOD9195310 Si02
#       5
#     8   8   8   8   8
#     4  10  20  35  53  78 113 146 174 210 261 316
#     4   8  15  30  56  84 111 137 170 213 261 316
#     4   8  15  31  56  84 110 136 171 213 262 317
#     4   9  17  32  58  85 106 137 179 218 260 315
#     4  11  23  40  58  76 102 139 183 226 267 310
#
# _framework density 24.544374999999999
#
# number of rings (size 3 to 8) (size 9 to 14) (size 15 to 20)
#    1.200    1.600    0.000    2.400    0.000    3.200 
#    0.000   11.000    0.000    0.000    0.000    0.000 
#    0.000    0.000    0.000    0.000    0.000    0.000 
#
# Total GULP energy -111615.152919 kJ/mol
# GULP energy per Si atom -5580.757646 kJ/mol
# Density = 2.448851 g / cm^3
# Si number density = 24.544375 Si / 1000 Ang^3
#
#
#
# Elastic Constant Matrix: (Units=GPa)
#
#
# Indices 1 2 3 4 5 6 
#
# 1 73.9184 -0.5861 26.6515 -0.0001 -1.2963 0.0000
# 2 -0.5861 38.7102 16.9369 -0.0004 -5.5021 -0.0003
# 3 26.6515 16.9369 170.6636 -0.0004 2.2951 -0.0003
# 4 -0.0001 -0.0004 -0.0004 23.1674 -0.0002 -3.2295
# 5 -1.2963 -5.5021 2.2951 -0.0002 41.7664 -0.0001
# 6 0.0000 -0.0003 -0.0003 -3.2295 -0.0001 18.5477
#
#
#
# Elastic Compliance Matrix: (Units=1/GPa)
#
#
# Indices 1 2 3 4 5 6 
#
# 1 0.014417 0.001376 -0.002398 0.000000 0.000760 0.000000
# 2 0.001376 0.027723 -0.003018 0.000000 0.003861 0.000000
# 3 -0.002398 -0.003018 0.006545 0.000000 -0.000832 0.000000
# 4 0.000000 0.000000 0.000000 0.044238 0.000000 0.007703
# 5 0.000760 0.003861 -0.000832 0.000000 0.024521 0.000000
# 6 0.000000 0.000000 0.000000 0.007703 0.000000 0.055256
#
#
# Mechanical properties :
#
#
# Convention : Reuss Voigt Hill
#
# Bulk Modulus (GPa) = 24.62815 41.03299 32.83057
# Shear Modulus (GPa) = 25.73137 32.71563 29.22350
#
# Velocity S-wave (km/s) = 3.24135 3.65488 3.45431
# Velocity P-wave (km/s) = 4.90555 5.87920 5.41431
#
# Compressibility (1/GPa) = 0.04060394
#
# Stress axis : x y z
#
# Youngs Moduli (GPa) = 69.36078 36.07108 152.79554
#
# Poissons Ratio (x) = -0.04962 0.36644
# Poissons Ratio (y) = -0.09542 0.46114
# Poissons Ratio (z) = 0.16634 0.10886
#
# Static dielectric constant tensor:
#      x y z
#    x 2.120010 0.000000 -0.075570 
#    y 0.000000 1.823430 0.000000 
#    z -0.075570 0.000000 2.016040 
# 
# From -- ./inp_files/368915.got.cif
#   From: 2010.05.17/outbox.cif.g08.bks.cpg/sg12_185_cif.got.tgz:368915.got - 2010.06.03 13:09:07.
