data_PCOD9195891
_publ_section_title
;
Structure prediction by ZEFSAII (Michael W. Deem and Ramdas Pophale) SiO2 
 PCOD9195891
Probable space group: C 2/M
;
_chemical_formula_sum "Si O2"
_cell_formula_units_Z 56
_cell_length_a 27.034406
_cell_length_b 14.062114
_cell_length_c 7.068223
_cell_angle_alpha 90.000000
_cell_angle_beta 95.588059
_cell_angle_gamma 90.000000
_cell_volume 2674.292328
_symmetry_space_group_name_H-M "C 2/M"
_symmetry_group_IT_number 12
_symmetry_cell_setting 'monoclinic'
loop_
_space_group_symop_operation_xyz
x,y,z
-x,y,-z
-x,-y,-z
x,-y,z
1/2+x,1/2+y,z
1/2-x,1/2+y,-z
1/2-x,1/2-y,-z
1/2+x,1/2-y,z
loop_
_atom_site_type_symbol
_atom_site_label
_atom_site_fract_x
_atom_site_fract_y
_atom_site_fract_z
Si Si1 0.921858 0.613541 0.607744
Si Si2 0.948598 0.233172 0.890402
Si Si3 0.106388 0.735638 0.740339
Si Si4 0.612199 0.613950 0.429857
Si Si5 0.686747 0.109359 0.285181
Si Si6 0.725764 0.610170 0.435534
Si Si7 0.713903 0.172640 0.893447
O O1 0.928965 0.500000 0.618922
O O2 0.957030 0.674557 0.758472
O O3 0.920432 0.653957 0.394442
O O4 0.866963 0.642762 0.666832
O O5 0.922587 0.155435 0.747550
O O6 0.913972 0.258440 0.055785
O O7 0.000000 0.200144 0.000000
O O8 0.098644 0.832883 0.620061
O O9 0.165261 0.714909 0.774830
O O10 0.608573 0.500000 0.440422
O O11 0.669318 0.644703 0.406622
O O12 0.735310 0.155236 0.400779
O O13 0.686529 0.000000 0.348884
O O14 0.693303 0.114186 0.063958
O O15 0.719423 0.500000 0.490043
O O16 0.753273 0.616628 0.245518
O O17 0.750000 0.250000 0.000000
#
# Coordination Sequence:
#
# PCOD9195891 Si02
#       7
#     8   8   8   8   8   8   8
#     4  10  22  40  64  93 126 163 206 250 306 376
#     4  11  25  46  67  93 124 160 210 270 324 371
#     4  11  23  40  64  92 124 166 209 262 313 370
#     4  10  24  44  65  92 127 165 211 262 315 371
#     4  10  20  35  55  84 122 165 205 242 290 361
#     4  10  21  37  57  86 126 166 204 249 298 364
#     4  12  22  31  56  88 123 166 208 243 301 367
#
# _framework density 20.940118999999999
#
# number of rings (size 3 to 8) (size 9 to 14) (size 15 to 20)
#    0.000    1.429    2.857    2.143    2.000    5.714 
#    0.000    5.000    0.000    0.000    0.000    0.000 
#    0.000    0.000    0.000    0.000    0.000    0.000 
#
# Total GULP energy -156390.261955 kJ/mol
# GULP energy per Si atom -5585.366498 kJ/mol
# Density = 2.089246 g / cm^3
# Si number density = 20.940119 Si / 1000 Ang^3
#
#
#
# Elastic Constant Matrix: (Units=GPa)
#
#
# Indices 1 2 3 4 5 6 
#
# 1 56.5895 7.2625 7.4872 0.0000 25.0481 0.0000
# 2 7.2625 81.6522 24.9478 0.0000 8.6566 0.0000
# 3 7.4872 24.9478 105.3590 0.0000 20.5929 0.0000
# 4 0.0000 0.0000 0.0000 21.0529 0.0000 2.1841
# 5 25.0481 8.6566 20.5929 0.0000 34.2285 0.0000
# 6 0.0000 0.0000 0.0000 2.1841 0.0000 18.1688
#
#
#
# Elastic Compliance Matrix: (Units=1/GPa)
#
#
# Indices 1 2 3 4 5 6 
#
# 1 0.026627 -0.000898 0.002362 0.000000 -0.020680 0.000000
# 2 -0.000898 0.013315 -0.002900 0.000000 -0.000966 0.000000
# 3 0.002362 -0.002900 0.011565 0.000000 -0.007953 0.000000
# 4 0.000000 0.000000 0.000000 0.048099 0.000000 -0.005782
# 5 -0.020680 -0.000966 -0.007953 0.000000 0.049377 0.000000
# 6 0.000000 0.000000 0.000000 -0.005782 0.000000 0.055735
#
#
# Mechanical properties :
#
#
# Convention : Reuss Voigt Hill
#
# Bulk Modulus (GPa) = 20.56103 35.88840 28.22472
# Shear Modulus (GPa) = 22.34117 28.28358 25.31237
#
# Velocity S-wave (km/s) = 3.26990 3.67916 3.48055
# Velocity P-wave (km/s) = 4.90883 5.93499 5.44613
#
# Compressibility (1/GPa) = 0.04863569
#
# Stress axis : x y z
#
# Youngs Moduli (GPa) = 37.55564 75.10056 86.47013
#
# Poissons Ratio (x) = 0.06742 -0.20427
# Poissons Ratio (y) = 0.03371 0.25080
# Poissons Ratio (z) = -0.08872 0.21782
#
# Static dielectric constant tensor:
#      x y z
#    x 1.792410 0.000000 0.008500 
#    y 0.000000 1.770520 0.000000 
#    z 0.008500 0.000000 1.732310 
# 
# From -- ./inp_files/31508.got.cif
#   From: 2010.05.17/outbox.cif.g08.bks.cpg/sg12_16_cif.got.tgz:31508.got - 2010.06.03 13:09:07.
