data_PCOD9195656
_publ_section_title
;
Structure prediction by ZEFSAII (Michael W. Deem and Ramdas Pophale) SiO2 
 PCOD9195656
Probable space group: C 2/M
;
_chemical_formula_sum "Si O2"
_cell_formula_units_Z 48
_cell_length_a 30.610614
_cell_length_b 8.337456
_cell_length_c 19.979090
_cell_angle_alpha 90.000000
_cell_angle_beta 148.625409
_cell_angle_gamma 90.000000
_cell_volume 2654.675059
_symmetry_space_group_name_H-M "C 2/M"
_symmetry_group_IT_number 12
_symmetry_cell_setting 'monoclinic'
loop_
_space_group_symop_operation_xyz
x,y,z
-x,y,-z
-x,-y,-z
x,-y,z
1/2+x,1/2+y,z
1/2-x,1/2+y,-z
1/2-x,1/2-y,-z
1/2+x,1/2-y,z
loop_
_atom_site_type_symbol
_atom_site_label
_atom_site_fract_x
_atom_site_fract_y
_atom_site_fract_z
Si Si1 0.759521 0.193401 0.088011
Si Si2 0.717698 0.308586 0.386657
Si Si3 0.904029 0.804110 0.377915
Si Si4 0.133259 0.693424 0.036916
Si Si5 0.722070 0.306756 0.672376
Si Si6 0.029988 0.193138 0.112020
O O1 0.844364 0.245918 0.237896
O O2 0.681359 0.244846 0.032518
O O3 0.760449 0.000000 0.089603
O O4 0.750000 0.250000 0.000000
O O5 0.715200 0.500000 0.383868
O O6 0.750000 0.250000 0.500000
O O7 0.774050 0.254836 0.397707
O O8 0.622909 0.246988 0.250057
O O9 0.855899 0.755800 0.383068
O O10 0.000000 0.748815 0.500000
O O11 0.905019 0.000000 0.378609
O O12 0.130752 0.500000 0.034103
O O13 0.193768 0.745062 0.177555
O O14 0.040706 0.758126 0.927463
O O15 0.722006 0.500000 0.671051
O O16 0.033052 0.000000 0.113259
O O17 0.000000 0.252946 0.000000
#
# Coordination Sequence:
#
# PCOD9195656 Si02
#       6
#     8   8   8   8   8   8
#     4   9  18  33  52  77 107 137 169 210 260 306
#     4  11  23  38  54  75 107 140 170 211 262 311
#     4   8  15  31  55  78 100 132 175 214 247 298
#     4   9  18  32  53  79 105 137 175 213 256 308
#     4   9  17  32  55  79 103 135 175 214 255 305
#     4  10  20  35  55  79 103 130 173 220 255 301
#
# _framework density 18.081309000000001
#
# number of rings (size 3 to 8) (size 9 to 14) (size 15 to 20)
#    0.000    2.667    1.667    2.500    0.000    2.333 
#    3.000    2.500    0.000    1.000    0.000    0.000 
#    0.000    0.000    0.000    0.000    0.000    0.000 
#
# Total GULP energy -133819.341474 kJ/mol
# GULP energy per Si atom -5575.805895 kJ/mol
# Density = 1.804015 g / cm^3
# Si number density = 18.081309 Si / 1000 Ang^3
#
#
#
# Elastic Constant Matrix: (Units=GPa)
#
#
# Indices 1 2 3 4 5 6 
#
# 1 163.2751 15.7718 103.4343 0.0000 -8.5521 0.0000
# 2 15.7718 7.7031 17.7477 0.0000 -2.3347 0.0000
# 3 103.4343 17.7477 130.2511 0.0000 -0.9933 0.0000
# 4 0.0000 0.0000 0.0000 17.8641 0.0000 -6.3544
# 5 -8.5521 -2.3347 -0.9933 0.0000 38.1017 0.0000
# 6 0.0000 0.0000 0.0000 -6.3544 0.0000 28.6388
#
#
#
# Elastic Compliance Matrix: (Units=1/GPa)
#
#
# Indices 1 2 3 4 5 6 
#
# 1 0.012617 -0.003008 -0.009591 0.000000 0.002397 0.000000
# 2 -0.003008 0.194598 -0.024045 0.000000 0.010622 0.000000
# 3 -0.009591 -0.024045 0.018546 0.000000 -0.003143 0.000000
# 4 0.000000 0.000000 0.000000 0.060775 0.000000 0.013485
# 5 0.002397 0.010622 -0.003143 0.000000 0.027353 0.000000
# 6 0.000000 0.000000 0.000000 0.013485 0.000000 0.037910
#
#
# Mechanical properties :
#
#
# Convention : Reuss Voigt Hill
#
# Bulk Modulus (GPa) = 6.55862 63.90411 35.23137
# Shear Modulus (GPa) = 10.50618 27.87262 19.18940
#
# Velocity S-wave (km/s) = 2.41312 3.93047 3.26127
# Velocity P-wave (km/s) = 3.37629 7.48449 5.80590
#
# Compressibility (1/GPa) = 0.15247107
#
# Stress axis : x y z
#
# Youngs Moduli (GPa) = 79.26102 5.13881 53.91975
#
# Poissons Ratio (x) = 0.01546 0.51713
# Poissons Ratio (y) = 0.23845 1.29652
# Poissons Ratio (z) = 0.76018 0.12356
#
# Static dielectric constant tensor:
#      x y z
#    x 1.616850 0.000000 0.011500 
#    y 0.000000 1.630260 0.000000 
#    z 0.011500 0.000000 1.615980 
# 
# From -- ./inp_files/274125.got.cif
#   From: 2010.05.17/outbox.cif.g08.bks.cpg/sg12_138_cif.got.tgz:274125.got - 2010.06.03 13:09:07.
