data_PCOD9195196
_publ_section_title
;
Structure prediction by ZEFSAII (Michael W. Deem and Ramdas Pophale) SiO2 
 PCOD9195196
Probable space group: C 2/M
;
_chemical_formula_sum "Si O2"
_cell_formula_units_Z 64
_cell_length_a 25.014212
_cell_length_b 8.795098
_cell_length_c 21.014186
_cell_angle_alpha 90.000000
_cell_angle_beta 127.292822
_cell_angle_gamma 90.000000
_cell_volume 3677.961931
_symmetry_space_group_name_H-M "C 2/M"
_symmetry_group_IT_number 12
_symmetry_cell_setting 'monoclinic'
loop_
_space_group_symop_operation_xyz
x,y,z
-x,y,-z
-x,-y,-z
x,-y,z
1/2+x,1/2+y,z
1/2-x,1/2+y,-z
1/2-x,1/2-y,-z
1/2+x,1/2-y,z
loop_
_atom_site_type_symbol
_atom_site_label
_atom_site_fract_x
_atom_site_fract_y
_atom_site_fract_z
Si Si1 0.224987 0.317628 0.631990
Si Si2 0.843143 0.184279 0.292728
Si Si3 0.647369 0.316840 0.950578
Si Si4 0.764637 0.182832 0.109194
Si Si5 0.129146 0.682846 0.449081
Si Si6 0.494822 0.317120 0.198275
Si Si7 0.637631 0.817965 0.308129
Si Si8 0.986424 0.182344 0.341912
O O1 0.227377 0.500000 0.634574
O O2 0.184426 0.256844 0.663165
O O3 0.185506 0.267418 0.539582
O O4 0.299852 0.251622 0.683909
O O5 0.796193 0.228712 0.199097
O O6 0.919503 0.229743 0.330748
O O7 0.841775 0.000000 0.296482
O O8 0.648850 0.500000 0.954792
O O9 0.684910 0.271976 0.911785
O O10 0.569856 0.269300 0.889247
O O11 0.692284 0.250027 0.039358
O O12 0.760826 0.000000 0.105645
O O13 0.127043 0.500000 0.447709
O O14 0.143047 0.732066 0.386439
O O15 0.055728 0.744207 0.414651
O O16 0.501790 0.500000 0.198839
O O17 0.565183 0.239748 0.232571
O O18 0.479419 0.281866 0.261560
O O19 0.640184 0.000000 0.307626
O O20 0.991948 0.000000 0.350841
#
# Coordination Sequence:
#
# PCOD9195196 Si02
#       8
#     8   8   8   8   8   8   8   8
#     4  11  23  37  52  72  99 135 173 210 256 304
#     4  10  20  35  52  72 104 141 174 207 244 297
#     4   9  16  28  49  77 106 134 166 202 245 296
#     4   9  17  30  48  73 106 138 167 203 244 291
#     4   9  20  36  53  75 102 128 163 214 262 301
#     4   9  16  30  52  77 105 134 164 205 253 298
#     4  10  20  35  55  77  99 127 168 215 257 300
#     4   9  17  31  52  75 101 135 171 204 247 299
#
# _framework density 17.400942000000001
#
# number of rings (size 3 to 8) (size 9 to 14) (size 15 to 20)
#    0.000    2.500    1.250    1.125    0.000    3.500 
#    0.000    2.500    0.000    0.750    0.000    5.250 
#    0.000    0.000    0.000    0.000    0.000    0.000 
#
# Total GULP energy -178483.677565 kJ/mol
# GULP energy per Si atom -5577.614924 kJ/mol
# Density = 1.736134 g / cm^3
# Si number density = 17.400942 Si / 1000 Ang^3
#
#
#
# Elastic Constant Matrix: (Units=GPa)
#
#
# Indices 1 2 3 4 5 6 
#
# 1 89.0627 16.5077 11.1336 0.0000 26.1538 0.0000
# 2 16.5077 11.5730 6.1644 0.0000 7.5886 0.0000
# 3 11.1336 6.1644 37.1447 0.0000 25.1178 0.0000
# 4 0.0000 0.0000 0.0000 28.0549 0.0000 4.1709
# 5 26.1538 7.5886 25.1178 0.0000 25.9487 0.0000
# 6 0.0000 0.0000 0.0000 4.1709 0.0000 27.4599
#
#
#
# Elastic Compliance Matrix: (Units=1/GPa)
#
#
# Indices 1 2 3 4 5 6 
#
# 1 0.024477 -0.019999 0.025214 0.000000 -0.043229 0.000000
# 2 -0.019999 0.124506 -0.010643 0.000000 -0.005952 0.000000
# 3 0.025214 -0.010643 0.104825 0.000000 -0.123769 0.000000
# 4 0.000000 0.000000 0.000000 0.036468 0.000000 -0.005539
# 5 -0.043229 -0.005952 -0.123769 0.000000 0.203654 0.000000
# 6 0.000000 0.000000 0.000000 -0.005539 0.000000 0.037258
#
#
# Mechanical properties :
#
#
# Convention : Reuss Voigt Hill
#
# Bulk Modulus (GPa) = 4.11603 22.82131 13.46867
# Shear Modulus (GPa) = 8.02531 23.22435 15.62483
#
# Velocity S-wave (km/s) = 2.14989 3.65726 2.99980
# Velocity P-wave (km/s) = 2.92117 5.56575 4.44470
#
# Compressibility (1/GPa) = 0.24295244
#
# Stress axis : x y z
#
# Youngs Moduli (GPa) = 40.85419 8.03173 9.53972
#
# Poissons Ratio (x) = 0.16063 -0.24054
# Poissons Ratio (y) = 0.81704 0.10153
# Poissons Ratio (z) = -1.03011 0.08548
#
# Static dielectric constant tensor:
#      x y z
#    x 1.572510 0.000000 0.006310 
#    y 0.000000 1.584770 0.000000 
#    z 0.006310 0.000000 1.593050 
# 
# From -- ./inp_files/295755.got.cif
#   From: 2010.05.17/outbox.cif.g08.bks.cpg/sg12_148_cif.got.tgz:295755.got - 2010.06.03 13:09:07.
