data_PCOD9195955
_publ_section_title
;
Structure prediction by ZEFSAII (Michael W. Deem and Ramdas Pophale) SiO2 
 PCOD9195955
Probable space group: C 2/M
;
_chemical_formula_sum "Si O2"
_cell_formula_units_Z 56
_cell_length_a 19.418678
_cell_length_b 8.619429
_cell_length_c 19.934957
_cell_angle_alpha 90.000000
_cell_angle_beta 58.973841
_cell_angle_gamma 90.000000
_cell_volume 2859.300854
_symmetry_space_group_name_H-M "C 2/M"
_symmetry_group_IT_number 12
_symmetry_cell_setting 'monoclinic'
loop_
_space_group_symop_operation_xyz
x,y,z
-x,y,-z
-x,-y,-z
x,-y,z
1/2+x,1/2+y,z
1/2-x,1/2+y,-z
1/2-x,1/2-y,-z
1/2+x,1/2-y,z
loop_
_atom_site_type_symbol
_atom_site_label
_atom_site_fract_x
_atom_site_fract_y
_atom_site_fract_z
Si Si1 0.760478 0.684003 0.821330
Si Si2 0.249398 0.815255 0.322964
Si Si3 0.501089 0.186328 0.077543
Si Si4 0.571654 0.311475 0.416945
Si Si5 0.568252 0.687668 0.261511
Si Si6 0.417595 0.315331 0.246165
Si Si7 0.319483 0.185433 0.012084
O O1 0.754713 0.500000 0.815870
O O2 0.750640 0.768113 0.755316
O O3 0.849429 0.731017 0.802493
O O4 0.696360 0.744681 0.906729
O O5 0.161691 0.760459 0.392425
O O6 0.330741 0.746180 0.311989
O O7 0.252440 0.000000 0.327158
O O8 0.438713 0.259799 0.160332
O O9 0.490023 0.000000 0.084366
O O10 0.500000 0.234423 0.000000
O O11 0.591178 0.225514 0.056973
O O12 0.500000 0.254079 0.500000
O O13 0.571829 0.500000 0.420276
O O14 0.558068 0.273107 0.345502
O O15 0.578205 0.500000 0.251304
O O16 0.490771 0.735050 0.257564
O O17 0.415191 0.500000 0.247843
O O18 0.314111 0.000000 0.018609
O O19 0.250000 0.250000 0.000000
#
# Coordination Sequence:
#
# PCOD9195955 Si02
#       7
#     8   8   8   8   8   8   8
#     4  11  21  34  54  78 104 137 181 227 270 322
#     4  10  20  35  56  79 106 140 176 216 263 318
#     4  10  22  38  54  72  98 137 182 226 271 316
#     4   8  15  32  59  85 106 136 179 218 257 315
#     4   9  19  35  55  80 110 144 179 220 270 319
#     4  11  22  35  53  78 109 142 179 223 267 318
#     4  11  22  35  52  75 104 138 178 226 276 322
#
# _framework density 19.585208000000002
#
# number of rings (size 3 to 8) (size 9 to 14) (size 15 to 20)
#    0.000    2.000    0.000    5.143    0.000    6.000 
#    0.000    0.714    0.000   10.714    0.000    0.000 
#    0.000    0.000    0.000    0.000    0.000    0.000 
#
# Total GULP energy -156380.318905 kJ/mol
# GULP energy per Si atom -5585.011389 kJ/mol
# Density = 1.954063 g / cm^3
# Si number density = 19.585208 Si / 1000 Ang^3
#
#
#
# Elastic Constant Matrix: (Units=GPa)
#
#
# Indices 1 2 3 4 5 6 
#
# 1 105.8715 17.3427 18.9739 -0.0001 -24.6479 -0.0001
# 2 17.3427 21.9431 9.9569 -0.0002 -9.1849 -0.0006
# 3 18.9739 9.9569 82.7753 0.0000 -29.2274 0.0000
# 4 -0.0001 -0.0002 0.0000 10.5620 0.0000 -4.6691
# 5 -24.6479 -9.1849 -29.2274 0.0000 29.9829 0.0000
# 6 -0.0001 -0.0006 0.0000 -4.6691 0.0000 30.8468
#
#
#
# Elastic Compliance Matrix: (Units=1/GPa)
#
#
# Indices 1 2 3 4 5 6 
#
# 1 0.012496 -0.006464 0.001283 0.000000 0.009543 0.000000
# 2 -0.006464 0.055670 -0.001631 0.000002 0.010150 0.000001
# 3 0.001283 -0.001631 0.018571 0.000000 0.018658 0.000000
# 4 0.000000 0.000002 0.000000 0.101469 0.000000 0.015359
# 5 0.009543 0.010150 0.018658 0.000000 0.062494 0.000000
# 6 0.000000 0.000001 0.000000 0.015359 0.000000 0.034743
#
#
# Mechanical properties :
#
#
# Convention : Reuss Voigt Hill
#
# Bulk Modulus (GPa) = 13.67751 33.68189 23.67970
# Shear Modulus (GPa) = 15.45895 25.23278 20.34586
#
# Velocity S-wave (km/s) = 2.81253 3.59327 3.22660
# Velocity P-wave (km/s) = 4.18877 5.86944 5.09883
#
# Compressibility (1/GPa) = 0.07311272
#
# Stress axis : x y z
#
# Youngs Moduli (GPa) = 80.02555 17.96311 53.84725
#
# Poissons Ratio (x) = 0.11611 -0.06907
# Poissons Ratio (y) = 0.51727 0.08781
# Poissons Ratio (z) = -0.10264 0.02929
#
# Static dielectric constant tensor:
#      x y z
#    x 1.734730 0.000000 -0.013380 
#    y 0.000000 1.655080 0.000000 
#    z -0.013380 0.000000 1.665250 
# 
# From -- ./inp_files/313766.got.cif
#   From: 2010.05.17/outbox.cif.g08.bks.cpg/sg12_157_cif.got.tgz:313766.got - 2010.06.03 13:09:07.
