data_PCOD9195965
_publ_section_title
;
Structure prediction by ZEFSAII (Michael W. Deem and Ramdas Pophale) SiO2 
 PCOD9195965
Probable space group: C 2/M
;
_chemical_formula_sum "Si O2"
_cell_formula_units_Z 60
_cell_length_a 9.321226
_cell_length_b 19.585325
_cell_length_c 19.063755
_cell_angle_alpha 90.000000
_cell_angle_beta 107.261336
_cell_angle_gamma 90.000000
_cell_volume 3323.517884
_symmetry_space_group_name_H-M "C 2/M"
_symmetry_group_IT_number 12
_symmetry_cell_setting 'monoclinic'
loop_
_space_group_symop_operation_xyz
x,y,z
-x,y,-z
-x,-y,-z
x,-y,z
1/2+x,1/2+y,z
1/2-x,1/2+y,-z
1/2-x,1/2-y,-z
1/2+x,1/2-y,z
loop_
_atom_site_type_symbol
_atom_site_label
_atom_site_fract_x
_atom_site_fract_y
_atom_site_fract_z
Si Si1 0.756352 0.181658 0.306460
Si Si2 0.000000 0.249035 0.000000
Si Si3 0.407589 0.793121 0.236852
Si Si4 0.835695 0.418892 0.448544
Si Si5 0.392101 0.419833 0.217310
Si Si6 0.691255 0.306075 0.901830
Si Si7 0.823632 0.816701 0.477604
Si Si8 0.747840 0.079801 0.724144
O O1 0.586024 0.198423 0.260273
O O2 0.858949 0.244728 0.294899
O O3 0.816063 0.115758 0.273500
O O4 0.764245 0.172126 0.390507
O O5 0.920659 0.204154 0.048942
O O6 0.136918 0.294106 0.050301
O O7 0.349867 0.753114 0.160221
O O8 0.329523 0.866196 0.235809
O O9 0.820840 0.500000 0.456100
O O10 0.716135 0.379202 0.477599
O O11 0.812530 0.405042 0.362985
O O12 0.000000 0.397865 0.500000
O O13 0.359377 0.500000 0.208490
O O14 0.335357 0.376865 0.142264
O O15 0.572381 0.411008 0.248983
O O16 0.750000 0.750000 0.500000
O O17 0.000000 0.806710 0.500000
O O18 0.715625 0.000000 0.735221
#
# Coordination Sequence:
#
# PCOD9195965 Si02
#       8
#     8   4   8   8   8   8   8   8
#     4  11  22  34  55  79 106 146 186 234 279 321
#     4  10  20  36  60  86 112 134 176 208 256 328
#     4  11  20  36  57  81 109 138 183 224 268 322
#     4  10  21  37  54  74 106 145 185 231 283 331
#     4  10  21  38  57  81 113 145 183 225 270 318
#     4  10  20  36  59  85 109 143 172 215 261 314
#     4  12  23  35  52  76 108 144 187 237 285 331
#     4  10  20  35  56  79 107 145 185 230 275 320
#
# _framework density 18.053159999999998
#
# number of rings (size 3 to 8) (size 9 to 14) (size 15 to 20)
#    0.000    1.467    0.000    7.600    0.000    1.333 
#    0.000    0.667    0.000    3.200    0.000    0.000 
#    0.000    0.000    0.000    0.000    0.000    0.000 
#
# Total GULP energy -167666.587526 kJ/mol
# GULP energy per Si atom -5588.886251 kJ/mol
# Density = 1.801207 g / cm^3
# Si number density = 18.053160 Si / 1000 Ang^3
#
#
#
# Elastic Constant Matrix: (Units=GPa)
#
#
# Indices 1 2 3 4 5 6 
#
# 1 100.1058 50.3004 20.5177 0.0000 7.6519 0.0000
# 2 50.3004 102.8051 48.2946 0.0000 -3.9481 0.0000
# 3 20.5177 48.2946 75.2090 0.0000 5.7164 0.0000
# 4 0.0000 0.0000 0.0000 22.6638 0.0000 -5.7787
# 5 7.6519 -3.9481 5.7164 0.0000 34.8312 0.0000
# 6 0.0000 0.0000 0.0000 -5.7787 0.0000 37.5216
#
#
#
# Elastic Compliance Matrix: (Units=1/GPa)
#
#
# Indices 1 2 3 4 5 6 
#
# 1 0.013829 -0.007589 0.001415 0.000000 -0.004130 0.000000
# 2 -0.007589 0.018429 -0.010176 0.000000 0.005426 0.000000
# 3 0.001415 -0.010176 0.019803 0.000000 -0.004714 0.000000
# 4 0.000000 0.000000 0.000000 0.045927 0.000000 0.007073
# 5 -0.004130 0.005426 -0.004714 0.000000 0.031006 0.000000
# 6 0.000000 0.000000 0.000000 0.007073 0.000000 0.027741
#
#
# Mechanical properties :
#
#
# Convention : Reuss Voigt Hill
#
# Bulk Modulus (GPa) = 51.65392 57.37169 54.51281
# Shear Modulus (GPa) = 25.52467 29.60379 27.56423
#
# Velocity S-wave (km/s) = 3.76421 4.05385 3.91172
# Velocity P-wave (km/s) = 6.89686 7.33212 7.11781
#
# Compressibility (1/GPa) = 0.01935961
#
# Stress axis : x y z
#
# Youngs Moduli (GPa) = 72.31406 54.26167 50.49707
#
# Poissons Ratio (x) = 0.41180 -0.07144
# Poissons Ratio (y) = 0.54881 0.51386
# Poissons Ratio (z) = -0.10230 0.55217
#
# Static dielectric constant tensor:
#      x y z
#    x 1.599410 0.000000 0.007460 
#    y 0.000000 1.626020 0.000000 
#    z 0.007460 0.000000 1.621360 
# 
# From -- ./inp_files/300855.got.cif
#   From: 2010.05.17/outbox.cif.g08.bks.cpg/sg12_151_cif.got.tgz:300855.got - 2010.06.03 13:09:07.
