data_PCOD9195019
_publ_section_title
;
Structure prediction by ZEFSAII (Michael W. Deem and Ramdas Pophale) SiO2 
 PCOD9195019
Probable space group: C 2/M
;
_chemical_formula_sum "Si O2"
_cell_formula_units_Z 48
_cell_length_a 12.493595
_cell_length_b 19.282384
_cell_length_c 10.692823
_cell_angle_alpha 90.000000
_cell_angle_beta 69.083774
_cell_angle_gamma 90.000000
_cell_volume 2406.220853
_symmetry_space_group_name_H-M "C 2/M"
_symmetry_group_IT_number 12
_symmetry_cell_setting 'monoclinic'
loop_
_space_group_symop_operation_xyz
x,y,z
-x,y,-z
-x,-y,-z
x,-y,z
1/2+x,1/2+y,z
1/2-x,1/2+y,-z
1/2-x,1/2-y,-z
1/2+x,1/2-y,z
loop_
_atom_site_type_symbol
_atom_site_label
_atom_site_fract_x
_atom_site_fract_y
_atom_site_fract_z
Si Si1 0.867579 0.331808 0.526417
Si Si2 0.738074 0.689543 0.331000
Si Si3 0.836173 0.082876 0.276374
Si Si4 0.376435 0.797820 0.017107
Si Si5 0.927851 0.919366 0.714936
Si Si6 0.835134 0.857802 0.003658
O O1 0.832505 0.329708 0.395201
O O2 0.830738 0.256883 0.595591
O O3 0.782926 0.386910 0.625764
O O4 0.000000 0.344833 0.500000
O O5 0.802022 0.706329 0.174701
O O6 0.648853 0.628028 0.341639
O O7 0.862097 0.113936 0.128841
O O8 0.939809 0.102989 0.326427
O O9 0.834895 0.000000 0.268781
O O10 0.388044 0.719194 0.962038
O O11 0.500000 0.826344 0.000000
O O12 0.301007 0.843744 0.955044
O O13 0.922227 0.000000 0.682572
O O14 0.877034 0.907624 0.876004
#
# Coordination Sequence:
#
# PCOD9195019 Si02
#       6
#     8   8   8   8   8   8
#     4  11  26  41  63  88 124 164 206 253 300 359
#     4  10  24  41  63  92 122 161 207 251 303 360
#     4  11  23  40  63  92 125 163 205 249 305 361
#     4  10  20  34  62  93 123 155 195 253 308 359
#     4  10  22  40  65  93 125 159 200 255 307 361
#     4  10  20  34  59  94 126 155 195 252 308 363
#
# _framework density 19.948295000000002
#
# number of rings (size 3 to 8) (size 9 to 14) (size 15 to 20)
#    0.000    1.667    1.667    2.000    7.000    2.333 
#    0.000    1.667    0.000    2.500    0.000    0.000 
#    0.000    0.000    0.000    0.000    0.000    0.000 
#
# Total GULP energy -134184.484711 kJ/mol
# GULP energy per Si atom -5591.020196 kJ/mol
# Density = 1.990289 g / cm^3
# Si number density = 19.948295 Si / 1000 Ang^3
#
#
#
# Elastic Constant Matrix: (Units=GPa)
#
#
# Indices 1 2 3 4 5 6 
#
# 1 177.1482 49.0983 16.0529 0.0000 8.3546 0.0000
# 2 49.0983 64.2682 18.6806 0.0000 8.0678 0.0000
# 3 16.0529 18.6806 60.0765 0.0000 14.4267 0.0000
# 4 0.0000 0.0000 0.0000 -2.7573 0.0000 5.9989
# 5 8.3546 8.0678 14.4267 0.0000 26.9647 0.0000
# 6 0.0000 0.0000 0.0000 5.9989 0.0000 27.9994
#
#
#
# Elastic Compliance Matrix: (Units=1/GPa)
#
#
# Indices 1 2 3 4 5 6 
#
# 1 0.007171 -0.005377 -0.000111 0.000000 -0.000554 0.000000
# 2 -0.005377 0.021298 -0.004654 0.000000 -0.002217 0.000000
# 3 -0.000111 -0.004654 0.020401 0.000000 -0.009488 0.000000
# 4 0.000000 0.000000 0.000000 -0.247366 0.000000 0.052998
# 5 -0.000554 -0.002217 -0.009488 0.000000 0.042997 0.000000
# 6 0.000000 0.000000 0.000000 0.052998 0.000000 0.024360
#
#
# Mechanical properties :
#
#
# Convention : Reuss Voigt Hill
#
# Bulk Modulus (GPa) = 34.98117 52.12851 43.55484
# Shear Modulus (GPa) = -49.34557 24.95208 -12.19675
#
# Velocity S-wave (km/s) = -4.97900 3.54056 -2.47537
# Velocity P-wave (km/s) = 3.93445 6.55001 3.70288
#
# Compressibility (1/GPa) = 0.02858681
#
# Stress axis : x y z
#
# Youngs Moduli (GPa) = 139.44231 46.95198 49.01796
#
# Poissons Ratio (x) = 0.25245 0.00546
# Poissons Ratio (y) = 0.74975 0.22811
# Poissons Ratio (z) = 0.01554 0.21850
#
# Static dielectric constant tensor:
#      x y z
#    x 1.713040 0.000000 0.010720 
#    y 0.000000 1.669450 0.000000 
#    z 0.010720 0.000000 1.713560 
# 
# From -- ./inp_files/131011.got.cif
#   From: 2010.05.17/outbox.cif.g08.bks.cpg/sg12_66_cif.got.tgz:131011.got - 2010.06.03 13:09:07.
