data_PCOD9195788
_publ_section_title
;
Structure prediction by ZEFSAII (Michael W. Deem and Ramdas Pophale) SiO2 
 PCOD9195788
Probable space group: C 2/M
;
_chemical_formula_sum "Si O2"
_cell_formula_units_Z 48
_cell_length_a 8.311699
_cell_length_b 22.974462
_cell_length_c 18.348414
_cell_angle_alpha 90.000000
_cell_angle_beta 45.402664
_cell_angle_gamma 90.000000
_cell_volume 2494.878960
_symmetry_space_group_name_H-M "C 2/M"
_symmetry_group_IT_number 12
_symmetry_cell_setting 'monoclinic'
loop_
_space_group_symop_operation_xyz
x,y,z
-x,y,-z
-x,-y,-z
x,-y,z
1/2+x,1/2+y,z
1/2-x,1/2+y,-z
1/2-x,1/2-y,-z
1/2+x,1/2-y,z
loop_
_atom_site_type_symbol
_atom_site_label
_atom_site_fract_x
_atom_site_fract_y
_atom_site_fract_z
Si Si1 0.350912 0.643757 0.241695
Si Si2 0.732936 0.330426 0.576999
Si Si3 0.958976 0.667701 0.199870
Si Si4 0.153732 0.307876 0.612991
Si Si5 0.734332 0.222254 0.882927
Si Si6 0.785303 0.931419 0.120928
O O1 0.378442 0.633688 0.320728
O O2 0.563391 0.682810 0.149618
O O3 0.328480 0.592600 0.189494
O O4 0.112198 0.678165 0.315215
O O5 0.705292 0.335303 0.498261
O O6 0.687876 0.261581 0.604933
O O7 0.000000 0.341404 0.500000
O O8 0.163203 0.713317 0.150184
O O9 0.076814 0.605567 0.154788
O O10 0.802394 0.667963 0.320752
O O11 0.825899 0.694292 0.175215
O O12 0.500000 0.221336 0.000000
O O13 0.740780 0.000000 0.137047
O O14 0.000000 0.921120 0.000000
#
# Coordination Sequence:
#
# PCOD9195788 Si02
#       6
#     8   8   8   8   8   8
#     4  10  20  35  55  80 114 146 187 231 278 335
#     4   9  17  29  52  79 113 146 178 223 276 339
#     4  11  21  34  54  79 114 146 184 229 281 337
#     4   9  18  31  51  78 111 146 177 221 276 338
#     4  12  23  34  53  83 117 150 182 229 288 341
#     4  10  21  39  59  77 105 151 199 237 278 329
#
# _framework density 19.239411
#
# number of rings (size 3 to 8) (size 9 to 14) (size 15 to 20)
#    0.000    1.833    1.667    4.000    2.333    0.000 
#    0.000    0.833    0.000   15.500    0.000    0.000 
#    0.000   33.333    0.000    0.000    0.000    0.000 
#
# Total GULP energy -133818.674255 kJ/mol
# GULP energy per Si atom -5575.778094 kJ/mol
# Density = 1.919562 g / cm^3
# Si number density = 19.239411 Si / 1000 Ang^3
#
#
#
# Elastic Constant Matrix: (Units=GPa)
#
#
# Indices 1 2 3 4 5 6 
#
# 1 69.9588 18.2552 26.0919 0.0000 10.3464 0.0000
# 2 18.2552 71.9588 21.0762 0.0000 -0.4221 0.0000
# 3 26.0919 21.0762 101.4784 0.0000 -7.1626 0.0000
# 4 0.0000 0.0000 0.0000 19.7370 0.0000 5.1891
# 5 10.3464 -0.4221 -7.1626 0.0000 37.5202 0.0000
# 6 0.0000 0.0000 0.0000 5.1891 0.0000 17.4110
#
#
#
# Elastic Compliance Matrix: (Units=1/GPa)
#
#
# Indices 1 2 3 4 5 6 
#
# 1 0.017566 -0.003247 -0.004244 0.000000 -0.005690 0.000000
# 2 -0.003247 0.015404 -0.002320 0.000000 0.000626 0.000000
# 3 -0.004244 -0.002320 0.011665 0.000000 0.003371 0.000000
# 4 0.000000 0.000000 0.000000 0.054974 0.000000 -0.016384
# 5 -0.005690 0.000626 0.003371 0.000000 0.028872 0.000000
# 6 0.000000 0.000000 0.000000 -0.016384 0.000000 0.062318
#
#
# Mechanical properties :
#
#
# Convention : Reuss Voigt Hill
#
# Bulk Modulus (GPa) = 39.97877 41.58250 40.78063
# Shear Modulus (GPa) = 22.85633 26.79849 24.82741
#
# Velocity S-wave (km/s) = 3.45047 3.73620 3.59617
# Velocity P-wave (km/s) = 6.05797 6.34605 6.20369
#
# Compressibility (1/GPa) = 0.02501328
#
# Stress axis : x y z
#
# Youngs Moduli (GPa) = 56.92925 64.91922 85.72424
#
# Poissons Ratio (x) = 0.21077 0.36380
# Poissons Ratio (y) = 0.18483 0.19891
# Poissons Ratio (z) = 0.24160 0.15063
#
# Static dielectric constant tensor:
#      x y z
#    x 1.837190 0.000000 0.017170 
#    y 0.000000 1.613300 0.000000 
#    z 0.017170 0.000000 1.755640 
# 
# From -- ./inp_files/198035.got.cif
#   From: 2010.05.17/outbox.cif.g08.bks.cpg/sg12_100_cif.got.tgz:198035.got - 2010.06.03 13:09:07.
