data_PCOD9195586
_publ_section_title
;
Structure prediction by ZEFSAII (Michael W. Deem and Ramdas Pophale) SiO2 
 PCOD9195586
Probable space group: C 2/M
;
_chemical_formula_sum "Si O2"
_cell_formula_units_Z 40
_cell_length_a 14.480192
_cell_length_b 9.298055
_cell_length_c 22.636591
_cell_angle_alpha 90.000000
_cell_angle_beta 47.202766
_cell_angle_gamma 90.000000
_cell_volume 2236.315455
_symmetry_space_group_name_H-M "C 2/M"
_symmetry_group_IT_number 12
_symmetry_cell_setting 'monoclinic'
loop_
_space_group_symop_operation_xyz
x,y,z
-x,y,-z
-x,-y,-z
x,-y,z
1/2+x,1/2+y,z
1/2-x,1/2+y,-z
1/2-x,1/2-y,-z
1/2+x,1/2-y,z
loop_
_atom_site_type_symbol
_atom_site_label
_atom_site_fract_x
_atom_site_fract_y
_atom_site_fract_z
Si Si1 0.562570 0.832614 0.562196
Si Si2 0.138583 0.327618 0.867874
Si Si3 0.657858 0.171863 0.995026
Si Si4 0.737479 0.168478 0.599755
Si Si5 0.265981 0.829091 0.703755
O O1 0.631827 0.815088 0.595072
O O2 0.635786 0.733473 0.484122
O O3 0.415704 0.802621 0.632776
O O4 0.578454 0.000000 0.536998
O O5 0.154736 0.500000 0.853786
O O6 0.212966 0.242520 0.785796
O O7 0.989113 0.297105 0.928223
O O8 0.179921 0.289282 0.916666
O O9 0.673875 0.000000 0.992953
O O10 0.750000 0.250000 0.000000
O O11 0.705658 0.255482 0.672434
O O12 0.752433 0.000000 0.606303
O O13 0.245339 0.000000 0.712969
#
# Coordination Sequence:
#
# PCOD9195586 Si02
#       5
#     8   8   8   8   8
#     4   9  20  37  53  73 105 141 177 218 263 310
#     4   9  20  38  55  77 109 140 172 211 258 314
#     4   9  19  37  60  81 105 138 172 211 260 311
#     4  10  20  35  55  77 103 139 180 219 262 312
#     4  11  22  35  53  78 108 140 174 217 264 307
#
# _framework density 17.886564
#
# number of rings (size 3 to 8) (size 9 to 14) (size 15 to 20)
#    0.000    2.400    0.000    3.000    0.000    8.000 
#    0.000    8.000    0.000    0.000    0.000    0.000 
#    0.000    0.000    0.000    0.000    0.000    0.000 
#
# Total GULP energy -111661.769079 kJ/mol
# GULP energy per Si atom -5583.088454 kJ/mol
# Density = 1.784585 g / cm^3
# Si number density = 17.886564 Si / 1000 Ang^3
#
#
#
# Elastic Constant Matrix: (Units=GPa)
#
#
# Indices 1 2 3 4 5 6 
#
# 1 99.2823 51.4842 44.2962 0.0000 22.1216 0.0000
# 2 51.4842 63.8369 58.2338 0.0000 15.4306 0.0000
# 3 44.2962 58.2338 93.9308 0.0000 26.7175 0.0000
# 4 0.0000 0.0000 0.0000 36.0761 0.0000 0.2117
# 5 22.1216 15.4306 26.7175 0.0000 15.7145 0.0000
# 6 0.0000 0.0000 0.0000 0.2117 0.0000 30.2945
#
#
#
# Elastic Compliance Matrix: (Units=1/GPa)
#
#
# Indices 1 2 3 4 5 6 
#
# 1 0.022773 -0.020936 0.010673 0.000000 -0.029645 0.000000
# 2 -0.020936 0.055512 -0.033735 0.000000 0.032318 0.000000
# 3 0.010673 -0.033735 0.041399 0.000000 -0.052285 0.000000
# 4 0.000000 0.000000 0.000000 0.027720 0.000000 -0.000194
# 5 -0.029645 0.032318 -0.052285 0.000000 0.162525 0.000000
# 6 0.000000 0.000000 0.000000 -0.000194 0.000000 0.033011
#
#
# Mechanical properties :
#
#
# Convention : Reuss Voigt Hill
#
# Bulk Modulus (GPa) = 31.55880 62.78648 47.17264
# Shear Modulus (GPa) = 11.32506 23.28607 17.30557
#
# Velocity S-wave (km/s) = 2.51900 3.61207 3.11387
# Velocity P-wave (km/s) = 5.11299 7.25085 6.27365
#
# Compressibility (1/GPa) = 0.03168689
#
# Stress axis : x y z
#
# Youngs Moduli (GPa) = 43.91247 18.01426 24.15505
#
# Poissons Ratio (x) = 0.37715 -0.25780
# Poissons Ratio (y) = 0.91936 0.81486
# Poissons Ratio (z) = -0.46866 0.60771
#
# Static dielectric constant tensor:
#      x y z
#    x 1.613470 0.000000 0.008930 
#    y 0.000000 1.594230 0.000000 
#    z 0.008930 0.000000 1.583870 
# 
# From -- ./inp_files/211172.got.cif
#   From: 2010.05.17/outbox.cif.g08.bks.cpg/sg12_106_cif.got.tgz:211172.got - 2010.06.03 13:09:07.
