data_PCOD9195706
_publ_section_title
;
Structure prediction by ZEFSAII (Michael W. Deem and Ramdas Pophale) SiO2 
 PCOD9195706
Probable space group: C 2/M
;
_chemical_formula_sum "Si O2"
_cell_formula_units_Z 56
_cell_length_a 25.098138
_cell_length_b 14.619125
_cell_length_c 8.566261
_cell_angle_alpha 90.000000
_cell_angle_beta 113.894771
_cell_angle_gamma 90.000000
_cell_volume 2873.681251
_symmetry_space_group_name_H-M "C 2/M"
_symmetry_group_IT_number 12
_symmetry_cell_setting 'monoclinic'
loop_
_space_group_symop_operation_xyz
x,y,z
-x,y,-z
-x,-y,-z
x,-y,z
1/2+x,1/2+y,z
1/2-x,1/2+y,-z
1/2-x,1/2-y,-z
1/2+x,1/2-y,z
loop_
_atom_site_type_symbol
_atom_site_label
_atom_site_fract_x
_atom_site_fract_y
_atom_site_fract_z
Si Si1 0.490586 0.293513 0.304175
Si Si2 0.756462 0.853267 0.948640
Si Si3 0.619509 0.603311 0.762171
Si Si4 0.525451 0.101441 0.855895
Si Si5 0.204102 0.221100 0.314777
Si Si6 0.337119 0.899850 0.925586
Si Si7 0.894149 0.108656 0.622938
O O1 0.500000 0.305615 0.500000
O O2 0.424983 0.329904 0.201677
O O3 0.496761 0.188002 0.266282
O O4 0.540225 0.353407 0.279963
O O5 0.764173 0.844663 0.773277
O O6 0.750000 0.750000 0.000000
O O7 0.816326 0.891197 0.091044
O O8 0.701054 0.899687 0.961592
O O9 0.596176 0.500000 0.748420
O O10 0.622010 0.623914 0.579843
O O11 0.510488 0.000000 0.775792
O O12 0.500000 0.107603 0.000000
O O13 0.595166 0.108317 0.952619
O O14 0.250000 0.250000 0.500000
O O15 0.182379 0.313736 0.202193
O O16 0.150302 0.166420 0.325695
O O17 0.327963 0.000000 0.837719
O O18 0.890921 0.000000 0.649375
#
# Coordination Sequence:
#
# PCOD9195706 Si02
#       7
#     8   8   8   8   8   8   8
#     4  10  20  35  58  85 114 147 186 232 280 334
#     4  10  20  35  55  79 109 146 189 229 272 333
#     4  10  20  36  58  83 114 153 192 229 276 337
#     4  10  21  38  59  81 108 145 187 232 283 337
#     4  11  23  37  57  85 117 148 185 236 290 337
#     4  10  21  39  60  80 109 152 195 234 282 341
#     4  10  21  37  57  84 118 152 186 230 285 338
#
# _framework density 19.487199
#
# number of rings (size 3 to 8) (size 9 to 14) (size 15 to 20)
#    0.000    1.857    0.000    5.143    0.000    6.000 
#    0.000    0.000    0.000    7.714    0.000    0.000 
#    0.000    0.000    0.000    0.000    0.000    0.000 
#
# Total GULP energy -156276.686139 kJ/mol
# GULP energy per Si atom -5581.310219 kJ/mol
# Density = 1.944285 g / cm^3
# Si number density = 19.487199 Si / 1000 Ang^3
#
#
#
# Elastic Constant Matrix: (Units=GPa)
#
#
# Indices 1 2 3 4 5 6 
#
# 1 163.0597 54.7671 36.1687 0.0000 -4.3025 0.0000
# 2 54.7671 122.1228 14.7474 0.0000 -14.9416 0.0000
# 3 36.1687 14.7474 35.7480 0.0000 -3.0980 0.0000
# 4 0.0000 0.0000 0.0000 33.8051 0.0000 -9.4538
# 5 -4.3025 -14.9416 -3.0980 0.0000 19.5444 0.0000
# 6 0.0000 0.0000 0.0000 -9.4538 0.0000 79.6367
#
#
#
# Elastic Compliance Matrix: (Units=1/GPa)
#
#
# Indices 1 2 3 4 5 6 
#
# 1 0.008922 -0.003273 -0.007831 0.000000 -0.001780 0.000000
# 2 -0.003273 0.010603 -0.000428 0.000000 0.007318 0.000000
# 3 -0.007831 -0.000428 0.036396 0.000000 0.003718 0.000000
# 4 0.000000 0.000000 0.000000 0.030597 0.000000 0.003632
# 5 -0.001780 0.007318 0.003718 0.000000 0.056958 0.000000
# 6 0.000000 0.000000 0.000000 0.003632 0.000000 0.012988
#
#
# Mechanical properties :
#
#
# Convention : Reuss Voigt Hill
#
# Bulk Modulus (GPa) = 30.43588 59.14409 44.78998
# Shear Modulus (GPa) = 26.24926 40.94706 33.59816
#
# Velocity S-wave (km/s) = 3.67413 4.58889 4.15675
# Velocity P-wave (km/s) = 5.80097 7.64809 6.78766
#
# Compressibility (1/GPa) = 0.03285596
#
# Stress axis : x y z
#
# Youngs Moduli (GPa) = 112.07991 94.30873 27.47580
#
# Poissons Ratio (x) = 0.30870 0.21516
# Poissons Ratio (y) = 0.36687 0.01177
# Poissons Ratio (z) = 0.87771 0.04039
#
# Static dielectric constant tensor:
#      x y z
#    x 1.682900 0.000000 -0.006500 
#    y 0.000000 1.699340 0.000000 
#    z -0.006500 0.000000 1.667590 
# 
# From -- ./inp_files/96946.got.cif
#   From: 2010.05.17/outbox.cif.g08.bks.cpg/sg12_49_cif.got.tgz:96946.got - 2010.06.03 13:09:07.
