data_PCOD9195171
_publ_section_title
;
Structure prediction by ZEFSAII (Michael W. Deem and Ramdas Pophale) SiO2 
 PCOD9195171
Probable space group: C 2/M
;
_chemical_formula_sum "Si O2"
_cell_formula_units_Z 56
_cell_length_a 34.579310
_cell_length_b 8.641492
_cell_length_c 15.535737
_cell_angle_alpha 90.000000
_cell_angle_beta 134.110127
_cell_angle_gamma 90.000000
_cell_volume 3333.215147
_symmetry_space_group_name_H-M "C 2/M"
_symmetry_group_IT_number 12
_symmetry_cell_setting 'monoclinic'
loop_
_space_group_symop_operation_xyz
x,y,z
-x,y,-z
-x,-y,-z
x,-y,z
1/2+x,1/2+y,z
1/2-x,1/2+y,-z
1/2-x,1/2-y,-z
1/2+x,1/2-y,z
loop_
_atom_site_type_symbol
_atom_site_label
_atom_site_fract_x
_atom_site_fract_y
_atom_site_fract_z
Si Si1 0.935694 0.813069 0.261018
Si Si2 0.958304 0.687831 0.815095
Si Si3 0.623964 0.313290 0.655651
Si Si4 0.756529 0.185550 0.106438
Si Si5 0.447412 0.814529 0.605578
Si Si6 0.149209 0.815000 0.019792
Si Si7 0.921108 0.687094 0.940964
O O1 0.910948 0.766878 0.314667
O O2 0.993865 0.741523 0.334289
O O3 0.940515 0.000000 0.267469
O O4 0.893774 0.768081 0.120978
O O5 0.957559 0.500000 0.814367
O O6 0.940072 0.740476 0.692940
O O7 0.924179 0.736239 0.845740
O O8 0.020663 0.731324 0.928496
O O9 0.622693 0.500000 0.650026
O O10 0.685610 0.264773 0.766494
O O11 0.597052 0.247752 0.528555
O O12 0.706583 0.243280 0.085332
O O13 0.756293 0.000000 0.101768
O O14 0.750000 0.250000 0.000000
O O15 0.446577 0.000000 0.603962
O O16 0.125234 0.759648 0.073158
O O17 0.153359 0.000000 0.023881
O O18 0.917237 0.500000 0.938455
#
# Coordination Sequence:
#
# PCOD9195171 Si02
#       7
#     8   8   8   8   8   8   8
#     4  10  20  35  51  72 108 147 173 206 260 318
#     4   8  16  30  51  77 107 137 172 214 264 316
#     4  10  22  39  53  71 104 146 179 209 261 318
#     4  11  22  38  58  78 103 139 181 221 263 311
#     4  11  21  33  52  81 108 137 178 220 256 307
#     4  11  21  34  53  81 111 138 173 220 266 309
#     4   9  16  32  54  76 104 141 174 212 264 320
#
# _framework density 16.800595000000001
#
# number of rings (size 3 to 8) (size 9 to 14) (size 15 to 20)
#    0.000    2.000    2.857    2.571    0.000    4.000 
#    0.000    2.857    0.000    0.857    0.000    0.000 
#    0.000    0.000    0.000    0.000    0.000    0.000 
#
# Total GULP energy -156276.574241 kJ/mol
# GULP energy per Si atom -5581.306223 kJ/mol
# Density = 1.676236 g / cm^3
# Si number density = 16.800595 Si / 1000 Ang^3
#
#
#
# Elastic Constant Matrix: (Units=GPa)
#
#
# Indices 1 2 3 4 5 6 
#
# 1 157.2627 32.0641 92.9740 0.0000 -15.5256 0.0000
# 2 32.0641 24.2868 33.8814 0.0000 0.0854 0.0000
# 3 92.9740 33.8814 149.3970 0.0000 -7.0818 0.0000
# 4 0.0000 0.0000 0.0000 25.5984 0.0000 0.7193
# 5 -15.5256 0.0854 -7.0818 0.0000 21.8265 0.0000
# 6 0.0000 0.0000 0.0000 0.7193 0.0000 24.9399
#
#
#
# Elastic Compliance Matrix: (Units=1/GPa)
#
#
# Indices 1 2 3 4 5 6 
#
# 1 0.011748 -0.008456 -0.005074 0.000000 0.006744 0.000000
# 2 -0.008456 0.066803 -0.010345 0.000000 -0.009632 0.000000
# 3 -0.005074 -0.010345 0.012216 0.000000 0.000395 0.000000
# 4 0.000000 0.000000 0.000000 0.039097 0.000000 -0.001128
# 5 0.006744 -0.009632 0.000395 0.000000 0.050778 0.000000
# 6 0.000000 0.000000 0.000000 -0.001128 0.000000 0.040129
#
#
# Mechanical properties :
#
#
# Convention : Reuss Voigt Hill
#
# Bulk Modulus (GPa) = 23.24552 72.08726 47.66639
# Shear Modulus (GPa) = 17.67664 25.94144 21.80904
#
# Velocity S-wave (km/s) = 3.24720 3.93374 3.60684
# Velocity P-wave (km/s) = 5.28443 7.97704 6.76603
#
# Compressibility (1/GPa) = 0.04301905
#
# Stress axis : x y z
#
# Youngs Moduli (GPa) = 85.11865 14.96938 81.85982
#
# Poissons Ratio (x) = 0.12658 0.41536
# Poissons Ratio (y) = 0.71973 0.84680
# Poissons Ratio (z) = 0.43189 0.15485
#
# Static dielectric constant tensor:
#      x y z
#    x 1.556350 0.000000 -0.017580 
#    y 0.000000 1.572030 0.000000 
#    z -0.017580 0.000000 1.554530 
# 
# From -- ./inp_files/237478.got.cif
#   From: 2010.05.17/outbox.cif.g08.bks.cpg/sg12_119_cif.got.tgz:237478.got - 2010.06.03 13:09:07.
