data_PCOD9195047
_publ_section_title
;
Structure prediction by ZEFSAII (Michael W. Deem and Ramdas Pophale) SiO2 
 PCOD9195047
Probable space group: C 2/M
;
_chemical_formula_sum "Si O2"
_cell_formula_units_Z 56
_cell_length_a 35.118234
_cell_length_b 11.028698
_cell_length_c 10.348745
_cell_angle_alpha 90.000000
_cell_angle_beta 127.698100
_cell_angle_gamma 90.000000
_cell_volume 3171.428502
_symmetry_space_group_name_H-M "C 2/M"
_symmetry_group_IT_number 12
_symmetry_cell_setting 'monoclinic'
loop_
_space_group_symop_operation_xyz
x,y,z
-x,y,-z
-x,-y,-z
x,-y,z
1/2+x,1/2+y,z
1/2-x,1/2+y,-z
1/2-x,1/2-y,-z
1/2+x,1/2-y,z
loop_
_atom_site_type_symbol
_atom_site_label
_atom_site_fract_x
_atom_site_fract_y
_atom_site_fract_z
Si Si1 0.810186 0.140338 0.209087
Si Si2 0.544196 0.500000 0.990368
Si Si3 0.481597 0.500000 0.608589
Si Si4 0.200453 0.643636 0.023183
Si Si5 0.908396 0.216128 0.524144
Si Si6 0.058404 0.745531 0.120088
Si Si7 0.889192 0.642283 0.007370
Si Si8 0.445772 0.144990 0.369630
O O1 0.810650 0.250455 0.105075
O O2 0.855033 0.162999 0.396842
O O3 0.814419 0.000000 0.166712
O O4 0.757588 0.148710 0.165138
O O5 0.523992 0.500000 0.803499
O O6 0.500000 0.500000 0.000000
O O7 0.569993 0.377233 0.082541
O O8 0.500000 0.500000 0.500000
O O9 0.447504 0.614275 0.567676
O O10 0.190897 0.500000 0.963697
O O11 0.165901 0.673850 0.072692
O O12 0.921998 0.260236 0.694623
O O13 0.915286 0.319033 0.430846
O O14 0.087067 0.662018 0.081227
O O15 0.000000 0.727261 0.000000
O O16 0.891100 0.500000 0.032450
O O17 0.922232 0.697540 0.190547
O O18 0.500000 0.190313 0.500000
O O19 0.448163 0.000000 0.366207
#
# Coordination Sequence:
#
# PCOD9195047 Si02
#       8
#     8   4   4   8   8   8   8   8
#     4  10  20  34  60  89 115 144 192 247 294 355
#     4  10  20  40  52  74 116 160 182 214 286 344
#     4  12  24  34  56  84 116 150 190 236 276 346
#     4   9  19  39  60  82 115 153 187 239 305 350
#     4  12  21  35  55  85 113 145 190 232 291 334
#     4  11  22  37  56  77 115 158 187 223 276 355
#     4  10  21  38  57  78 108 151 193 232 286 342
#     4  10  21  35  53  80 113 145 189 239 279 332
#
# _framework density 17.657658000000001
#
# number of rings (size 3 to 8) (size 9 to 14) (size 15 to 20)
#    0.000    1.571    5.000    1.286    2.000    0.857 
#    1.286    0.714    0.000    0.000    0.000    0.000 
#    0.000    0.000    0.000    0.000    0.000    0.000 
#
# Total GULP energy -155895.050044 kJ/mol
# GULP energy per Si atom -5567.680359 kJ/mol
# Density = 1.761747 g / cm^3
# Si number density = 17.657658 Si / 1000 Ang^3
#
#
#
# Elastic Constant Matrix: (Units=GPa)
#
#
# Indices 1 2 3 4 5 6 
#
# 1 132.2071 28.0597 66.9569 0.0000 -4.6646 0.0000
# 2 28.0597 31.5402 11.8055 0.0000 5.8326 0.0000
# 3 66.9569 11.8055 110.1053 0.0000 -11.8069 0.0000
# 4 0.0000 0.0000 0.0000 13.3627 0.0000 -7.7732
# 5 -4.6646 5.8326 -11.8069 0.0000 28.4195 0.0000
# 6 0.0000 0.0000 0.0000 -7.7732 0.0000 25.4423
#
#
#
# Elastic Compliance Matrix: (Units=1/GPa)
#
#
# Indices 1 2 3 4 5 6 
#
# 1 0.013010 -0.009258 -0.006789 0.000000 0.001215 0.000000
# 2 -0.009258 0.041776 0.000071 0.000000 -0.010064 0.000000
# 3 -0.006789 0.000071 0.013692 0.000000 0.004559 0.000000
# 4 0.000000 0.000000 0.000000 0.091010 0.000000 0.027806
# 5 0.001215 -0.010064 0.004559 0.000000 0.039346 0.000000
# 6 0.000000 0.000000 0.000000 0.027806 0.000000 0.047800
#
#
# Mechanical properties :
#
#
# Convention : Reuss Voigt Hill
#
# Bulk Modulus (GPa) = 27.37653 54.16633 40.77143
# Shear Modulus (GPa) = 17.19636 24.58027 20.88832
#
# Velocity S-wave (km/s) = 3.12408 3.73506 3.44315
# Velocity P-wave (km/s) = 5.34331 7.02448 6.24076
#
# Compressibility (1/GPa) = 0.03652764
#
# Stress axis : x y z
#
# Youngs Moduli (GPa) = 76.86563 23.93718 73.03710
#
# Poissons Ratio (x) = 0.22161 0.49581
# Poissons Ratio (y) = 0.71161 -0.00522
# Poissons Ratio (z) = 0.52180 -0.00171
#
# Static dielectric constant tensor:
#      x y z
#    x 1.583940 0.000000 0.037530 
#    y 0.000000 1.701240 0.000000 
#    z 0.037530 0.000000 1.602540 
# 
# From -- ./inp_files/110605.got.cif
#   From: 2010.05.17/outbox.cif.g08.bks.cpg/sg12_56_cif.got.tgz:110605.got - 2010.06.03 13:09:07.
