data_PCOD9195293
_publ_section_title
;
Structure prediction by ZEFSAII (Michael W. Deem and Ramdas Pophale) SiO2 
 PCOD9195293
Probable space group: C 2/M
;
_chemical_formula_sum "Si O2"
_cell_formula_units_Z 36
_cell_length_a 5.068255
_cell_length_b 33.278785
_cell_length_c 10.983306
_cell_angle_alpha 90.000000
_cell_angle_beta 109.521720
_cell_angle_gamma 90.000000
_cell_volume 1746.011980
_symmetry_space_group_name_H-M "C 2/M"
_symmetry_group_IT_number 12
_symmetry_cell_setting 'monoclinic'
loop_
_space_group_symop_operation_xyz
x,y,z
-x,y,-z
-x,-y,-z
x,-y,z
1/2+x,1/2+y,z
1/2-x,1/2+y,-z
1/2-x,1/2-y,-z
1/2+x,1/2-y,z
loop_
_atom_site_type_symbol
_atom_site_label
_atom_site_fract_x
_atom_site_fract_y
_atom_site_fract_z
Si Si1 0.000000 0.066777 0.000000
Si Si2 0.723919 0.500000 0.859325
Si Si3 0.508217 0.635044 0.647521
Si Si4 0.435927 0.910428 0.272005
Si Si5 0.116547 0.500000 0.701995
Si Si6 0.615718 0.725738 0.657185
O O1 0.825703 0.038642 0.065568
O O2 0.224696 0.087588 0.123606
O O3 0.448997 0.500000 0.731069
O O4 0.003816 0.500000 0.824702
O O5 0.500000 0.634240 0.500000
O O6 0.219605 0.619261 0.658801
O O7 0.574082 0.680620 0.697029
O O8 0.764057 0.605947 0.722007
O O9 0.473282 0.954401 0.342198
O O10 0.500000 0.725313 0.500000
O O11 0.429166 0.758198 0.698818
#
# Coordination Sequence:
#
# PCOD9195293 Si02
#       6
#     4   4   8   8   4   8
#     4   9  20  34  56  84 104 136 188 238 290 308
#     4   9  18  32  54  77 102 129 184 260 285 294
#     4  11  23  38  55  82 116 146 176 219 275 330
#     4  11  22  36  56  80 112 147 185 233 267 316
#     4  10  20  35  53  77 106 149 191 225 275 306
#     4   9  17  32  56  81 103 130 172 225 276 321
#
# _framework density 20.618414000000001
#
# number of rings (size 3 to 8) (size 9 to 14) (size 15 to 20)
#    0.000    2.000    0.000    5.333    0.000   15.111 
#    0.000    3.333    0.000    0.000    0.000   15.556 
#    0.000    0.000    0.000    0.000    0.000    0.000 
#
# Total GULP energy -100388.009647 kJ/mol
# GULP energy per Si atom -5577.111647 kJ/mol
# Density = 2.057149 g / cm^3
# Si number density = 20.618414 Si / 1000 Ang^3
#
#
#
# Elastic Constant Matrix: (Units=GPa)
#
#
# Indices 1 2 3 4 5 6 
#
# 1 68.0395 7.8200 -8.7194 0.0000 -0.1858 0.0000
# 2 7.8200 117.7739 -5.2350 0.0000 -6.2922 0.0000
# 3 -8.7194 -5.2350 40.6445 0.0000 1.5328 0.0000
# 4 0.0000 0.0000 0.0000 19.0423 0.0000 -9.2503
# 5 -0.1858 -6.2922 1.5328 0.0000 26.5827 0.0000
# 6 0.0000 0.0000 0.0000 -9.2503 0.0000 34.7353
#
#
#
# Elastic Compliance Matrix: (Units=1/GPa)
#
#
# Indices 1 2 3 4 5 6 
#
# 1 0.015203 -0.000884 0.003158 0.000000 -0.000285 0.000000
# 2 -0.000884 0.008695 0.000855 0.000000 0.002003 0.000000
# 3 0.003158 0.000855 0.025438 0.000000 -0.001242 0.000000
# 4 0.000000 0.000000 0.000000 0.060318 0.000000 0.016063
# 5 -0.000285 0.002003 -0.001242 0.000000 0.038162 0.000000
# 6 0.000000 0.000000 0.000000 0.016063 0.000000 0.033067
#
#
# Mechanical properties :
#
#
# Convention : Reuss Voigt Hill
#
# Bulk Modulus (GPa) = 17.98793 23.79879 20.89336
# Shear Modulus (GPa) = 25.88581 31.57821 28.73201
#
# Velocity S-wave (km/s) = 3.54711 3.91775 3.73703
# Velocity P-wave (km/s) = 5.05164 5.65973 5.36431
#
# Compressibility (1/GPa) = 0.05559284
#
# Stress axis : x y z
#
# Youngs Moduli (GPa) = 65.77673 115.01472 39.31114
#
# Poissons Ratio (x) = 0.10171 -0.12416
# Poissons Ratio (y) = 0.05817 -0.03360
# Poissons Ratio (z) = -0.20774 -0.09830
#
# Static dielectric constant tensor:
#      x y z
#    x 1.714550 0.000000 0.025620 
#    y 0.000000 1.763460 0.000000 
#    z 0.025620 0.000000 1.784940 
# 
# From -- ./inp_files/115599.got.cif
#   From: 2010.05.17/outbox.cif.g08.bks.cpg/sg12_58_cif.got.tgz:115599.got - 2010.06.03 13:09:07.
