data_PCOD9195872
_publ_section_title
;
Structure prediction by ZEFSAII (Michael W. Deem and Ramdas Pophale) SiO2 
 PCOD9195872
Probable space group: C 2/M
;
_chemical_formula_sum "Si O2"
_cell_formula_units_Z 64
_cell_length_a 19.814599
_cell_length_b 20.759208
_cell_length_c 8.860998
_cell_angle_alpha 90.000000
_cell_angle_beta 51.961936
_cell_angle_gamma 90.000000
_cell_volume 2870.683280
_symmetry_space_group_name_H-M "C 2/M"
_symmetry_group_IT_number 12
_symmetry_cell_setting 'monoclinic'
loop_
_space_group_symop_operation_xyz
x,y,z
-x,y,-z
-x,-y,-z
x,-y,z
1/2+x,1/2+y,z
1/2-x,1/2+y,-z
1/2-x,1/2-y,-z
1/2+x,1/2-y,z
loop_
_atom_site_type_symbol
_atom_site_label
_atom_site_fract_x
_atom_site_fract_y
_atom_site_fract_z
Si Si1 0.182372 0.422187 0.919571
Si Si2 0.509493 0.920848 0.314931
Si Si3 0.367787 0.672463 0.436116
Si Si4 0.781389 0.147711 0.254789
Si Si5 0.662091 0.924596 0.609022
Si Si6 0.127363 0.924012 0.324033
Si Si7 0.327908 0.238354 0.777028
Si Si8 0.562644 0.323253 0.182584
O O1 0.177132 0.500000 0.922487
O O2 0.180026 0.397155 0.750884
O O3 0.274656 0.409462 0.864262
O O4 0.099433 0.398611 0.121975
O O5 0.500000 0.900174 0.500000
O O6 0.427460 0.898664 0.332712
O O7 0.509899 0.000000 0.313019
O O8 0.308305 0.682884 0.373846
O O9 0.371913 0.600441 0.503717
O O10 0.337070 0.714018 0.621134
O O11 0.466560 0.686175 0.258867
O O12 0.739972 0.083982 0.384724
O O13 0.702467 0.174302 0.264977
O O14 0.867117 0.154427 0.037393
O O15 0.648386 0.000000 0.649416
O O16 0.068319 0.880486 0.299227
O O17 0.110579 0.000000 0.336362
O O18 0.408305 0.258055 0.770032
O O19 0.250000 0.250000 0.000000
#
# Coordination Sequence:
#
# PCOD9195872 Si02
#       8
#     8   8   8   8   8   8   8   8
#     4   9  17  32  53  76 112 161 204 241 289 351
#     4   9  18  31  51  76 107 154 203 246 292 347
#     4  11  21  40  65  89 121 159 202 248 305 357
#     4  11  22  38  63  92 121 157 203 251 297 359
#     4  10  20  35  55  83 124 165 199 241 299 359
#     4  10  20  35  58  88 122 165 210 246 290 356
#     4   9  20  40  64  87 111 149 199 250 305 356
#     4  10  23  39  62  89 122 163 197 248 304 358
#
# _framework density 22.294343999999999
#
# number of rings (size 3 to 8) (size 9 to 14) (size 15 to 20)
#    0.000    2.125    1.250    2.625    1.750    3.000 
#    0.000    1.250    5.500    3.750    0.000    0.000 
#    0.000    0.000    0.000    0.000    0.000    0.000 
#
# Total GULP energy -178378.942820 kJ/mol
# GULP energy per Si atom -5574.341963 kJ/mol
# Density = 2.224360 g / cm^3
# Si number density = 22.294344 Si / 1000 Ang^3
#
#
#
# Elastic Constant Matrix: (Units=GPa)
#
#
# Indices 1 2 3 4 5 6 
#
# 1 90.5392 1.5012 20.7399 0.0000 -9.2195 0.0000
# 2 1.5012 21.3559 16.6044 0.0000 -1.0155 0.0000
# 3 20.7399 16.6044 129.7131 0.0000 -2.8544 0.0000
# 4 0.0000 0.0000 0.0000 27.9730 0.0000 0.6179
# 5 -9.2195 -1.0155 -2.8544 0.0000 35.6878 0.0000
# 6 0.0000 0.0000 0.0000 0.6179 0.0000 11.3909
#
#
#
# Elastic Compliance Matrix: (Units=1/GPa)
#
#
# Indices 1 2 3 4 5 6 
#
# 1 0.011768 0.000804 -0.001920 0.000000 0.002909 0.000000
# 2 0.000804 0.052088 -0.006771 0.000000 0.001148 0.000000
# 3 -0.001920 -0.006771 0.008884 0.000000 0.000022 0.000000
# 4 0.000000 0.000000 0.000000 0.035792 0.000000 -0.001942
# 5 0.002909 0.001148 0.000022 0.000000 0.028807 0.000000
# 6 0.000000 0.000000 0.000000 -0.001942 0.000000 0.087895
#
#
# Mechanical properties :
#
#
# Convention : Reuss Voigt Hill
#
# Bulk Modulus (GPa) = 17.55462 35.47767 26.51615
# Shear Modulus (GPa) = 19.23110 28.52786 23.87948
#
# Velocity S-wave (km/s) = 2.94019 3.58103 3.27632
# Velocity P-wave (km/s) = 4.40652 5.74859 5.12170
#
# Compressibility (1/GPa) = 0.05696505
#
# Stress axis : x y z
#
# Youngs Moduli (GPa) = 84.97773 19.19827 112.56667
#
# Poissons Ratio (x) = -0.01544 0.21618
# Poissons Ratio (y) = -0.06835 0.76219
# Poissons Ratio (z) = 0.16320 0.12999
#
# Static dielectric constant tensor:
#      x y z
#    x 1.850880 0.000000 -0.016880 
#    y 0.000000 1.870080 0.000000 
#    z -0.016880 0.000000 1.825480 
# 
# From -- ./inp_files/90633.got.cif
#   From: 2010.05.17/outbox.cif.g08.bks.cpg/sg12_46_cif.got.tgz:90633.got - 2010.06.03 13:09:07.
