data_PCOD9195498
_publ_section_title
;
Structure prediction by ZEFSAII (Michael W. Deem and Ramdas Pophale) SiO2 
 PCOD9195498
Probable space group: C 2/M
;
_chemical_formula_sum "Si O2"
_cell_formula_units_Z 58
_cell_length_a 17.962317
_cell_length_b 9.825165
_cell_length_c 19.372548
_cell_angle_alpha 90.000000
_cell_angle_beta 46.569882
_cell_angle_gamma 90.000000
_cell_volume 2482.865600
_symmetry_space_group_name_H-M "C 2/M"
_symmetry_group_IT_number 12
_symmetry_cell_setting 'monoclinic'
loop_
_space_group_symop_operation_xyz
x,y,z
-x,y,-z
-x,-y,-z
x,-y,z
1/2+x,1/2+y,z
1/2-x,1/2+y,-z
1/2-x,1/2-y,-z
1/2+x,1/2-y,z
loop_
_atom_site_type_symbol
_atom_site_label
_atom_site_fract_x
_atom_site_fract_y
_atom_site_fract_z
Si Si1 0.691827 0.153295 0.444250
Si Si2 0.802294 0.344274 0.050981
Si Si3 0.000000 0.000000 0.500000
Si Si4 0.989805 0.154982 0.922222
Si Si5 0.113507 0.234855 0.358802
Si Si6 0.338123 0.144787 0.192273
Si Si7 0.880701 0.340225 0.356869
Si Si8 0.888702 0.339539 0.795090
O O1 0.624399 0.170614 0.418947
O O2 0.787950 0.254370 0.385415
O O3 0.627134 0.178400 0.555126
O O4 0.731682 0.000000 0.422536
O O5 0.793877 0.500000 0.029854
O O6 0.830231 0.356103 0.114400
O O7 0.698032 0.256435 0.116701
O O8 0.895714 0.253518 0.963452
O O9 0.971104 0.879796 0.574854
O O10 0.093773 0.226795 0.831274
O O11 0.976549 0.000000 0.906843
O O12 0.000000 0.150051 0.000000
O O13 0.222257 0.155303 0.290551
O O14 0.112778 0.312880 0.286902
O O15 0.385730 0.000000 0.183199
O O16 0.862935 0.500000 0.355426
O O17 0.994549 0.305552 0.259134
O O18 0.868928 0.500000 0.819945
#
# Coordination Sequence:
#
# PCOD9195498 Si02
#       8
#     8   8   2   8   8   8   8   8
#     4  10  21  38  56  78 104 141 185 232 280 325
#     4   9  17  28  46  73 107 142 177 218 268 325
#     4  12  24  36  50  84 106 144 182 222 280 328
#     4   9  16  26  44  69 100 140 179 215 267 322
#     4  11  22  35  55  80 110 142 184 226 276 328
#     4   9  17  30  44  67 103 136 177 220 264 319
#     4   9  20  37  55  76 104 142 184 228 276 329
#     4  10  20  35  54  80 113 145 181 230 281 325
#
# _framework density 23.360104
#
# number of rings (size 3 to 8) (size 9 to 14) (size 15 to 20)
#    0.000    2.345    0.690    2.069    1.931    6.069 
#    4.966    2.759    0.000    0.000    0.000    0.966 
#    0.000    0.000    0.000    0.000    0.000    0.000 
#
# Total GULP energy -161838.469947 kJ/mol
# GULP energy per Si atom -5580.636895 kJ/mol
# Density = 2.330693 g / cm^3
# Si number density = 23.360104 Si / 1000 Ang^3
#
#
#
# Elastic Constant Matrix: (Units=GPa)
#
#
# Indices 1 2 3 4 5 6 
#
# 1 79.9786 31.4311 19.5738 0.0000 6.3205 0.0000
# 2 31.4311 148.3271 42.6451 0.0000 -44.4348 0.0000
# 3 19.5738 42.6451 63.8301 0.0000 -16.4894 0.0000
# 4 0.0000 0.0000 0.0000 12.2717 0.0000 -18.9966
# 5 6.3205 -44.4348 -16.4894 0.0000 48.6893 0.0000
# 6 0.0000 0.0000 0.0000 -18.9966 0.0000 13.4495
#
#
#
# Elastic Compliance Matrix: (Units=1/GPa)
#
#
# Indices 1 2 3 4 5 6 
#
# 1 0.015769 -0.004481 -0.003756 0.000000 -0.007408 0.000000
# 2 -0.004481 0.011833 -0.003936 0.000000 0.010048 0.000000
# 3 -0.003756 -0.003936 0.020434 0.000000 0.003816 0.000000
# 4 0.000000 0.000000 0.000000 -0.068682 0.000000 -0.097009
# 5 -0.007408 0.010048 0.003816 0.000000 0.031962 0.000000
# 6 0.000000 0.000000 0.000000 -0.097009 0.000000 -0.062668
#
#
# Mechanical properties :
#
#
# Convention : Reuss Voigt Hill
#
# Bulk Modulus (GPa) = 42.21121 53.27066 47.74094
# Shear Modulus (GPa) = -261.64616 28.11449 -116.76584
#
# Velocity S-wave (km/s) = -10.59475 3.47295 -7.07769
# Velocity P-wave (km/s) = 11.46978 6.23983 6.80516
#
# Compressibility (1/GPa) = 0.02369039
#
# Stress axis : x y z
#
# Youngs Moduli (GPa) = 63.41551 84.50873 48.93909
#
# Poissons Ratio (x) = 0.37869 0.18380
# Poissons Ratio (y) = 0.28417 0.19262
# Poissons Ratio (z) = 0.23817 0.33262
#
# Static dielectric constant tensor:
#      x y z
#    x 1.884170 0.000000 0.030400 
#    y 0.000000 1.681750 0.000000 
#    z 0.030400 0.000000 1.895390 
# 
# From -- ./inp_files/346449.got.cif
#   From: 2010.05.17/outbox.cif.g08.bks.cpg/sg12_174_cif.got.tgz:346449.got - 2010.06.03 13:09:07.
