data_PCOD9195457
_publ_section_title
;
Structure prediction by ZEFSAII (Michael W. Deem and Ramdas Pophale) SiO2 
 PCOD9195457
Probable space group: C 2/M
;
_chemical_formula_sum "Si O2"
_cell_formula_units_Z 64
_cell_length_a 32.510113
_cell_length_b 8.564249
_cell_length_c 26.239139
_cell_angle_alpha 90.000000
_cell_angle_beta 29.774318
_cell_angle_gamma 90.000000
_cell_volume 3627.863150
_symmetry_space_group_name_H-M "C 2/M"
_symmetry_group_IT_number 12
_symmetry_cell_setting 'monoclinic'
loop_
_space_group_symop_operation_xyz
x,y,z
-x,y,-z
-x,-y,-z
x,-y,z
1/2+x,1/2+y,z
1/2-x,1/2+y,-z
1/2-x,1/2-y,-z
1/2+x,1/2-y,z
loop_
_atom_site_type_symbol
_atom_site_label
_atom_site_fract_x
_atom_site_fract_y
_atom_site_fract_z
Si Si1 0.698866 0.187614 0.705002
Si Si2 0.174219 0.187610 0.048510
Si Si3 0.362913 0.186268 0.022261
Si Si4 0.918234 0.189059 0.557403
Si Si5 0.616745 0.310229 0.519510
Si Si6 0.261403 0.313937 0.227043
Si Si7 0.511594 0.310132 0.728622
Si Si8 0.955913 0.812396 0.191545
O O1 0.786750 0.236411 0.585300
O O2 0.700922 0.250477 0.760451
O O3 0.621455 0.250179 0.756806
O O4 0.696848 0.000000 0.708787
O O5 0.174705 0.250906 0.990366
O O6 0.176262 0.000000 0.044765
O O7 0.250000 0.250000 0.000000
O O8 0.085017 0.236019 0.167939
O O9 0.310806 0.246741 0.126044
O O10 0.363365 0.000000 0.021045
O O11 0.457059 0.248623 0.923140
O O12 0.920858 0.234817 0.494919
O O13 0.834019 0.258306 0.670778
O O14 0.000000 0.236381 0.500000
O O15 0.911901 0.000000 0.566243
O O16 0.615397 0.500000 0.522621
O O17 0.564725 0.252463 0.623679
O O18 0.265236 0.500000 0.222595
O O19 0.512984 0.500000 0.725744
O O20 0.547533 0.264002 0.745124
O O21 0.957904 0.000000 0.187483
#
# Coordination Sequence:
#
# PCOD9195457 Si02
#       8
#     8   8   8   8   8   8   8   8
#     4  10  20  35  55  79 106 138 178 219 264 322
#     4  10  20  35  55  81 112 145 182 223 269 319
#     4  11  22  38  58  79 106 141 182 225 270 320
#     4   9  18  33  54  80 110 144 182 220 261 315
#     4   8  15  30  51  75 104 138 177 218 257 305
#     4  11  22  37  56  79 109 141 177 223 273 321
#     4   8  16  31  51  75 105 141 178 218 263 312
#     4  10  20  35  54  78 108 139 175 220 271 323
#
# _framework density 17.641238999999999
#
# number of rings (size 3 to 8) (size 9 to 14) (size 15 to 20)
#    0.000    2.375    0.000    4.875    0.000    2.250 
#    0.000    5.000    0.000   21.750    0.000    0.000 
#    0.000    0.000    0.000    0.000    0.000    0.000 
#
# Total GULP energy -178569.366053 kJ/mol
# GULP energy per Si atom -5580.292689 kJ/mol
# Density = 1.760109 g / cm^3
# Si number density = 17.641239 Si / 1000 Ang^3
#
#
#
# Elastic Constant Matrix: (Units=GPa)
#
#
# Indices 1 2 3 4 5 6 
#
# 1 176.9815 54.9875 136.0100 -0.0051 -19.9889 0.0062
# 2 54.9875 77.4152 50.0167 0.0021 -1.6856 -0.0020
# 3 136.0100 50.0167 172.7297 -0.0144 19.4142 0.0046
# 4 -0.0051 0.0021 -0.0144 22.2407 0.0058 -3.1429
# 5 -19.9889 -1.6856 19.4142 0.0058 30.6736 -0.0032
# 6 0.0062 -0.0020 0.0046 -3.1429 -0.0032 27.3283
#
#
#
# Elastic Compliance Matrix: (Units=1/GPa)
#
#
# Indices 1 2 3 4 5 6 
#
# 1 0.039207 -0.004210 -0.034988 -0.000026 0.047464 -0.000001
# 2 -0.004210 0.016830 -0.001458 -0.000003 -0.000896 0.000002
# 3 -0.034988 -0.001458 0.039116 0.000030 -0.047638 -0.000001
# 4 -0.000026 -0.000003 0.000030 0.045705 -0.000044 0.005256
# 5 0.047464 -0.000896 -0.047638 -0.000044 0.093634 0.000003
# 6 -0.000001 0.000002 -0.000001 0.005256 0.000003 0.037197
#
#
# Mechanical properties :
#
#
# Convention : Reuss Voigt Hill
#
# Bulk Modulus (GPa) = 72.24514 101.01720 86.63117
# Shear Modulus (GPa) = 13.98154 28.45601 21.21878
#
# Velocity S-wave (km/s) = 2.81828 4.02062 3.47189
# Velocity P-wave (km/s) = 7.18551 8.88483 8.07997
#
# Compressibility (1/GPa) = 0.01384176
#
# Stress axis : x y z
#
# Youngs Moduli (GPa) = 25.50545 59.41788 25.56503
#
# Poissons Ratio (x) = 0.25015 0.89447
# Poissons Ratio (y) = 0.10738 0.03726
# Poissons Ratio (z) = 0.89239 0.08661
#
# Static dielectric constant tensor:
#      x y z
#    x 1.577850 0.000000 0.004290 
#    y 0.000000 1.596970 0.000010 
#    z 0.004290 0.000010 1.586460 
# 
# From -- ./inp_files/353389.got.cif
#   From: 2010.05.17/outbox.cif.g08.bks.cpg/sg12_177_cif.got.tgz:353389.got - 2010.06.03 13:09:07.
