data_PCOD9195507
_publ_section_title
;
Structure prediction by ZEFSAII (Michael W. Deem and Ramdas Pophale) SiO2 
 PCOD9195507
Probable space group: C 2/M
;
_chemical_formula_sum "Si O2"
_cell_formula_units_Z 56
_cell_length_a 14.710316
_cell_length_b 13.390766
_cell_length_c 13.446640
_cell_angle_alpha 90.000000
_cell_angle_beta 99.856546
_cell_angle_gamma 90.000000
_cell_volume 2609.654347
_symmetry_space_group_name_H-M "C 2/M"
_symmetry_group_IT_number 12
_symmetry_cell_setting 'monoclinic'
loop_
_space_group_symop_operation_xyz
x,y,z
-x,y,-z
-x,-y,-z
x,-y,z
1/2+x,1/2+y,z
1/2-x,1/2+y,-z
1/2-x,1/2-y,-z
1/2+x,1/2-y,z
loop_
_atom_site_type_symbol
_atom_site_label
_atom_site_fract_x
_atom_site_fract_y
_atom_site_fract_z
Si Si1 0.826437 0.887236 0.705395
Si Si2 0.825831 0.885508 0.225314
Si Si3 0.123682 0.692786 0.647512
Si Si4 0.852740 0.268429 0.561679
Si Si5 0.452653 0.882165 0.744648
Si Si6 0.852687 0.271349 0.881469
Si Si7 0.598406 0.388730 0.964990
O O1 0.715832 0.874590 0.671057
O O2 0.876451 0.835080 0.621072
O O3 0.845881 0.822533 0.805698
O O4 0.853826 0.000000 0.722077
O O5 0.848992 0.804705 0.313158
O O6 0.734316 0.844057 0.151995
O O7 0.813251 0.000000 0.256071
O O8 0.904068 0.883338 0.154609
O O9 0.096106 0.697226 0.527283
O O10 0.044430 0.654108 0.705510
O O11 0.750000 0.250000 0.500000
O O12 0.869520 0.346308 0.654774
O O13 0.437931 0.832558 0.850068
O O14 0.452151 0.000000 0.753466
O O15 0.857646 0.214567 0.986682
O O16 0.642174 0.500000 0.994326
O O17 0.500000 0.390402 0.000000
#
# Coordination Sequence:
#
# PCOD9195507 Si02
#       7
#     8   8   8   8   8   8   8
#     4   9  18  33  53  76 104 140 179 221 268 316
#     4  10  21  37  58  81 108 145 183 220 269 325
#     4  10  20  35  54  81 110 138 179 225 268 318
#     4   9  20  34  50  76 106 139 179 217 257 313
#     4  11  22  36  57  82 109 142 178 221 274 325
#     4  10  20  35  55  80 110 140 179 225 266 320
#     4  10  20  35  57  82 108 144 184 223 271 320
#
# _framework density 21.458779
#
# number of rings (size 3 to 8) (size 9 to 14) (size 15 to 20)
#    0.000    2.143    0.000    3.857    0.000    4.000 
#    0.000    2.857    0.000   14.571    0.000    0.000 
#    0.000    0.000    0.000    0.000    0.000    0.000 
#
# Total GULP energy -156130.614318 kJ/mol
# GULP energy per Si atom -5576.093368 kJ/mol
# Density = 2.140994 g / cm^3
# Si number density = 21.458779 Si / 1000 Ang^3
#
#
#
# Elastic Constant Matrix: (Units=GPa)
#
#
# Indices 1 2 3 4 5 6 
#
# 1 39.4821 -0.6648 -12.7774 0.0000 -10.3678 0.0000
# 2 -0.6648 145.6479 10.9575 0.0000 -0.6494 0.0000
# 3 -12.7774 10.9575 48.5309 0.0000 -13.3907 0.0000
# 4 0.0000 0.0000 0.0000 18.8665 0.0000 -4.5535
# 5 -10.3678 -0.6494 -13.3907 0.0000 29.1185 0.0000
# 6 0.0000 0.0000 0.0000 -4.5535 0.0000 23.7279
#
#
#
# Elastic Compliance Matrix: (Units=1/GPa)
#
#
# Indices 1 2 3 4 5 6 
#
# 1 0.035163 -0.000865 0.014777 0.000000 0.019296 0.000000
# 2 -0.000865 0.007017 -0.002123 0.000000 -0.001128 0.000000
# 3 0.014777 -0.002123 0.030253 0.000000 0.019127 0.000000
# 4 0.000000 0.000000 0.000000 0.055578 0.000000 0.010666
# 5 0.019296 -0.001128 0.019127 0.000000 0.049984 0.000000
# 6 0.000000 0.000000 0.000000 0.010666 0.000000 0.044191
#
#
# Mechanical properties :
#
#
# Convention : Reuss Voigt Hill
#
# Bulk Modulus (GPa) = 10.41555 25.41017 17.91286
# Shear Modulus (GPa) = 21.68153 30.08562 25.88357
#
# Velocity S-wave (km/s) = 3.18210 3.74842 3.47681
# Velocity P-wave (km/s) = 4.28547 5.53184 4.94806
#
# Compressibility (1/GPa) = 0.09601030
#
# Stress axis : x y z
#
# Youngs Moduli (GPa) = 28.43911 142.51844 33.05462
#
# Poissons Ratio (x) = 0.12331 -0.48846
# Poissons Ratio (y) = 0.02461 0.07018
# Poissons Ratio (z) = -0.42026 0.30261
#
# Static dielectric constant tensor:
#      x y z
#    x 1.914500 0.000000 0.033980 
#    y 0.000000 1.760840 0.000000 
#    z 0.033980 0.000000 1.815620 
# 
# From -- ./inp_files/213385.got.cif
#   From: 2010.05.17/outbox.cif.g08.bks.cpg/sg12_107_cif.got.tgz:213385.got - 2010.06.03 13:09:07.
