data_PCOD9195401
_publ_section_title
;
Structure prediction by ZEFSAII (Michael W. Deem and Ramdas Pophale) SiO2 
 PCOD9195401
Probable space group: C 2/M
;
_chemical_formula_sum "Si O2"
_cell_formula_units_Z 56
_cell_length_a 21.052099
_cell_length_b 12.539018
_cell_length_c 12.020167
_cell_angle_alpha 90.000000
_cell_angle_beta 108.001021
_cell_angle_gamma 90.000000
_cell_volume 3017.680398
_symmetry_space_group_name_H-M "C 2/M"
_symmetry_group_IT_number 12
_symmetry_cell_setting 'monoclinic'
loop_
_space_group_symop_operation_xyz
x,y,z
-x,y,-z
-x,-y,-z
x,-y,z
1/2+x,1/2+y,z
1/2-x,1/2+y,-z
1/2-x,1/2-y,-z
1/2+x,1/2-y,z
loop_
_atom_site_type_symbol
_atom_site_label
_atom_site_fract_x
_atom_site_fract_y
_atom_site_fract_z
Si Si1 0.540898 0.689393 0.625209
Si Si2 0.253805 0.270627 0.781267
Si Si3 0.346847 0.622062 0.160913
Si Si4 0.629849 0.124430 0.583512
Si Si5 0.884365 0.873791 0.944935
Si Si6 0.681669 0.771307 0.398401
Si Si7 0.933624 0.128416 0.739131
O O1 0.500000 0.640824 0.500000
O O2 0.605280 0.627323 0.705691
O O3 0.570666 0.801761 0.599400
O O4 0.489703 0.688118 0.699389
O O5 0.215438 0.197139 0.847804
O O6 0.197138 0.338351 0.685423
O O7 0.309085 0.345341 0.866677
O O8 0.293436 0.198569 0.711573
O O9 0.326830 0.500000 0.130216
O O10 0.387888 0.661728 0.074677
O O11 0.641085 0.151853 0.458920
O O12 0.618316 0.000000 0.593057
O O13 0.930523 0.837198 0.867191
O O14 0.895085 0.000000 0.952633
O O15 0.750000 0.750000 0.500000
O O16 0.636547 0.666112 0.353249
O O17 0.942477 0.000000 0.736613
#
# Coordination Sequence:
#
# PCOD9195401 Si02
#       7
#     8   8   8   8   8   8   8
#     4  11  22  38  51  76 106 138 182 216 262 310
#     4   9  18  33  55  79 110 137 172 215 266 313
#     4  10  21  34  52  81 109 139 176 217 260 307
#     4  10  20  35  54  76 105 142 179 215 261 314
#     4   9  18  34  56  80 106 137 177 216 260 314
#     4   9  18  33  48  77 107 132 172 211 250 314
#     4  10  20  35  55  75 103 142 173 211 264 314
#
# _framework density 18.557300999999999
#
# number of rings (size 3 to 8) (size 9 to 14) (size 15 to 20)
#    0.000    2.286    1.429    1.286    0.000    6.000 
#    0.000    2.143    0.000    0.000    0.000    4.000 
#    0.000    0.000    0.000    0.000    0.000    0.000 
#
# Total GULP energy -155892.712815 kJ/mol
# GULP energy per Si atom -5567.596886 kJ/mol
# Density = 1.851506 g / cm^3
# Si number density = 18.557301 Si / 1000 Ang^3
#
#
#
# Elastic Constant Matrix: (Units=GPa)
#
#
# Indices 1 2 3 4 5 6 
#
# 1 83.8174 20.8661 22.1281 0.0000 -31.2667 0.0000
# 2 20.8661 49.7429 15.0531 0.0000 -24.8848 0.0000
# 3 22.1281 15.0531 80.9089 0.0000 -22.9844 0.0000
# 4 0.0000 0.0000 0.0000 18.9460 0.0000 -8.7895
# 5 -31.2667 -24.8848 -22.9844 0.0000 41.8017 0.0000
# 6 0.0000 0.0000 0.0000 -8.7895 0.0000 7.5950
#
#
#
# Elastic Compliance Matrix: (Units=1/GPa)
#
#
# Indices 1 2 3 4 5 6 
#
# 1 0.016683 -0.001030 -0.001186 0.000000 0.011214 0.000000
# 2 -0.001030 0.028716 -0.000502 0.000000 0.016049 0.000000
# 3 -0.001186 -0.000502 0.014743 0.000000 0.006921 0.000000
# 4 0.000000 0.000000 0.000000 0.113971 0.000000 0.131896
# 5 0.011214 0.016049 0.006921 0.000000 0.045669 0.000000
# 6 0.000000 0.000000 0.000000 0.131896 0.000000 0.284305
#
#
# Mechanical properties :
#
#
# Convention : Reuss Voigt Hill
#
# Bulk Modulus (GPa) = 18.27890 36.72932 27.50411
# Shear Modulus (GPa) = 9.47404 24.09668 16.78536
#
# Velocity S-wave (km/s) = 2.26194 3.60738 3.01078
# Velocity P-wave (km/s) = 4.08573 6.09806 5.19035
#
# Compressibility (1/GPa) = 0.05470789
#
# Stress axis : x y z
#
# Youngs Moduli (GPa) = 59.94089 34.82416 67.82745
#
# Poissons Ratio (x) = 0.03585 0.08042
# Poissons Ratio (y) = 0.06171 0.03405
# Poissons Ratio (z) = 0.07107 0.01748
#
# Static dielectric constant tensor:
#      x y z
#    x 1.676440 0.000000 -0.010890 
#    y 0.000000 1.598650 0.000000 
#    z -0.010890 0.000000 1.706250 
# 
# From -- ./inp_files/165014.got.cif
#   From: 2010.05.17/outbox.cif.g08.bks.cpg/sg12_83_cif.got.tgz:165014.got - 2010.06.03 13:09:07.
