data_PCOD9195792
_publ_section_title
;
Structure prediction by ZEFSAII (Michael W. Deem and Ramdas Pophale) SiO2 
 PCOD9195792
Probable space group: C 2/M
;
_chemical_formula_sum "Si O2"
_cell_formula_units_Z 64
_cell_length_a 26.313351
_cell_length_b 19.040857
_cell_length_c 20.527428
_cell_angle_alpha 90.000000
_cell_angle_beta 160.823304
_cell_angle_gamma 90.000000
_cell_volume 3378.387340
_symmetry_space_group_name_H-M "C 2/M"
_symmetry_group_IT_number 12
_symmetry_cell_setting 'monoclinic'
loop_
_space_group_symop_operation_xyz
x,y,z
-x,y,-z
-x,-y,-z
x,-y,z
1/2+x,1/2+y,z
1/2-x,1/2+y,-z
1/2-x,1/2-y,-z
1/2+x,1/2-y,z
loop_
_atom_site_type_symbol
_atom_site_label
_atom_site_fract_x
_atom_site_fract_y
_atom_site_fract_z
Si Si1 0.657578 0.698728 0.647862
Si Si2 0.860999 0.647187 0.661902
Si Si3 0.661621 0.419485 0.170518
Si Si4 0.098314 0.581458 0.052810
Si Si5 0.462077 0.705436 0.718079
Si Si6 0.038627 0.282113 0.690436
Si Si7 0.902949 0.422275 0.580387
Si Si8 0.210964 0.818844 0.115851
O O1 0.500000 0.690812 0.500000
O O2 0.744241 0.625183 0.744704
O O3 0.603768 0.744516 0.520299
O O4 0.784485 0.746961 0.837899
O O5 0.693506 0.664594 0.489709
O O6 0.914743 0.721008 0.695008
O O7 0.840278 0.594034 0.576353
O O8 0.989389 0.616495 0.865671
O O9 0.631633 0.500000 0.114021
O O10 0.772142 0.420504 0.366643
O O11 0.735404 0.378542 0.199245
O O12 0.500000 0.387203 0.000000
O O13 0.129259 0.500000 0.073545
O O14 0.000000 0.583686 0.000000
O O15 0.567302 0.726458 0.783388
O O16 0.557571 0.665854 0.889251
O O17 0.159030 0.302647 0.780429
O O18 0.006720 0.356011 0.686780
O O19 0.975426 0.500000 0.666549
#
# Coordination Sequence:
#
# PCOD9195792 Si02
#       8
#     8   8   8   8   8   8   8   8
#     4  10  21  38  58  85 117 149 195 244 299 352
#     4  10  20  36  57  85 114 146 193 241 293 355
#     4  10  21  35  53  82 117 154 196 241 295 358
#     4  11  23  39  61  87 115 151 197 251 307 361
#     4  10  20  35  57  84 112 150 190 238 299 346
#     4  10  21  36  56  84 118 151 197 245 291 353
#     4  10  20  35  55  80 116 156 191 234 291 357
#     4  11  20  36  58  84 115 155 195 245 292 351
#
# _framework density 18.943949
#
# number of rings (size 3 to 8) (size 9 to 14) (size 15 to 20)
#    0.000    1.750    2.500    2.250    0.000    1.250 
#    0.000    1.875    0.000    0.750    0.000    0.000 
#    0.000    0.000    0.000    0.000    0.000    0.000 
#
# Total GULP energy -178225.689714 kJ/mol
# GULP energy per Si atom -5569.552804 kJ/mol
# Density = 1.890083 g / cm^3
# Si number density = 18.943949 Si / 1000 Ang^3
#
#
#
# Elastic Constant Matrix: (Units=GPa)
#
#
# Indices 1 2 3 4 5 6 
#
# 1 81.8132 26.2018 13.1880 0.0024 -14.6622 0.0002
# 2 26.2018 96.3421 20.5800 0.0042 -6.9386 -0.0016
# 3 13.1880 20.5800 50.0916 0.0023 -11.2984 -0.0014
# 4 0.0024 0.0042 0.0023 20.8223 0.0014 0.8960
# 5 -14.6622 -6.9386 -11.2984 0.0014 19.3361 -0.0007
# 6 0.0002 -0.0016 -0.0014 0.8960 -0.0007 14.5273
#
#
#
# Elastic Compliance Matrix: (Units=1/GPa)
#
#
# Indices 1 2 3 4 5 6 
#
# 1 0.015151 -0.003319 -0.000349 -0.000002 0.010094 0.000000
# 2 -0.003319 0.012146 -0.004263 -0.000002 -0.000649 0.000001
# 3 -0.000349 -0.004263 0.024651 -0.000003 0.012610 0.000003
# 4 -0.000002 -0.000002 -0.000003 0.048153 -0.000007 -0.002970
# 5 0.010094 -0.000649 0.012610 -0.000007 0.066506 0.000005
# 6 0.000000 0.000001 0.000003 -0.002970 0.000005 0.069019
#
#
# Mechanical properties :
#
#
# Convention : Reuss Voigt Hill
#
# Bulk Modulus (GPa) = 27.71068 38.68739 33.19904
# Shear Modulus (GPa) = 18.97416 22.15563 20.56490
#
# Velocity S-wave (km/s) = 3.16823 3.42356 3.29837
# Velocity P-wave (km/s) = 5.29557 6.00783 5.66291
#
# Compressibility (1/GPa) = 0.03608716
#
# Stress axis : x y z
#
# Youngs Moduli (GPa) = 66.00146 82.33011 40.56673
#
# Poissons Ratio (x) = 0.27327 0.01414
# Poissons Ratio (y) = 0.21907 0.17293
# Poissons Ratio (z) = 0.02300 0.35096
#
# Static dielectric constant tensor:
#      x y z
#    x 1.679030 0.000000 0.002860 
#    y 0.000000 1.650740 0.000000 
#    z 0.002860 0.000000 1.676770 
# 
# From -- ./inp_files/328678.got.cif
#   From: 2010.05.17/outbox.cif.g08.bks.cpg/sg12_165_cif.got.tgz:328678.got - 2010.06.03 13:09:07.
