data_PCOD9195591
_publ_section_title
;
Structure prediction by ZEFSAII (Michael W. Deem and Ramdas Pophale) SiO2 
 PCOD9195591
Probable space group: C 2/M
;
_chemical_formula_sum "Si O2"
_cell_formula_units_Z 56
_cell_length_a 30.471494
_cell_length_b 7.472562
_cell_length_c 19.909672
_cell_angle_alpha 90.000000
_cell_angle_beta 147.161546
_cell_angle_gamma 90.000000
_cell_volume 2458.355851
_symmetry_space_group_name_H-M "C 2/M"
_symmetry_group_IT_number 12
_symmetry_cell_setting 'monoclinic'
loop_
_space_group_symop_operation_xyz
x,y,z
-x,y,-z
-x,-y,-z
x,-y,z
1/2+x,1/2+y,z
1/2-x,1/2+y,-z
1/2-x,1/2-y,-z
1/2+x,1/2-y,z
loop_
_atom_site_type_symbol
_atom_site_label
_atom_site_fract_x
_atom_site_fract_y
_atom_site_fract_z
Si Si1 0.309713 0.218848 0.684687
Si Si2 0.851605 0.209396 0.461247
Si Si3 0.544664 0.219663 0.209987
Si Si4 0.174599 0.285702 0.854819
Si Si5 0.763548 0.714881 0.208517
Si Si6 0.399301 0.207758 0.934335
Si Si7 0.481552 0.204277 0.270745
O O1 0.217682 0.279688 0.576827
O O2 0.364206 0.273783 0.691868
O O3 0.359599 0.280293 0.815164
O O4 0.306677 0.000000 0.682617
O O5 0.814187 0.230011 0.339122
O O6 0.938107 0.297739 0.580910
O O7 0.863583 0.000000 0.489793
O O8 0.510376 0.283599 0.236921
O O9 0.544624 0.000000 0.210647
O O10 0.481899 0.279678 0.071544
O O11 0.164408 0.500000 0.834281
O O12 0.196374 0.218152 0.808544
O O13 0.093599 0.213823 0.786069
O O14 0.250000 0.250000 0.000000
O O15 0.760121 0.500000 0.202669
O O16 0.671787 0.780051 0.101707
O O17 0.415433 0.000000 0.940412
O O18 0.457134 0.000000 0.223602
#
# Coordination Sequence:
#
# PCOD9195591 Si02
#       7
#     8   8   8   8   8   8   8
#     4   8  15  28  49  77 104 132 171 215 255 300
#     4  10  21  37  55  76 102 134 176 219 256 300
#     4   9  16  28  50  77 104 138 174 209 255 308
#     4  10  22  38  57  82 109 137 168 207 255 307
#     4  10  20  35  55  77 105 139 171 209 260 308
#     4   9  16  29  52  80 107 134 171 215 254 302
#     4  10  21  36  53  75 105 138 173 213 257 306
#
# _framework density 22.779451999999999
#
# number of rings (size 3 to 8) (size 9 to 14) (size 15 to 20)
#    0.000    2.571    0.000    3.000    0.000    5.714 
#    0.000    3.571    0.000   11.143    0.000    0.000 
#    0.000    0.000    0.000    0.000    0.000    0.000 
#
# Total GULP energy -156380.000635 kJ/mol
# GULP energy per Si atom -5585.000023 kJ/mol
# Density = 2.272761 g / cm^3
# Si number density = 22.779452 Si / 1000 Ang^3
#
#
#
# Elastic Constant Matrix: (Units=GPa)
#
#
# Indices 1 2 3 4 5 6 
#
# 1 169.9518 -3.0958 50.4532 0.0000 43.9742 0.0000
# 2 -3.0958 70.9478 -11.7707 0.0000 1.7356 0.0000
# 3 50.4532 -11.7707 96.5247 0.0000 33.0029 0.0000
# 4 0.0000 0.0000 0.0000 8.1615 0.0000 -3.3132
# 5 43.9742 1.7356 33.0029 0.0000 36.6143 0.0000
# 6 0.0000 0.0000 0.0000 -3.3132 0.0000 8.1305
#
#
#
# Elastic Compliance Matrix: (Units=1/GPa)
#
#
# Indices 1 2 3 4 5 6 
#
# 1 0.008677 0.000384 -0.001329 0.000000 -0.009241 0.000000
# 2 0.000384 0.014679 0.002869 0.000000 -0.003743 0.000000
# 3 -0.001329 0.002869 0.015763 0.000000 -0.012749 0.000000
# 4 0.000000 0.000000 0.000000 0.146814 0.000000 0.059827
# 5 -0.009241 -0.003743 -0.012749 0.000000 0.050080 0.000000
# 6 0.000000 0.000000 0.000000 0.059827 0.000000 0.147374
#
#
# Mechanical properties :
#
#
# Convention : Reuss Voigt Hill
#
# Bulk Modulus (GPa) = 23.27277 45.39971 34.33624
# Shear Modulus (GPa) = 12.69485 30.70376 21.69930
#
# Velocity S-wave (km/s) = 2.36327 3.67532 3.08974
# Velocity P-wave (km/s) = 4.20541 6.16312 5.27586
#
# Compressibility (1/GPa) = 0.04296867
#
# Stress axis : x y z
#
# Youngs Moduli (GPa) = 115.25239 68.12352 63.43813
#
# Poissons Ratio (x) = -0.02618 0.08429
# Poissons Ratio (y) = -0.04428 -0.18201
# Poissons Ratio (z) = 0.15313 -0.19546
#
# Static dielectric constant tensor:
#      x y z
#    x 1.867110 0.000000 0.003560 
#    y 0.000000 1.917780 0.000000 
#    z 0.003560 0.000000 1.795840 
# 
# From -- ./inp_files/237485.got.cif
#   From: 2010.05.17/outbox.cif.g08.bks.cpg/sg12_119_cif.got.tgz:237485.got - 2010.06.03 13:09:07.
