data_PCOD9195335
_publ_section_title
;
Structure prediction by ZEFSAII (Michael W. Deem and Ramdas Pophale) SiO2 
 PCOD9195335
Probable space group: C 2/M
;
_chemical_formula_sum "Si O2"
_cell_formula_units_Z 56
_cell_length_a 18.613594
_cell_length_b 27.001534
_cell_length_c 9.402452
_cell_angle_alpha 90.000000
_cell_angle_beta 34.802389
_cell_angle_gamma 90.000000
_cell_volume 2697.143480
_symmetry_space_group_name_H-M "C 2/M"
_symmetry_group_IT_number 12
_symmetry_cell_setting 'monoclinic'
loop_
_space_group_symop_operation_xyz
x,y,z
-x,y,-z
-x,-y,-z
x,-y,z
1/2+x,1/2+y,z
1/2-x,1/2+y,-z
1/2-x,1/2-y,-z
1/2+x,1/2-y,z
loop_
_atom_site_type_symbol
_atom_site_label
_atom_site_fract_x
_atom_site_fract_y
_atom_site_fract_z
Si Si1 0.771276 0.616977 0.720371
Si Si2 0.123195 0.603281 0.147710
Si Si3 0.934130 0.443182 0.255028
Si Si4 0.683246 0.769021 0.324841
Si Si5 0.915840 0.716564 0.837127
Si Si6 0.026727 0.944010 0.122285
Si Si7 0.633372 0.442791 0.362779
O O1 0.770769 0.675856 0.712097
O O2 0.822894 0.591089 0.494424
O O3 0.861386 0.603034 0.707443
O O4 0.635809 0.594634 0.976793
O O5 0.263466 0.594583 0.860696
O O6 0.039665 0.562304 0.205901
O O7 0.072632 0.657038 0.181677
O O8 0.891860 0.500000 0.309381
O O9 0.000000 0.428155 0.000000
O O10 0.633561 0.770822 0.241974
O O11 0.555437 0.759734 0.623061
O O12 0.805759 0.734058 0.122562
O O13 0.901669 0.934893 0.416146
O O14 0.069915 0.000000 0.091578
O O15 0.000000 0.942980 0.000000
O O16 0.500000 0.437054 0.500000
O O17 0.674751 0.500000 0.275058
#
# Coordination Sequence:
#
# PCOD9195335 Si02
#       7
#     8   8   8   8   8   8   8
#     4  11  21  38  62  86 116 155 204 248 299 354
#     4  11  21  37  61  89 118 152 200 252 299 354
#     4  11  25  39  57  86 121 162 201 240 298 362
#     4   9  18  34  57  87 120 151 193 251 303 365
#     4   9  18  34  56  87 121 152 192 248 310 358
#     4  10  22  37  55  81 118 160 199 242 294 358
#     4  10  20  35  53  81 116 149 194 246 297 352
#
# _framework density 20.762706000000001
#
# number of rings (size 3 to 8) (size 9 to 14) (size 15 to 20)
#    0.000    1.857    2.857    1.286    2.000    3.429 
#    2.571    0.000    0.000    1.714    0.000    0.000 
#    0.000    0.000    0.000    0.000    0.000    0.000 
#
# Total GULP energy -156277.093892 kJ/mol
# GULP energy per Si atom -5581.324782 kJ/mol
# Density = 2.071545 g / cm^3
# Si number density = 20.762706 Si / 1000 Ang^3
#
#
#
# Elastic Constant Matrix: (Units=GPa)
#
#
# Indices 1 2 3 4 5 6 
#
# 1 25.5163 12.2719 10.2848 0.0000 5.9337 0.0000
# 2 12.2719 41.4191 44.2575 0.0000 -2.4026 0.0000
# 3 10.2848 44.2575 123.2110 0.0000 0.1262 -0.0001
# 4 0.0000 0.0000 0.0000 26.8453 0.0000 -2.3843
# 5 5.9337 -2.4026 0.1262 0.0000 37.4526 0.0000
# 6 0.0000 0.0000 -0.0001 -2.3843 0.0000 5.7915
#
#
#
# Elastic Compliance Matrix: (Units=1/GPa)
#
#
# Indices 1 2 3 4 5 6 
#
# 1 0.048657 -0.017199 0.002125 0.000000 -0.008819 0.000000
# 2 -0.017199 0.045509 -0.014917 0.000000 0.005695 0.000000
# 3 0.002125 -0.014917 0.013298 0.000000 -0.001338 0.000000
# 4 0.000000 0.000000 0.000000 0.038664 0.000000 0.015917
# 5 -0.008819 0.005695 -0.001338 0.000000 0.028468 0.000000
# 6 0.000000 0.000000 0.000000 0.015917 0.000000 0.179219
#
#
# Mechanical properties :
#
#
# Convention : Reuss Voigt Hill
#
# Bulk Modulus (GPa) = 21.06030 35.97496 28.51763
# Shear Modulus (GPa) = 11.63810 22.24003 16.93907
#
# Velocity S-wave (km/s) = 2.37012 3.27640 2.85939
# Velocity P-wave (km/s) = 4.20182 5.62827 4.96652
#
# Compressibility (1/GPa) = 0.04748271
#
# Stress axis : x y z
#
# Youngs Moduli (GPa) = 20.55217 21.97374 75.19754
#
# Poissons Ratio (x) = 0.37793 -0.15983
# Poissons Ratio (y) = 0.35348 1.12172
# Poissons Ratio (z) = -0.04368 0.32778
#
# Static dielectric constant tensor:
#      x y z
#    x 1.751070 0.000000 -0.009830 
#    y 0.000000 1.704200 0.000000 
#    z -0.009830 0.000000 1.799720 
# 
# From -- ./inp_files/80436.got.cif
#   From: 2010.05.17/outbox.cif.g08.bks.cpg/sg12_41_cif.got.tgz:80436.got - 2010.06.03 13:09:07.
