data_PCOD9195501
_publ_section_title
;
Structure prediction by ZEFSAII (Michael W. Deem and Ramdas Pophale) SiO2 
 PCOD9195501
Probable space group: C 2/M
;
_chemical_formula_sum "Si O2"
_cell_formula_units_Z 56
_cell_length_a 27.842536
_cell_length_b 12.967318
_cell_length_c 9.106365
_cell_angle_alpha 90.000000
_cell_angle_beta 67.258106
_cell_angle_gamma 90.000000
_cell_volume 3032.182522
_symmetry_space_group_name_H-M "C 2/M"
_symmetry_group_IT_number 12
_symmetry_cell_setting 'monoclinic'
loop_
_space_group_symop_operation_xyz
x,y,z
-x,y,-z
-x,-y,-z
x,-y,z
1/2+x,1/2+y,z
1/2-x,1/2+y,-z
1/2-x,1/2-y,-z
1/2+x,1/2-y,z
loop_
_atom_site_type_symbol
_atom_site_label
_atom_site_fract_x
_atom_site_fract_y
_atom_site_fract_z
Si Si1 0.897495 0.618384 0.585426
Si Si2 0.471664 0.298141 0.396151
Si Si3 0.706540 0.118855 0.461670
Si Si4 0.145550 0.619210 0.040101
Si Si5 0.456504 0.780591 0.947891
Si Si6 0.702801 0.746553 0.747133
Si Si7 0.600278 0.622109 0.775380
O O1 0.916715 0.500000 0.565828
O O2 0.942015 0.700016 0.500524
O O3 0.853453 0.628465 0.513253
O O4 0.867477 0.637108 0.774019
O O5 0.500000 0.353632 0.500000
O O6 0.515775 0.258052 0.232069
O O7 0.428687 0.356432 0.346303
O O8 0.712722 0.163988 0.616508
O O9 0.744590 0.181190 0.309175
O O10 0.721036 0.000000 0.438545
O O11 0.161446 0.500000 0.001612
O O12 0.090702 0.642619 0.025167
O O13 0.184506 0.700168 0.918855
O O14 0.500000 0.830294 0.000000
O O15 0.434782 0.681567 0.062384
O O16 0.656826 0.675137 0.731763
O O17 0.603313 0.500000 0.795933
#
# Coordination Sequence:
#
# PCOD9195501 Si02
#       7
#     8   8   8   8   8   8   8
#     4  10  21  36  56  82 114 147 177 218 275 329
#     4  11  20  35  56  80 112 144 185 227 265 319
#     4  10  20  36  59  85 109 140 180 222 277 328
#     4  10  20  35  54  80 113 147 180 219 270 325
#     4   9  20  34  52  78 108 145 181 227 269 316
#     4  10  20  36  59  84 109 142 178 230 271 319
#     4  10  21  38  57  79 107 145 185 226 276 323
#
# _framework density 18.468544999999999
#
# number of rings (size 3 to 8) (size 9 to 14) (size 15 to 20)
#    0.000    2.000    2.857    0.857    0.000    4.571 
#    0.000    0.000    0.000    0.000    0.000    0.000 
#    0.000    0.000    0.000    0.000    0.000    0.000 
#
# Total GULP energy -156143.886742 kJ/mol
# GULP energy per Si atom -5576.567384 kJ/mol
# Density = 1.842651 g / cm^3
# Si number density = 18.468545 Si / 1000 Ang^3
#
#
#
# Elastic Constant Matrix: (Units=GPa)
#
#
# Indices 1 2 3 4 5 6 
#
# 1 24.3388 4.4854 -4.2733 0.0000 1.4470 0.0000
# 2 4.4854 74.7408 16.0543 0.0000 1.4521 0.0000
# 3 -4.2733 16.0543 53.3343 0.0000 3.1847 0.0000
# 4 0.0000 0.0000 0.0000 18.3690 0.0000 0.6737
# 5 1.4470 1.4521 3.1847 0.0000 27.1794 0.0000
# 6 0.0000 0.0000 0.0000 0.6737 0.0000 15.6753
#
#
#
# Elastic Compliance Matrix: (Units=1/GPa)
#
#
# Indices 1 2 3 4 5 6 
#
# 1 0.042703 -0.003507 0.004634 0.000000 -0.002629 0.000000
# 2 -0.003507 0.014594 -0.004671 0.000000 -0.000046 0.000000
# 3 0.004634 -0.004671 0.020672 0.000000 -0.002419 0.000000
# 4 0.000000 0.000000 0.000000 0.054526 0.000000 -0.002343
# 5 -0.002629 -0.000046 -0.002419 0.000000 0.037218 0.000000
# 6 0.000000 0.000000 0.000000 -0.002343 0.000000 0.063895
#
#
# Mechanical properties :
#
#
# Convention : Reuss Voigt Hill
#
# Bulk Modulus (GPa) = 14.10830 20.54963 17.32897
# Shear Modulus (GPa) = 18.91622 21.32124 20.11873
#
# Velocity S-wave (km/s) = 3.20385 3.40142 3.30411
# Velocity P-wave (km/s) = 4.61972 5.15531 4.89485
#
# Compressibility (1/GPa) = 0.07088027
#
# Stress axis : x y z
#
# Youngs Moduli (GPa) = 23.41764 68.51979 48.37561
#
# Poissons Ratio (x) = 0.24030 -0.22418
# Poissons Ratio (y) = 0.08213 0.22598
# Poissons Ratio (z) = -0.10852 0.32008
#
# Static dielectric constant tensor:
#      x y z
#    x 1.661950 0.000000 0.010990 
#    y 0.000000 1.602210 0.000000 
#    z 0.010990 0.000000 1.643110 
# 
# From -- ./inp_files/103131.got.cif
#   From: 2010.05.17/outbox.cif.g08.bks.cpg/sg12_52_cif.got.tgz:103131.got - 2010.06.03 13:09:07.
