data_PCOD9195399
_publ_section_title
;
Structure prediction by ZEFSAII (Michael W. Deem and Ramdas Pophale) SiO2 
 PCOD9195399
Probable space group: C 2/M
;
_chemical_formula_sum "Si O2"
_cell_formula_units_Z 56
_cell_length_a 15.464694
_cell_length_b 7.555500
_cell_length_c 30.337150
_cell_angle_alpha 90.000000
_cell_angle_beta 47.344662
_cell_angle_gamma 90.000000
_cell_volume 2606.923797
_symmetry_space_group_name_H-M "C 2/M"
_symmetry_group_IT_number 12
_symmetry_cell_setting 'monoclinic'
loop_
_space_group_symop_operation_xyz
x,y,z
-x,y,-z
-x,-y,-z
x,-y,z
1/2+x,1/2+y,z
1/2-x,1/2+y,-z
1/2-x,1/2-y,-z
1/2+x,1/2-y,z
loop_
_atom_site_type_symbol
_atom_site_label
_atom_site_fract_x
_atom_site_fract_y
_atom_site_fract_z
Si Si1 0.877871 0.785776 0.064396
Si Si2 0.505374 0.294810 0.277254
Si Si3 0.323169 0.304328 0.931975
Si Si4 0.457781 0.717896 0.196837
Si Si5 0.406871 0.711118 0.494882
Si Si6 0.225011 0.212969 0.808245
Si Si7 0.868310 0.213995 0.409146
O O1 0.771076 0.702521 0.074531
O O2 0.859286 0.738559 0.121680
O O3 0.869683 0.000000 0.063095
O O4 0.000000 0.731269 0.000000
O O5 0.468103 0.500000 0.289046
O O6 0.470093 0.216624 0.242239
O O7 0.645749 0.287235 0.231021
O O8 0.446608 0.218975 0.341475
O O9 0.364775 0.500000 0.929504
O O10 0.437506 0.215144 0.871283
O O11 0.250000 0.250000 0.000000
O O12 0.466903 0.500000 0.194939
O O13 0.336432 0.765295 0.215742
O O14 0.500000 0.778420 0.500000
O O15 0.426149 0.500000 0.486345
O O16 0.268500 0.741431 0.552881
O O17 0.412979 0.779097 0.441863
O O18 0.235015 0.000000 0.805760
O O19 0.875456 0.000000 0.408797
#
# Coordination Sequence:
#
# PCOD9195399 Si02
#       7
#     8   8   8   8   8   8   8
#     4  10  20  35  54  76 105 137 175 225 278 332
#     4  10  20  37  56  77 110 144 181 225 272 320
#     4  11  21  35  55  77 104 137 177 222 277 334
#     4   9  19  36  55  74 103 142 174 214 273 330
#     4   9  18  34  55  80 113 147 181 222 269 317
#     4  10  20  35  55  77 103 138 180 219 268 329
#     4   9  19  34  54  80 109 146 184 223 267 316
#
# _framework density 21.481258
#
# number of rings (size 3 to 8) (size 9 to 14) (size 15 to 20)
#    0.000    2.286    1.429    1.286    0.000    4.571 
#    0.000    3.571    0.000    0.000    0.000    0.000 
#    0.000    0.000    0.000    0.000    0.000    0.000 
#
# Total GULP energy -156186.578109 kJ/mol
# GULP energy per Si atom -5578.092075 kJ/mol
# Density = 2.143237 g / cm^3
# Si number density = 21.481258 Si / 1000 Ang^3
#
#
#
# Elastic Constant Matrix: (Units=GPa)
#
#
# Indices 1 2 3 4 5 6 
#
# 1 155.1771 0.4959 63.7313 0.0031 29.6655 -0.0002
# 2 0.4959 44.8039 6.9640 0.0042 8.3256 0.0064
# 3 63.7313 6.9640 151.5238 0.0022 31.5378 -0.0014
# 4 0.0031 0.0042 0.0022 8.4920 0.0001 -8.9308
# 5 29.6655 8.3256 31.5378 0.0001 24.3076 0.0014
# 6 -0.0002 0.0064 -0.0014 -8.9308 0.0014 11.2410
#
#
#
# Elastic Compliance Matrix: (Units=1/GPa)
#
#
# Indices 1 2 3 4 5 6 
#
# 1 0.008979 0.001887 -0.001984 -0.000022 -0.009031 -0.000018
# 2 0.001887 0.024309 0.000413 -0.000157 -0.011165 -0.000137
# 3 -0.001984 0.000413 0.009508 0.000003 -0.010057 0.000005
# 4 -0.000022 -0.000157 0.000003 0.716059 0.000040 0.568900
# 5 -0.009031 -0.011165 -0.010057 0.000040 0.069034 0.000028
# 6 -0.000018 -0.000137 0.000005 0.568900 0.000028 0.540945
#
#
# Mechanical properties :
#
#
# Convention : Reuss Voigt Hill
#
# Bulk Modulus (GPa) = 23.02585 54.87637 38.95111
# Shear Modulus (GPa) = 3.61617 27.49566 15.55592
#
# Velocity S-wave (km/s) = 1.29887 3.58157 2.69395
# Velocity P-wave (km/s) = 3.60440 6.53492 5.27716
#
# Compressibility (1/GPa) = 0.04342945
#
# Stress axis : x y z
#
# Youngs Moduli (GPa) = 111.36492 41.13668 105.17206
#
# Poissons Ratio (x) = -0.07763 0.20864
# Poissons Ratio (y) = -0.21017 -0.04342
# Poissons Ratio (z) = 0.22092 -0.01698
#
# Static dielectric constant tensor:
#      x y z
#    x 1.751830 0.000000 0.033250 
#    y 0.000000 1.835280 0.000000 
#    z 0.033250 0.000000 1.794380 
# 
# From -- ./inp_files/337902.got.cif
#   From: 2010.05.17/outbox.cif.g08.bks.cpg/sg12_169_cif.got.tgz:337902.got - 2010.06.03 13:09:07.
