data_PCOD9195450
_publ_section_title
;
Structure prediction by ZEFSAII (Michael W. Deem and Ramdas Pophale) SiO2 
 PCOD9195450
Probable space group: C 2/M
;
_chemical_formula_sum "Si O2"
_cell_formula_units_Z 58
_cell_length_a 19.452895
_cell_length_b 7.482571
_cell_length_c 19.278895
_cell_angle_alpha 90.000000
_cell_angle_beta 50.335930
_cell_angle_gamma 90.000000
_cell_volume 2160.205754
_symmetry_space_group_name_H-M "C 2/M"
_symmetry_group_IT_number 12
_symmetry_cell_setting 'monoclinic'
loop_
_space_group_symop_operation_xyz
x,y,z
-x,y,-z
-x,-y,-z
x,-y,z
1/2+x,1/2+y,z
1/2-x,1/2+y,-z
1/2-x,1/2-y,-z
1/2+x,1/2-y,z
loop_
_atom_site_type_symbol
_atom_site_label
_atom_site_fract_x
_atom_site_fract_y
_atom_site_fract_z
Si Si1 0.025273 0.216758 0.091973
Si Si2 0.221200 0.785468 0.907236
Si Si3 0.876507 0.205253 0.474716
Si Si4 0.084791 0.792528 0.197651
Si Si5 0.432045 0.282565 0.635283
Si Si6 0.234651 0.207865 0.742169
Si Si7 0.000000 0.500000 0.000000
Si Si8 0.179938 0.708985 0.631296
O O1 0.026236 0.275271 0.171725
O O2 0.010431 0.000000 0.095365
O O3 0.127025 0.259464 0.001423
O O4 0.971737 0.341101 0.074581
O O5 0.309816 0.718171 0.888141
O O6 0.224698 0.714225 0.825756
O O7 0.227560 0.000000 0.902096
O O8 0.883603 0.205753 0.385729
O O9 0.779747 0.286465 0.551732
O O10 0.967911 0.278310 0.447681
O O11 0.870233 0.000000 0.502435
O O12 0.078733 0.714287 0.278317
O O13 0.062407 0.000000 0.217775
O O14 0.433953 0.500000 0.632961
O O15 0.340419 0.230772 0.657037
O O16 0.174488 0.271969 0.717334
O O17 0.214494 0.000000 0.761294
O O18 0.177179 0.500000 0.616826
#
# Coordination Sequence:
#
# PCOD9195450 Si02
#       8
#     8   8   8   8   8   8   2   8
#     4  10  22  41  58  84 118 153 194 236 280 337
#     4   9  19  35  58  82 111 143 182 233 281 329
#     4   9  19  36  56  76 106 143 183 225 278 339
#     4   9  18  33  59  85 109 138 181 237 284 329
#     4   9  18  35  56  82 110 142 180 228 283 335
#     4  10  20  35  54  81 112 146 181 228 282 328
#     4  12  26  40  60  82 116 164 194 230 288 338
#     4  10  20  35  54  78 106 143 185 230 274 331
#
# _framework density 26.849295000000001
#
# number of rings (size 3 to 8) (size 9 to 14) (size 15 to 20)
#    0.000    2.483    0.000    1.448    1.931    2.207 
#    2.483    2.759    0.000    0.000    0.000    0.000 
#    0.000    0.000    0.000    0.000    0.000    0.000 
#
# Total GULP energy -161944.055097 kJ/mol
# GULP energy per Si atom -5584.277762 kJ/mol
# Density = 2.678818 g / cm^3
# Si number density = 26.849295 Si / 1000 Ang^3
#
#
#
# Elastic Constant Matrix: (Units=GPa)
#
#
# Indices 1 2 3 4 5 6 
#
# 1 184.1952 -0.5032 35.9898 -0.0001 6.3771 0.0004
# 2 -0.5032 94.9168 0.1774 0.0006 9.6158 0.0010
# 3 35.9898 0.1774 59.8664 0.0000 8.9615 0.0000
# 4 -0.0001 0.0006 0.0000 -7.9161 0.0001 13.4325
# 5 6.3771 9.6158 8.9615 0.0001 59.7592 0.0000
# 6 0.0004 0.0010 0.0000 13.4325 0.0000 24.0067
#
#
#
# Elastic Compliance Matrix: (Units=1/GPa)
#
#
# Indices 1 2 3 4 5 6 
#
# 1 0.006152 0.000051 -0.003682 0.000000 -0.000113 0.000000
# 2 0.000051 0.010714 0.000201 0.000000 -0.001760 0.000000
# 3 -0.003682 0.000201 0.019296 0.000000 -0.002533 0.000000
# 4 0.000000 0.000000 0.000000 -0.064800 0.000000 0.036258
# 5 -0.000113 -0.001760 -0.002533 0.000000 0.017409 0.000000
# 6 0.000000 0.000000 0.000000 0.036258 0.000000 0.021368
#
#
# Mechanical properties :
#
#
# Convention : Reuss Voigt Hill
#
# Bulk Modulus (GPa) = 34.12732 45.58960 39.85846
# Shear Modulus (GPa) = 186.80604 35.39092 111.09848
#
# Velocity S-wave (km/s) = 8.35026 3.63455 6.43959
# Velocity P-wave (km/s) = 10.28141 5.88472 8.37667
#
# Compressibility (1/GPa) = 0.02930204
#
# Stress axis : x y z
#
# Youngs Moduli (GPa) = 162.53601 93.33851 51.82439
#
# Poissons Ratio (x) = -0.00475 0.19082
# Poissons Ratio (y) = -0.00827 -0.01042
# Poissons Ratio (z) = 0.59845 -0.01877
#
# Static dielectric constant tensor:
#      x y z
#    x 2.122960 0.000000 -0.016450 
#    y 0.000000 1.978260 0.000000 
#    z -0.016450 0.000000 2.241530 
# 
# From -- ./inp_files/314801.got.cif
#   From: 2010.05.17/outbox.cif.g08.bks.cpg/sg12_158_cif.got.tgz:314801.got - 2010.06.03 13:09:07.
