data_PCOD9195290
_publ_section_title
;
Structure prediction by ZEFSAII (Michael W. Deem and Ramdas Pophale) SiO2 
 PCOD9195290
Probable space group: C 2/M
;
_chemical_formula_sum "Si O2"
_cell_formula_units_Z 56
_cell_length_a 14.983997
_cell_length_b 7.556118
_cell_length_c 24.874732
_cell_angle_alpha 90.000000
_cell_angle_beta 60.911332
_cell_angle_gamma 90.000000
_cell_volume 2461.109015
_symmetry_space_group_name_H-M "C 2/M"
_symmetry_group_IT_number 12
_symmetry_cell_setting 'monoclinic'
loop_
_space_group_symop_operation_xyz
x,y,z
-x,y,-z
-x,-y,-z
x,-y,z
1/2+x,1/2+y,z
1/2-x,1/2+y,-z
1/2-x,1/2-y,-z
1/2+x,1/2-y,z
loop_
_atom_site_type_symbol
_atom_site_label
_atom_site_fract_x
_atom_site_fract_y
_atom_site_fract_z
Si Si1 0.740753 0.216254 0.922410
Si Si2 0.989627 0.705567 0.278575
Si Si3 0.107763 0.702936 0.486964
Si Si4 0.931684 0.283267 0.180093
Si Si5 0.285556 0.712901 0.787197
Si Si6 0.922088 0.703676 0.951432
Si Si7 0.831689 0.204697 0.414062
O O1 0.763615 0.269978 0.855041
O O2 0.829420 0.288682 0.935103
O O3 0.742902 0.000000 0.924623
O O4 0.631579 0.275181 0.979061
O O5 0.962456 0.500000 0.283564
O O6 0.986311 0.776866 0.218501
O O7 0.907009 0.788116 0.341924
O O8 0.105365 0.722759 0.264438
O O9 0.105715 0.500000 0.467558
O O10 0.117458 0.706220 0.548833
O O11 0.217824 0.778538 0.436202
O O12 0.000000 0.784527 0.500000
O O13 0.938252 0.500000 0.175610
O O14 0.813531 0.232982 0.217076
O O15 0.984946 0.217408 0.109824
O O16 0.289276 0.500000 0.786338
O O17 0.949140 0.500000 0.955213
O O18 0.817218 0.000000 0.434088
#
# Coordination Sequence:
#
# PCOD9195290 Si02
#       7
#     8   8   8   8   8   8   8
#     4   9  17  28  49  76 100 130 171 225 278 329
#     4  11  22  38  56  76 108 149 186 223 269 320
#     4   9  19  38  63  91 122 150 180 218 260 310
#     4   9  19  34  53  75 103 140 181 225 274 332
#     4  10  20  35  53  77 105 136 181 231 279 328
#     4   9  16  30  50  72 100 134 173 217 276 338
#     4  10  21  37  59  87 117 150 184 221 264 309
#
# _framework density 22.753969000000001
#
# number of rings (size 3 to 8) (size 9 to 14) (size 15 to 20)
#    0.000    2.429    1.429    0.857    0.000    2.571 
#    0.000    7.857    0.000    0.000    0.000    5.000 
#    0.000    0.000    0.000    0.000    0.000    0.000 
#
# Total GULP energy -156294.363923 kJ/mol
# GULP energy per Si atom -5581.941569 kJ/mol
# Density = 2.270218 g / cm^3
# Si number density = 22.753969 Si / 1000 Ang^3
#
#
#
# Elastic Constant Matrix: (Units=GPa)
#
#
# Indices 1 2 3 4 5 6 
#
# 1 122.1195 -1.5708 38.0987 0.0000 -35.0185 0.0000
# 2 -1.5708 59.1424 1.0495 0.0000 -1.2570 0.0000
# 3 38.0987 1.0495 109.6682 0.0000 -38.0259 0.0000
# 4 0.0000 0.0000 0.0000 -1.6253 0.0000 7.1962
# 5 -35.0185 -1.2570 -38.0259 0.0000 27.2710 0.0000
# 6 0.0000 0.0000 0.0000 7.1962 0.0000 5.7791
#
#
#
# Elastic Compliance Matrix: (Units=1/GPa)
#
#
# Indices 1 2 3 4 5 6 
#
# 1 0.013345 0.000750 0.002537 0.000000 0.020709 0.000000
# 2 0.000750 0.016970 0.000353 0.000000 0.002236 0.000000
# 3 0.002537 0.000353 0.018138 0.000000 0.028566 0.000000
# 4 0.000000 0.000000 0.000000 -0.094465 0.000000 0.117628
# 5 0.020709 0.002236 0.028566 0.000000 0.103195 0.000000
# 6 0.000000 0.000000 0.000000 0.117628 0.000000 0.026566
#
#
# Mechanical properties :
#
#
# Convention : Reuss Voigt Hill
#
# Bulk Modulus (GPa) = 17.94307 40.67611 29.30959
# Shear Modulus (GPa) = 52.60513 23.17516 37.89015
#
# Velocity S-wave (km/s) = 4.81345 3.19487 4.08513
# Velocity P-wave (km/s) = 6.22858 5.61471 5.92959
#
# Compressibility (1/GPa) = 0.05573183
#
# Stress axis : x y z
#
# Youngs Moduli (GPa) = 74.93382 58.92914 55.13159
#
# Poissons Ratio (x) = -0.04417 -0.13988
# Poissons Ratio (y) = -0.05617 -0.01944
# Poissons Ratio (z) = -0.19012 -0.02078
#
# Static dielectric constant tensor:
#      x y z
#    x 1.853490 0.000000 -0.020470 
#    y 0.000000 1.941850 0.000000 
#    z -0.020470 0.000000 1.830700 
# 
# From -- ./inp_files/359648.got.cif
#   From: 2010.05.17/outbox.cif.g08.bks.cpg/sg12_180_cif.got.tgz:359648.got - 2010.06.03 13:09:07.
