data_PCOD9195334
_publ_section_title
;
Structure prediction by ZEFSAII (Michael W. Deem and Ramdas Pophale) SiO2 
 PCOD9195334
Probable space group: C 2/M
;
_chemical_formula_sum "Si O2"
_cell_formula_units_Z 56
_cell_length_a 14.964574
_cell_length_b 12.512382
_cell_length_c 12.603974
_cell_angle_alpha 90.000000
_cell_angle_beta 78.787474
_cell_angle_gamma 90.000000
_cell_volume 2314.953091
_symmetry_space_group_name_H-M "C 2/M"
_symmetry_group_IT_number 12
_symmetry_cell_setting 'monoclinic'
loop_
_space_group_symop_operation_xyz
x,y,z
-x,y,-z
-x,-y,-z
x,-y,z
1/2+x,1/2+y,z
1/2-x,1/2+y,-z
1/2-x,1/2-y,-z
1/2+x,1/2-y,z
loop_
_atom_site_type_symbol
_atom_site_label
_atom_site_fract_x
_atom_site_fract_y
_atom_site_fract_z
Si Si1 0.364189 0.387273 0.646171
Si Si2 0.901929 0.341977 0.564720
Si Si3 0.717907 0.373181 0.967267
Si Si4 0.655603 0.382178 0.749827
Si Si5 0.665105 0.161292 0.639204
Si Si6 0.948090 0.158875 0.855091
Si Si7 0.964644 0.386650 0.775944
O O1 0.394859 0.500000 0.593842
O O2 0.398994 0.285889 0.574290
O O3 0.254999 0.382608 0.672484
O O4 0.399639 0.375630 0.757194
O O5 0.834371 0.368840 0.485080
O O6 0.900586 0.380203 0.685903
O O7 0.000000 0.376716 0.500000
O O8 0.752909 0.500000 0.982839
O O9 0.716433 0.363993 0.840427
O O10 0.750000 0.250000 0.000000
O O11 0.614698 0.378813 0.035558
O O12 0.673286 0.500000 0.702235
O O13 0.667270 0.288205 0.662403
O O14 0.551787 0.376705 0.816976
O O15 0.568869 0.124061 0.710040
O O16 0.947517 0.287495 0.854775
O O17 0.952292 0.500000 0.831568
#
# Coordination Sequence:
#
# PCOD9195334 Si02
#       7
#     8   8   8   8   8   8   8
#     4  11  21  33  52  77 108 144 179 227 288 337
#     4   9  20  35  52  77 108 145 191 235 276 340
#     4  11  23  40  63  90 120 155 194 241 295 349
#     4  10  21  38  61  84 110 150 194 234 283 348
#     4  10  20  35  53  81 114 141 185 237 286 343
#     4  10  21  37  57  83 113 146 191 239 282 341
#     4   9  19  36  58  81 109 150 194 237 289 350
#
# _framework density 24.190556000000001
#
# number of rings (size 3 to 8) (size 9 to 14) (size 15 to 20)
#    0.000    2.000    0.000    4.286    0.000    5.714 
#    0.000    7.143    0.000    4.286    0.000    0.000 
#    0.000    0.000    0.000    0.000    0.000    0.000 
#
# Total GULP energy -156302.310928 kJ/mol
# GULP energy per Si atom -5582.225390 kJ/mol
# Density = 2.413550 g / cm^3
# Si number density = 24.190556 Si / 1000 Ang^3
#
#
#
# Elastic Constant Matrix: (Units=GPa)
#
#
# Indices 1 2 3 4 5 6 
#
# 1 98.7498 25.4593 43.0416 0.0000 -1.1228 0.0000
# 2 25.4593 221.5526 2.8256 0.0000 8.2350 0.0000
# 3 43.0416 2.8256 43.1837 0.0000 2.3151 0.0000
# 4 0.0000 0.0000 0.0000 -20.6296 0.0000 -2.8012
# 5 -1.1228 8.2350 2.3151 0.0000 42.8696 0.0000
# 6 0.0000 0.0000 0.0000 -2.8012 0.0000 -15.9195
#
#
#
# Elastic Compliance Matrix: (Units=1/GPa)
#
#
# Indices 1 2 3 4 5 6 
#
# 1 0.018830 -0.001995 -0.018739 0.000000 0.001888 0.000000
# 2 -0.001995 0.004760 0.001734 0.000000 -0.001060 0.000000
# 3 -0.018739 0.001734 0.041886 0.000000 -0.003086 0.000000
# 4 0.000000 0.000000 0.000000 -0.049661 0.000000 0.008738
# 5 0.001888 -0.001060 -0.003086 0.000000 0.023746 0.000000
# 6 0.000000 0.000000 0.000000 0.008738 0.000000 -0.064354
#
#
# Mechanical properties :
#
#
# Convention : Reuss Voigt Hill
#
# Bulk Modulus (GPa) = 36.39507 56.23768 46.31637
# Shear Modulus (GPa) = 223.54646 20.74141 122.14393
#
# Velocity S-wave (km/s) = 9.62347 2.93135 7.11351
# Velocity P-wave (km/s) = 11.77113 5.89536 9.30900
#
# Compressibility (1/GPa) = 0.02747625
#
# Stress axis : x y z
#
# Youngs Moduli (GPa) = 53.10682 210.07741 23.87435
#
# Poissons Ratio (x) = 0.41911 0.44737
# Poissons Ratio (y) = 0.10595 -0.04139
# Poissons Ratio (z) = 0.99515 -0.36423
#
# Static dielectric constant tensor:
#      x y z
#    x 1.940310 0.000000 0.003400 
#    y 0.000000 1.977020 0.000000 
#    z 0.003400 0.000000 1.859800 
# 
# From -- ./inp_files/213429.got.cif
#   From: 2010.05.17/outbox.cif.g08.bks.cpg/sg12_107_cif.got.tgz:213429.got - 2010.06.03 13:09:07.
