data_PCOD9195540
_publ_section_title
;
Structure prediction by ZEFSAII (Michael W. Deem and Ramdas Pophale) SiO2 
 PCOD9195540
Probable space group: C 2/M
;
_chemical_formula_sum "Si O2"
_cell_formula_units_Z 56
_cell_length_a 15.457705
_cell_length_b 12.358013
_cell_length_c 16.466945
_cell_angle_alpha 90.000000
_cell_angle_beta 62.481865
_cell_angle_gamma 90.000000
_cell_volume 2789.741970
_symmetry_space_group_name_H-M "C 2/M"
_symmetry_group_IT_number 12
_symmetry_cell_setting 'monoclinic'
loop_
_space_group_symop_operation_xyz
x,y,z
-x,y,-z
-x,-y,-z
x,-y,z
1/2+x,1/2+y,z
1/2-x,1/2+y,-z
1/2-x,1/2-y,-z
1/2+x,1/2-y,z
loop_
_atom_site_type_symbol
_atom_site_label
_atom_site_fract_x
_atom_site_fract_y
_atom_site_fract_z
Si Si1 0.014688 0.877556 0.151998
Si Si2 0.201723 0.622211 0.697201
Si Si3 0.024693 0.742215 0.681054
Si Si4 0.204548 0.178202 0.799641
Si Si5 0.884103 0.378745 0.620480
Si Si6 0.716165 0.629568 0.979014
Si Si7 0.842932 0.205771 0.508470
O O1 0.030248 0.801432 0.222582
O O2 0.908541 0.851026 0.162336
O O3 0.012747 0.000000 0.182585
O O4 0.101270 0.868231 0.050075
O O5 0.180391 0.500000 0.727530
O O6 0.111462 0.673350 0.685706
O O7 0.216008 0.695549 0.770761
O O8 0.296682 0.629111 0.597206
O O9 0.077860 0.823815 0.594088
O O10 0.951169 0.669485 0.662004
O O11 0.273099 0.124622 0.701924
O O12 0.235829 0.141930 0.874903
O O13 0.910917 0.500000 0.590294
O O14 0.887751 0.304547 0.539903
O O15 0.746344 0.500000 0.988416
O O16 0.750000 0.750000 0.000000
O O17 0.750000 0.250000 0.500000
#
# Coordination Sequence:
#
# PCOD9195540 Si02
#       7
#     8   8   8   8   8   8   8
#     4  10  21  38  61  85 112 150 191 230 279 342
#     4   9  19  36  57  80 111 152 192 236 292 348
#     4  10  20  35  54  84 116 142 185 238 288 342
#     4  10  21  37  58  85 114 147 192 237 279 341
#     4  11  21  34  56  82 110 145 184 232 286 337
#     4  11  23  40  63  90 120 153 191 240 294 347
#     4   9  20  34  50  77 110 146 190 231 274 340
#
# _framework density 20.073540999999999
#
# number of rings (size 3 to 8) (size 9 to 14) (size 15 to 20)
#    0.000    2.000    0.000    4.286    0.000    5.714 
#    0.000    7.143    0.000    8.571    0.000    0.000 
#    0.000    0.000    0.000    0.000    0.000    0.000 
#
# Total GULP energy -155969.267817 kJ/mol
# GULP energy per Si atom -5570.330993 kJ/mol
# Density = 2.002785 g / cm^3
# Si number density = 20.073541 Si / 1000 Ang^3
#
#
#
# Elastic Constant Matrix: (Units=GPa)
#
#
# Indices 1 2 3 4 5 6 
#
# 1 37.9613 18.3930 1.5433 0.0000 -0.2245 0.0000
# 2 18.3930 120.7223 16.7538 0.0000 7.3693 0.0000
# 3 1.5433 16.7538 80.7860 0.0000 -8.1718 0.0000
# 4 0.0000 0.0000 0.0000 -20.7624 0.0000 5.9646
# 5 -0.2245 7.3693 -8.1718 0.0000 34.4877 0.0000
# 6 0.0000 0.0000 0.0000 5.9646 0.0000 11.2694
#
#
#
# Elastic Compliance Matrix: (Units=1/GPa)
#
#
# Indices 1 2 3 4 5 6 
#
# 1 0.028506 -0.004492 0.000515 0.000000 0.001267 0.000000
# 2 -0.004492 0.009418 -0.002125 0.000000 -0.002545 0.000000
# 3 0.000515 -0.002125 0.013171 0.000000 0.003578 0.000000
# 4 0.000000 0.000000 0.000000 -0.041807 0.000000 0.022128
# 5 0.001267 -0.002545 0.003578 0.000000 0.030396 0.000000
# 6 0.000000 0.000000 0.000000 0.022128 0.000000 0.077024
#
#
# Mechanical properties :
#
#
# Convention : Reuss Voigt Hill
#
# Bulk Modulus (GPa) = 25.71239 34.76110 30.23674
# Shear Modulus (GPa) = 35.24239 18.51757 26.87998
#
# Velocity S-wave (km/s) = 4.19461 3.04054 3.66331
# Velocity P-wave (km/s) = 6.02466 5.44803 5.74359
#
# Compressibility (1/GPa) = 0.03889176
#
# Stress axis : x y z
#
# Youngs Moduli (GPa) = 35.08085 106.17855 75.92355
#
# Poissons Ratio (x) = 0.47694 -0.03912
# Poissons Ratio (y) = 0.15758 0.16132
# Poissons Ratio (z) = -0.01807 0.22561
#
# Static dielectric constant tensor:
#      x y z
#    x 1.734270 0.000000 0.003430 
#    y 0.000000 1.736340 0.000000 
#    z 0.003430 0.000000 1.796470 
# 
# From -- ./inp_files/223710.got.cif
#   From: 2010.05.17/outbox.cif.g08.bks.cpg/sg12_112_cif.got.tgz:223710.got - 2010.06.03 13:09:07.
