data_PCOD9195652
_publ_section_title
;
Structure prediction by ZEFSAII (Michael W. Deem and Ramdas Pophale) SiO2 
 PCOD9195652
Probable space group: C 2/M
;
_chemical_formula_sum "Si O2"
_cell_formula_units_Z 64
_cell_length_a 15.307160
_cell_length_b 25.603387
_cell_length_c 14.789759
_cell_angle_alpha 90.000000
_cell_angle_beta 34.109502
_cell_angle_gamma 90.000000
_cell_volume 3250.444843
_symmetry_space_group_name_H-M "C 2/M"
_symmetry_group_IT_number 12
_symmetry_cell_setting 'monoclinic'
loop_
_space_group_symop_operation_xyz
x,y,z
-x,y,-z
-x,-y,-z
x,-y,z
1/2+x,1/2+y,z
1/2-x,1/2+y,-z
1/2-x,1/2-y,-z
1/2+x,1/2-y,z
loop_
_atom_site_type_symbol
_atom_site_label
_atom_site_fract_x
_atom_site_fract_y
_atom_site_fract_z
Si Si1 0.474138 0.872996 0.785116
Si Si2 0.312964 0.300104 0.999458
Si Si3 0.332956 0.230272 0.146588
Si Si4 0.564663 0.660405 0.284581
Si Si5 0.105916 0.058949 0.985078
Si Si6 0.759533 0.711024 0.405746
Si Si7 0.530552 0.059957 0.375296
Si Si8 0.212034 0.937442 0.095639
O O1 0.331789 0.838849 0.867603
O O2 0.600594 0.831100 0.708144
O O3 0.539313 0.907961 0.647713
O O4 0.384298 0.911519 0.932449
O O5 0.358322 0.279678 0.058736
O O6 0.250000 0.250000 0.000000
O O7 0.433482 0.323541 0.823944
O O8 0.198886 0.194489 0.217941
O O9 0.286708 0.241935 0.288995
O O10 0.500000 0.201733 0.000000
O O11 0.399595 0.678015 0.463742
O O12 0.617566 0.599999 0.244617
O O13 0.283437 0.058589 0.798541
O O14 0.043002 0.000000 0.045017
O O15 0.124178 0.071829 0.074733
O O16 0.000000 0.086950 0.000000
O O17 0.750000 0.750000 0.500000
O O18 0.500000 0.082769 0.500000
O O19 0.473593 0.000000 0.422435
O O20 0.219643 0.000000 0.105486
#
# Coordination Sequence:
#
# PCOD9195652 Si02
#       8
#     8   8   8   8   8   8   8   8
#     4  10  20  35  55  78 111 150 191 231 279 346
#     4   9  18  36  57  80 108 145 190 232 275 339
#     4  11  21  38  62  82 111 155 195 235 290 354
#     4  10  21  37  58  88 118 146 190 242 293 342
#     4   8  14  26  46  71  99 136 180 221 266 319
#     4  12  24  38  58  87 121 152 188 240 296 347
#     4   9  18  32  50  74 107 145 183 225 272 326
#     4   9  18  36  59  80 110 153 196 240 286 338
#
# _framework density 19.689613000000001
#
# number of rings (size 3 to 8) (size 9 to 14) (size 15 to 20)
#    0.000    2.250    0.000    6.000    0.000    2.000 
#    0.000   10.625    0.000    5.625    0.000    0.000 
#    0.000    0.000    0.000    0.000    0.000    0.000 
#
# Total GULP energy -178161.605628 kJ/mol
# GULP energy per Si atom -5567.550176 kJ/mol
# Density = 1.964480 g / cm^3
# Si number density = 19.689613 Si / 1000 Ang^3
#
#
#
# Elastic Constant Matrix: (Units=GPa)
#
#
# Indices 1 2 3 4 5 6 
#
# 1 69.7120 19.2705 30.6863 0.0247 -0.8483 -0.0126
# 2 19.2705 94.8116 23.1278 0.0374 1.6546 -0.0232
# 3 30.6863 23.1278 74.6722 0.0750 10.2465 -0.0519
# 4 0.0247 0.0374 0.0750 26.3346 -0.0369 0.7992
# 5 -0.8483 1.6546 10.2465 -0.0369 36.1747 0.0193
# 6 -0.0126 -0.0232 -0.0519 0.7992 0.0193 18.7840
#
#
#
# Elastic Compliance Matrix: (Units=1/GPa)
#
#
# Indices 1 2 3 4 5 6 
#
# 1 0.018075 -0.001970 -0.007167 0.000010 0.002544 -0.000013
# 2 -0.001970 0.011633 -0.002824 -0.000006 0.000222 0.000005
# 3 -0.007167 -0.002824 0.017913 -0.000049 -0.005113 0.000049
# 4 0.000010 -0.000006 -0.000049 0.038022 0.000054 -0.001618
# 5 0.002544 0.000222 -0.005113 0.000054 0.029141 -0.000044
# 6 -0.000013 0.000005 0.000049 -0.001618 -0.000044 0.053306
#
#
# Mechanical properties :
#
#
# Convention : Reuss Voigt Hill
#
# Bulk Modulus (GPa) = 42.19433 42.81832 42.50633
# Shear Modulus (GPa) = 25.01111 27.33275 26.17193
#
# Velocity S-wave (km/s) = 3.56795 3.72987 3.64981
# Velocity P-wave (km/s) = 6.20080 6.35162 6.27667
#
# Compressibility (1/GPa) = 0.02369987
#
# Stress axis : x y z
#
# Youngs Moduli (GPa) = 55.32515 85.96558 55.82447
#
# Poissons Ratio (x) = 0.16934 0.40008
# Poissons Ratio (y) = 0.10899 0.15763
# Poissons Ratio (z) = 0.39651 0.24274
#
# Static dielectric constant tensor:
#      x y z
#    x 1.735500 -0.000020 0.018180 
#    y -0.000020 1.702630 0.000010 
#    z 0.018180 0.000010 1.701770 
# 
# From -- ./inp_files/218924.got.cif
#   From: 2010.05.17/outbox.cif.g08.bks.cpg/sg12_110_cif.got.tgz:218924.got - 2010.06.03 13:09:07.
