data_PCOD9195814
_publ_section_title
;
Structure prediction by ZEFSAII (Michael W. Deem and Ramdas Pophale) SiO2 
 PCOD9195814
Probable space group: C 2/M
;
_chemical_formula_sum "Si O2"
_cell_formula_units_Z 64
_cell_length_a 34.322530
_cell_length_b 10.632024
_cell_length_c 19.524357
_cell_angle_alpha 90.000000
_cell_angle_beta 26.350218
_cell_angle_gamma 90.000000
_cell_volume 3162.385600
_symmetry_space_group_name_H-M "C 2/M"
_symmetry_group_IT_number 12
_symmetry_cell_setting 'monoclinic'
loop_
_space_group_symop_operation_xyz
x,y,z
-x,y,-z
-x,-y,-z
x,-y,z
1/2+x,1/2+y,z
1/2-x,1/2+y,-z
1/2-x,1/2-y,-z
1/2+x,1/2-y,z
loop_
_atom_site_type_symbol
_atom_site_label
_atom_site_fract_x
_atom_site_fract_y
_atom_site_fract_z
Si Si1 0.738449 0.225633 0.339200
Si Si2 0.877536 0.149873 0.849462
Si Si3 0.482275 0.863362 0.198935
Si Si4 0.393683 0.348916 0.669556
Si Si5 0.084736 0.644952 0.905548
Si Si6 0.443592 0.353117 0.364997
Si Si7 0.292391 0.868992 0.467496
Si Si8 0.236152 0.650272 0.188393
O O1 0.822692 0.288109 0.241881
O O2 0.656044 0.319611 0.458905
O O3 0.708273 0.135727 0.448708
O O4 0.759311 0.166484 0.232485
O O5 0.858770 0.186824 0.800999
O O6 0.980876 0.175329 0.698679
O O7 0.875517 0.000000 0.684677
O O8 0.814707 0.189843 0.011579
O O9 0.471557 0.740802 0.260812
O O10 0.395192 0.867517 0.289308
O O11 0.486607 0.000000 0.228817
O O12 0.562046 0.854532 0.021876
O O13 0.500000 0.336804 0.500000
O O14 0.343640 0.247611 0.700990
O O15 0.130697 0.000000 0.137079
O O16 0.093282 0.500000 0.870735
O O17 0.000000 0.701252 0.000000
O O18 0.449726 0.500000 0.337376
O O19 0.250000 0.750000 0.500000
O O20 0.251094 0.000000 0.509082
O O21 0.216629 0.500000 0.208047
#
# Coordination Sequence:
#
# PCOD9195814 Si02
#       8
#     8   8   8   8   8   8   8   8
#     4  11  22  36  58  86 118 152 194 247 304 358
#     4   9  19  37  59  85 120 160 200 245 295 344
#     4   9  19  35  53  76 108 143 181 231 289 343
#     4  10  21  39  63  91 126 164 202 246 292 341
#     4  10  20  35  55  81 114 151 192 240 296 360
#     4  10  20  36  59  84 111 149 197 242 289 350
#     4  10  21  37  57  79 106 143 186 235 293 353
#     4  11  23  39  61  88 121 160 200 245 296 352
#
# _framework density 20.237887000000001
#
# number of rings (size 3 to 8) (size 9 to 14) (size 15 to 20)
#    0.000    2.000    0.000    3.375    0.000    6.250 
#    0.000    1.875    0.000    2.625    0.000    0.000 
#    0.000    0.000    0.000    0.000    0.000    0.000 
#
# Total GULP energy -178205.992673 kJ/mol
# GULP energy per Si atom -5568.937271 kJ/mol
# Density = 2.019182 g / cm^3
# Si number density = 20.237887 Si / 1000 Ang^3
#
#
#
# Elastic Constant Matrix: (Units=GPa)
#
#
# Indices 1 2 3 4 5 6 
#
# 1 87.6791 42.8428 26.5036 0.0000 4.0997 0.0000
# 2 42.8428 112.0189 24.4969 0.0000 -6.7311 0.0000
# 3 26.5036 24.4969 93.0301 0.0000 4.5520 0.0000
# 4 0.0000 0.0000 0.0000 19.9044 0.0000 -2.2458
# 5 4.0997 -6.7311 4.5520 0.0000 37.5372 0.0000
# 6 0.0000 0.0000 0.0000 -2.2458 0.0000 26.4979
#
#
#
# Elastic Compliance Matrix: (Units=1/GPa)
#
#
# Indices 1 2 3 4 5 6 
#
# 1 0.014898 -0.005229 -0.002758 0.000000 -0.002230 0.000000
# 2 -0.005229 0.011461 -0.001667 0.000000 0.002828 0.000000
# 3 -0.002758 -0.001667 0.012045 0.000000 -0.001458 0.000000
# 4 0.000000 0.000000 0.000000 0.050725 0.000000 0.004299
# 5 -0.002230 0.002828 -0.001458 0.000000 0.027568 0.000000
# 6 0.000000 0.000000 0.000000 0.004299 0.000000 0.038103
#
#
# Mechanical properties :
#
#
# Convention : Reuss Voigt Hill
#
# Bulk Modulus (GPa) = 52.36441 53.37941 52.87191
# Shear Modulus (GPa) = 27.70470 30.04689 28.87579
#
# Velocity S-wave (km/s) = 3.70395 3.85734 3.78142
# Velocity P-wave (km/s) = 6.65003 6.80235 6.72662
#
# Compressibility (1/GPa) = 0.01909694
#
# Stress axis : x y z
#
# Youngs Moduli (GPa) = 67.12187 87.24989 83.01984
#
# Poissons Ratio (x) = 0.45621 0.22900
# Poissons Ratio (y) = 0.35097 0.13838
# Poissons Ratio (z) = 0.18515 0.14543
#
# Static dielectric constant tensor:
#      x y z
#    x 1.777480 0.000000 0.014630 
#    y 0.000000 1.718180 0.000000 
#    z 0.014630 0.000000 1.755590 
# 
# From -- ./inp_files/296475.got.cif
#   From: 2010.05.17/outbox.cif.g08.bks.cpg/sg12_149_cif.got.tgz:296475.got - 2010.06.03 13:09:07.
