data_PCOD9195574
_publ_section_title
;
Structure prediction by ZEFSAII (Michael W. Deem and Ramdas Pophale) SiO2 
 PCOD9195574
Probable space group: C 2/M
;
_chemical_formula_sum "Si O2"
_cell_formula_units_Z 56
_cell_length_a 14.543065
_cell_length_b 9.175280
_cell_length_c 28.586973
_cell_angle_alpha 90.000000
_cell_angle_beta 57.348199
_cell_angle_gamma 90.000000
_cell_volume 3211.718375
_symmetry_space_group_name_H-M "C 2/M"
_symmetry_group_IT_number 12
_symmetry_cell_setting 'monoclinic'
loop_
_space_group_symop_operation_xyz
x,y,z
-x,y,-z
-x,-y,-z
x,-y,z
1/2+x,1/2+y,z
1/2-x,1/2+y,-z
1/2-x,1/2-y,-z
1/2+x,1/2-y,z
loop_
_atom_site_type_symbol
_atom_site_label
_atom_site_fract_x
_atom_site_fract_y
_atom_site_fract_z
Si Si1 0.001578 0.325246 0.850083
Si Si2 0.252123 0.325853 0.756541
Si Si3 0.918375 0.671410 0.455445
Si Si4 0.665813 0.173828 0.358761
Si Si5 0.937215 0.677439 0.063362
Si Si6 0.808622 0.175500 0.846489
Si Si7 0.269744 0.328670 0.569086
O O1 0.986190 0.500000 0.852921
O O2 0.122595 0.295203 0.796692
O O3 0.006119 0.278936 0.903391
O O4 0.907310 0.248297 0.846860
O O5 0.264266 0.500000 0.746517
O O6 0.303437 0.240908 0.699400
O O7 0.305174 0.288118 0.792183
O O8 0.914819 0.500000 0.469701
O O9 0.836860 0.691743 0.434005
O O10 0.869634 0.764128 0.511275
O O11 0.040504 0.708466 0.406834
O O12 0.737379 0.244248 0.380324
O O13 0.677906 0.000000 0.354759
O O14 0.937875 0.500000 0.062983
O O15 0.809930 0.720270 0.100543
O O16 0.000000 0.728423 0.000000
O O17 0.816063 0.000000 0.847956
O O18 0.284953 0.500000 0.573124
#
# Coordination Sequence:
#
# PCOD9195574 Si02
#       7
#     8   8   8   8   8   8   8
#     4   9  18  33  53  74  99 134 170 206 251 298
#     4   9  20  37  51  68  98 133 169 206 247 301
#     4   9  20  37  53  73 103 133 162 201 249 299
#     4  11  22  35  53  76 101 130 165 208 255 296
#     4   8  15  30  51  75 105 139 171 202 244 302
#     4   9  18  33  53  75 100 133 171 210 250 294
#     4  10  20  35  55  77 102 133 166 200 244 301
#
# _framework density 17.436149
#
# number of rings (size 3 to 8) (size 9 to 14) (size 15 to 20)
#    0.000    2.714    0.000    3.000    0.000    6.286 
#    0.000    6.429    0.000    0.857    0.000    0.000 
#    0.000    0.000    0.000    0.000    0.000    0.000 
#
# Total GULP energy -156196.200214 kJ/mol
# GULP energy per Si atom -5578.435722 kJ/mol
# Density = 1.739646 g / cm^3
# Si number density = 17.436149 Si / 1000 Ang^3
#
#
#
# Elastic Constant Matrix: (Units=GPa)
#
#
# Indices 1 2 3 4 5 6 
#
# 1 121.7033 44.2594 53.3228 0.0000 16.8047 0.0000
# 2 44.2594 32.4423 44.9876 0.0000 7.3277 0.0000
# 3 53.3228 44.9876 106.4557 0.0000 17.7022 0.0000
# 4 0.0000 0.0000 0.0000 22.6155 0.0000 0.1705
# 5 16.8047 7.3277 17.7022 0.0000 10.4200 0.0000
# 6 0.0000 0.0000 0.0000 0.1705 0.0000 31.9713
#
#
#
# Elastic Compliance Matrix: (Units=1/GPa)
#
#
# Indices 1 2 3 4 5 6 
#
# 1 0.019651 -0.032033 0.007273 0.000000 -0.021521 0.000000
# 2 -0.032033 0.126691 -0.043581 0.000000 0.036606 0.000000
# 3 0.007273 -0.043581 0.029299 0.000000 -0.030856 0.000000
# 4 0.000000 0.000000 0.000000 0.044219 0.000000 -0.000236
# 5 -0.021521 0.036606 -0.030856 0.000000 0.157353 0.000000
# 6 0.000000 0.000000 0.000000 -0.000236 0.000000 0.031279
#
#
# Mechanical properties :
#
#
# Convention : Reuss Voigt Hill
#
# Bulk Modulus (GPa) = 25.66888 60.63786 43.15337
# Shear Modulus (GPa) = 8.95797 20.87014 14.91406
#
# Velocity S-wave (km/s) = 2.26908 3.46345 2.92781
# Velocity P-wave (km/s) = 4.64958 7.13068 6.01935
#
# Compressibility (1/GPa) = 0.03895768
#
# Stress axis : x y z
#
# Youngs Moduli (GPa) = 50.88711 7.89323 34.13104
#
# Poissons Ratio (x) = 0.25285 -0.24822
# Poissons Ratio (y) = 1.63009 1.48746
# Poissons Ratio (z) = -0.37008 0.34399
#
# Static dielectric constant tensor:
#      x y z
#    x 1.586330 0.000000 0.004730 
#    y 0.000000 1.577850 0.000000 
#    z 0.004730 0.000000 1.577540 
# 
# From -- ./inp_files/309075.got.cif
#   From: 2010.05.17/outbox.cif.g08.bks.cpg/sg12_155_cif.got.tgz:309075.got - 2010.06.03 13:09:07.
