data_PCOD9195526
_publ_section_title
;
Structure prediction by ZEFSAII (Michael W. Deem and Ramdas Pophale) SiO2 
 PCOD9195526
Probable space group: C 2/M
;
_chemical_formula_sum "Si O2"
_cell_formula_units_Z 40
_cell_length_a 11.173831
_cell_length_b 28.481431
_cell_length_c 7.152609
_cell_angle_alpha 90.000000
_cell_angle_beta 131.966229
_cell_angle_gamma 90.000000
_cell_volume 1692.513713
_symmetry_space_group_name_H-M "C 2/M"
_symmetry_group_IT_number 12
_symmetry_cell_setting 'monoclinic'
loop_
_space_group_symop_operation_xyz
x,y,z
-x,y,-z
-x,-y,-z
x,-y,z
1/2+x,1/2+y,z
1/2-x,1/2+y,-z
1/2-x,1/2-y,-z
1/2+x,1/2-y,z
loop_
_atom_site_type_symbol
_atom_site_label
_atom_site_fract_x
_atom_site_fract_y
_atom_site_fract_z
Si Si1 0.805642 0.449655 0.267921
Si Si2 0.691351 0.050664 0.172622
Si Si3 0.808612 0.349011 0.267948
Si Si4 0.809597 0.150173 0.287024
Si Si5 0.688431 0.750618 0.153521
O O1 0.745422 0.500000 0.277678
O O2 0.744842 0.399283 0.274995
O O3 0.000000 0.449655 0.500000
O O4 0.775974 0.449513 0.014919
O O5 0.748404 0.100899 0.306883
O O6 0.753870 0.000000 0.309523
O O7 0.500000 0.050111 0.000000
O O8 0.743294 0.300486 0.280480
O O9 0.000000 0.348461 0.500000
O O10 0.762290 0.349344 0.999530
O O11 0.759439 0.201253 0.310186
O O12 0.000000 0.148388 0.500000
O O13 0.500000 0.753407 0.000000
O O14 0.750000 0.750000 0.000000
#
# Coordination Sequence:
#
# PCOD9195526 Si02
#       5
#     8   8   8   8   8
#     4   8  14  27  49  74 101 136 179 223 267 324
#     4   9  17  30  50  78 110 146 188 233 284 342
#     4   9  18  35  56  81 110 147 192 236 284 342
#     4  10  20  35  54  82 115 148 188 238 293 344
#     4  10  21  39  60  85 116 152 194 241 294 350
#
# _framework density 23.633483999999999
#
# number of rings (size 3 to 8) (size 9 to 14) (size 15 to 20)
#    0.000    2.800    0.000    1.200    0.000    0.400 
#    0.000   28.000    0.000    0.600    0.000    0.000 
#    0.000    0.000    0.000    0.000    0.000    0.400 
#
# Total GULP energy -111462.746879 kJ/mol
# GULP energy per Si atom -5573.137344 kJ/mol
# Density = 2.357969 g / cm^3
# Si number density = 23.633484 Si / 1000 Ang^3
#
#
#
# Elastic Constant Matrix: (Units=GPa)
#
#
# Indices 1 2 3 4 5 6 
#
# 1 92.0073 41.7716 44.7423 0.0000 -17.1657 0.0000
# 2 41.7716 355.8881 16.0425 0.0000 22.8745 0.0000
# 3 44.7423 16.0425 70.6963 0.0000 -8.5839 0.0000
# 4 0.0000 0.0000 0.0000 30.4227 0.0000 8.3261
# 5 -17.1657 22.8745 -8.5839 0.0000 55.7745 0.0000
# 6 0.0000 0.0000 0.0000 8.3261 0.0000 53.4024
#
#
#
# Elastic Compliance Matrix: (Units=1/GPa)
#
#
# Indices 1 2 3 4 5 6 
#
# 1 0.017491 -0.001895 -0.010080 0.000000 0.004609 0.000000
# 2 -0.001895 0.003138 0.000265 0.000000 -0.001829 0.000000
# 3 -0.010080 0.000265 0.020457 0.000000 -0.000063 0.000000
# 4 0.000000 0.000000 0.000000 0.034335 0.000000 -0.005353
# 5 0.004609 -0.001829 -0.000063 0.000000 0.020088 0.000000
# 6 0.000000 0.000000 0.000000 -0.005353 0.000000 0.019560
#
#
# Mechanical properties :
#
#
# Convention : Reuss Voigt Hill
#
# Bulk Modulus (GPa) = 56.60657 80.41162 68.50909
# Shear Modulus (GPa) = 34.63156 55.65560 45.14358
#
# Velocity S-wave (km/s) = 3.83215 4.85804 4.37527
# Velocity P-wave (km/s) = 6.60185 8.09727 7.38749
#
# Compressibility (1/GPa) = 0.01766580
#
# Stress axis : x y z
#
# Youngs Moduli (GPa) = 57.17382 318.68469 48.88393
#
# Poissons Ratio (x) = 0.60383 0.49274
# Poissons Ratio (y) = 0.10833 -0.01295
# Poissons Ratio (z) = 0.57630 -0.08445
#
# Static dielectric constant tensor:
#      x y z
#    x 1.704240 0.000000 -0.059160 
#    y 0.000000 2.132590 0.000000 
#    z -0.059160 0.000000 1.839520 
# 
# From -- ./inp_files/53991.got.cif
#   From: 2010.05.17/outbox.cif.g08.bks.cpg/sg12_27_cif.got.tgz:53991.got - 2010.06.03 13:09:07.
