data_PCOD9195219
_publ_section_title
;
Structure prediction by ZEFSAII (Michael W. Deem and Ramdas Pophale) SiO2 
 PCOD9195219
Probable space group: C 2/M
;
_chemical_formula_sum "Si O2"
_cell_formula_units_Z 56
_cell_length_a 9.461169
_cell_length_b 28.292269
_cell_length_c 12.649417
_cell_angle_alpha 90.000000
_cell_angle_beta 121.664583
_cell_angle_gamma 90.000000
_cell_volume 2881.920046
_symmetry_space_group_name_H-M "C 2/M"
_symmetry_group_IT_number 12
_symmetry_cell_setting 'monoclinic'
loop_
_space_group_symop_operation_xyz
x,y,z
-x,y,-z
-x,-y,-z
x,-y,z
1/2+x,1/2+y,z
1/2-x,1/2+y,-z
1/2-x,1/2-y,-z
1/2+x,1/2-y,z
loop_
_atom_site_type_symbol
_atom_site_label
_atom_site_fract_x
_atom_site_fract_y
_atom_site_fract_z
Si Si1 0.362834 0.361945 0.178254
Si Si2 0.448313 0.444422 0.857182
Si Si3 0.600250 0.901321 0.646515
Si Si4 0.807169 0.778539 0.423043
Si Si5 0.277629 0.198250 0.062697
Si Si6 0.312644 0.308902 0.739910
Si Si7 0.398256 0.145017 0.737848
O O1 0.440793 0.411507 0.174458
O O2 0.518583 0.325200 0.252632
O O3 0.230668 0.366631 0.219950
O O4 0.268282 0.339960 0.042243
O O5 0.476600 0.500000 0.854202
O O6 0.259613 0.431716 0.747469
O O7 0.500000 0.433083 0.000000
O O8 0.500000 0.915453 0.500000
O O9 0.675486 0.848405 0.657383
O O10 0.486271 0.896183 0.706622
O O11 0.750000 0.750000 0.500000
O O12 0.751848 0.743671 0.307417
O O13 0.714110 0.827473 0.389328
O O14 0.000000 0.785788 0.500000
O O15 0.169593 0.190171 0.126171
O O16 0.464486 0.183421 0.169561
O O17 0.250000 0.250000 0.000000
#
# Coordination Sequence:
#
# PCOD9195219 Si02
#       7
#     8   8   8   8   8   8   8
#     4  11  21  36  58  86 119 151 192 249 310 363
#     4  10  22  43  69  92 116 153 198 246 309 384
#     4  10  21  40  63  85 116 156 199 244 299 369
#     4  12  22  34  50  72 110 157 206 245 284 345
#     4  11  21  35  54  80 119 162 205 247 291 352
#     4  10  20  35  52  76 112 160 205 244 294 352
#     4  11  23  35  54  85 118 154 199 254 306 349
#
# _framework density 19.431488999999999
#
# number of rings (size 3 to 8) (size 9 to 14) (size 15 to 20)
#    0.000    1.286    0.000    9.000    0.000    2.571 
#    0.000    0.714    0.000    4.286    0.000    0.000 
#    0.000    0.000    0.000    0.000    0.000    0.000 
#
# Total GULP energy -156263.297829 kJ/mol
# GULP energy per Si atom -5580.832065 kJ/mol
# Density = 1.938726 g / cm^3
# Si number density = 19.431489 Si / 1000 Ang^3
#
#
#
# Elastic Constant Matrix: (Units=GPa)
#
#
# Indices 1 2 3 4 5 6 
#
# 1 138.9209 30.9999 47.2813 0.0000 -0.6907 0.0000
# 2 30.9999 71.3823 19.6682 0.0000 1.5016 0.0000
# 3 47.2813 19.6682 104.2488 0.0000 2.0756 0.0000
# 4 0.0000 0.0000 0.0000 25.2940 0.0000 -0.0451
# 5 -0.6907 1.5016 2.0756 0.0000 37.4296 0.0000
# 6 0.0000 0.0000 0.0000 -0.0451 0.0000 8.1798
#
#
#
# Elastic Compliance Matrix: (Units=1/GPa)
#
#
# Indices 1 2 3 4 5 6 
#
# 1 0.009077 -0.002970 -0.003566 0.000000 0.000484 0.000000
# 2 -0.002970 0.015756 -0.001614 0.000000 -0.000597 0.000000
# 3 -0.003566 -0.001614 0.011527 0.000000 -0.000640 0.000000
# 4 0.000000 0.000000 0.000000 0.039535 0.000000 0.000218
# 5 0.000484 -0.000597 -0.000640 0.000000 0.026785 0.000000
# 6 0.000000 0.000000 0.000000 0.000218 0.000000 0.122253
#
#
# Mechanical properties :
#
#
# Convention : Reuss Voigt Hill
#
# Bulk Modulus (GPa) = 49.84856 56.71676 53.28266
# Shear Modulus (GPa) = 20.16774 28.62086 24.39430
#
# Velocity S-wave (km/s) = 3.22512 3.84202 3.54701
# Velocity P-wave (km/s) = 6.29109 6.99520 6.65247
#
# Compressibility (1/GPa) = 0.02006076
#
# Stress axis : x y z
#
# Youngs Moduli (GPa) = 110.16633 63.46810 86.75194
#
# Poissons Ratio (x) = 0.18848 0.30938
# Poissons Ratio (y) = 0.32715 0.14001
# Poissons Ratio (z) = 0.39288 0.10243
#
# Static dielectric constant tensor:
#      x y z
#    x 1.704930 0.000000 0.026420 
#    y 0.000000 2.051200 0.000000 
#    z 0.026420 0.000000 1.719060 
# 
# From -- ./inp_files/125204.got.cif
#   From: 2010.05.17/outbox.cif.g08.bks.cpg/sg12_63_cif.got.tgz:125204.got - 2010.06.03 13:09:07.
