data_PCOD9195615
_publ_section_title
;
Structure prediction by ZEFSAII (Michael W. Deem and Ramdas Pophale) SiO2 
 PCOD9195615
Probable space group: C 2/M
;
_chemical_formula_sum "Si O2"
_cell_formula_units_Z 48
_cell_length_a 18.215485
_cell_length_b 14.734705
_cell_length_c 7.378924
_cell_angle_alpha 90.000000
_cell_angle_beta 87.722423
_cell_angle_gamma 90.000000
_cell_volume 1978.937162
_symmetry_space_group_name_H-M "C 2/M"
_symmetry_group_IT_number 12
_symmetry_cell_setting 'monoclinic'
loop_
_space_group_symop_operation_xyz
x,y,z
-x,y,-z
-x,-y,-z
x,-y,z
1/2+x,1/2+y,z
1/2-x,1/2+y,-z
1/2-x,1/2-y,-z
1/2+x,1/2-y,z
loop_
_atom_site_type_symbol
_atom_site_label
_atom_site_fract_x
_atom_site_fract_y
_atom_site_fract_z
Si Si1 0.604728 0.597717 0.002186
Si Si2 0.265097 0.851677 0.065037
Si Si3 0.080963 0.697498 0.966723
Si Si4 0.383241 0.399930 0.412839
Si Si5 0.420391 0.213225 0.466294
Si Si6 0.280174 0.893100 0.488661
O O1 0.578815 0.500000 0.083125
O O2 0.583053 0.701395 0.058750
O O3 0.584555 0.595845 0.791353
O O4 0.693422 0.595816 0.006709
O O5 0.349213 0.865300 0.990560
O O6 0.265596 0.865182 0.281539
O O7 0.250000 0.750000 0.000000
O O8 0.089613 0.712139 0.749879
O O9 0.000000 0.658168 0.000000
O O10 0.388038 0.500000 0.495211
O O11 0.417744 0.318671 0.521559
O O12 0.296596 0.375867 0.404053
O O13 0.500000 0.173556 0.500000
O O14 0.350233 0.161738 0.551699
O O15 0.295680 0.000000 0.493296
#
# Coordination Sequence:
#
# PCOD9195615 Si02
#       6
#     8   8   8   8   8   8
#     4   9  17  31  51  74  99 127 162 205 252 303
#     4   9  18  32  51  74  98 128 167 211 253 298
#     4   9  19  33  47  69 100 131 164 205 253 301
#     4   9  19  35  54  78 106 135 171 216 263 309
#     4  10  21  34  51  74 104 140 174 213 258 307
#     4  10  20  35  55  78 105 136 173 217 260 306
#
# _framework density 24.255445000000002
#
# number of rings (size 3 to 8) (size 9 to 14) (size 15 to 20)
#    0.000    2.667    0.000    2.000    0.000    5.000 
#    0.000    0.000    0.000   12.500    0.000    0.000 
#    0.000    0.000    0.000    0.000    0.000    0.000 
#
# Total GULP energy -133915.923463 kJ/mol
# GULP energy per Si atom -5579.830144 kJ/mol
# Density = 2.420024 g / cm^3
# Si number density = 24.255445 Si / 1000 Ang^3
#
#
#
# Elastic Constant Matrix: (Units=GPa)
#
#
# Indices 1 2 3 4 5 6 
#
# 1 125.2020 19.8065 -8.2032 0.0000 4.0062 0.0000
# 2 19.8065 57.3950 -14.2407 0.0000 13.9861 0.0000
# 3 -8.2032 -14.2407 59.6247 0.0000 12.2593 0.0000
# 4 0.0000 0.0000 0.0000 -6.0827 0.0000 -15.7205
# 5 4.0062 13.9861 12.2593 0.0000 16.8290 0.0000
# 6 0.0000 0.0000 0.0000 -15.7205 0.0000 11.3586
#
#
#
# Elastic Compliance Matrix: (Units=1/GPa)
#
#
# Indices 1 2 3 4 5 6 
#
# 1 0.008462 -0.002767 0.000523 0.000000 -0.000096 0.000000
# 2 -0.002767 0.030317 0.014002 0.000000 -0.034737 0.000000
# 3 0.000523 0.014002 0.026588 0.000000 -0.031130 0.000000
# 4 0.000000 0.000000 0.000000 -0.035919 0.000000 -0.049713
# 5 -0.000096 -0.034737 -0.031130 0.000000 0.110990 0.000000
# 6 0.000000 0.000000 0.000000 -0.049713 0.000000 0.019235
#
#
# Mechanical properties :
#
#
# Convention : Reuss Voigt Hill
#
# Bulk Modulus (GPa) = 11.25060 26.32743 18.78902
# Shear Modulus (GPa) = 30.15960 20.74493 25.45227
#
# Velocity S-wave (km/s) = 3.53004 2.92767 3.24287
# Velocity P-wave (km/s) = 4.61122 4.72294 4.66741
#
# Compressibility (1/GPa) = 0.08888413
#
# Stress axis : x y z
#
# Youngs Moduli (GPa) = 118.17296 32.98484 37.61038
#
# Poissons Ratio (x) = 0.09127 -0.01967
# Poissons Ratio (y) = 0.32699 -0.52663
# Poissons Ratio (z) = -0.06181 -0.46186
#
# Static dielectric constant tensor:
#      x y z
#    x 1.948700 0.000000 -0.024910 
#    y 0.000000 1.963130 0.000000 
#    z -0.024910 0.000000 1.989890 
# 
# From -- ./inp_files/73581.got.cif
#   From: 2010.05.17/outbox.cif.g08.bks.cpg/sg12_37_cif.got.tgz:73581.got - 2010.06.03 13:09:07.
