data_PCOD9195013
_publ_section_title
;
Structure prediction by ZEFSAII (Michael W. Deem and Ramdas Pophale) SiO2 
 PCOD9195013
Probable space group: C 2/M
;
_chemical_formula_sum "Si O2"
_cell_formula_units_Z 64
_cell_length_a 8.657764
_cell_length_b 18.098147
_cell_length_c 28.273888
_cell_angle_alpha 90.000000
_cell_angle_beta 137.853341
_cell_angle_gamma 90.000000
_cell_volume 2972.813952
_symmetry_space_group_name_H-M "C 2/M"
_symmetry_group_IT_number 12
_symmetry_cell_setting 'monoclinic'
loop_
_space_group_symop_operation_xyz
x,y,z
-x,y,-z
-x,-y,-z
x,-y,z
1/2+x,1/2+y,z
1/2-x,1/2+y,-z
1/2-x,1/2-y,-z
1/2+x,1/2-y,z
loop_
_atom_site_type_symbol
_atom_site_label
_atom_site_fract_x
_atom_site_fract_y
_atom_site_fract_z
Si Si1 0.254779 0.713789 0.079086
Si Si2 0.606184 0.420206 0.950042
Si Si3 0.975222 0.213088 0.225432
Si Si4 0.125068 0.411934 0.479034
Si Si5 0.292946 0.141660 0.751993
Si Si6 0.594945 0.657152 0.614468
Si Si7 0.974971 0.319461 0.357544
Si Si8 0.853213 0.386797 0.096587
O O1 0.390503 0.651624 0.081453
O O2 0.296315 0.695028 0.143319
O O3 0.340779 0.797362 0.091258
O O4 0.000000 0.712358 0.000000
O O5 0.617198 0.500000 0.928272
O O6 0.372529 0.414225 0.926912
O O7 0.817708 0.414839 0.035382
O O8 0.877424 0.189794 0.253726
O O9 0.027989 0.300080 0.231066
O O10 0.223799 0.174575 0.276338
O O11 0.131532 0.500000 0.476394
O O12 0.381768 0.379087 0.539567
O O13 0.000000 0.392242 0.500000
O O14 0.995650 0.376186 0.405437
O O15 0.162731 0.110290 0.676968
O O16 0.431320 0.093354 0.821410
O O17 0.521760 0.737427 0.618483
O O18 0.812840 0.668023 0.629623
#
# Coordination Sequence:
#
# PCOD9195013 Si02
#       8
#     8   8   8   8   8   8   8   8
#     4  11  22  35  63  90 120 160 216 268 317 379
#     4  11  23  39  57  86 124 162 208 261 325 387
#     4  10  21  34  58  91 129 156 208 260 320 361
#     4  11  24  43  66  91 126 165 207 255 309 375
#     4  10  20  34  59  91 124 159 201 264 307 369
#     4  11  22  38  65  96 127 162 209 255 313 363
#     4  11  22  39  64  93 130 167 203 260 308 375
#     4  10  21  35  64  84 120 158 216 258 315 378
#
# _framework density 21.528424000000001
#
# number of rings (size 3 to 8) (size 9 to 14) (size 15 to 20)
#    0.000    1.375    1.250    7.125    8.750    1.250 
#    0.000    1.875    0.000    3.750    0.000    0.000 
#    0.000    0.000    0.000    0.000    0.000    0.000 
#
# Total GULP energy -178790.108152 kJ/mol
# GULP energy per Si atom -5587.190880 kJ/mol
# Density = 2.147942 g / cm^3
# Si number density = 21.528424 Si / 1000 Ang^3
#
#
#
# Elastic Constant Matrix: (Units=GPa)
#
#
# Indices 1 2 3 4 5 6 
#
# 1 95.5725 26.0620 28.0776 0.0002 -4.4001 0.0001
# 2 26.0620 82.1547 16.6178 0.0001 -3.0542 0.0001
# 3 28.0776 16.6178 116.5417 0.0006 3.2793 0.0004
# 4 0.0002 0.0001 0.0006 -11.7515 0.0002 -10.6228
# 5 -4.4001 -3.0542 3.2793 0.0002 32.1466 0.0001
# 6 0.0001 0.0001 0.0004 -10.6228 0.0001 11.0941
#
#
#
# Elastic Compliance Matrix: (Units=1/GPa)
#
#
# Indices 1 2 3 4 5 6 
#
# 1 0.012173 -0.003294 -0.002508 0.000000 0.001609 0.000000
# 2 -0.003294 0.013486 -0.001156 0.000000 0.000948 0.000000
# 3 -0.002508 -0.001156 0.009389 0.000000 -0.001411 0.000000
# 4 0.000000 0.000000 0.000000 -0.045614 0.000000 -0.043676
# 5 0.001609 0.000948 -0.001411 0.000000 0.031562 0.000000
# 6 0.000000 0.000000 0.000000 -0.043676 0.000000 0.048317
#
#
# Mechanical properties :
#
#
# Convention : Reuss Voigt Hill
#
# Bulk Modulus (GPa) = 47.32343 48.42044 47.87193
# Shear Modulus (GPa) = 55.38681 21.19859 38.29270
#
# Velocity S-wave (km/s) = 5.07771 3.14136 4.22204
# Velocity P-wave (km/s) = 7.51046 5.97476 6.78619
#
# Compressibility (1/GPa) = 0.02113118
#
# Stress axis : x y z
#
# Youngs Moduli (GPa) = 82.15209 74.14925 106.50264
#
# Poissons Ratio (x) = 0.24427 0.26713
# Poissons Ratio (y) = 0.27064 0.12312
# Poissons Ratio (z) = 0.20605 0.08572
#
# Static dielectric constant tensor:
#      x y z
#    x 1.796900 0.000000 0.003780 
#    y 0.000000 1.768940 0.000000 
#    z 0.003780 0.000000 1.833590 
# 
# From -- ./inp_files/372970.got.cif
#   From: 2010.05.17/outbox.cif.g08.bks.cpg/sg12_187_cif.got.tgz:372970.got - 2010.06.03 13:09:07.
