data_PCOD9195442
_publ_section_title
;
Structure prediction by ZEFSAII (Michael W. Deem and Ramdas Pophale) SiO2 
 PCOD9195442
Probable space group: C 2/M
;
_chemical_formula_sum "Si O2"
_cell_formula_units_Z 48
_cell_length_a 29.597715
_cell_length_b 14.547753
_cell_length_c 5.456192
_cell_angle_alpha 90.000000
_cell_angle_beta 65.758193
_cell_angle_gamma 90.000000
_cell_volume 2142.166510
_symmetry_space_group_name_H-M "C 2/M"
_symmetry_group_IT_number 12
_symmetry_cell_setting 'monoclinic'
loop_
_space_group_symop_operation_xyz
x,y,z
-x,y,-z
-x,-y,-z
x,-y,z
1/2+x,1/2+y,z
1/2-x,1/2+y,-z
1/2-x,1/2-y,-z
1/2+x,1/2-y,z
loop_
_atom_site_type_symbol
_atom_site_label
_atom_site_fract_x
_atom_site_fract_y
_atom_site_fract_z
Si Si1 0.430260 0.602843 0.403724
Si Si2 0.250648 0.500000 0.472800
Si Si3 0.110022 0.829533 0.006354
Si Si4 0.814214 0.500000 0.885845
Si Si5 0.679442 0.803415 0.105590
Si Si6 0.278459 0.316806 0.614773
Si Si7 0.991586 0.275751 0.768710
O O1 0.452655 0.500000 0.346013
O O2 0.398920 0.611557 0.725655
O O3 0.471769 0.684535 0.313138
O O4 0.397325 0.616595 0.231714
O O5 0.223844 0.500000 0.267004
O O6 0.283932 0.411081 0.456177
O O7 0.209699 0.500000 0.784267
O O8 0.156425 0.762243 0.949910
O O9 0.063658 0.760873 0.108685
O O10 0.843896 0.403603 0.804098
O O11 0.678812 0.739828 0.347134
O O12 0.736578 0.831739 0.920804
O O13 0.250000 0.250000 0.500000
O O14 0.000000 0.327799 0.500000
O O15 0.000000 0.327779 0.000000
#
# Coordination Sequence:
#
# PCOD9195442 Si02
#       7
#     8   4   8   4   8   8   8
#     4  10  20  35  54  77 111 154 187 214 261 330
#     4  10  20  36  56  82 100 137 184 216 267 330
#     4  10  21  33  52  79 109 138 181 231 267 309
#     4  10  20  36  60  78  98 133 186 225 261 325
#     4  10  22  37  56  82 106 141 183 232 279 320
#     4  10  20  37  59  77 109 146 181 225 277 334
#     4   8  16  30  49  74 100 142 180 214 258 313
#
# _framework density 22.407222000000001
#
# number of rings (size 3 to 8) (size 9 to 14) (size 15 to 20)
#    0.000    2.333    1.667    0.500    2.333    6.000 
#    3.000    0.000    0.000    0.000    0.000   10.500 
#    0.000    0.000    0.000    0.000    0.000    0.000 
#
# Total GULP energy -133667.831389 kJ/mol
# GULP energy per Si atom -5569.492975 kJ/mol
# Density = 2.235622 g / cm^3
# Si number density = 22.407222 Si / 1000 Ang^3
#
#
#
# Elastic Constant Matrix: (Units=GPa)
#
#
# Indices 1 2 3 4 5 6 
#
# 1 58.1146 14.4106 24.5098 0.0000 13.2856 0.0000
# 2 14.4106 97.6998 -3.4321 0.0000 10.2595 0.0000
# 3 24.5098 -3.4321 130.7411 0.0000 35.6091 0.0000
# 4 0.0000 0.0000 0.0000 23.3757 0.0000 4.3250
# 5 13.2856 10.2595 35.6091 0.0000 41.0847 0.0000
# 6 0.0000 0.0000 0.0000 4.3250 0.0000 14.0758
#
#
#
# Elastic Compliance Matrix: (Units=1/GPa)
#
#
# Indices 1 2 3 4 5 6 
#
# 1 0.019839 -0.002691 -0.002913 0.000000 -0.003219 0.000000
# 2 -0.002691 0.011047 0.001713 0.000000 -0.003373 0.000000
# 3 -0.002913 0.001713 0.010603 0.000000 -0.008675 0.000000
# 4 0.000000 0.000000 0.000000 0.045358 0.000000 -0.013937
# 5 -0.003219 -0.003373 -0.008675 0.000000 0.033742 0.000000
# 6 0.000000 0.000000 0.000000 -0.013937 0.000000 0.075326
#
#
# Mechanical properties :
#
#
# Convention : Reuss Voigt Hill
#
# Bulk Modulus (GPa) = 29.66733 39.72578 34.69655
# Shear Modulus (GPa) = 23.26315 32.44503 27.85409
#
# Velocity S-wave (km/s) = 3.22560 3.80935 3.52957
# Velocity P-wave (km/s) = 5.20975 6.09227 5.66821
#
# Compressibility (1/GPa) = 0.03370711
#
# Stress axis : x y z
#
# Youngs Moduli (GPa) = 50.40573 90.52471 94.31600
#
# Poissons Ratio (x) = 0.24356 0.27476
# Poissons Ratio (y) = 0.13562 -0.16158
# Poissons Ratio (z) = 0.14684 -0.15508
#
# Static dielectric constant tensor:
#      x y z
#    x 1.853600 0.000000 -0.036160 
#    y 0.000000 1.759260 0.000000 
#    z -0.036160 0.000000 1.954330 
# 
# From -- ./inp_files/31250.got.cif
#   From: 2010.05.17/outbox.cif.g08.bks.cpg/sg12_16_cif.got.tgz:31250.got - 2010.06.03 13:09:07.
