data_PCOD9195917
_publ_section_title
;
Structure prediction by ZEFSAII (Michael W. Deem and Ramdas Pophale) SiO2 
 PCOD9195917
Probable space group: C 2/M
;
_chemical_formula_sum "Si O2"
_cell_formula_units_Z 64
_cell_length_a 8.269685
_cell_length_b 19.823561
_cell_length_c 20.313497
_cell_angle_alpha 90.000000
_cell_angle_beta 120.435160
_cell_angle_gamma 90.000000
_cell_volume 2871.209288
_symmetry_space_group_name_H-M "C 2/M"
_symmetry_group_IT_number 12
_symmetry_cell_setting 'monoclinic'
loop_
_space_group_symop_operation_xyz
x,y,z
-x,y,-z
-x,-y,-z
x,-y,z
1/2+x,1/2+y,z
1/2-x,1/2+y,-z
1/2-x,1/2-y,-z
1/2+x,1/2-y,z
loop_
_atom_site_type_symbol
_atom_site_label
_atom_site_fract_x
_atom_site_fract_y
_atom_site_fract_z
Si Si1 0.289812 0.825209 0.767021
Si Si2 0.346874 0.920719 0.172357
Si Si3 0.772004 0.306178 0.901073
Si Si4 0.208043 0.678445 0.573771
Si Si5 0.318263 0.820243 0.633455
Si Si6 0.295124 0.425814 0.488060
Si Si7 0.247729 0.321928 0.737390
Si Si8 0.209488 0.662941 0.955179
O O1 0.451224 0.881961 0.793430
O O2 0.179642 0.831146 0.813291
O O3 0.198743 0.827197 0.675690
O O4 0.352735 0.745947 0.783101
O O5 0.238393 0.884496 0.210164
O O6 0.257937 0.901188 0.083710
O O7 0.367728 0.000000 0.186553
O O8 0.766133 0.227616 0.922070
O O9 0.989257 0.324865 0.928382
O O10 0.700852 0.340202 0.953873
O O11 0.248366 0.758090 0.575823
O O12 0.314365 0.623476 0.553219
O O13 0.000000 0.669622 0.500000
O O14 0.253739 0.665363 0.660351
O O15 0.324083 0.887793 0.592489
O O16 0.526891 0.801686 0.698756
O O17 0.500000 0.431674 0.500000
O O18 0.221060 0.500000 0.489079
#
# Coordination Sequence:
#
# PCOD9195917 Si02
#       8
#     8   8   8   8   8   8   8   8
#     4   9  19  33  52  82 115 148 188 230 283 340
#     4  10  20  35  55  87 124 152 188 240 299 346
#     4   9  16  31  52  82 114 143 195 239 275 333
#     4  11  22  38  61  84 104 142 194 245 281 328
#     4  10  21  35  60  81 110 141 188 239 282 335
#     4  11  25  41  56  79 114 150 184 231 300 362
#     4  10  20  36  57  88 109 152 192 240 282 348
#     4   9  17  30  55  83 110 150 190 236 284 331
#
# _framework density 22.290261000000001
#
# number of rings (size 3 to 8) (size 9 to 14) (size 15 to 20)
#    0.000    2.125    2.500    0.750    3.500    2.750 
#    0.000    5.000    0.000    0.000    0.000   14.000 
#    0.000    0.000    0.000    0.000    0.000    0.000 
#
# Total GULP energy -178294.466665 kJ/mol
# GULP energy per Si atom -5571.702083 kJ/mol
# Density = 2.223953 g / cm^3
# Si number density = 22.290261 Si / 1000 Ang^3
#
#
#
# Elastic Constant Matrix: (Units=GPa)
#
#
# Indices 1 2 3 4 5 6 
#
# 1 34.8473 23.5828 14.8738 0.0000 -9.3220 0.0000
# 2 23.5828 151.1277 68.2252 0.0000 -20.9339 0.0000
# 3 14.8738 68.2252 146.4378 0.0000 -43.7306 0.0000
# 4 0.0000 0.0000 0.0000 43.9316 0.0000 -13.8000
# 5 -9.3220 -20.9339 -43.7306 0.0000 32.9367 0.0000
# 6 0.0000 0.0000 0.0000 -13.8000 0.0000 29.1049
#
#
#
# Elastic Compliance Matrix: (Units=1/GPa)
#
#
# Indices 1 2 3 4 5 6 
#
# 1 0.033498 -0.004636 0.001175 0.000000 0.008094 0.000000
# 2 -0.004636 0.009022 -0.003997 0.000000 -0.000884 0.000000
# 3 0.001175 -0.003997 0.013110 0.000000 0.015199 0.000000
# 4 0.000000 0.000000 0.000000 0.026746 0.000000 0.012682
# 5 0.008094 -0.000884 0.015199 0.000000 0.052270 0.000000
# 6 0.000000 0.000000 0.000000 0.012682 0.000000 0.040371
#
#
# Mechanical properties :
#
#
# Convention : Reuss Voigt Hill
#
# Bulk Modulus (GPa) = 24.56146 60.64183 42.60165
# Shear Modulus (GPa) = 24.56922 36.24337 30.40629
#
# Velocity S-wave (km/s) = 3.32360 4.03671 3.69739
# Velocity P-wave (km/s) = 5.07654 6.99938 6.11402
#
# Compressibility (1/GPa) = 0.04071419
#
# Stress axis : x y z
#
# Youngs Moduli (GPa) = 29.85249 110.83861 76.27502
#
# Poissons Ratio (x) = 0.51389 -0.08960
# Poissons Ratio (y) = 0.13841 0.30483
# Poissons Ratio (z) = -0.03507 0.44297
#
# Static dielectric constant tensor:
#      x y z
#    x 1.921440 0.000000 0.028890 
#    y 0.000000 1.785340 0.000000 
#    z 0.028890 0.000000 1.986620 
# 
# From -- ./inp_files/305482.got.cif
#   From: 2010.05.17/outbox.cif.g08.bks.cpg/sg12_153_cif.got.tgz:305482.got - 2010.06.03 13:09:07.
