data_PCOD9195828
_publ_section_title
;
Structure prediction by ZEFSAII (Michael W. Deem and Ramdas Pophale) SiO2 
 PCOD9195828
Probable space group: C 2/M
;
_chemical_formula_sum "Si O2"
_cell_formula_units_Z 56
_cell_length_a 20.797671
_cell_length_b 7.530046
_cell_length_c 19.122800
_cell_angle_alpha 90.000000
_cell_angle_beta 119.371896
_cell_angle_gamma 90.000000
_cell_volume 2609.807843
_symmetry_space_group_name_H-M "C 2/M"
_symmetry_group_IT_number 12
_symmetry_cell_setting 'monoclinic'
loop_
_space_group_symop_operation_xyz
x,y,z
-x,y,-z
-x,-y,-z
x,-y,z
1/2+x,1/2+y,z
1/2-x,1/2+y,-z
1/2-x,1/2-y,-z
1/2+x,1/2-y,z
loop_
_atom_site_type_symbol
_atom_site_label
_atom_site_fract_x
_atom_site_fract_y
_atom_site_fract_z
Si Si1 0.066055 0.285528 0.484074
Si Si2 0.019361 0.789016 0.301379
Si Si3 0.418797 0.789385 0.940999
Si Si4 0.702942 0.207433 0.640520
Si Si5 0.632057 0.715591 0.243802
Si Si6 0.644404 0.283971 0.761634
Si Si7 0.272735 0.787253 0.933328
O O1 0.066924 0.500000 0.490093
O O2 0.049979 0.239672 0.395593
O O3 0.145314 0.217763 0.553428
O O4 0.000000 0.222555 0.500000
O O5 0.074068 0.719976 0.271002
O O6 0.935561 0.720624 0.255600
O O7 0.014622 0.000000 0.287219
O O8 0.393956 0.766512 0.847566
O O9 0.352880 0.716590 0.954100
O O10 0.422906 0.000000 0.957441
O O11 0.500000 0.714919 0.000000
O O12 0.785228 0.281693 0.694576
O O13 0.661573 0.222422 0.692607
O O14 0.712981 0.000000 0.628521
O O15 0.634122 0.500000 0.246124
O O16 0.643871 0.500000 0.760284
O O17 0.709857 0.221906 0.846877
O O18 0.274835 0.000000 0.925730
O O19 0.250000 0.750000 0.000000
#
# Coordination Sequence:
#
# PCOD9195828 Si02
#       7
#     8   8   8   8   8   8   8
#     4  10  20  35  55  82 113 144 183 229 275 324
#     4  10  22  37  55  83 114 144 184 229 273 326
#     4  10  22  40  59  82 113 147 183 226 274 327
#     4  10  20  36  58  81 109 145 185 227 271 324
#     4  10  22  39  58  82 112 147 185 226 273 328
#     4  10  20  36  57  80 110 146 184 226 271 323
#     4  10  22  38  57  84 114 143 182 228 273 324
#
# _framework density 21.457518
#
# number of rings (size 3 to 8) (size 9 to 14) (size 15 to 20)
#    0.000    2.000    2.857    0.000    2.000    3.429 
#    0.000    0.000    0.000    0.000    0.000    0.000 
#    0.000    0.000    0.000    0.000    0.000    0.000 
#
# Total GULP energy -156433.162412 kJ/mol
# GULP energy per Si atom -5586.898658 kJ/mol
# Density = 2.140868 g / cm^3
# Si number density = 21.457518 Si / 1000 Ang^3
#
#
#
# Elastic Constant Matrix: (Units=GPa)
#
#
# Indices 1 2 3 4 5 6 
#
# 1 210.6087 0.5965 85.3843 0.0000 21.4332 0.0000
# 2 0.5965 50.4016 -6.7357 0.0000 10.9563 0.0000
# 3 85.3843 -6.7357 104.6440 0.0000 22.7840 0.0000
# 4 0.0000 0.0000 0.0000 23.8841 0.0000 -9.1575
# 5 21.4332 10.9563 22.7840 0.0000 47.4672 0.0000
# 6 0.0000 0.0000 0.0000 -9.1575 0.0000 9.6821
#
#
#
# Elastic Compliance Matrix: (Units=1/GPa)
#
#
# Indices 1 2 3 4 5 6 
#
# 1 0.007135 -0.000810 -0.005822 0.000000 -0.000240 0.000000
# 2 -0.000810 0.021673 0.003423 0.000000 -0.006280 0.000000
# 3 -0.005822 0.003423 0.015775 0.000000 -0.005733 0.000000
# 4 0.000000 0.000000 0.000000 0.065691 0.000000 0.062132
# 5 -0.000240 -0.006280 -0.005733 0.000000 0.025377 0.000000
# 6 0.000000 0.000000 0.000000 0.062132 0.000000 0.162049
#
#
# Mechanical properties :
#
#
# Convention : Reuss Voigt Hill
#
# Bulk Modulus (GPa) = 26.20125 58.23829 42.21977
# Shear Modulus (GPa) = 15.78088 35.30062 25.54075
#
# Velocity S-wave (km/s) = 2.71486 4.06043 3.45381
# Velocity P-wave (km/s) = 4.69729 7.01306 5.96856
#
# Compressibility (1/GPa) = 0.03816612
#
# Stress axis : x y z
#
# Youngs Moduli (GPa) = 140.15176 46.14067 63.39090
#
# Poissons Ratio (x) = 0.03738 0.36904
# Poissons Ratio (y) = 0.11355 -0.21701
# Poissons Ratio (z) = 0.81592 -0.15796
#
# Static dielectric constant tensor:
#      x y z
#    x 1.781050 0.000000 0.036090 
#    y 0.000000 1.932200 0.000000 
#    z 0.036090 0.000000 1.736440 
# 
# From -- ./inp_files/280947.got.cif
#   From: 2010.05.17/outbox.cif.g08.bks.cpg/sg12_141_cif.got.tgz:280947.got - 2010.06.03 13:09:07.
