data_PCOD9195466
_publ_section_title
;
Structure prediction by ZEFSAII (Michael W. Deem and Ramdas Pophale) SiO2 
 PCOD9195466
Probable space group: C 2/M
;
_chemical_formula_sum "Si O2"
_cell_formula_units_Z 56
_cell_length_a 12.975906
_cell_length_b 27.315218
_cell_length_c 10.157829
_cell_angle_alpha 90.000000
_cell_angle_beta 56.270219
_cell_angle_gamma 90.000000
_cell_volume 2994.277212
_symmetry_space_group_name_H-M "C 2/M"
_symmetry_group_IT_number 12
_symmetry_cell_setting 'monoclinic'
loop_
_space_group_symop_operation_xyz
x,y,z
-x,y,-z
-x,-y,-z
x,-y,z
1/2+x,1/2+y,z
1/2-x,1/2+y,-z
1/2-x,1/2-y,-z
1/2+x,1/2-y,z
loop_
_atom_site_type_symbol
_atom_site_label
_atom_site_fract_x
_atom_site_fract_y
_atom_site_fract_z
Si Si1 0.857197 0.559017 0.065051
Si Si2 0.765252 0.121212 0.398183
Si Si3 0.298261 0.123481 0.858477
Si Si4 0.857182 0.058924 0.569782
Si Si5 0.538537 0.183786 0.619809
Si Si6 0.664060 0.716201 0.976303
Si Si7 0.886723 0.775708 0.272825
O O1 0.855135 0.500000 0.059613
O O2 0.750045 0.573869 0.247451
O O3 0.824537 0.582244 0.946728
O O4 0.000000 0.573471 0.000000
O O5 0.738429 0.107544 0.264235
O O6 0.820342 0.080483 0.454019
O O7 0.632582 0.138673 0.545470
O O8 0.849353 0.170477 0.348570
O O9 0.415191 0.161204 0.771778
O O10 0.187884 0.158958 0.980228
O O11 0.000000 0.073896 0.500000
O O12 0.855221 0.000000 0.567988
O O13 0.500000 0.198575 0.500000
O O14 0.610770 0.229327 0.633265
O O15 0.692111 0.729738 0.804666
O O16 0.750000 0.750000 0.000000
O O17 0.525456 0.724765 0.119458
#
# Coordination Sequence:
#
# PCOD9195466 Si02
#       7
#     8   8   8   8   8   8   8
#     4  10  22  41  65  92 118 149 197 250 296 356
#     4  10  22  38  57  85 116 153 195 240 292 351
#     4  10  21  37  60  85 117 152 194 241 291 348
#     4  10  23  43  62  87 122 154 192 247 305 355
#     4  10  20  37  56  82 118 152 188 242 291 337
#     4  10  20  35  54  78 112 151 192 241 285 328
#     4  10  21  36  53  80 114 151 197 235 279 344
#
# _framework density 18.702342000000002
#
# number of rings (size 3 to 8) (size 9 to 14) (size 15 to 20)
#    0.000    2.000    1.429    1.286    2.000    3.429 
#    0.000    0.000    0.000    7.714    0.000    0.000 
#    0.000    0.000    0.000    0.000    0.000    0.000 
#
# Total GULP energy -155988.436408 kJ/mol
# GULP energy per Si atom -5571.015586 kJ/mol
# Density = 1.865977 g / cm^3
# Si number density = 18.702342 Si / 1000 Ang^3
#
#
#
# Elastic Constant Matrix: (Units=GPa)
#
#
# Indices 1 2 3 4 5 6 
#
# 1 114.6450 39.0923 43.5592 0.0000 12.0866 0.0000
# 2 39.0923 31.6094 32.0866 0.0000 15.4923 0.0000
# 3 43.5592 32.0866 71.4568 0.0000 2.6998 0.0000
# 4 0.0000 0.0000 0.0000 20.3984 0.0000 12.2701
# 5 12.0866 15.4923 2.6998 0.0000 25.8499 0.0000
# 6 0.0000 0.0000 0.0000 12.2701 0.0000 35.7074
#
#
#
# Elastic Compliance Matrix: (Units=1/GPa)
#
#
# Indices 1 2 3 4 5 6 
#
# 1 0.015745 -0.023312 0.000623 0.000000 0.006544 0.000000
# 2 -0.023312 0.142256 -0.047044 0.000000 -0.069444 0.000000
# 3 0.000623 -0.047044 0.033818 0.000000 0.024371 0.000000
# 4 0.000000 0.000000 0.000000 0.061797 0.000000 -0.021235
# 5 0.006544 -0.069444 0.024371 0.000000 0.074699 0.000000
# 6 0.000000 0.000000 0.000000 -0.021235 0.000000 0.035302
#
#
# Mechanical properties :
#
#
# Convention : Reuss Voigt Hill
#
# Bulk Modulus (GPa) = 19.10082 49.68748 34.39415
# Shear Modulus (GPa) = 9.60549 23.25602 16.43075
#
# Velocity S-wave (km/s) = 2.26873 3.53013 2.96723
# Velocity P-wave (km/s) = 4.13498 6.57578 5.49268
#
# Compressibility (1/GPa) = 0.05235378
#
# Stress axis : x y z
#
# Youngs Moduli (GPa) = 63.51173 7.02956 29.56969
#
# Poissons Ratio (x) = 0.16387 -0.01841
# Poissons Ratio (y) = 1.48059 1.39107
# Poissons Ratio (z) = -0.03954 0.33070
#
# Static dielectric constant tensor:
#      x y z
#    x 1.090940 0.000000 -0.300640 
#    y 0.000000 1.622020 0.000000 
#    z -0.300640 0.000000 1.557290 
# 
# From -- ./inp_files/53269.got.cif
#   From: 2010.05.17/outbox.cif.g08.bks.cpg/sg12_27_cif.got.tgz:53269.got - 2010.06.03 13:09:07.
