data_PCOD9195957
_publ_section_title
;
Structure prediction by ZEFSAII (Michael W. Deem and Ramdas Pophale) SiO2 
 PCOD9195957
Probable space group: C 2/M
;
_chemical_formula_sum "Si O2"
_cell_formula_units_Z 52
_cell_length_a 22.523278
_cell_length_b 12.241142
_cell_length_c 22.670899
_cell_angle_alpha 90.000000
_cell_angle_beta 154.058565
_cell_angle_gamma 90.000000
_cell_volume 2734.342381
_symmetry_space_group_name_H-M "C 2/M"
_symmetry_group_IT_number 12
_symmetry_cell_setting 'monoclinic'
loop_
_space_group_symop_operation_xyz
x,y,z
-x,y,-z
-x,-y,-z
x,-y,z
1/2+x,1/2+y,z
1/2-x,1/2+y,-z
1/2-x,1/2-y,-z
1/2+x,1/2-y,z
loop_
_atom_site_type_symbol
_atom_site_label
_atom_site_fract_x
_atom_site_fract_y
_atom_site_fract_z
Si Si1 0.275118 0.624108 0.300407
Si Si2 0.196455 0.873605 0.968183
Si Si3 0.500000 0.203525 0.000000
Si Si4 0.885978 0.877440 0.649887
Si Si5 0.931507 0.319961 0.380201
Si Si6 0.338985 0.617592 0.924542
Si Si7 0.824868 0.228238 0.471450
O O1 0.319197 0.500000 0.334799
O O2 0.122817 0.637654 0.139066
O O3 0.371810 0.703184 0.348874
O O4 0.282264 0.663288 0.374606
O O5 0.042998 0.873329 0.807418
O O6 0.250723 0.000000 0.999588
O O7 0.250000 0.750000 0.000000
O O8 0.197597 0.873699 0.039860
O O9 0.566315 0.283829 0.010947
O O10 0.868987 0.844581 0.566422
O O11 0.799067 0.799057 0.614199
O O12 0.834795 0.000000 0.612668
O O13 0.799692 0.377958 0.236732
O O14 0.000000 0.369510 0.500000
O O15 0.047631 0.301570 0.435546
O O16 0.407331 0.500000 0.976470
#
# Coordination Sequence:
#
# PCOD9195957 Si02
#       7
#     8   8   4   8   8   8   8
#     4  10  20  35  56  79 106 141 177 221 275 328
#     4  10  21  39  60  84 114 148 189 234 280 332
#     4  10  20  36  54  80 110 136 178 224 270 326
#     4  10  21  36  56  80 109 146 183 225 276 328
#     4   9  20  35  53  80 109 137 176 223 267 324
#     4  10  20  35  56  79 108 144 180 222 274 328
#     4  10  20  36  55  79 110 139 180 223 267 327
#
# _framework density 19.017368999999999
#
# number of rings (size 3 to 8) (size 9 to 14) (size 15 to 20)
#    0.000    2.154    0.000    2.769    0.000    4.308 
#    0.000   20.000    0.000    0.000    0.000    0.000 
#    0.000    0.000    0.000    0.000    0.000    0.000 
#
# Total GULP energy -144894.192028 kJ/mol
# GULP energy per Si atom -5572.853540 kJ/mol
# Density = 1.897408 g / cm^3
# Si number density = 19.017369 Si / 1000 Ang^3
#
#
#
# Elastic Constant Matrix: (Units=GPa)
#
#
# Indices 1 2 3 4 5 6 
#
# 1 65.1802 29.7206 7.3494 0.0006 -6.5917 0.0001
# 2 29.7206 114.5184 8.1609 0.0017 -5.2929 0.0006
# 3 7.3494 8.1609 52.8218 0.0023 0.9918 0.0006
# 4 0.0006 0.0017 0.0023 33.2484 0.0003 -21.5392
# 5 -6.5917 -5.2929 0.9918 0.0003 23.0887 0.0000
# 6 0.0001 0.0006 0.0006 -21.5392 0.0000 23.1779
#
#
#
# Elastic Compliance Matrix: (Units=1/GPa)
#
#
# Indices 1 2 3 4 5 6 
#
# 1 0.017958 -0.004330 -0.001909 0.000000 0.004216 0.000000
# 2 -0.004330 0.009975 -0.000959 -0.000001 0.001092 -0.000001
# 3 -0.001909 -0.000959 0.019375 -0.000004 -0.001597 -0.000004
# 4 0.000000 -0.000001 -0.000004 0.075574 -0.000001 0.070231
# 5 0.004216 0.001092 -0.001597 -0.000001 0.044834 -0.000001
# 6 0.000000 -0.000001 -0.000004 0.070231 -0.000001 0.108410
#
#
# Mechanical properties :
#
#
# Convention : Reuss Voigt Hill
#
# Bulk Modulus (GPa) = 30.38346 35.88692 33.13519
# Shear Modulus (GPa) = 16.58418 28.38896 22.48657
#
# Velocity S-wave (km/s) = 2.95626 3.86786 3.44237
# Velocity P-wave (km/s) = 5.25966 6.23367 5.76726
#
# Compressibility (1/GPa) = 0.03291265
#
# Stress axis : x y z
#
# Youngs Moduli (GPa) = 55.68567 100.25363 51.61202
#
# Poissons Ratio (x) = 0.43407 0.09852
# Poissons Ratio (y) = 0.24110 0.04950
# Poissons Ratio (z) = 0.10629 0.09616
#
# Static dielectric constant tensor:
#      x y z
#    x 1.622530 0.000000 0.002210 
#    y 0.000000 1.688580 0.000000 
#    z 0.002210 0.000000 1.662740 
# 
# From -- ./inp_files/321580.got.cif
#   From: 2010.05.17/outbox.cif.g08.bks.cpg/sg12_161_cif.got.tgz:321580.got - 2010.06.03 13:09:07.
