data_PCOD9195671
_publ_section_title
;
Structure prediction by ZEFSAII (Michael W. Deem and Ramdas Pophale) SiO2 
 PCOD9195671
Probable space group: C 2/M
;
_chemical_formula_sum "Si O2"
_cell_formula_units_Z 56
_cell_length_a 19.138115
_cell_length_b 8.944357
_cell_length_c 19.035351
_cell_angle_alpha 90.000000
_cell_angle_beta 63.000818
_cell_angle_gamma 90.000000
_cell_volume 2903.308714
_symmetry_space_group_name_H-M "C 2/M"
_symmetry_group_IT_number 12
_symmetry_cell_setting 'monoclinic'
loop_
_space_group_symop_operation_xyz
x,y,z
-x,y,-z
-x,-y,-z
x,-y,z
1/2+x,1/2+y,z
1/2-x,1/2+y,-z
1/2-x,1/2-y,-z
1/2+x,1/2-y,z
loop_
_atom_site_type_symbol
_atom_site_label
_atom_site_fract_x
_atom_site_fract_y
_atom_site_fract_z
Si Si1 0.665275 0.677367 0.255043
Si Si2 0.927856 0.677597 0.818540
Si Si3 0.331194 0.175808 0.484337
Si Si4 0.172768 0.823610 0.771297
Si Si5 0.077408 0.823434 0.677445
Si Si6 0.923321 0.676043 0.579601
Si Si7 0.979899 0.320490 0.089133
O O1 0.665624 0.500000 0.253407
O O2 0.642877 0.741495 0.188790
O O3 0.748606 0.739410 0.242980
O O4 0.600071 0.734510 0.340630
O O5 0.918428 0.500000 0.816476
O O6 0.005299 0.732544 0.742124
O O7 0.948790 0.714955 0.889773
O O8 0.250000 0.250000 0.500000
O O9 0.397021 0.257492 0.408224
O O10 0.352242 0.190064 0.556476
O O11 0.330708 0.000000 0.467695
O O12 0.148660 0.804396 0.700568
O O13 0.097985 0.762147 0.848498
O O14 0.182939 0.000000 0.779046
O O15 0.059107 0.000000 0.682156
O O16 0.933480 0.500000 0.592945
O O17 0.000000 0.722010 0.500000
O O18 0.966777 0.500000 0.100007
O O19 0.000000 0.282840 0.000000
#
# Coordination Sequence:
#
# PCOD9195671 Si02
#       7
#     8   8   8   8   8   8   8
#     4  12  24  37  56  82 113 148 191 238 278 326
#     4  10  20  36  59  83 111 146 179 217 271 331
#     4  11  22  34  51  75 104 140 182 231 283 332
#     4  10  21  37  58  84 115 151 188 227 277 333
#     4  10  20  35  55  79 107 140 184 233 276 328
#     4  10  22  39  56  75 104 145 190 235 285 335
#     4   9  19  38  64  92 118 144 179 223 271 328
#
# _framework density 19.288339000000001
#
# number of rings (size 3 to 8) (size 9 to 14) (size 15 to 20)
#    0.000    1.714    0.000    4.714    0.000    8.571 
#    0.000    0.714    0.000    0.000    0.000    0.000 
#    0.000    0.000    0.000    0.000    0.000    0.000 
#
# Total GULP energy -156475.380490 kJ/mol
# GULP energy per Si atom -5588.406446 kJ/mol
# Density = 1.924444 g / cm^3
# Si number density = 19.288339 Si / 1000 Ang^3
#
#
#
# Elastic Constant Matrix: (Units=GPa)
#
#
# Indices 1 2 3 4 5 6 
#
# 1 94.3730 47.9093 19.3672 0.0000 16.6276 0.0000
# 2 47.9093 95.6101 42.7598 0.0000 18.5104 -0.0001
# 3 19.3672 42.7598 83.2341 0.0000 23.2978 0.0000
# 4 0.0000 0.0000 0.0000 21.5733 0.0000 0.5403
# 5 16.6276 18.5104 23.2978 0.0000 23.2913 0.0000
# 6 0.0000 -0.0001 0.0000 0.5403 0.0000 32.0987
#
#
#
# Elastic Compliance Matrix: (Units=1/GPa)
#
#
# Indices 1 2 3 4 5 6 
#
# 1 0.015036 -0.007104 0.002188 0.000000 -0.007277 0.000000
# 2 -0.007104 0.017423 -0.006724 0.000000 -0.002049 0.000000
# 3 0.002188 -0.006724 0.019307 0.000000 -0.015530 0.000000
# 4 0.000000 0.000000 0.000000 0.046373 0.000000 -0.000781
# 5 -0.007277 -0.002049 -0.015530 0.000000 0.065292 0.000000
# 6 0.000000 0.000000 0.000000 -0.000781 0.000000 0.031167
#
#
# Mechanical properties :
#
#
# Convention : Reuss Voigt Hill
#
# Bulk Modulus (GPa) = 35.10693 54.81001 44.95847
# Shear Modulus (GPa) = 21.99034 26.27137 24.13086
#
# Velocity S-wave (km/s) = 3.38018 3.69458 3.54087
# Velocity P-wave (km/s) = 5.78574 6.83211 6.33058
#
# Compressibility (1/GPa) = 0.02848441
#
# Stress axis : x y z
#
# Youngs Moduli (GPa) = 66.50834 57.39618 51.79589
#
# Poissons Ratio (x) = 0.40774 -0.11331
# Poissons Ratio (y) = 0.47247 0.34828
# Poissons Ratio (z) = -0.14550 0.38594
#
# Static dielectric constant tensor:
#      x y z
#    x 1.699300 0.000000 0.028020 
#    y 0.000000 1.639330 0.000000 
#    z 0.028020 0.000000 1.645080 
# 
# From -- ./inp_files/275047.got.cif
#   From: 2010.05.17/outbox.cif.g08.bks.cpg/sg12_138_cif.got.tgz:275047.got - 2010.06.03 13:09:07.
