data_PCOD9195653
_publ_section_title
;
Structure prediction by ZEFSAII (Michael W. Deem and Ramdas Pophale) SiO2 
 PCOD9195653
Probable space group: C 2/M
;
_chemical_formula_sum "Si O2"
_cell_formula_units_Z 64
_cell_length_a 25.648093
_cell_length_b 8.629956
_cell_length_c 14.823681
_cell_angle_alpha 90.000000
_cell_angle_beta 90.022201
_cell_angle_gamma 90.000000
_cell_volume 3281.101680
_symmetry_space_group_name_H-M "C 2/M"
_symmetry_group_IT_number 12
_symmetry_cell_setting 'monoclinic'
loop_
_space_group_symop_operation_xyz
x,y,z
-x,y,-z
-x,-y,-z
x,-y,z
1/2+x,1/2+y,z
1/2-x,1/2+y,-z
1/2-x,1/2-y,-z
1/2+x,1/2-y,z
loop_
_atom_site_type_symbol
_atom_site_label
_atom_site_fract_x
_atom_site_fract_y
_atom_site_fract_z
Si Si1 0.306357 0.687122 0.030733
Si Si2 0.056792 0.687017 0.679678
Si Si3 0.804879 0.178297 0.527062
Si Si4 0.338827 0.684008 0.231429
Si Si5 0.734368 0.320958 0.276529
Si Si6 0.557394 0.187527 0.283896
Si Si7 0.085659 0.315755 0.485677
Si Si8 0.643925 0.687014 0.149886
O O1 0.302475 0.500000 0.032288
O O2 0.349151 0.729468 0.954665
O O3 0.250000 0.750000 0.000000
O O4 0.324315 0.739142 0.129985
O O5 0.058487 0.500000 0.677348
O O6 0.108731 0.744914 0.728348
O O7 0.055602 0.741178 0.574707
O O8 0.003078 0.732294 0.728098
O O9 0.750000 0.250000 0.500000
O O10 0.801706 0.181397 0.635543
O O11 0.853977 0.276919 0.496109
O O12 0.809839 0.000000 0.497355
O O13 0.344824 0.500000 0.229769
O O14 0.287601 0.728487 0.288617
O O15 0.748640 0.500000 0.258705
O O16 0.697871 0.259142 0.197036
O O17 0.572438 0.243373 0.385399
O O18 0.595785 0.249402 0.207084
O O19 0.561217 0.000000 0.283582
O O20 0.077337 0.500000 0.481632
O O21 0.642967 0.500000 0.157010
#
# Coordination Sequence:
#
# PCOD9195653 Si02
#       8
#     8   8   8   8   8   8   8   8
#     4  10  21  37  59  86 115 147 185 228 281 340
#     4  10  22  40  59  81 113 154 191 229 284 339
#     4  11  22  34  49  76 113 150 187 225 274 334
#     4  11  23  37  57  87 116 145 188 238 281 330
#     4  10  20  35  55  78 111 151 184 221 279 340
#     4  10  21  38  61  86 112 146 194 241 276 324
#     4  10  20  36  58  82 110 146 190 235 278 328
#     4  10  20  37  59  84 113 146 183 227 283 339
#
# _framework density 19.505642999999999
#
# number of rings (size 3 to 8) (size 9 to 14) (size 15 to 20)
#    0.000    1.750    2.500    1.875    0.000    8.000 
#    0.000    0.625    0.000    6.000    0.000    0.000 
#    0.000    0.000    0.000    0.000    0.000    0.000 
#
# Total GULP energy -178615.425330 kJ/mol
# GULP energy per Si atom -5581.732042 kJ/mol
# Density = 1.946125 g / cm^3
# Si number density = 19.505643 Si / 1000 Ang^3
#
#
#
# Elastic Constant Matrix: (Units=GPa)
#
#
# Indices 1 2 3 4 5 6 
#
# 1 122.6663 11.3522 38.4210 0.0000 -19.6642 0.0000
# 2 11.3522 7.8472 17.6776 0.0000 -3.1794 0.0000
# 3 38.4210 17.6776 84.4179 0.0000 -16.1301 0.0000
# 4 0.0000 0.0000 0.0000 23.7033 0.0000 -2.7300
# 5 -19.6642 -3.1794 -16.1301 0.0000 27.6943 0.0000
# 6 0.0000 0.0000 0.0000 -2.7300 0.0000 27.2132
#
#
#
# Elastic Compliance Matrix: (Units=1/GPa)
#
#
# Indices 1 2 3 4 5 6 
#
# 1 0.010394 -0.008543 -0.001934 0.000000 0.005273 0.000000
# 2 -0.008543 0.248347 -0.049317 0.000000 -0.006278 0.000000
# 3 -0.001934 -0.049317 0.024428 0.000000 0.007192 0.000000
# 4 0.000000 0.000000 0.000000 0.042681 0.000000 0.004282
# 5 0.005273 -0.006278 0.007192 0.000000 0.043321 0.000000
# 6 0.000000 0.000000 0.000000 0.004282 0.000000 0.037176
#
#
# Mechanical properties :
#
#
# Convention : Reuss Voigt Hill
#
# Bulk Modulus (GPa) = 6.11320 38.87034 22.49177
# Shear Modulus (GPa) = 8.61385 25.55423 17.08404
#
# Velocity S-wave (km/s) = 2.10373 3.62345 2.96269
# Velocity P-wave (km/s) = 3.00695 6.12183 4.82279
#
# Compressibility (1/GPa) = 0.16358034
#
# Stress axis : x y z
#
# Youngs Moduli (GPa) = 96.21055 4.02663 40.93736
#
# Poissons Ratio (x) = 0.03440 0.07918
# Poissons Ratio (y) = 0.82194 2.01890
# Poissons Ratio (z) = 0.18608 0.19858
#
# Static dielectric constant tensor:
#      x y z
#    x 1.679410 0.000000 -0.025310 
#    y 0.000000 1.676290 0.000000 
#    z -0.025310 0.000000 1.765860 
# 
# From -- ./inp_files/238682.got.cif
#   From: 2010.05.17/outbox.cif.g08.bks.cpg/sg12_120_cif.got.tgz:238682.got - 2010.06.03 13:09:07.
