data_PCOD9195211
_publ_section_title
;
Structure prediction by ZEFSAII (Michael W. Deem and Ramdas Pophale) SiO2 
 PCOD9195211
Probable space group: C 2/M
;
_chemical_formula_sum "Si O2"
_cell_formula_units_Z 40
_cell_length_a 7.945100
_cell_length_b 31.361389
_cell_length_c 7.047080
_cell_angle_alpha 90.000000
_cell_angle_beta 102.129038
_cell_angle_gamma 90.000000
_cell_volume 1716.718952
_symmetry_space_group_name_H-M "C 2/M"
_symmetry_group_IT_number 12
_symmetry_cell_setting 'monoclinic'
loop_
_space_group_symop_operation_xyz
x,y,z
-x,y,-z
-x,-y,-z
x,-y,z
1/2+x,1/2+y,z
1/2-x,1/2+y,-z
1/2-x,1/2-y,-z
1/2+x,1/2-y,z
loop_
_atom_site_type_symbol
_atom_site_label
_atom_site_fract_x
_atom_site_fract_y
_atom_site_fract_z
Si Si1 0.735861 0.546039 0.781342
Si Si2 0.045200 0.868995 0.779520
Si Si3 0.702231 0.299084 0.993290
Si Si4 0.625219 0.953262 0.753787
Si Si5 0.324890 0.143330 0.349687
O O1 0.652420 0.500000 0.726682
O O2 0.618066 0.586689 0.721954
O O3 0.917467 0.548012 0.715363
O O4 0.796823 0.546991 0.015473
O O5 0.874492 0.852065 0.635641
O O6 0.190032 0.831954 0.814363
O O7 0.000000 0.877308 0.000000
O O8 0.820984 0.325207 0.167404
O O9 0.500000 0.297031 0.000000
O O10 0.750000 0.250000 0.000000
O O11 0.675525 0.907660 0.685203
O O12 0.675011 0.000000 0.685035
O O13 0.500000 0.153030 0.500000
#
# Coordination Sequence:
#
# PCOD9195211 Si02
#       5
#     8   8   8   8   8
#     4   9  16  28  49  76 104 133 178 220 241 283
#     4   9  17  32  49  75 101 130 173 211 248 297
#     4   9  19  35  54  76  96 127 168 211 254 306
#     4   9  17  29  48  77 107 137 173 211 249 293
#     4  10  20  35  52  75 107 136 167 210 256 305
#
# _framework density 23.300260999999999
#
# number of rings (size 3 to 8) (size 9 to 14) (size 15 to 20)
#    0.000    3.200    4.000    1.200    0.000    3.200 
#    0.000    5.000    0.000    2.400    0.000    0.000 
#    0.000    0.000    0.000    0.000    0.000    0.000 
#
# Total GULP energy -111399.454955 kJ/mol
# GULP energy per Si atom -5569.972748 kJ/mol
# Density = 2.324723 g / cm^3
# Si number density = 23.300261 Si / 1000 Ang^3
#
#
#
# Elastic Constant Matrix: (Units=GPa)
#
#
# Indices 1 2 3 4 5 6 
#
# 1 36.5450 27.5240 34.5024 0.0000 22.1160 0.0000
# 2 27.5240 218.6256 73.9152 0.0000 20.6509 0.0000
# 3 34.5024 73.9152 152.7601 0.0000 36.6355 0.0000
# 4 0.0000 0.0000 0.0000 19.3496 0.0000 15.9388
# 5 22.1160 20.6509 36.6355 0.0000 35.8490 0.0000
# 6 0.0000 0.0000 0.0000 15.9388 0.0000 39.6832
#
#
#
# Elastic Compliance Matrix: (Units=1/GPa)
#
#
# Indices 1 2 3 4 5 6 
#
# 1 0.047179 -0.002412 -0.003764 0.000000 -0.023869 0.000000
# 2 -0.002412 0.005601 -0.002316 0.000000 0.000629 0.000000
# 3 -0.003764 -0.002316 0.010121 0.000000 -0.006686 0.000000
# 4 0.000000 0.000000 0.000000 0.077234 0.000000 -0.031021
# 5 -0.023869 0.000629 -0.006686 0.000000 0.049091 0.000000
# 6 0.000000 0.000000 0.000000 -0.031021 0.000000 0.037659
#
#
# Mechanical properties :
#
#
# Convention : Reuss Voigt Hill
#
# Bulk Modulus (GPa) = 21.77897 75.53488 48.65693
# Shear Modulus (GPa) = 19.29190 37.10899 28.20044
#
# Velocity S-wave (km/s) = 2.88057 3.99512 3.48272
# Velocity P-wave (km/s) = 4.52006 7.33279 6.09101
#
# Compressibility (1/GPa) = 0.04591585
#
# Stress axis : x y z
#
# Youngs Moduli (GPa) = 21.19573 178.52488 98.80787
#
# Poissons Ratio (x) = 0.43067 0.37193
# Poissons Ratio (y) = 0.05113 0.22886
# Poissons Ratio (z) = 0.07978 0.41351
#
# Static dielectric constant tensor:
#      x y z
#    x 1.978370 0.000000 -0.100540 
#    y 0.000000 1.900770 0.000000 
#    z -0.100540 0.000000 1.998680 
# 
# From -- ./inp_files/123948.got.cif
#   From: 2010.05.17/outbox.cif.g08.bks.cpg/sg12_62_cif.got.tgz:123948.got - 2010.06.03 13:09:07.
