data_PCOD9195644
_publ_section_title
;
Structure prediction by ZEFSAII (Michael W. Deem and Ramdas Pophale) SiO2 
 PCOD9195644
Probable space group: C 2/M
;
_chemical_formula_sum "Si O2"
_cell_formula_units_Z 56
_cell_length_a 19.695948
_cell_length_b 8.979532
_cell_length_c 24.865882
_cell_angle_alpha 90.000000
_cell_angle_beta 132.788684
_cell_angle_gamma 90.000000
_cell_volume 3227.379735
_symmetry_space_group_name_H-M "C 2/M"
_symmetry_group_IT_number 12
_symmetry_cell_setting 'monoclinic'
loop_
_space_group_symop_operation_xyz
x,y,z
-x,y,-z
-x,-y,-z
x,-y,z
1/2+x,1/2+y,z
1/2-x,1/2+y,-z
1/2-x,1/2-y,-z
1/2+x,1/2-y,z
loop_
_atom_site_type_symbol
_atom_site_label
_atom_site_fract_x
_atom_site_fract_y
_atom_site_fract_z
Si Si1 0.702794 0.176966 0.740069
Si Si2 0.945362 0.676702 0.054185
Si Si3 0.803221 0.678174 0.697102
Si Si4 0.644525 0.177173 0.104345
Si Si5 0.188286 0.322134 0.421035
Si Si6 0.476933 0.178782 0.290502
Si Si7 0.005655 0.177326 0.812724
O O1 0.730237 0.260761 0.700372
O O2 0.775792 0.230720 0.824262
O O3 0.600945 0.211131 0.707557
O O4 0.711011 0.000000 0.736568
O O5 0.937071 0.500000 0.060335
O O6 0.047948 0.700495 0.084226
O O7 0.938213 0.766697 0.105259
O O8 0.875019 0.716102 0.968323
O O9 0.813690 0.500000 0.707961
O O10 0.779272 0.713388 0.622299
O O11 0.902490 0.753169 0.762263
O O12 0.664605 0.000000 0.118239
O O13 0.191866 0.500000 0.429064
O O14 0.250000 0.250000 0.500000
O O15 0.080071 0.277324 0.364610
O O16 0.456491 0.259672 0.223222
O O17 0.478198 0.000000 0.281410
O O18 0.000501 0.000000 0.808782
#
# Coordination Sequence:
#
# PCOD9195644 Si02
#       7
#     8   8   8   8   8   8   8
#     4  11  21  34  54  81 108 138 180 223 262 308
#     4   9  17  31  50  73 103 142 180 218 270 320
#     4  10  20  35  55  78 109 145 174 208 263 319
#     4   9  18  31  50  74 104 143 179 216 269 321
#     4   9  19  37  60  82 105 137 173 211 256 309
#     4   9  21  39  55  75 110 147 172 208 269 324
#     4  11  20  31  52  81 104 133 184 232 262 304
#
# _framework density 17.351535999999999
#
# number of rings (size 3 to 8) (size 9 to 14) (size 15 to 20)
#    0.000    2.286    1.429    3.857    0.000    4.571 
#    0.000    2.857    0.000    4.286    0.000    0.000 
#    0.000    0.000    0.000    0.000    0.000    0.000 
#
# Total GULP energy -156241.583188 kJ/mol
# GULP energy per Si atom -5580.056542 kJ/mol
# Density = 1.731204 g / cm^3
# Si number density = 17.351536 Si / 1000 Ang^3
#
#
#
# Elastic Constant Matrix: (Units=GPa)
#
#
# Indices 1 2 3 4 5 6 
#
# 1 112.9404 55.0066 56.1754 0.0000 -13.4702 0.0000
# 2 55.0066 57.6914 47.4047 0.0000 -11.1725 0.0000
# 3 56.1754 47.4047 114.8625 0.0000 -20.8509 0.0000
# 4 0.0000 0.0000 0.0000 32.0293 0.0000 -4.2525
# 5 -13.4702 -11.1725 -20.8509 0.0000 18.0233 0.0000
# 6 0.0000 0.0000 0.0000 -4.2525 0.0000 24.8091
#
#
#
# Elastic Compliance Matrix: (Units=1/GPa)
#
#
# Indices 1 2 3 4 5 6 
#
# 1 0.017002 -0.014099 -0.002249 0.000000 0.001366 0.000000
# 2 -0.014099 0.038242 -0.008224 0.000000 0.003654 0.000000
# 3 -0.002249 -0.008224 0.015151 0.000000 0.010750 0.000000
# 4 0.000000 0.000000 0.000000 0.031949 0.000000 0.005476
# 5 0.001366 0.003654 0.010750 0.000000 0.071206 0.000000
# 6 0.000000 0.000000 0.000000 0.005476 0.000000 0.041246
#
#
# Mechanical properties :
#
#
# Convention : Reuss Voigt Hill
#
# Bulk Modulus (GPa) = 47.05367 66.96307 57.00837
# Shear Modulus (GPa) = 18.44861 23.43285 20.94073
#
# Velocity S-wave (km/s) = 3.26425 3.67887 3.47775
# Velocity P-wave (km/s) = 6.43303 7.53135 7.00375
#
# Compressibility (1/GPa) = 0.02125233
#
# Stress axis : x y z
#
# Youngs Moduli (GPa) = 58.81566 26.14948 66.00113
#
# Poissons Ratio (x) = 0.36868 0.14841
# Poissons Ratio (y) = 0.82923 0.54279
# Poissons Ratio (z) = 0.13225 0.21505
#
# Static dielectric constant tensor:
#      x y z
#    x 1.591180 0.000000 -0.008910 
#    y 0.000000 1.577940 0.000000 
#    z -0.008910 0.000000 1.577240 
# 
# From -- ./inp_files/280426.got.cif
#   From: 2010.05.17/outbox.cif.g08.bks.cpg/sg12_141_cif.got.tgz:280426.got - 2010.06.03 13:09:07.
