data_PCOD9195932
_publ_section_title
;
Structure prediction by ZEFSAII (Michael W. Deem and Ramdas Pophale) SiO2 
 PCOD9195932
Probable space group: C 2/M
;
_chemical_formula_sum "Si O2"
_cell_formula_units_Z 48
_cell_length_a 10.710887
_cell_length_b 21.940231
_cell_length_c 9.734246
_cell_angle_alpha 90.000000
_cell_angle_beta 102.116688
_cell_angle_gamma 90.000000
_cell_volume 2236.579815
_symmetry_space_group_name_H-M "C 2/M"
_symmetry_group_IT_number 12
_symmetry_cell_setting 'monoclinic'
loop_
_space_group_symop_operation_xyz
x,y,z
-x,y,-z
-x,-y,-z
x,-y,z
1/2+x,1/2+y,z
1/2-x,1/2+y,-z
1/2-x,1/2-y,-z
1/2+x,1/2-y,z
loop_
_atom_site_type_symbol
_atom_site_label
_atom_site_fract_x
_atom_site_fract_y
_atom_site_fract_z
Si Si1 0.428081 0.928800 0.179016
Si Si2 0.741131 0.133119 0.627942
Si Si3 0.474624 0.362634 0.331348
Si Si4 0.777409 0.572505 0.673957
Si Si5 0.191049 0.247480 0.758043
Si Si6 0.641007 0.177790 0.017245
O O1 0.356560 0.902753 0.296839
O O2 0.580205 0.918925 0.231876
O O3 0.371789 0.891290 0.037884
O O4 0.405053 0.000000 0.157794
O O5 0.723512 0.109947 0.469279
O O6 0.716273 0.205633 0.641289
O O7 0.889301 0.121697 0.704349
O O8 0.500000 0.366065 0.500000
O O9 0.352276 0.406134 0.276955
O O10 0.435255 0.292946 0.288753
O O11 0.764915 0.500000 0.643874
O O12 0.195640 0.289873 0.893943
O O13 0.292394 0.196042 0.825819
O O14 0.500000 0.203240 0.000000
#
# Coordination Sequence:
#
# PCOD9195932 Si02
#       6
#     8   8   8   8   8   8
#     4  10  21  37  59  86 113 148 193 236 283 337
#     4  10  21  36  59  85 115 153 189 232 284 339
#     4  10  22  36  56  84 114 150 188 230 286 342
#     4  10  21  37  58  86 119 152 187 231 284 339
#     4  10  21  36  54  81 113 148 192 236 285 337
#     4  10  20  35  56  77 108 150 189 237 285 329
#
# _framework density 21.46134
#
# number of rings (size 3 to 8) (size 9 to 14) (size 15 to 20)
#    0.000    2.000    0.000    3.000    0.000   12.000 
#    0.000    0.833    0.000    1.000    0.000    0.000 
#    0.000    0.000    0.000    0.000    0.000    0.000 
#
# Total GULP energy -133795.382687 kJ/mol
# GULP energy per Si atom -5574.807612 kJ/mol
# Density = 2.141249 g / cm^3
# Si number density = 21.461340 Si / 1000 Ang^3
#
#
#
# Elastic Constant Matrix: (Units=GPa)
#
#
# Indices 1 2 3 4 5 6 
#
# 1 92.3223 36.5171 23.1983 0.0000 13.7813 0.0000
# 2 36.5171 129.6900 40.3548 0.0000 15.6142 0.0000
# 3 23.1983 40.3548 43.2563 0.0000 5.1275 0.0000
# 4 0.0000 0.0000 0.0000 -151.8427 0.0000 13.2904
# 5 13.7813 15.6142 5.1275 0.0000 28.6652 0.0000
# 6 0.0000 0.0000 0.0000 13.2904 0.0000 30.6558
#
#
#
# Elastic Compliance Matrix: (Units=1/GPa)
#
#
# Indices 1 2 3 4 5 6 
#
# 1 0.013466 -0.001627 -0.005151 0.000000 -0.004666 0.000000
# 2 -0.001627 0.011578 -0.009475 0.000000 -0.003830 0.000000
# 3 -0.005151 -0.009475 0.034547 0.000000 0.001458 0.000000
# 4 0.000000 0.000000 0.000000 -0.006345 0.000000 0.002751
# 5 -0.004666 -0.003830 0.001458 0.000000 0.038954 0.000000
# 6 0.000000 0.000000 0.000000 0.002751 0.000000 0.031428
#
#
# Mechanical properties :
#
#
# Convention : Reuss Voigt Hill
#
# Bulk Modulus (GPa) = 36.92001 51.71213 44.31607
# Shear Modulus (GPa) = 30.27326 -7.49110 11.39108
#
# Velocity S-wave (km/s) = 3.75986 -1.87032 2.30635
# Velocity P-wave (km/s) = 6.00742 4.41403 5.27128
#
# Compressibility (1/GPa) = 0.02708558
#
# Stress axis : x y z
#
# Youngs Moduli (GPa) = 74.26097 86.36920 28.94609
#
# Poissons Ratio (x) = 0.14053 0.14909
# Poissons Ratio (y) = 0.12083 0.27426
# Poissons Ratio (z) = 0.38249 0.81835
#
# Static dielectric constant tensor:
#      x y z
#    x 1.821570 0.000000 -0.007150 
#    y 0.000000 1.839510 0.000000 
#    z -0.007150 0.000000 1.837970 
# 
# From -- ./inp_files/132682.got.cif
#   From: 2010.05.17/outbox.cif.g08.bks.cpg/sg12_67_cif.got.tgz:132682.got - 2010.06.03 13:09:07.
