data_PCOD9195895
_publ_section_title
;
Structure prediction by ZEFSAII (Michael W. Deem and Ramdas Pophale) SiO2 
 PCOD9195895
Probable space group: C 2/M
;
_chemical_formula_sum "Si O2"
_cell_formula_units_Z 56
_cell_length_a 23.828170
_cell_length_b 15.848679
_cell_length_c 7.827903
_cell_angle_alpha 90.000000
_cell_angle_beta 53.604222
_cell_angle_gamma 90.000000
_cell_volume 2379.531002
_symmetry_space_group_name_H-M "C 2/M"
_symmetry_group_IT_number 12
_symmetry_cell_setting 'monoclinic'
loop_
_space_group_symop_operation_xyz
x,y,z
-x,y,-z
-x,-y,-z
x,-y,z
1/2+x,1/2+y,z
1/2-x,1/2+y,-z
1/2-x,1/2-y,-z
1/2+x,1/2-y,z
loop_
_atom_site_type_symbol
_atom_site_label
_atom_site_fract_x
_atom_site_fract_y
_atom_site_fract_z
Si Si1 0.421128 0.594373 0.617998
Si Si2 0.327350 0.741572 0.794052
Si Si3 0.614858 0.226969 0.671035
Si Si4 0.279138 0.092774 0.375687
Si Si5 0.008933 0.403980 0.691781
Si Si6 0.115177 0.093061 0.718501
Si Si7 0.141738 0.591507 0.086496
O O1 0.500000 0.624997 0.500000
O O2 0.414604 0.500000 0.701587
O O3 0.367483 0.660629 0.793888
O O4 0.407740 0.588223 0.439060
O O5 0.339451 0.738671 0.571212
O O6 0.360780 0.829633 0.788132
O O7 0.250000 0.750000 0.000000
O O8 0.670854 0.167649 0.660439
O O9 0.553407 0.168613 0.703506
O O10 0.591210 0.311958 0.814855
O O11 0.199463 0.097155 0.577130
O O12 0.305561 0.000000 0.383936
O O13 0.288758 0.093317 0.153163
O O14 0.034822 0.500000 0.676616
O O15 0.000000 0.394587 0.500000
O O16 0.928393 0.402434 0.900087
O O17 0.093964 0.000000 0.831382
O O18 0.139575 0.500000 0.177257
#
# Coordination Sequence:
#
# PCOD9195895 Si02
#       7
#     8   8   8   8   8   8   8
#     4   9  19  36  60  86 114 152 202 252 292 346
#     4  11  23  35  57  91 121 152 194 246 302 358
#     4  11  21  34  60  82 114 150 201 241 276 348
#     4  10  21  38  57  84 117 155 196 235 287 354
#     4  10  20  35  55  85 117 151 189 235 292 347
#     4   9  19  34  54  80 111 146 187 236 294 341
#     4  10  21  36  56  80 122 158 183 233 300 354
#
# _framework density 23.534047999999999
#
# number of rings (size 3 to 8) (size 9 to 14) (size 15 to 20)
#    0.000    2.000    1.429    2.571    4.000    2.857 
#    0.000    2.143    0.000    0.857    0.000    1.000 
#    0.000    0.429    0.000    0.000    0.000    0.000 
#
# Total GULP energy -156167.034550 kJ/mol
# GULP energy per Si atom -5577.394091 kJ/mol
# Density = 2.348048 g / cm^3
# Si number density = 23.534048 Si / 1000 Ang^3
#
#
#
# Elastic Constant Matrix: (Units=GPa)
#
#
# Indices 1 2 3 4 5 6 
#
# 1 69.4631 56.6253 2.3272 0.0000 -16.1398 0.0000
# 2 56.6253 196.4228 3.6298 0.0000 -13.2069 0.0000
# 3 2.3272 3.6298 33.1136 0.0000 -19.8233 0.0000
# 4 0.0000 0.0000 0.0000 22.9902 0.0000 -3.8278
# 5 -16.1398 -13.2069 -19.8233 0.0000 28.3059 0.0000
# 6 0.0000 0.0000 0.0000 -3.8278 0.0000 38.7208
#
#
#
# Elastic Compliance Matrix: (Units=1/GPa)
#
#
# Indices 1 2 3 4 5 6 
#
# 1 0.022411 -0.005522 0.008847 0.000000 0.016398 0.000000
# 2 -0.005522 0.006662 -0.000631 0.000000 -0.000482 0.000000
# 3 0.008847 -0.000631 0.055945 0.000000 0.043930 0.000000
# 4 0.000000 0.000000 0.000000 0.044225 0.000000 0.004372
# 5 0.016398 -0.000482 0.043930 0.000000 0.075219 0.000000
# 6 0.000000 0.000000 0.000000 0.004372 0.000000 0.026258
#
#
# Mechanical properties :
#
#
# Convention : Reuss Voigt Hill
#
# Bulk Modulus (GPa) = 11.06107 47.12934 29.09520
# Shear Modulus (GPa) = 19.57209 33.76452 26.66831
#
# Velocity S-wave (km/s) = 2.88696 3.79187 3.36993
# Velocity P-wave (km/s) = 3.97781 6.26422 5.24707
#
# Compressibility (1/GPa) = 0.09040721
#
# Stress axis : x y z
#
# Youngs Moduli (GPa) = 44.62106 150.10245 17.87475
#
# Poissons Ratio (x) = 0.82881 -0.15813
# Poissons Ratio (y) = 0.24638 0.01127
# Poissons Ratio (z) = -0.39475 0.09464
#
# Static dielectric constant tensor:
#      x y z
#    x 1.906840 0.000000 0.014640 
#    y 0.000000 2.005040 0.000000 
#    z 0.014640 0.000000 1.938660 
# 
# From -- ./inp_files/96781.got.cif
#   From: 2010.05.17/outbox.cif.g08.bks.cpg/sg12_49_cif.got.tgz:96781.got - 2010.06.03 13:09:07.
