data_PCOD9195561
_publ_section_title
;
Structure prediction by ZEFSAII (Michael W. Deem and Ramdas Pophale) SiO2 
 PCOD9195561
Probable space group: C 2/M
;
_chemical_formula_sum "Si O2"
_cell_formula_units_Z 48
_cell_length_a 18.453013
_cell_length_b 7.484256
_cell_length_c 27.994583
_cell_angle_alpha 90.000000
_cell_angle_beta 144.774928
_cell_angle_gamma 90.000000
_cell_volume 2230.013655
_symmetry_space_group_name_H-M "C 2/M"
_symmetry_group_IT_number 12
_symmetry_cell_setting 'monoclinic'
loop_
_space_group_symop_operation_xyz
x,y,z
-x,y,-z
-x,-y,-z
x,-y,z
1/2+x,1/2+y,z
1/2-x,1/2+y,-z
1/2-x,1/2-y,-z
1/2+x,1/2-y,z
loop_
_atom_site_type_symbol
_atom_site_label
_atom_site_fract_x
_atom_site_fract_y
_atom_site_fract_z
Si Si1 0.049429 0.210711 0.911833
Si Si2 0.209736 0.716323 0.904574
Si Si3 0.638486 0.792120 0.582421
Si Si4 0.805912 0.287686 0.582189
Si Si5 0.767817 0.780880 0.748154
Si Si6 0.906851 0.718217 0.258050
O O1 0.112128 0.232086 0.893513
O O2 0.908665 0.283290 0.835190
O O3 0.038837 0.000000 0.916382
O O4 0.153034 0.282556 0.004808
O O5 0.213923 0.500000 0.906129
O O6 0.162080 0.776636 0.827482
O O7 0.500000 0.712290 0.500000
O O8 0.718049 0.784167 0.576889
O O9 0.717098 0.718625 0.669438
O O10 0.617759 0.000000 0.583860
O O11 0.809346 0.500000 0.590592
O O12 0.750000 0.250000 0.500000
O O13 0.948963 0.220895 0.662886
O O14 0.670900 0.728152 0.737218
O O15 0.773415 0.000000 0.750512
O O16 0.908507 0.500000 0.258743
#
# Coordination Sequence:
#
# PCOD9195561 Si02
#       6
#     8   8   8   8   8   8
#     4   9  17  29  48  73  98 127 163 203 245 289
#     4   9  17  30  49  72  98 128 162 201 245 292
#     4  10  20  35  55  76 101 135 170 205 250 300
#     4  11  22  36  55  77 102 132 167 207 251 299
#     4   9  17  30  49  73 100 129 165 206 245 290
#     4   9  18  32  50  73 100 130 164 203 247 293
#
# _framework density 21.524533000000002
#
# number of rings (size 3 to 8) (size 9 to 14) (size 15 to 20)
#    0.000    2.500    0.000    2.500    0.000    3.667 
#    0.000    4.167    0.000    4.000    0.000    4.667 
#    0.000    0.000    0.000    0.000    0.000    0.000 
#
# Total GULP energy -134056.635292 kJ/mol
# GULP energy per Si atom -5585.693137 kJ/mol
# Density = 2.147554 g / cm^3
# Si number density = 21.524533 Si / 1000 Ang^3
#
#
#
# Elastic Constant Matrix: (Units=GPa)
#
#
# Indices 1 2 3 4 5 6 
#
# 1 130.7493 -22.3503 119.0783 0.0000 7.9919 -0.0002
# 2 -22.3503 57.8521 -2.2834 0.0001 6.3688 -0.0005
# 3 119.0783 -2.2834 216.9406 0.0000 11.2204 0.0001
# 4 0.0000 0.0001 0.0000 0.0573 0.0000 -2.0653
# 5 7.9919 6.3688 11.2204 0.0000 44.7804 0.0001
# 6 -0.0002 -0.0005 0.0001 -2.0653 0.0001 19.1137
#
#
#
# Elastic Compliance Matrix: (Units=1/GPa)
#
#
# Indices 1 2 3 4 5 6 
#
# 1 0.017457 0.006558 -0.009426 0.000004 -0.001686 0.000001
# 2 0.006558 0.020046 -0.003222 0.000008 -0.003214 0.000001
# 3 -0.009426 -0.003222 0.009765 -0.000002 -0.000306 0.000000
# 4 0.000004 0.000008 -0.000002 -6.028645 0.000000 -0.651430
# 5 -0.001686 -0.003214 -0.000306 0.000000 0.023166 0.000000
# 6 0.000001 0.000001 0.000000 -0.651430 0.000000 -0.018072
#
#
# Mechanical properties :
#
#
# Convention : Reuss Voigt Hill
#
# Bulk Modulus (GPa) = 28.50073 66.04792 47.27433
# Shear Modulus (GPa) = -0.84000 33.53012 16.34506
#
# Velocity S-wave (km/s) = -0.62538 3.95113 2.75865
# Velocity P-wave (km/s) = 3.57048 7.18100 5.67076
#
# Compressibility (1/GPa) = 0.03508682
#
# Stress axis : x y z
#
# Youngs Moduli (GPa) = 57.28519 49.88642 102.40465
#
# Poissons Ratio (x) = -0.32714 0.96523
# Poissons Ratio (y) = -0.37566 0.32998
# Poissons Ratio (z) = 0.53995 0.16075
#
# Static dielectric constant tensor:
#      x y z
#    x 1.688400 0.000000 0.011250 
#    y 0.000000 1.830060 0.000000 
#    z 0.011250 0.000000 1.778300 
# 
# From -- ./inp_files/250906.got.cif
#   From: 2010.05.17/outbox.cif.g08.bks.cpg/sg12_126_cif.got.tgz:250906.got - 2010.06.03 13:09:07.
