data_PCOD9195620
_publ_section_title
;
Structure prediction by ZEFSAII (Michael W. Deem and Ramdas Pophale) SiO2 
 PCOD9195620
Probable space group: C 2/M
;
_chemical_formula_sum "Si O2"
_cell_formula_units_Z 56
_cell_length_a 13.915141
_cell_length_b 7.578268
_cell_length_c 23.778122
_cell_angle_alpha 90.000000
_cell_angle_beta 110.806506
_cell_angle_gamma 90.000000
_cell_volume 2343.942849
_symmetry_space_group_name_H-M "C 2/M"
_symmetry_group_IT_number 12
_symmetry_cell_setting 'monoclinic'
loop_
_space_group_symop_operation_xyz
x,y,z
-x,y,-z
-x,-y,-z
x,-y,z
1/2+x,1/2+y,z
1/2-x,1/2+y,-z
1/2-x,1/2-y,-z
1/2+x,1/2-y,z
loop_
_atom_site_type_symbol
_atom_site_label
_atom_site_fract_x
_atom_site_fract_y
_atom_site_fract_z
Si Si1 0.653953 0.204378 0.798743
Si Si2 0.577508 0.292008 0.951393
Si Si3 0.103894 0.715168 0.490569
Si Si4 0.693484 0.796609 0.398341
Si Si5 0.045637 0.202467 0.178360
Si Si6 0.260252 0.800539 0.712892
Si Si7 0.785644 0.213503 0.925457
O O1 0.554634 0.300457 0.802272
O O2 0.677229 0.219762 0.737972
O O3 0.754339 0.263874 0.855724
O O4 0.637040 0.000000 0.809303
O O5 0.553569 0.500000 0.951985
O O6 0.493597 0.222382 0.889723
O O7 0.684981 0.273862 0.939260
O O8 0.612852 0.222791 0.020095
O O9 0.111970 0.500000 0.492356
O O10 0.199653 0.788453 0.545502
O O11 0.113328 0.775604 0.427648
O O12 0.000000 0.765004 0.500000
O O13 0.714326 0.714050 0.341840
O O14 0.662560 0.000000 0.381229
O O15 0.134200 0.299283 0.230203
O O16 0.080964 0.000000 0.176663
O O17 0.225332 0.000000 0.694894
O O18 0.791459 0.000000 0.929204
#
# Coordination Sequence:
#
# PCOD9195620 Si02
#       7
#     8   8   8   8   8   8   8
#     4  10  20  35  55  78 105 140 184 231 279 329
#     4   8  14  26  46  71  98 129 168 218 275 332
#     4   9  18  35  60  87 112 138 170 210 258 312
#     4   9  20  37  55  80 112 143 176 215 258 305
#     4  10  20  35  55  79 107 141 182 226 277 335
#     4  11  23  38  54  76 112 152 188 224 261 311
#     4   8  14  26  46  71  97 128 169 220 277 330
#
# _framework density 23.891366000000001
#
# number of rings (size 3 to 8) (size 9 to 14) (size 15 to 20)
#    0.000    2.714    0.000    1.286    0.000    3.714 
#    0.000    2.143    0.000    4.286    0.000    0.000 
#    0.000    0.000    0.000    0.000    0.000    0.000 
#
# Total GULP energy -156285.326526 kJ/mol
# GULP energy per Si atom -5581.618805 kJ/mol
# Density = 2.383699 g / cm^3
# Si number density = 23.891366 Si / 1000 Ang^3
#
#
#
# Elastic Constant Matrix: (Units=GPa)
#
#
# Indices 1 2 3 4 5 6 
#
# 1 84.5298 -4.0661 22.9919 0.0000 -32.5251 0.0000
# 2 -4.0661 59.5635 -2.0727 0.0000 -5.5127 0.0000
# 3 22.9919 -2.0727 114.8476 0.0000 -53.1888 0.0000
# 4 0.0000 0.0000 0.0000 7.5689 0.0000 8.0784
# 5 -32.5251 -5.5127 -53.1888 0.0000 42.8132 0.0000
# 6 0.0000 0.0000 0.0000 8.0784 0.0000 11.7509
#
#
#
# Elastic Compliance Matrix: (Units=1/GPa)
#
#
# Indices 1 2 3 4 5 6 
#
# 1 0.019488 0.003896 0.007672 0.000000 0.024838 0.000000
# 2 0.003896 0.018255 0.004731 0.000000 0.011187 0.000000
# 3 0.007672 0.004731 0.024110 0.000000 0.036390 0.000000
# 4 0.000000 0.000000 0.000000 0.496194 0.000000 -0.341117
# 5 0.024838 0.011187 0.036390 0.000000 0.088877 0.000000
# 6 0.000000 0.000000 0.000000 -0.341117 0.000000 0.319607
#
#
# Mechanical properties :
#
#
# Convention : Reuss Voigt Hill
#
# Bulk Modulus (GPa) = 10.58763 32.51636 21.55199
# Shear Modulus (GPa) = 5.17912 28.56579 16.87246
#
# Velocity S-wave (km/s) = 1.47393 3.46157 2.66035
# Velocity P-wave (km/s) = 2.70884 5.44208 4.29850
#
# Compressibility (1/GPa) = 0.09444988
#
# Stress axis : x y z
#
# Youngs Moduli (GPa) = 51.31421 54.78008 41.47651
#
# Poissons Ratio (x) = -0.21343 -0.31820
# Poissons Ratio (y) = -0.19992 -0.19621
# Poissons Ratio (z) = -0.39368 -0.25915
#
# Static dielectric constant tensor:
#      x y z
#    x 1.935460 0.000000 -0.045330 
#    y 0.000000 1.538140 0.000000 
#    z -0.045330 0.000000 1.934740 
# 
# From -- ./inp_files/338187.got.cif
#   From: 2010.05.17/outbox.cif.g08.bks.cpg/sg12_170_cif.got.tgz:338187.got - 2010.06.03 13:09:07.
