data_PCOD9195874
_publ_section_title
;
Structure prediction by ZEFSAII (Michael W. Deem and Ramdas Pophale) SiO2 
 PCOD9195874
Probable space group: C 2/M
;
_chemical_formula_sum "Si O2"
_cell_formula_units_Z 64
_cell_length_a 10.772485
_cell_length_b 18.331749
_cell_length_c 17.036307
_cell_angle_alpha 90.000000
_cell_angle_beta 75.770003
_cell_angle_gamma 90.000000
_cell_volume 3261.076539
_symmetry_space_group_name_H-M "C 2/M"
_symmetry_group_IT_number 12
_symmetry_cell_setting 'monoclinic'
loop_
_space_group_symop_operation_xyz
x,y,z
-x,y,-z
-x,-y,-z
x,-y,z
1/2+x,1/2+y,z
1/2-x,1/2+y,-z
1/2-x,1/2-y,-z
1/2+x,1/2-y,z
loop_
_atom_site_type_symbol
_atom_site_label
_atom_site_fract_x
_atom_site_fract_y
_atom_site_fract_z
Si Si1 0.711040 0.080354 0.374021
Si Si2 0.351535 0.736303 0.053965
Si Si3 0.899586 0.077108 0.085311
Si Si4 0.025855 0.328109 0.644515
Si Si5 0.728080 0.412214 0.459761
Si Si6 0.646316 0.218920 0.773801
Si Si7 0.091092 0.176706 0.352570
Si Si8 0.553490 0.382904 0.759628
O O1 0.603633 0.136078 0.365292
O O2 0.779034 0.098539 0.445732
O O3 0.817938 0.080616 0.291127
O O4 0.652791 0.000000 0.392697
O O5 0.325283 0.652902 0.086706
O O6 0.338531 0.787123 0.134229
O O7 0.500000 0.740873 0.000000
O O8 0.250000 0.750000 0.000000
O O9 0.980770 0.083061 0.152619
O O10 0.826573 0.000000 0.097219
O O11 0.000000 0.075647 0.000000
O O12 0.011362 0.242516 0.623179
O O13 0.138971 0.373943 0.586800
O O14 0.052349 0.330737 0.734509
O O15 0.724166 0.500000 0.444904
O O16 0.625601 0.366678 0.425602
O O17 0.781379 0.211936 0.707105
O O18 0.586428 0.298726 0.771514
O O19 0.045872 0.118156 0.295117
#
# Coordination Sequence:
#
# PCOD9195874 Si02
#       8
#     8   8   8   8   8   8   8   8
#     4  11  22  37  58  83 116 154 198 246 299 361
#     4  10  22  35  61  91 119 156 196 244 304 362
#     4   9  19  35  55  82 114 149 191 234 284 355
#     4  10  20  38  59  83 110 153 197 248 289 350
#     4  10  23  41  57  83 118 157 201 249 306 364
#     4   9  20  36  57  82 118 147 194 245 291 349
#     4  10  21  38  60  83 118 154 194 251 295 356
#     4  10  20  35  55  84 114 147 193 239 295 348
#
# _framework density 19.625422
#
# number of rings (size 3 to 8) (size 9 to 14) (size 15 to 20)
#    0.000    2.125    1.250    1.125    7.000    3.000 
#    4.500    1.250    0.000    1.125    0.000    0.000 
#    0.000    0.000    0.000    0.000    0.000    0.000 
#
# Total GULP energy -178270.928585 kJ/mol
# GULP energy per Si atom -5570.966518 kJ/mol
# Density = 1.958075 g / cm^3
# Si number density = 19.625422 Si / 1000 Ang^3
#
#
#
# Elastic Constant Matrix: (Units=GPa)
#
#
# Indices 1 2 3 4 5 6 
#
# 1 58.1019 9.2546 28.5875 0.0000 24.7665 0.0000
# 2 9.2546 53.5338 28.4108 0.0000 17.9982 0.0000
# 3 28.5875 28.4108 119.6453 0.0000 20.9980 0.0000
# 4 0.0000 0.0000 0.0000 41.5999 0.0000 8.9171
# 5 24.7665 17.9982 20.9980 0.0000 32.2096 0.0000
# 6 0.0000 0.0000 0.0000 8.9171 0.0000 16.1476
#
#
#
# Elastic Compliance Matrix: (Units=1/GPa)
#
#
# Indices 1 2 3 4 5 6 
#
# 1 0.027360 0.004382 -0.003902 0.000000 -0.020942 0.000000
# 2 0.004382 0.025181 -0.004478 0.000000 -0.014521 0.000000
# 3 -0.003902 -0.004478 0.010601 0.000000 -0.001408 0.000000
# 4 0.000000 0.000000 0.000000 0.027266 0.000000 -0.015057
# 5 -0.020942 -0.014521 -0.001408 0.000000 0.056181 0.000000
# 6 0.000000 0.000000 0.000000 -0.015057 0.000000 0.070243
#
#
# Mechanical properties :
#
#
# Convention : Reuss Voigt Hill
#
# Bulk Modulus (GPa) = 18.13403 40.42076 29.27740
# Shear Modulus (GPa) = 20.55829 28.99331 24.77580
#
# Velocity S-wave (km/s) = 3.24007 3.84778 3.55693
# Velocity P-wave (km/s) = 4.82261 6.35463 5.64088
#
# Compressibility (1/GPa) = 0.05514493
#
# Stress axis : x y z
#
# Youngs Moduli (GPa) = 36.54963 39.71303 94.33149
#
# Poissons Ratio (x) = -0.17402 0.36812
# Poissons Ratio (y) = -0.16016 0.42241
# Poissons Ratio (z) = 0.14263 0.17783
#
# Static dielectric constant tensor:
#      x y z
#    x 1.641290 0.000000 0.116040 
#    y 0.000000 1.650660 0.000000 
#    z 0.116040 0.000000 1.569990 
# 
# From -- ./inp_files/263884.got.cif
#   From: 2010.05.17/outbox.cif.g08.bks.cpg/sg12_132_cif.got.tgz:263884.got - 2010.06.03 13:09:07.
