data_PCOD9195152
_publ_section_title
;
Structure prediction by ZEFSAII (Michael W. Deem and Ramdas Pophale) SiO2 
 PCOD9195152
Probable space group: C 2/M
;
_chemical_formula_sum "Si O2"
_cell_formula_units_Z 56
_cell_length_a 11.442356
_cell_length_b 26.518282
_cell_length_c 15.783368
_cell_angle_alpha 90.000000
_cell_angle_beta 137.397517
_cell_angle_gamma 90.000000
_cell_volume 3241.828870
_symmetry_space_group_name_H-M "C 2/M"
_symmetry_group_IT_number 12
_symmetry_cell_setting 'monoclinic'
loop_
_space_group_symop_operation_xyz
x,y,z
-x,y,-z
-x,-y,-z
x,-y,z
1/2+x,1/2+y,z
1/2-x,1/2+y,-z
1/2-x,1/2-y,-z
1/2+x,1/2-y,z
loop_
_atom_site_type_symbol
_atom_site_label
_atom_site_fract_x
_atom_site_fract_y
_atom_site_fract_z
Si Si1 0.089559 0.559405 0.326003
Si Si2 0.621953 0.443594 0.649351
Si Si3 0.613203 0.844645 0.773122
Si Si4 0.111650 0.217597 0.980211
Si Si5 0.256320 0.784921 0.586982
Si Si6 0.142214 0.875233 0.429877
Si Si7 0.282715 0.688651 0.697162
O O1 0.060823 0.500000 0.324819
O O2 0.191624 0.565252 0.291368
O O3 0.215236 0.583575 0.465031
O O4 0.929275 0.596909 0.236791
O O5 0.500000 0.443046 0.500000
O O6 0.612419 0.500000 0.679955
O O7 0.541240 0.402945 0.668744
O O8 0.773030 0.825046 0.913006
O O9 0.444548 0.810141 0.702279
O O10 0.656630 0.835337 0.698194
O O11 0.250000 0.250000 0.000000
O O12 0.000000 0.241561 0.000000
O O13 0.969150 0.196496 0.839777
O O14 0.250000 0.750000 0.500000
O O15 0.139658 0.832718 0.502010
O O16 0.216548 0.744936 0.638702
O O17 0.195869 0.846482 0.373505
#
# Coordination Sequence:
#
# PCOD9195152 Si02
#       7
#     8   8   8   8   8   8   8
#     4   9  18  34  54  76 104 139 176 216 264 320
#     4   8  14  29  49  72 103 133 167 214 257 307
#     4  10  20  36  53  74 102 137 180 215 264 310
#     4  10  20  38  57  75 104 145 183 225 266 311
#     4   9  18  31  44  73 105 140 162 201 261 316
#     4   9  17  30  48  78 105 136 172 207 266 316
#     4  10  20  35  50  71 109 137 172 222 258 309
#
# _framework density 17.274201000000001
#
# number of rings (size 3 to 8) (size 9 to 14) (size 15 to 20)
#    0.000    2.714    1.429    1.286    0.000    5.143 
#   25.714    2.143    0.000    5.571    0.000    2.000 
#    0.000    0.000    0.000    0.000    0.000    0.000 
#
# Total GULP energy -155882.469354 kJ/mol
# GULP energy per Si atom -5567.231048 kJ/mol
# Density = 1.723488 g / cm^3
# Si number density = 17.274201 Si / 1000 Ang^3
#
#
#
# Elastic Constant Matrix: (Units=GPa)
#
#
# Indices 1 2 3 4 5 6 
#
# 1 86.4658 58.8450 8.8501 0.0000 -0.4564 0.0000
# 2 58.8450 138.5731 23.5416 0.0000 -1.4243 0.0000
# 3 8.8501 23.5416 39.8705 0.0000 -2.2869 0.0000
# 4 0.0000 0.0000 0.0000 13.8773 0.0000 4.8134
# 5 -0.4564 -1.4243 -2.2869 0.0000 15.5226 0.0000
# 6 0.0000 0.0000 0.0000 4.8134 0.0000 30.7946
#
#
#
# Elastic Compliance Matrix: (Units=1/GPa)
#
#
# Indices 1 2 3 4 5 6 
#
# 1 0.016276 -0.007000 0.000515 0.000000 -0.000088 0.000000
# 2 -0.007000 0.011032 -0.004955 0.000000 0.000076 0.000000
# 3 0.000515 -0.004955 0.028105 0.000000 0.003701 0.000000
# 4 0.000000 0.000000 0.000000 0.076191 0.000000 -0.011909
# 5 -0.000088 0.000076 0.003701 0.000000 0.064972 0.000000
# 6 0.000000 0.000000 0.000000 -0.011909 0.000000 0.034335
#
#
# Mechanical properties :
#
#
# Convention : Reuss Voigt Hill
#
# Bulk Modulus (GPa) = 30.73861 49.70921 40.22391
# Shear Modulus (GPa) = 18.89399 23.61709 21.25554
#
# Velocity S-wave (km/s) = 3.31081 3.70156 3.51162
# Velocity P-wave (km/s) = 5.69635 6.86351 6.30699
#
# Compressibility (1/GPa) = 0.03253237
#
# Stress axis : x y z
#
# Youngs Moduli (GPa) = 61.44016 90.64854 35.58077
#
# Poissons Ratio (x) = 0.63454 -0.01834
# Poissons Ratio (y) = 0.43008 0.17632
# Poissons Ratio (z) = -0.03166 0.44920
#
# Static dielectric constant tensor:
#      x y z
#    x 1.635670 0.000000 0.018790 
#    y 0.000000 1.593600 0.000000 
#    z 0.018790 0.000000 1.594580 
# 
# From -- ./inp_files/209161.got.cif
#   From: 2010.05.17/outbox.cif.g08.bks.cpg/sg12_105_cif.got.tgz:209161.got - 2010.06.03 13:09:07.
