data_PCOD9195158
_publ_section_title
;
Structure prediction by ZEFSAII (Michael W. Deem and Ramdas Pophale) SiO2 
 PCOD9195158
Probable space group: C 2/M
;
_chemical_formula_sum "Si O2"
_cell_formula_units_Z 56
_cell_length_a 24.880751
_cell_length_b 9.154268
_cell_length_c 18.318055
_cell_angle_alpha 90.000000
_cell_angle_beta 118.567425
_cell_angle_gamma 90.000000
_cell_volume 3664.266837
_symmetry_space_group_name_H-M "C 2/M"
_symmetry_group_IT_number 12
_symmetry_cell_setting 'monoclinic'
loop_
_space_group_symop_operation_xyz
x,y,z
-x,y,-z
-x,-y,-z
x,-y,z
1/2+x,1/2+y,z
1/2-x,1/2+y,-z
1/2-x,1/2-y,-z
1/2+x,1/2-y,z
loop_
_atom_site_type_symbol
_atom_site_label
_atom_site_fract_x
_atom_site_fract_y
_atom_site_fract_z
Si Si1 0.071961 0.325852 0.056801
Si Si2 0.685315 0.667512 0.541618
Si Si3 0.650550 0.325437 0.229645
Si Si4 0.167089 0.667434 0.387434
Si Si5 0.719590 0.323411 0.720175
Si Si6 0.661971 0.174460 0.985733
Si Si7 0.798768 0.174289 0.129239
O O1 0.082942 0.500000 0.075957
O O2 0.099754 0.236859 0.142046
O O3 0.109042 0.283611 0.007754
O O4 0.000000 0.303247 0.000000
O O5 0.664970 0.500000 0.519313
O O6 0.758993 0.669063 0.576144
O O7 0.656314 0.768289 0.460875
O O8 0.679665 0.712131 0.622590
O O9 0.653294 0.500000 0.230532
O O10 0.640819 0.265715 0.305367
O O11 0.715478 0.257277 0.245692
O O12 0.146974 0.500000 0.367576
O O13 0.730723 0.500000 0.725784
O O14 0.690578 0.286763 0.779444
O O15 0.660921 0.248741 0.906087
O O16 0.660195 0.000000 0.975448
O O17 0.727767 0.211532 0.064789
O O18 0.805009 0.000000 0.125932
#
# Coordination Sequence:
#
# PCOD9195158 Si02
#       7
#     8   8   8   8   8   8   8
#     4  10  20  35  51  63  82 115 151 185 222 262
#     4   8  14  23  37  57  81 109 142 178 211 244
#     4  11  20  28  42  62  85 111 145 184 221 257
#     4   9  16  26  39  54  80 114 145 174 209 258
#     4   9  16  28  43  60  86 118 149 177 209 259
#     4   9  17  29  44  63  85 109 144 182 217 258
#     4   9  16  27  44  63  87 115 144 177 214 258
#
# _framework density 15.282730000000001
#
# number of rings (size 3 to 8) (size 9 to 14) (size 15 to 20)
#    0.000    2.714    1.429    2.571    0.000    4.857 
#    0.000    0.000    0.000    0.000    0.000    0.000 
#    0.000    1.143    0.000   13.143    0.000    4.286 
#
# Total GULP energy -155946.051748 kJ/mol
# GULP energy per Si atom -5569.501848 kJ/mol
# Density = 1.524795 g / cm^3
# Si number density = 15.282730 Si / 1000 Ang^3
#
#
#
# Elastic Constant Matrix: (Units=GPa)
#
#
# Indices 1 2 3 4 5 6 
#
# 1 51.6624 28.3349 46.1116 0.0000 -14.9098 0.0000
# 2 28.3349 62.3941 59.9886 0.0000 -10.0704 0.0000
# 3 46.1116 59.9886 123.5495 0.0000 -37.2230 0.0000
# 4 0.0000 0.0000 0.0000 26.9481 0.0000 -7.1684
# 5 -14.9098 -10.0704 -37.2230 0.0000 23.5173 0.0000
# 6 0.0000 0.0000 0.0000 -7.1684 0.0000 13.5590
#
#
#
# Elastic Compliance Matrix: (Units=1/GPa)
#
#
# Indices 1 2 3 4 5 6 
#
# 1 0.030476 -0.007176 -0.005725 0.000000 0.007188 0.000000
# 2 -0.007176 0.037326 -0.022939 0.000000 -0.024874 0.000000
# 3 -0.005725 -0.022939 0.033100 0.000000 0.038938 0.000000
# 4 0.000000 0.000000 0.000000 0.043181 0.000000 0.022829
# 5 0.007188 -0.024874 0.038938 0.000000 0.098058 0.000000
# 6 0.000000 0.000000 0.000000 0.022829 0.000000 0.085821
#
#
# Mechanical properties :
#
#
# Convention : Reuss Voigt Hill
#
# Bulk Modulus (GPa) = 34.22060 56.27511 45.24786
# Shear Modulus (GPa) = 12.21352 19.68294 15.94823
#
# Velocity S-wave (km/s) = 2.83003 3.59265 3.23390
# Velocity P-wave (km/s) = 5.75491 7.35610 6.60421
#
# Compressibility (1/GPa) = 0.02922216
#
# Stress axis : x y z
#
# Youngs Moduli (GPa) = 32.81247 26.79079 30.21187
#
# Poissons Ratio (x) = 0.19225 0.17295
# Poissons Ratio (y) = 0.23547 0.69304
# Poissons Ratio (z) = 0.18784 0.61456
#
# Static dielectric constant tensor:
#      x y z
#    x 1.483930 0.000000 -0.026960 
#    y 0.000000 1.512370 0.000000 
#    z -0.026960 0.000000 1.524320 
# 
# From -- ./inp_files/291659.got.cif
#   From: 2010.05.17/outbox.cif.g08.bks.cpg/sg12_146_cif.got.tgz:291659.got - 2010.06.03 13:09:07.
