data_PCOD9195935
_publ_section_title
;
Structure prediction by ZEFSAII (Michael W. Deem and Ramdas Pophale) SiO2 
 PCOD9195935
Probable space group: C 2/M
;
_chemical_formula_sum "Si O2"
_cell_formula_units_Z 64
_cell_length_a 19.783115
_cell_length_b 8.827305
_cell_length_c 32.175905
_cell_angle_alpha 90.000000
_cell_angle_beta 39.773194
_cell_angle_gamma 90.000000
_cell_volume 3594.711158
_symmetry_space_group_name_H-M "C 2/M"
_symmetry_group_IT_number 12
_symmetry_cell_setting 'monoclinic'
loop_
_space_group_symop_operation_xyz
x,y,z
-x,y,-z
-x,-y,-z
x,-y,z
1/2+x,1/2+y,z
1/2-x,1/2+y,-z
1/2-x,1/2-y,-z
1/2+x,1/2-y,z
loop_
_atom_site_type_symbol
_atom_site_label
_atom_site_fract_x
_atom_site_fract_y
_atom_site_fract_z
Si Si1 0.047308 0.181941 0.702430
Si Si2 0.185117 0.316730 0.189282
Si Si3 0.916011 0.817509 0.924953
Si Si4 0.878501 0.181478 0.553123
Si Si5 0.158602 0.816797 0.810320
Si Si6 0.729440 0.817572 0.074521
Si Si7 0.305448 0.180966 0.296711
Si Si8 0.767392 0.819728 0.446893
O O1 0.103287 0.248352 0.717224
O O2 0.123552 0.224843 0.627805
O O3 0.930942 0.247119 0.751377
O O4 0.044513 0.000000 0.706958
O O5 0.177236 0.500000 0.193917
O O6 0.264098 0.270089 0.188818
O O7 0.227548 0.272909 0.123513
O O8 0.868411 0.750269 0.905009
O O9 0.036583 0.772002 0.875674
O O10 0.912860 0.000000 0.923582
O O11 0.835504 0.771136 0.999712
O O12 0.805484 0.214404 0.627650
O O13 0.824385 0.263612 0.540215
O O14 0.000000 0.225915 0.500000
O O15 0.874063 0.000000 0.548515
O O16 0.191720 0.748760 0.750495
O O17 0.161809 0.000000 0.806271
O O18 0.722617 0.000000 0.075818
O O19 0.319355 0.000000 0.288740
O O20 0.750000 0.750000 0.500000
O O21 0.766543 0.000000 0.450371
#
# Coordination Sequence:
#
# PCOD9195935 Si02
#       8
#     8   8   8   8   8   8   8   8
#     4  10  21  37  56  77 103 137 176 215 256 306
#     4  10  21  35  52  77 107 138 173 215 261 306
#     4   9  18  33  53  75 100 134 173 212 256 305
#     4   9  19  36  56  78 105 136 171 212 258 309
#     4  10  21  35  51  75 107 139 172 213 260 308
#     4   9  18  33  53  76 101 132 173 215 254 303
#     4  10  20  35  56  78 102 136 175 214 257 306
#     4  10  21  36  55  79 106 137 173 213 257 306
#
# _framework density 17.803933000000001
#
# number of rings (size 3 to 8) (size 9 to 14) (size 15 to 20)
#    0.000    2.375    0.000    1.875    0.000    7.250 
#    0.000    6.250    0.000    0.000    0.000    5.250 
#    0.000    0.000    0.000    0.000    0.000    0.000 
#
# Total GULP energy -178598.556080 kJ/mol
# GULP energy per Si atom -5581.204878 kJ/mol
# Density = 1.776341 g / cm^3
# Si number density = 17.803933 Si / 1000 Ang^3
#
#
#
# Elastic Constant Matrix: (Units=GPa)
#
#
# Indices 1 2 3 4 5 6 
#
# 1 177.2261 47.4707 125.5096 0.0003 5.1159 0.0005
# 2 47.4707 19.8029 43.8943 0.0008 1.4524 0.0010
# 3 125.5096 43.8943 130.1842 0.0000 3.9384 -0.0002
# 4 0.0003 0.0008 0.0000 27.1845 0.0000 2.3050
# 5 5.1159 1.4524 3.9384 0.0000 33.0810 0.0006
# 6 0.0005 0.0010 -0.0002 2.3050 0.0006 30.1746
#
#
#
# Elastic Compliance Matrix: (Units=1/GPa)
#
#
# Indices 1 2 3 4 5 6 
#
# 1 0.019657 -0.020226 -0.012110 0.000000 -0.000710 0.000000
# 2 -0.020226 0.220708 -0.054916 -0.000006 -0.000024 -0.000007
# 3 -0.012110 -0.054916 0.037879 0.000002 -0.000226 0.000002
# 4 0.000000 -0.000006 0.000002 0.037025 0.000000 -0.002828
# 5 -0.000710 -0.000024 -0.000226 0.000000 0.030367 -0.000001
# 6 0.000000 -0.000007 0.000002 -0.002828 -0.000001 0.033357
#
#
# Mechanical properties :
#
#
# Convention : Reuss Voigt Hill
#
# Bulk Modulus (GPa) = 9.63942 84.55140 47.09541
# Shear Modulus (GPa) = 8.50232 25.44392 16.97312
#
# Velocity S-wave (km/s) = 2.18767 3.78447 3.09096
# Velocity P-wave (km/s) = 3.43615 8.16637 6.26485
#
# Compressibility (1/GPa) = 0.10374073
#
# Stress axis : x y z
#
# Youngs Moduli (GPa) = 50.87368 4.53088 26.39993
#
# Poissons Ratio (x) = 0.09164 0.31969
# Poissons Ratio (y) = 1.02898 1.44977
# Poissons Ratio (z) = 0.61606 0.24882
#
# Static dielectric constant tensor:
#      x y z
#    x 1.568810 0.000000 -0.001460 
#    y 0.000000 1.598590 0.000000 
#    z -0.001460 0.000000 1.615470 
# 
# From -- ./inp_files/378219.got.cif
#   From: 2010.05.17/outbox.cif.g08.bks.cpg/sg12_190_cif.got.tgz:378219.got - 2010.06.03 13:09:07.
