data_PCOD9195421
_publ_section_title
;
Structure prediction by ZEFSAII (Michael W. Deem and Ramdas Pophale) SiO2 
 PCOD9195421
Probable space group: C 2/M
;
_chemical_formula_sum "Si O2"
_cell_formula_units_Z 64
_cell_length_a 21.816714
_cell_length_b 12.953683
_cell_length_c 28.209766
_cell_angle_alpha 90.000000
_cell_angle_beta 154.561025
_cell_angle_gamma 90.000000
_cell_volume 3424.485454
_symmetry_space_group_name_H-M "C 2/M"
_symmetry_group_IT_number 12
_symmetry_cell_setting 'monoclinic'
loop_
_space_group_symop_operation_xyz
x,y,z
-x,y,-z
-x,-y,-z
x,-y,z
1/2+x,1/2+y,z
1/2-x,1/2+y,-z
1/2-x,1/2-y,-z
1/2+x,1/2-y,z
loop_
_atom_site_type_symbol
_atom_site_label
_atom_site_fract_x
_atom_site_fract_y
_atom_site_fract_z
Si Si1 0.662833 0.697860 0.216500
Si Si2 0.318135 0.885145 0.007928
Si Si3 0.980789 0.800400 0.174557
Si Si4 0.092798 0.712263 0.023513
Si Si5 0.789135 0.293073 0.601694
Si Si6 0.829170 0.880314 0.383087
Si Si7 0.880224 0.615676 0.567107
Si Si8 0.782229 0.384532 0.207692
O O1 0.596818 0.653231 0.218981
O O2 0.748866 0.800512 0.292265
O O3 0.757498 0.631459 0.246768
O O4 0.524397 0.725881 0.088756
O O5 0.154220 0.870951 0.908759
O O6 0.331077 0.860503 0.961142
O O7 0.369206 0.000000 0.053902
O O8 0.412872 0.801533 0.102133
O O9 0.065335 0.761703 0.279410
O O10 0.198469 0.794990 0.121244
O O11 0.000000 0.658759 0.000000
O O12 0.726535 0.353830 0.603005
O O13 0.820274 0.362872 0.577843
O O14 0.682478 0.203073 0.510731
O O15 0.000000 0.865388 0.500000
O O16 0.798097 0.000000 0.349966
O O17 0.840660 0.500000 0.524131
O O18 0.051040 0.622918 0.687113
O O19 0.731331 0.500000 0.158956
#
# Coordination Sequence:
#
# PCOD9195421 Si02
#       8
#     8   8   8   8   8   8   8   8
#     4   9  19  34  53  79 108 134 172 218 256 304
#     4  10  20  35  54  77 107 138 172 217 263 307
#     4   9  20  36  53  78 106 137 176 213 257 315
#     4   9  19  34  52  78 107 136 175 214 254 308
#     4  10  20  36  56  76 107 139 172 217 260 311
#     4  10  20  35  57  81 105 137 175 215 261 310
#     4  10  21  35  54  79 104 136 176 216 261 310
#     4  10  20  36  56  77 106 141 176 215 258 305
#
# _framework density 18.688939000000001
#
# number of rings (size 3 to 8) (size 9 to 14) (size 15 to 20)
#    0.000    2.375    0.000    1.875    0.000    8.500 
#    0.000   11.250    0.000   12.000    0.000    0.000 
#    0.000    0.000    0.000    0.000    0.000    0.000 
#
# Total GULP energy -178424.335767 kJ/mol
# GULP energy per Si atom -5575.760493 kJ/mol
# Density = 1.864640 g / cm^3
# Si number density = 18.688939 Si / 1000 Ang^3
#
#
#
# Elastic Constant Matrix: (Units=GPa)
#
#
# Indices 1 2 3 4 5 6 
#
# 1 59.5967 31.1484 8.6072 0.0003 8.7823 0.0001
# 2 31.1484 67.0149 21.0395 0.0049 6.4496 0.0001
# 3 8.6072 21.0395 58.0865 0.0080 3.8991 0.0005
# 4 0.0003 0.0049 0.0080 8.1231 0.0008 -11.0104
# 5 8.7823 6.4496 3.8991 0.0008 25.7469 -0.0002
# 6 0.0001 0.0001 0.0005 -11.0104 -0.0002 10.3638
#
#
#
# Elastic Compliance Matrix: (Units=1/GPa)
#
#
# Indices 1 2 3 4 5 6 
#
# 1 0.022864 -0.010340 0.000714 -0.000011 -0.005317 -0.000012
# 2 -0.010340 0.021799 -0.006298 0.000014 -0.000980 0.000015
# 3 0.000714 -0.006298 0.019500 0.000038 -0.001619 0.000039
# 4 -0.000011 0.000014 0.000038 -0.279786 0.000000 -0.297240
# 5 -0.005317 -0.000980 -0.001619 0.000000 0.041144 0.000001
# 6 -0.000012 0.000015 0.000039 -0.297240 0.000001 -0.219294
#
#
# Mechanical properties :
#
#
# Convention : Reuss Voigt Hill
#
# Bulk Modulus (GPa) = 30.94445 34.03203 32.48824
# Shear Modulus (GPa) = -14.23879 17.10695 1.43408
#
# Velocity S-wave (km/s) = -2.76322 3.02876 0.87693
# Velocity P-wave (km/s) = 2.53240 5.52091 4.29497
#
# Compressibility (1/GPa) = 0.03231597
#
# Stress axis : x y z
#
# Youngs Moduli (GPa) = 43.73715 45.87262 51.28261
#
# Poissons Ratio (x) = 0.47430 -0.03662
# Poissons Ratio (y) = 0.45222 0.32298
# Poissons Ratio (z) = -0.03123 0.28891
#
# Static dielectric constant tensor:
#      x y z
#    x 1.681420 0.000000 0.007900 
#    y 0.000000 1.629330 0.000000 
#    z 0.007900 0.000000 1.616750 
# 
# From -- ./inp_files/366041.got.cif
#   From: 2010.05.17/outbox.cif.g08.bks.cpg/sg12_184_cif.got.tgz:366041.got - 2010.06.03 13:09:07.
