data_PCOD9195033
_publ_section_title
;
Structure prediction by ZEFSAII (Michael W. Deem and Ramdas Pophale) SiO2 
 PCOD9195033
Probable space group: C 2/M
;
_chemical_formula_sum "Si O2"
_cell_formula_units_Z 44
_cell_length_a 8.919422
_cell_length_b 10.422432
_cell_length_c 24.262925
_cell_angle_alpha 90.000000
_cell_angle_beta 112.796576
_cell_angle_gamma 90.000000
_cell_volume 2079.343805
_symmetry_space_group_name_H-M "C 2/M"
_symmetry_group_IT_number 12
_symmetry_cell_setting 'monoclinic'
loop_
_space_group_symop_operation_xyz
x,y,z
-x,y,-z
-x,-y,-z
x,-y,z
1/2+x,1/2+y,z
1/2-x,1/2+y,-z
1/2-x,1/2-y,-z
1/2+x,1/2-y,z
loop_
_atom_site_type_symbol
_atom_site_label
_atom_site_fract_x
_atom_site_fract_y
_atom_site_fract_z
Si Si1 0.059783 0.356306 0.206456
Si Si2 0.203139 0.000000 0.587038
Si Si3 0.810326 0.000000 0.542210
Si Si4 0.218059 0.794243 0.372140
Si Si5 0.683239 0.143492 0.917546
Si Si6 0.611257 0.221178 0.711013
Si Si7 0.000000 0.291515 0.000000
O O1 0.098554 0.500000 0.192708
O O2 0.938715 0.294571 0.144349
O O3 0.965531 0.360357 0.251006
O O4 0.226737 0.283996 0.241410
O O5 0.248465 0.000000 0.528841
O O6 0.262468 0.138742 0.618842
O O7 0.007349 0.000000 0.566344
O O8 0.755432 0.125692 0.568618
O O9 0.335835 0.838590 0.339728
O O10 0.033480 0.818383 0.325956
O O11 0.854004 0.211550 0.951559
O O12 0.717176 0.000000 0.902278
O O13 0.589062 0.138676 0.962343
#
# Coordination Sequence:
#
# PCOD9195033 Si02
#       7
#     8   4   4   8   8   8   4
#     4  10  22  39  59  83 120 157 199 250 298 356
#     4  11  24  45  63  95 129 159 197 260 309 365
#     4  11  24  43  67  93 125 163 201 252 311 365
#     4  11  23  41  67  91 123 161 208 251 308 371
#     4  10  20  36  57  86 116 157 197 242 302 348
#     4  10  23  37  60  85 117 155 202 247 300 352
#     4  10  20  34  60  84 122 148 198 244 290 362
#
# _framework density 21.160522
#
# number of rings (size 3 to 8) (size 9 to 14) (size 15 to 20)
#    0.000    1.636    1.818    2.182    7.636    0.000 
#    0.000    0.909    0.000   10.909    0.000    0.000 
#    0.000    0.000    0.000    0.000    0.000    0.000 
#
# Total GULP energy -122710.637780 kJ/mol
# GULP energy per Si atom -5577.756263 kJ/mol
# Density = 2.111236 g / cm^3
# Si number density = 21.160522 Si / 1000 Ang^3
#
#
#
# Elastic Constant Matrix: (Units=GPa)
#
#
# Indices 1 2 3 4 5 6 
#
# 1 87.7222 5.7363 4.1973 0.0000 4.6178 0.0000
# 2 5.7363 74.4453 10.6856 0.0000 9.9686 0.0000
# 3 4.1973 10.6856 83.0213 0.0000 1.3831 0.0000
# 4 0.0000 0.0000 0.0000 7.6533 0.0000 3.0577
# 5 4.6178 9.9686 1.3831 0.0000 34.7612 0.0000
# 6 0.0000 0.0000 0.0000 3.0577 0.0000 -3.8783
#
#
#
# Elastic Compliance Matrix: (Units=1/GPa)
#
#
# Indices 1 2 3 4 5 6 
#
# 1 0.011534 -0.000642 -0.000478 0.000000 -0.001329 0.000000
# 2 -0.000642 0.014258 -0.001737 0.000000 -0.003935 0.000000
# 3 -0.000478 -0.001737 0.012292 0.000000 0.000073 0.000000
# 4 0.000000 0.000000 0.000000 0.099364 0.000000 0.078339
# 5 -0.001329 -0.003935 0.000073 0.000000 0.030070 0.000000
# 6 0.000000 0.000000 0.000000 0.078339 0.000000 -0.196082
#
#
# Mechanical properties :
#
#
# Convention : Reuss Voigt Hill
#
# Bulk Modulus (GPa) = 30.89361 31.82524 31.35942
# Shear Modulus (GPa) = -414.65570 22.67856 -195.98857
#
# Velocity S-wave (km/s) = -14.01366 3.27729 -9.63436
# Velocity P-wave (km/s) = 15.72298 5.42157 10.43596
#
# Compressibility (1/GPa) = 0.03236916
#
# Stress axis : x y z
#
# Youngs Moduli (GPa) = 86.69670 70.13431 81.35598
#
# Poissons Ratio (x) = 0.04504 0.03892
# Poissons Ratio (y) = 0.05567 0.14133
# Poissons Ratio (z) = 0.04147 0.12184
#
# Static dielectric constant tensor:
#      x y z
#    x 1.752480 0.000000 -0.002660 
#    y 0.000000 1.763950 0.000000 
#    z -0.002660 0.000000 1.780900 
# 
# From -- ./inp_files/332331.got.cif
#   From: 2010.05.17/outbox.cif.g08.bks.cpg/sg12_167_cif.got.tgz:332331.got - 2010.06.03 13:09:07.
