data_PCOD9195727
_publ_section_title
;
Structure prediction by ZEFSAII (Michael W. Deem and Ramdas Pophale) SiO2 
 PCOD9195727
Probable space group: C 2/M
;
_chemical_formula_sum "Si O2"
_cell_formula_units_Z 48
_cell_length_a 15.947735
_cell_length_b 7.358182
_cell_length_c 16.003404
_cell_angle_alpha 90.000000
_cell_angle_beta 92.504185
_cell_angle_gamma 90.000000
_cell_volume 1876.147461
_symmetry_space_group_name_H-M "C 2/M"
_symmetry_group_IT_number 12
_symmetry_cell_setting 'monoclinic'
loop_
_space_group_symop_operation_xyz
x,y,z
-x,y,-z
-x,-y,-z
x,-y,z
1/2+x,1/2+y,z
1/2-x,1/2+y,-z
1/2-x,1/2-y,-z
1/2+x,1/2-y,z
loop_
_atom_site_type_symbol
_atom_site_label
_atom_site_fract_x
_atom_site_fract_y
_atom_site_fract_z
Si Si1 0.623429 0.280917 0.059404
Si Si2 0.063906 0.221973 0.882724
Si Si3 0.390154 0.244674 0.296041
Si Si4 0.213983 0.775894 0.224551
Si Si5 0.654988 0.282069 0.525713
Si Si6 0.919532 0.795184 0.645661
O O1 0.627327 0.500000 0.056964
O O2 0.531448 0.238943 0.093448
O O3 0.691888 0.220308 0.129199
O O4 0.622262 0.222000 0.963210
O O5 0.085853 0.315150 0.797206
O O6 0.068972 0.000000 0.870329
O O7 0.297526 0.310551 0.264718
O O8 0.363671 0.184846 0.388124
O O9 0.484068 0.307180 0.324825
O O10 0.136866 0.721954 0.281552
O O11 0.223247 0.000000 0.226632
O O12 0.642142 0.500000 0.542271
O O13 0.750000 0.250000 0.500000
O O14 0.596778 0.216865 0.446622
O O15 0.886928 0.000000 0.633828
#
# Coordination Sequence:
#
# PCOD9195727 Si02
#       6
#     8   8   8   8   8   8
#     4   8  15  30  51  76 111 145 175 225 285 333
#     4   9  16  28  51  83 109 135 180 234 279 326
#     4  12  21  32  59  86 107 142 196 239 276 330
#     4  10  20  35  55  79 114 150 184 227 284 345
#     4  11  23  39  59  86 117 152 191 240 293 343
#     4  10  20  38  58  79 109 144 186 234 279 333
#
# _framework density 25.584340999999998
#
# number of rings (size 3 to 8) (size 9 to 14) (size 15 to 20)
#    0.000    2.000    3.333    3.000    0.000    2.000 
#    0.000    0.833    0.000    2.000    0.000    2.333 
#    0.000    0.000    0.000    0.000    0.000    0.000 
#
# Total GULP energy -133646.941998 kJ/mol
# GULP energy per Si atom -5568.622583 kJ/mol
# Density = 2.552611 g / cm^3
# Si number density = 25.584341 Si / 1000 Ang^3
#
#
#
# Elastic Constant Matrix: (Units=GPa)
#
#
# Indices 1 2 3 4 5 6 
#
# 1 151.7302 13.5467 79.8111 0.0000 20.9440 0.0000
# 2 13.5467 119.7150 34.8592 0.0000 1.7459 0.0000
# 3 79.8111 34.8592 290.6185 0.0000 24.5963 0.0000
# 4 0.0000 0.0000 0.0000 -41.7636 0.0000 -5.6654
# 5 20.9440 1.7459 24.5963 0.0000 70.5307 0.0000
# 6 0.0000 0.0000 0.0000 -5.6654 0.0000 -23.8093
#
#
#
# Elastic Compliance Matrix: (Units=1/GPa)
#
#
# Indices 1 2 3 4 5 6 
#
# 1 0.007892 -0.000289 -0.001994 0.000000 -0.001641 0.000000
# 2 -0.000289 0.008668 -0.000978 0.000000 0.000212 0.000000
# 3 -0.001994 -0.000978 0.004177 0.000000 -0.000840 0.000000
# 4 0.000000 0.000000 0.000000 -0.024743 0.000000 0.005888
# 5 -0.001641 0.000212 -0.000840 0.000000 0.014953 0.000000
# 6 0.000000 0.000000 0.000000 0.005888 0.000000 -0.043401
#
#
# Mechanical properties :
#
#
# Convention : Reuss Voigt Hill
#
# Bulk Modulus (GPa) = 70.34884 90.94419 80.64652
# Shear Modulus (GPa) = -235.90294 29.91466 -102.99414
#
# Velocity S-wave (km/s) = -9.61281 3.42315 -6.35170
# Velocity P-wave (km/s) = 9.78017 7.15877 4.71189
#
# Compressibility (1/GPa) = 0.01421487
#
# Stress axis : x y z
#
# Youngs Moduli (GPa) = 126.71629 115.37191 239.40891
#
# Poissons Ratio (x) = 0.03329 0.47732
# Poissons Ratio (y) = 0.03656 0.23424
# Poissons Ratio (z) = 0.25264 0.11288
#
# Static dielectric constant tensor:
#      x y z
#    x 1.921240 0.000000 0.004790 
#    y 0.000000 2.144620 0.000000 
#    z 0.004790 0.000000 1.973460 
# 
# From -- ./inp_files/212750.got.cif
#   From: 2010.05.17/outbox.cif.g08.bks.cpg/sg12_107_cif.got.tgz:212750.got - 2010.06.03 13:09:07.
