data_PCOD9195943
_publ_section_title
;
Structure prediction by ZEFSAII (Michael W. Deem and Ramdas Pophale) SiO2 
 PCOD9195943
Probable space group: C 2/M
;
_chemical_formula_sum "Si O2"
_cell_formula_units_Z 48
_cell_length_a 15.636192
_cell_length_b 19.639189
_cell_length_c 15.050645
_cell_angle_alpha 90.000000
_cell_angle_beta 151.010551
_cell_angle_gamma 90.000000
_cell_volume 2239.940979
_symmetry_space_group_name_H-M "C 2/M"
_symmetry_group_IT_number 12
_symmetry_cell_setting 'monoclinic'
loop_
_space_group_symop_operation_xyz
x,y,z
-x,y,-z
-x,-y,-z
x,-y,z
1/2+x,1/2+y,z
1/2-x,1/2+y,-z
1/2-x,1/2-y,-z
1/2+x,1/2-y,z
loop_
_atom_site_type_symbol
_atom_site_label
_atom_site_fract_x
_atom_site_fract_y
_atom_site_fract_z
Si Si1 0.606006 0.183754 0.502013
Si Si2 0.954392 0.580814 0.858049
Si Si3 0.860862 0.424495 0.214577
Si Si4 0.658411 0.578934 0.868387
Si Si5 0.599259 0.659492 0.493696
Si Si6 0.836274 0.924957 0.786271
O O1 0.500000 0.188855 0.500000
O O2 0.491090 0.139143 0.328861
O O3 0.633347 0.261669 0.501618
O O4 0.780561 0.138325 0.675861
O O5 0.915008 0.500000 0.822066
O O6 0.784580 0.620479 0.669456
O O7 0.000000 0.601643 0.000000
O O8 0.138129 0.591849 0.974432
O O9 0.929765 0.500000 0.249829
O O10 0.817488 0.429809 0.279039
O O11 0.681334 0.413345 0.995189
O O12 0.617388 0.500000 0.810394
O O13 0.526301 0.625728 0.694376
O O14 0.500000 0.654143 0.500000
O O15 0.847851 0.000000 0.752975
O O16 0.000000 0.913938 0.000000
#
# Coordination Sequence:
#
# PCOD9195943 Si02
#       6
#     8   8   8   8   8   8
#     4   9  19  34  53  79 106 142 177 212 266 324
#     4  10  20  35  56  79 103 141 188 227 265 312
#     4   9  18  36  57  78 107 140 175 220 270 315
#     4  10  21  37  57  80 108 142 181 226 270 314
#     4  11  21  35  55  81 110 142 181 222 268 319
#     4   9  17  33  58  84 106 136 179 221 262 317
#
# _framework density 21.429137000000001
#
# number of rings (size 3 to 8) (size 9 to 14) (size 15 to 20)
#    0.000    2.333    1.667    1.000    0.000    4.000 
#    6.000    0.833    0.000    0.000    0.000    0.000 
#    0.000    0.000    0.000    0.000    0.000    0.000 
#
# Total GULP energy -133904.740638 kJ/mol
# GULP energy per Si atom -5579.364193 kJ/mol
# Density = 2.138036 g / cm^3
# Si number density = 21.429137 Si / 1000 Ang^3
#
#
#
# Elastic Constant Matrix: (Units=GPa)
#
#
# Indices 1 2 3 4 5 6 
#
# 1 51.3561 11.0012 9.8323 0.0006 -4.7216 0.0000
# 2 11.0012 190.0132 133.3246 0.0000 -0.1163 0.0000
# 3 9.8323 133.3246 173.0855 0.0012 -1.6010 0.0001
# 4 0.0006 0.0000 0.0012 -46.8932 0.0008 -9.5616
# 5 -4.7216 -0.1163 -1.6010 0.0008 24.8364 0.0001
# 6 0.0000 0.0000 0.0001 -9.5616 0.0001 13.4072
#
#
#
# Elastic Compliance Matrix: (Units=1/GPa)
#
#
# Indices 1 2 3 4 5 6 
#
# 1 0.020088 -0.000837 -0.000461 0.000000 0.003785 0.000000
# 2 -0.000837 0.011494 -0.008812 0.000000 -0.000673 0.000000
# 3 -0.000461 -0.008812 0.012598 0.000000 0.000683 0.000000
# 4 0.000000 0.000000 0.000000 -0.018618 0.000001 -0.013278
# 5 0.003785 -0.000673 0.000683 0.000001 0.041024 0.000000
# 6 0.000000 0.000000 0.000000 -0.013278 0.000000 0.065118
#
#
# Mechanical properties :
#
#
# Convention : Reuss Voigt Hill
#
# Bulk Modulus (GPa) = 41.73935 80.30789 61.02362
# Shear Modulus (GPa) = 31.26732 15.62319 23.44526
#
# Velocity S-wave (km/s) = 3.82396 2.70305 3.31128
# Velocity P-wave (km/s) = 6.24636 6.87745 6.56949
#
# Compressibility (1/GPa) = 0.02395821
#
# Stress axis : x y z
#
# Youngs Moduli (GPa) = 49.78216 87.00060 79.37718
#
# Poissons Ratio (x) = 0.07282 0.03662
# Poissons Ratio (y) = 0.04167 0.69951
# Poissons Ratio (z) = 0.02297 0.76669
#
# Static dielectric constant tensor:
#      x y z
#    x 1.977070 0.000000 -0.007910 
#    y 0.000000 1.754210 0.000000 
#    z -0.007910 0.000000 1.742470 
# 
# From -- ./inp_files/75113.got.cif
#   From: 2010.05.17/outbox.cif.g08.bks.cpg/sg12_38_cif.got.tgz:75113.got - 2010.06.03 13:09:07.
