data_PCOD9195625
_publ_section_title
;
Structure prediction by ZEFSAII (Michael W. Deem and Ramdas Pophale) SiO2 
 PCOD9195625
Probable space group: C 2/M
;
_chemical_formula_sum "Si O2"
_cell_formula_units_Z 48
_cell_length_a 18.391017
_cell_length_b 7.656344
_cell_length_c 15.973705
_cell_angle_alpha 90.000000
_cell_angle_beta 90.572171
_cell_angle_gamma 90.000000
_cell_volume 2249.112546
_symmetry_space_group_name_H-M "C 2/M"
_symmetry_group_IT_number 12
_symmetry_cell_setting 'monoclinic'
loop_
_space_group_symop_operation_xyz
x,y,z
-x,y,-z
-x,-y,-z
x,-y,z
1/2+x,1/2+y,z
1/2-x,1/2+y,-z
1/2-x,1/2-y,-z
1/2+x,1/2-y,z
loop_
_atom_site_type_symbol
_atom_site_label
_atom_site_fract_x
_atom_site_fract_y
_atom_site_fract_z
Si Si1 0.206000 0.286087 0.751209
Si Si2 0.206565 0.208045 0.083979
Si Si3 0.290504 0.709939 0.586761
Si Si4 0.454707 0.292377 0.577974
Si Si5 0.037854 0.706143 0.083640
Si Si6 0.461746 0.788398 0.251100
O O1 0.205843 0.500000 0.751744
O O2 0.249551 0.227662 0.834091
O O3 0.246181 0.226674 0.667222
O O4 0.122077 0.230665 0.751887
O O5 0.124386 0.275726 0.080623
O O6 0.201658 0.000000 0.091098
O O7 0.250000 0.250000 0.000000
O O8 0.293780 0.500000 0.595267
O O9 0.250000 0.750000 0.500000
O O10 0.372957 0.778720 0.584723
O O11 0.500000 0.219692 0.500000
O O12 0.446910 0.500000 0.563467
O O13 0.498405 0.266938 0.663903
O O14 0.020413 0.500000 0.084497
O O15 0.004747 0.776756 0.169691
O O16 0.000000 0.780900 0.000000
O O17 0.461952 0.000000 0.250657
#
# Coordination Sequence:
#
# PCOD9195625 Si02
#       6
#     8   8   8   8   8   8
#     4   9  19  36  56  78 107 144 181 221 275 330
#     4  11  22  38  60  84 113 148 186 228 275 330
#     4  10  20  35  55  78 106 141 180 221 268 324
#     4  10  21  36  53  77 111 146 178 222 282 333
#     4  10  21  38  58  81 113 149 184 228 282 335
#     4  10  20  35  57  81 105 140 185 227 269 324
#
# _framework density 21.341752
#
# number of rings (size 3 to 8) (size 9 to 14) (size 15 to 20)
#    0.000    2.000    0.000    3.500    0.000    6.000 
#    0.000    5.000    0.000    0.000    0.000    0.000 
#    0.000    0.000    0.000    0.000    0.000    0.000 
#
# Total GULP energy -134165.389480 kJ/mol
# GULP energy per Si atom -5590.224562 kJ/mol
# Density = 2.129318 g / cm^3
# Si number density = 21.341752 Si / 1000 Ang^3
#
#
#
# Elastic Constant Matrix: (Units=GPa)
#
#
# Indices 1 2 3 4 5 6 
#
# 1 198.6372 -21.7055 120.5446 0.0000 -7.6066 0.0000
# 2 -21.7055 30.6141 -17.5513 0.0000 -7.1518 0.0000
# 3 120.5446 -17.5513 226.6356 0.0000 -11.4563 0.0000
# 4 0.0000 0.0000 0.0000 -58.6960 0.0000 -26.8828
# 5 -7.6066 -7.1518 -11.4563 0.0000 47.9415 0.0000
# 6 0.0000 0.0000 0.0000 -26.8828 0.0000 -1.8198
#
#
#
# Elastic Compliance Matrix: (Units=1/GPa)
#
#
# Indices 1 2 3 4 5 6 
#
# 1 0.007767 0.003516 -0.003816 0.000000 0.000845 0.000000
# 2 0.003516 0.037447 0.001357 0.000000 0.006468 0.000000
# 3 -0.003816 0.001357 0.006607 0.000000 0.001176 0.000000
# 4 0.000000 0.000000 0.000000 0.002955 0.000000 -0.043650
# 5 0.000845 0.006468 0.001176 0.000000 0.022239 0.000000
# 6 0.000000 0.000000 0.000000 -0.043650 0.000000 0.095306
#
#
# Mechanical properties :
#
#
# Convention : Reuss Voigt Hill
#
# Bulk Modulus (GPa) = 18.54127 68.71804 43.62966
# Shear Modulus (GPa) = 26.56989 22.45841 24.51415
#
# Velocity S-wave (km/s) = 3.53224 3.24747 3.39285
# Velocity P-wave (km/s) = 5.03412 6.80663 5.98634
#
# Compressibility (1/GPa) = 0.05393374
#
# Stress axis : x y z
#
# Youngs Moduli (GPa) = 128.75591 26.70470 151.36559
#
# Poissons Ratio (x) = -0.09390 0.57760
# Poissons Ratio (y) = -0.45274 -0.20536
# Poissons Ratio (z) = 0.49133 -0.03623
#
# Static dielectric constant tensor:
#      x y z
#    x 1.708680 0.000000 -0.005470 
#    y 0.000000 1.775870 0.000000 
#    z -0.005470 0.000000 1.725580 
# 
# From -- ./inp_files/221669.got.cif
#   From: 2010.05.17/outbox.cif.g08.bks.cpg/sg12_111_cif.got.tgz:221669.got - 2010.06.03 13:09:07.
