data_PCOD9195598
_publ_section_title
;
Structure prediction by ZEFSAII (Michael W. Deem and Ramdas Pophale) SiO2 
 PCOD9195598
Probable space group: C 2/M
;
_chemical_formula_sum "Si O2"
_cell_formula_units_Z 36
_cell_length_a 12.232642
_cell_length_b 23.252744
_cell_length_c 14.946542
_cell_angle_alpha 90.000000
_cell_angle_beta 152.545477
_cell_angle_gamma 90.000000
_cell_volume 1960.098875
_symmetry_space_group_name_H-M "C 2/M"
_symmetry_group_IT_number 12
_symmetry_cell_setting 'monoclinic'
loop_
_space_group_symop_operation_xyz
x,y,z
-x,y,-z
-x,-y,-z
x,-y,z
1/2+x,1/2+y,z
1/2-x,1/2+y,-z
1/2-x,1/2-y,-z
1/2+x,1/2-y,z
loop_
_atom_site_type_symbol
_atom_site_label
_atom_site_fract_x
_atom_site_fract_y
_atom_site_fract_z
Si Si1 0.751917 0.263479 0.353733
Si Si2 0.242486 0.568523 0.551048
Si Si3 0.721284 0.430265 0.213260
Si Si4 0.021671 0.171271 0.353246
Si Si5 0.500000 0.216172 0.000000
O O1 0.844650 0.204681 0.469211
O O2 0.620660 0.298832 0.335013
O O3 0.000000 0.291237 0.500000
O O4 0.579480 0.252419 0.144902
O O5 0.260600 0.500000 0.550304
O O6 0.301590 0.580819 0.698147
O O7 0.401283 0.605458 0.600222
O O8 0.967711 0.587544 0.347522
O O9 0.723360 0.500000 0.208269
O O10 0.500000 0.405930 0.000000
O O11 0.740052 0.180657 0.154704
#
# Coordination Sequence:
#
# PCOD9195598 Si02
#       5
#     8   8   8   8   4
#     4   9  20  36  56  78 103 132 173 224 268 307
#     4   9  18  31  49  75 107 140 171 207 257 311
#     4   8  15  29  46  70 105 138 168 207 252 301
#     4  10  20  35  55  77 108 137 173 217 260 308
#     4  10  20  38  55  76 101 140 178 216 262 308
#
# _framework density 18.366420000000002
#
# number of rings (size 3 to 8) (size 9 to 14) (size 15 to 20)
#    0.000    2.889    0.000    2.000    3.111    1.778 
#    2.000    0.556    0.000    6.000    0.000    0.000 
#    0.000    0.000    0.000    0.000    0.000    0.000 
#
# Total GULP energy -100338.595425 kJ/mol
# GULP energy per Si atom -5574.366412 kJ/mol
# Density = 1.832462 g / cm^3
# Si number density = 18.366420 Si / 1000 Ang^3
#
#
#
# Elastic Constant Matrix: (Units=GPa)
#
#
# Indices 1 2 3 4 5 6 
#
# 1 81.0488 30.5919 30.7115 0.0000 2.9447 0.0001
# 2 30.5919 65.6249 25.0657 0.0000 3.7785 0.0001
# 3 30.7115 25.0657 129.5473 -0.0005 -9.0127 0.0001
# 4 0.0000 0.0000 -0.0005 6.2240 -0.0002 0.1856
# 5 2.9447 3.7785 -9.0127 -0.0002 23.2565 0.0000
# 6 0.0001 0.0001 0.0001 0.1856 0.0000 24.0098
#
#
#
# Elastic Compliance Matrix: (Units=1/GPa)
#
#
# Indices 1 2 3 4 5 6 
#
# 1 0.015771 -0.006213 -0.002678 0.000000 -0.002025 0.000000
# 2 -0.006213 0.019275 -0.002487 0.000000 -0.003309 0.000000
# 3 -0.002678 -0.002487 0.009133 0.000001 0.004282 0.000000
# 4 0.000000 0.000000 0.000001 0.160705 0.000002 -0.001242
# 5 -0.002025 -0.003309 0.004282 0.000002 0.045452 0.000000
# 6 0.000000 0.000000 0.000000 -0.001242 0.000000 0.041659
#
#
# Mechanical properties :
#
#
# Convention : Reuss Voigt Hill
#
# Bulk Modulus (GPa) = 46.67488 49.88435 48.27961
# Shear Modulus (GPa) = 15.53318 23.35486 19.44402
#
# Velocity S-wave (km/s) = 2.91131 3.56983 3.25725
# Velocity P-wave (km/s) = 6.06377 6.64915 6.36319
#
# Compressibility (1/GPa) = 0.02142480
#
# Stress axis : x y z
#
# Youngs Moduli (GPa) = 63.40557 51.88187 109.49210
#
# Poissons Ratio (x) = 0.32233 0.29319
# Poissons Ratio (y) = 0.39392 0.27228
# Poissons Ratio (z) = 0.16978 0.12902
#
# Static dielectric constant tensor:
#      x y z
#    x 1.623560 0.000000 0.000540 
#    y 0.000000 1.667560 0.000000 
#    z 0.000540 0.000000 1.643040 
# 
# From -- ./inp_files/207872.got.cif
#   From: 2010.05.17/outbox.cif.g08.bks.cpg/sg12_104_cif.got.tgz:207872.got - 2010.06.03 13:09:07.
