data_PCOD9195621
_publ_section_title
;
Structure prediction by ZEFSAII (Michael W. Deem and Ramdas Pophale) SiO2 
 PCOD9195621
Probable space group: C 2/M
;
_chemical_formula_sum "Si O2"
_cell_formula_units_Z 48
_cell_length_a 23.773019
_cell_length_b 7.664924
_cell_length_c 13.079121
_cell_angle_alpha 90.000000
_cell_angle_beta 92.781526
_cell_angle_gamma 90.000000
_cell_volume 2380.448425
_symmetry_space_group_name_H-M "C 2/M"
_symmetry_group_IT_number 12
_symmetry_cell_setting 'monoclinic'
loop_
_space_group_symop_operation_xyz
x,y,z
-x,y,-z
-x,-y,-z
x,-y,z
1/2+x,1/2+y,z
1/2-x,1/2+y,-z
1/2-x,1/2-y,-z
1/2+x,1/2-y,z
loop_
_atom_site_type_symbol
_atom_site_label
_atom_site_fract_x
_atom_site_fract_y
_atom_site_fract_z
Si Si1 0.178157 0.289230 0.591275
Si Si2 0.111894 0.703704 0.776180
Si Si3 0.120976 0.211097 0.168750
Si Si4 0.995864 0.292433 0.115000
Si Si5 0.814789 0.208122 0.028740
Si Si6 0.305471 0.708593 0.634914
O O1 0.179566 0.500000 0.598623
O O2 0.134313 0.221777 0.671391
O O3 0.241296 0.223982 0.623440
O O4 0.166910 0.244471 0.472649
O O5 0.099657 0.500000 0.755568
O O6 0.056321 0.780812 0.824721
O O7 0.161828 0.714878 0.863933
O O8 0.147146 0.271213 0.063063
O O9 0.158915 0.275259 0.266230
O O10 0.056296 0.265243 0.171295
O O11 0.122907 0.000000 0.168241
O O12 0.985604 0.500000 0.103854
O O13 0.000000 0.219560 0.000000
O O14 0.820667 0.000000 0.036525
O O15 0.750000 0.250000 0.000000
O O16 0.301732 0.500000 0.646500
#
# Coordination Sequence:
#
# PCOD9195621 Si02
#       6
#     8   8   8   8   8   8
#     4   9  18  34  56  78 104 138 173 215 267 317
#     4  10  20  36  55  77 108 140 175 219 267 314
#     4  10  21  36  54  77 107 142 178 218 265 316
#     4  10  20  35  55  78 105 141 181 221 262 310
#     4  11  22  34  52  79 109 139 173 215 266 320
#     4   9  18  34  54  77 105 136 174 218 263 313
#
# _framework density 20.164268
#
# number of rings (size 3 to 8) (size 9 to 14) (size 15 to 20)
#    0.000    2.167    1.667    1.500    0.000    5.667 
#    0.000    4.167    0.000    5.000    0.000    0.000 
#    0.000    0.000    0.000    0.000    0.000    0.000 
#
# Total GULP energy -134006.890739 kJ/mol
# GULP energy per Si atom -5583.620447 kJ/mol
# Density = 2.011837 g / cm^3
# Si number density = 20.164268 Si / 1000 Ang^3
#
#
#
# Elastic Constant Matrix: (Units=GPa)
#
#
# Indices 1 2 3 4 5 6 
#
# 1 53.2639 -3.6058 -1.5471 0.0000 -21.6665 0.0000
# 2 -3.6058 36.5460 1.1643 0.0000 -8.1239 0.0000
# 3 -1.5471 1.1643 76.2915 0.0000 -20.8304 0.0000
# 4 0.0000 0.0000 0.0000 -12.0467 0.0000 18.1132
# 5 -21.6665 -8.1239 -20.8304 0.0000 36.6615 0.0000
# 6 0.0000 0.0000 0.0000 18.1132 0.0000 14.8288
#
#
#
# Elastic Compliance Matrix: (Units=1/GPa)
#
#
# Indices 1 2 3 4 5 6 
#
# 1 0.028524 0.007551 0.006537 0.000000 0.022245 0.000000
# 2 0.007551 0.030933 0.003280 0.000000 0.013181 0.000000
# 3 0.006537 0.003280 0.017095 0.000000 0.014303 0.000000
# 4 0.000000 0.000000 0.000000 -0.029264 0.000000 0.035746
# 5 0.022245 0.013181 0.014303 0.000000 0.051470 0.000000
# 6 0.000000 0.000000 0.000000 0.035746 0.000000 0.023774
#
#
# Mechanical properties :
#
#
# Convention : Reuss Voigt Hill
#
# Bulk Modulus (GPa) = 8.98571 17.56936 13.27754
# Shear Modulus (GPa) = 40.03399 19.22804 29.63102
#
# Velocity S-wave (km/s) = 4.46061 3.09134 3.83754
# Velocity P-wave (km/s) = 5.56734 4.63399 5.12197
#
# Compressibility (1/GPa) = 0.11128780
#
# Stress axis : x y z
#
# Youngs Moduli (GPa) = 35.05806 32.32771 58.49510
#
# Poissons Ratio (x) = -0.24410 -0.38237
# Poissons Ratio (y) = -0.26472 -0.19185
# Poissons Ratio (z) = -0.22917 -0.10603
#
# Static dielectric constant tensor:
#      x y z
#    x 1.703580 0.000000 -0.027360 
#    y 0.000000 1.840650 0.000000 
#    z -0.027360 0.000000 1.704830 
# 
# From -- ./inp_files/172102.got.cif
#   From: 2010.05.17/outbox.cif.g08.bks.cpg/sg12_87_cif.got.tgz:172102.got - 2010.06.03 13:09:07.
