data_PCOD9195605
_publ_section_title
;
Structure prediction by ZEFSAII (Michael W. Deem and Ramdas Pophale) SiO2 
 PCOD9195605
Probable space group: C 2/M
;
_chemical_formula_sum "Si O2"
_cell_formula_units_Z 64
_cell_length_a 18.864032
_cell_length_b 8.987016
_cell_length_c 25.924420
_cell_angle_alpha 90.000000
_cell_angle_beta 50.680860
_cell_angle_gamma 90.000000
_cell_volume 3400.099252
_symmetry_space_group_name_H-M "C 2/M"
_symmetry_group_IT_number 12
_symmetry_cell_setting 'monoclinic'
loop_
_space_group_symop_operation_xyz
x,y,z
-x,y,-z
-x,-y,-z
x,-y,z
1/2+x,1/2+y,z
1/2-x,1/2+y,-z
1/2-x,1/2-y,-z
1/2+x,1/2-y,z
loop_
_atom_site_type_symbol
_atom_site_label
_atom_site_fract_x
_atom_site_fract_y
_atom_site_fract_z
Si Si1 0.035633 0.324017 0.639689
Si Si2 0.264609 0.178326 0.436840
Si Si3 0.337873 0.674135 0.166084
Si Si4 0.479118 0.823395 0.895043
Si Si5 0.915836 0.323065 0.503180
Si Si6 0.172945 0.826036 0.105827
Si Si7 0.350149 0.672226 0.760162
Si Si8 0.637577 0.674234 0.968437
O O1 0.019201 0.500000 0.654976
O O2 0.130295 0.283783 0.625568
O O3 0.055521 0.300682 0.569704
O O4 0.947091 0.234577 0.697261
O O5 0.250000 0.250000 0.500000
O O6 0.180321 0.240748 0.442701
O O7 0.259077 0.000000 0.443416
O O8 0.343928 0.500000 0.175857
O O9 0.417417 0.765256 0.157521
O O10 0.235988 0.735737 0.221826
O O11 0.356590 0.690521 0.095858
O O12 0.411286 0.743484 0.886206
O O13 0.474181 0.000000 0.892276
O O14 0.440372 0.770555 0.968438
O O15 0.902037 0.500000 0.516997
O O16 0.000000 0.273941 0.500000
O O17 0.154004 0.817542 0.175748
O O18 0.265567 0.732581 0.054285
O O19 0.186582 0.000000 0.086026
O O20 0.339618 0.500000 0.750711
O O21 0.622873 0.500000 0.986774
#
# Coordination Sequence:
#
# PCOD9195605 Si02
#       8
#     8   8   8   8   8   8   8   8
#     4   9  18  33  54  77 103 139 177 213 254 302
#     4   9  17  30  50  77 106 137 173 210 250 295
#     4  10  21  37  56  76 103 138 173 213 260 311
#     4  12  23  34  52  78 106 134 168 214 265 314
#     4   9  18  33  53  80 113 144 173 209 255 302
#     4  10  21  37  54  74 102 134 172 217 262 308
#     4  10  21  37  57  78 100 134 178 217 255 306
#     4  10  20  35  55  78 103 134 171 210 260 318
#
# _framework density 18.822979
#
# number of rings (size 3 to 8) (size 9 to 14) (size 15 to 20)
#    0.000    2.125    0.000    4.500    0.000    7.250 
#    0.000    1.250    0.000    4.500    0.000    0.000 
#    0.000    0.000    0.000    0.000    0.000    0.000 
#
# Total GULP energy -178646.117657 kJ/mol
# GULP energy per Si atom -5582.691177 kJ/mol
# Density = 1.878014 g / cm^3
# Si number density = 18.822979 Si / 1000 Ang^3
#
#
#
# Elastic Constant Matrix: (Units=GPa)
#
#
# Indices 1 2 3 4 5 6 
#
# 1 91.6978 33.1214 15.8258 0.0000 -38.8469 0.0001
# 2 33.1214 84.3050 28.0525 -0.0001 -19.6666 0.0004
# 3 15.8258 28.0525 57.5637 0.0000 -35.5225 0.0001
# 4 0.0000 -0.0001 0.0000 31.7089 0.0000 -10.3755
# 5 -38.8469 -19.6666 -35.5225 0.0000 31.3263 0.0000
# 6 0.0001 0.0004 0.0001 -10.3755 0.0000 29.1970
#
#
#
# Elastic Compliance Matrix: (Units=1/GPa)
#
#
# Indices 1 2 3 4 5 6 
#
# 1 -0.137755 0.035649 -0.236829 0.000000 -0.416998 0.000000
# 2 0.035649 0.005051 0.056536 0.000000 0.111487 0.000000
# 3 -0.236829 0.056536 -0.347717 0.000000 -0.652485 0.000001
# 4 0.000000 0.000000 0.000000 0.035686 -0.000001 0.012682
# 5 -0.416998 0.111487 -0.652485 -0.000001 -1.155079 0.000001
# 6 0.000000 0.000000 0.000001 0.012682 0.000001 0.038757
#
#
# Mechanical properties :
#
#
# Convention : Reuss Voigt Hill
#
# Bulk Modulus (GPa) = -1.29919 43.06288 20.88185
# Shear Modulus (GPa) = -3.27153 28.88424 12.80635
#
# Velocity S-wave (km/s) = -1.31978 3.92154 2.61120
# Velocity P-wave (km/s) = 1.73613 6.59031 4.49544
#
# Compressibility (1/GPa) = -0.76970907
#
# Stress axis : x y z
#
# Youngs Moduli (GPa) = -7.25927 197.96215 -2.87590
#
# Poissons Ratio (x) = -7.05706 -0.68110
# Poissons Ratio (y) = 0.25878 0.16259
# Poissons Ratio (z) = -1.71921 -11.19200
#
# Static dielectric constant tensor:
#      x y z
#    x 1.676040 0.000000 -0.002070 
#    y 0.000000 1.627110 0.000000 
#    z -0.002070 0.000000 1.645190 
# 
# From -- ./inp_files/378167.got.cif
#   From: 2010.05.17/outbox.cif.g08.bks.cpg/sg12_190_cif.got.tgz:378167.got - 2010.06.03 13:09:07.
