data_PCOD9195135
_publ_section_title
;
Structure prediction by ZEFSAII (Michael W. Deem and Ramdas Pophale) SiO2 
 PCOD9195135
Probable space group: C 2/M
;
_chemical_formula_sum "Si O2"
_cell_formula_units_Z 38
_cell_length_a 16.754327
_cell_length_b 13.391993
_cell_length_c 9.919566
_cell_angle_alpha 90.000000
_cell_angle_beta 44.492676
_cell_angle_gamma 90.000000
_cell_volume 1559.804515
_symmetry_space_group_name_H-M "C 2/M"
_symmetry_group_IT_number 12
_symmetry_cell_setting 'monoclinic'
loop_
_space_group_symop_operation_xyz
x,y,z
-x,y,-z
-x,-y,-z
x,-y,z
1/2+x,1/2+y,z
1/2-x,1/2+y,-z
1/2-x,1/2-y,-z
1/2+x,1/2-y,z
loop_
_atom_site_type_symbol
_atom_site_label
_atom_site_fract_x
_atom_site_fract_y
_atom_site_fract_z
Si Si1 0.361850 0.500000 0.860916
Si Si2 0.903351 0.500000 0.910425
Si Si3 0.112062 0.295444 0.927865
Si Si4 0.245971 0.000000 0.729045
Si Si5 0.173801 0.287413 0.409154
Si Si6 0.428863 0.280683 0.749811
Si Si7 0.500000 0.000000 0.500000
O O1 0.421958 0.399138 0.736623
O O2 0.231340 0.500000 0.966300
O O3 0.351345 0.500000 0.038150
O O4 0.920077 0.403406 0.980594
O O5 0.992042 0.500000 0.679475
O O6 0.141842 0.238328 0.030315
O O7 0.225129 0.292646 0.702461
O O8 0.000000 0.247446 0.000000
O O9 0.260752 0.108165 0.640645
O O10 0.365574 0.000000 0.661447
O O11 0.121719 0.279138 0.317423
O O12 0.056794 0.259575 0.624349
#
# Coordination Sequence:
#
# PCOD9195135 Si02
#       7
#     4   4   8   4   8   8   2
#     4  11  20  38  71  96 133 165 225 289 334 389
#     4  11  22  41  69  98 135 173 235 276 341 400
#     4  12  25  42  63  97 143 182 218 274 349 416
#     4  11  19  36  62  96 126 167 222 270 332 388
#     4  11  23  40  69  97 130 175 234 288 332 394
#     4  11  23  41  66 100 131 169 234 287 334 395
#     4  10  20  34  66 102 118 166 216 294 312 378
#
# _framework density 24.362027000000001
#
# number of rings (size 3 to 8) (size 9 to 14) (size 15 to 20)
#    0.000    0.842    4.211    6.000    0.000    3.368 
#    0.000    2.105    0.000    0.000    0.000    0.000 
#    0.000    0.000    0.000    0.000    0.000    0.000 
#
# Total GULP energy -105798.080044 kJ/mol
# GULP energy per Si atom -5568.320002 kJ/mol
# Density = 2.430658 g / cm^3
# Si number density = 24.362027 Si / 1000 Ang^3
#
#
#
# Elastic Constant Matrix: (Units=GPa)
#
#
# Indices 1 2 3 4 5 6 
#
# 1 55.4988 -2.9807 17.0830 0.0000 -13.8882 0.0000
# 2 -2.9807 157.1944 34.3260 0.0000 11.7644 0.0000
# 3 17.0830 34.3260 129.4666 0.0000 -26.7383 0.0000
# 4 0.0000 0.0000 0.0000 6.6822 0.0000 -4.8441
# 5 -13.8882 11.7644 -26.7383 0.0000 28.3897 0.0000
# 6 0.0000 0.0000 0.0000 -4.8441 0.0000 16.2294
#
#
#
# Elastic Compliance Matrix: (Units=1/GPa)
#
#
# Indices 1 2 3 4 5 6 
#
# 1 0.020600 -0.000160 -0.000721 0.000000 0.009465 0.000000
# 2 -0.000160 0.007546 -0.003279 0.000000 -0.006294 0.000000
# 3 -0.000721 -0.003279 0.011045 0.000000 0.011409 0.000000
# 4 0.000000 0.000000 0.000000 0.190973 0.000000 0.057001
# 5 0.009465 -0.006294 0.011409 0.000000 0.053207 0.000000
# 6 0.000000 0.000000 0.000000 0.057001 0.000000 0.078630
#
#
# Mechanical properties :
#
#
# Convention : Reuss Voigt Hill
#
# Bulk Modulus (GPa) = 32.39429 48.77960 40.58695
# Shear Modulus (GPa) = 13.13674 29.84236 21.48955
#
# Velocity S-wave (km/s) = 2.32465 3.50373 2.97323
# Velocity P-wave (km/s) = 4.53114 6.03610 5.33693
#
# Compressibility (1/GPa) = 0.03086964
#
# Stress axis : x y z
#
# Youngs Moduli (GPa) = 48.54303 132.52723 90.54095
#
# Poissons Ratio (x) = 0.02125 0.06527
# Poissons Ratio (y) = 0.00778 0.29691
# Poissons Ratio (z) = 0.03499 0.43459
#
# Static dielectric constant tensor:
#      x y z
#    x 1.952640 0.000000 0.047150 
#    y 0.000000 1.941930 0.000000 
#    z 0.047150 0.000000 1.887530 
# 
# From -- ./inp_files/165437.got.cif
#   From: 2010.05.17/outbox.cif.g08.bks.cpg/sg12_83_cif.got.tgz:165437.got - 2010.06.03 13:09:07.
