data_PCOD9195443
_publ_section_title
;
Structure prediction by ZEFSAII (Michael W. Deem and Ramdas Pophale) SiO2 
 PCOD9195443
Probable space group: C 2/M
;
_chemical_formula_sum "Si O2"
_cell_formula_units_Z 50
_cell_length_a 24.223234
_cell_length_b 8.218279
_cell_length_c 17.409209
_cell_angle_alpha 90.000000
_cell_angle_beta 136.058328
_cell_angle_gamma 90.000000
_cell_volume 2404.944309
_symmetry_space_group_name_H-M "C 2/M"
_symmetry_group_IT_number 12
_symmetry_cell_setting 'monoclinic'
loop_
_space_group_symop_operation_xyz
x,y,z
-x,y,-z
-x,-y,-z
x,-y,z
1/2+x,1/2+y,z
1/2-x,1/2+y,-z
1/2-x,1/2-y,-z
1/2+x,1/2-y,z
loop_
_atom_site_type_symbol
_atom_site_label
_atom_site_fract_x
_atom_site_fract_y
_atom_site_fract_z
Si Si1 0.885219 0.185444 0.540378
Si Si2 0.454921 0.183581 0.752163
Si Si3 0.500000 0.000000 0.500000
Si Si4 0.057113 0.810684 0.987265
Si Si5 0.289169 0.312791 0.643517
Si Si6 0.219845 0.312662 0.198210
Si Si7 0.102021 0.810733 0.632154
O O1 0.947872 0.282882 0.654409
O O2 0.795946 0.245657 0.467931
O O3 0.893533 0.193194 0.457072
O O4 0.893684 0.000000 0.572518
O O5 0.510912 0.293188 0.860924
O O6 0.365183 0.213895 0.691855
O O7 0.479199 0.000000 0.791192
O O8 0.449315 0.851200 0.404424
O O9 0.072573 0.000000 0.018774
O O10 0.141243 0.719533 0.070642
O O11 0.000000 0.749661 0.000000
O O12 0.297183 0.500000 0.629006
O O13 0.287433 0.298906 0.734062
O O14 0.219812 0.500000 0.225873
O O15 0.306839 0.288485 0.248801
O O16 0.076800 0.000000 0.627576
#
# Coordination Sequence:
#
# PCOD9195443 Si02
#       7
#     8   8   2   8   8   8   8
#     4  10  21  37  53  74 112 146 184 230 282 329
#     4  12  23  33  49  73 107 151 201 233 270 318
#     4  12  22  36  72  90 118 140 180 220 304 368
#     4  11  22  34  51  75 109 153 201 241 269 312
#     4  11  20  31  49  72 105 150 194 232 271 322
#     4  10  20  35  54  77 114 150 187 236 281 320
#     4   9  22  39  60  92 121 143 177 231 291 355
#
# _framework density 20.790503000000001
#
# number of rings (size 3 to 8) (size 9 to 14) (size 15 to 20)
#    0.000    1.440    1.600    6.000    6.720    0.640 
#    0.000    0.000    0.000    0.000    0.000    1.120 
#    0.000    0.000    0.000    0.000    0.000    0.000 
#
# Total GULP energy -139277.691127 kJ/mol
# GULP energy per Si atom -5571.107645 kJ/mol
# Density = 2.074318 g / cm^3
# Si number density = 20.790503 Si / 1000 Ang^3
#
#
#
# Elastic Constant Matrix: (Units=GPa)
#
#
# Indices 1 2 3 4 5 6 
#
# 1 23.4447 21.9484 17.1128 0.0000 12.0682 0.0000
# 2 21.9484 103.4493 6.0260 0.0000 14.4326 0.0000
# 3 17.1128 6.0260 112.2677 0.0000 28.3816 0.0000
# 4 0.0000 0.0000 0.0000 35.8278 0.0000 5.7446
# 5 12.0682 14.4326 28.3816 0.0000 24.6392 0.0000
# 6 0.0000 0.0000 0.0000 5.7446 0.0000 14.4922
#
#
#
# Elastic Compliance Matrix: (Units=1/GPa)
#
#
# Indices 1 2 3 4 5 6 
#
# 1 0.067112 -0.010977 -0.004171 0.000000 -0.021637 0.000000
# 2 -0.010977 0.012481 0.002105 0.000000 -0.004360 0.000000
# 3 -0.004171 0.002105 0.013015 0.000000 -0.014183 0.000000
# 4 0.000000 0.000000 0.000000 0.029806 0.000000 -0.011815
# 5 -0.021637 -0.004360 -0.014183 0.000000 0.070074 0.000000
# 6 0.000000 0.000000 0.000000 -0.011815 0.000000 0.073686
#
#
# Mechanical properties :
#
#
# Convention : Reuss Voigt Hill
#
# Bulk Modulus (GPa) = 15.03221 36.59291 25.81256
# Shear Modulus (GPa) = 15.90154 27.93013 21.91584
#
# Velocity S-wave (km/s) = 2.76859 3.66923 3.25026
# Velocity P-wave (km/s) = 4.17925 5.96573 5.15054
#
# Compressibility (1/GPa) = 0.06652381
#
# Stress axis : x y z
#
# Youngs Moduli (GPa) = 14.90039 80.12075 76.83155
#
# Poissons Ratio (x) = 0.87951 0.32044
# Poissons Ratio (y) = 0.16357 -0.16176
# Poissons Ratio (z) = 0.06214 -0.16869
#
# Static dielectric constant tensor:
#      x y z
#    x 1.797680 0.000000 -0.014590 
#    y 0.000000 1.727150 0.000000 
#    z -0.014590 0.000000 1.818530 
# 
# From -- ./inp_files/292272.got.cif
#   From: 2010.05.17/outbox.cif.g08.bks.cpg/sg12_147_cif.got.tgz:292272.got - 2010.06.03 13:09:07.
