data_PCOD9195245
_publ_section_title
;
Structure prediction by ZEFSAII (Michael W. Deem and Ramdas Pophale) SiO2 
 PCOD9195245
Probable space group: C 2/M
;
_chemical_formula_sum "Si O2"
_cell_formula_units_Z 48
_cell_length_a 20.535113
_cell_length_b 7.429479
_cell_length_c 16.999765
_cell_angle_alpha 90.000000
_cell_angle_beta 64.606463
_cell_angle_gamma 90.000000
_cell_volume 2342.990948
_symmetry_space_group_name_H-M "C 2/M"
_symmetry_group_IT_number 12
_symmetry_cell_setting 'monoclinic'
loop_
_space_group_symop_operation_xyz
x,y,z
-x,y,-z
-x,-y,-z
x,-y,z
1/2+x,1/2+y,z
1/2-x,1/2+y,-z
1/2-x,1/2-y,-z
1/2+x,1/2-y,z
loop_
_atom_site_type_symbol
_atom_site_label
_atom_site_fract_x
_atom_site_fract_y
_atom_site_fract_z
Si Si1 0.923164 0.294043 0.560385
Si Si2 0.076251 0.780072 0.926283
Si Si3 0.724893 0.285426 0.925143
Si Si4 0.351427 0.718854 0.270300
Si Si5 0.664642 0.714145 0.547416
Si Si6 0.701219 0.219997 0.268510
O O1 0.938361 0.500000 0.577461
O O2 0.875369 0.295941 0.506334
O O3 0.872182 0.213649 0.654272
O O4 0.000000 0.209286 0.500000
O O5 0.144789 0.721059 0.943279
O O6 0.094315 0.725324 0.827159
O O7 0.075159 0.000000 0.927333
O O8 0.000000 0.719168 0.000000
O O9 0.721875 0.500000 0.917351
O O10 0.780591 0.221154 0.829383
O O11 0.750000 0.250000 0.000000
O O12 0.351991 0.500000 0.271101
O O13 0.363960 0.778903 0.352854
O O14 0.270960 0.771825 0.284273
O O15 0.653784 0.500000 0.548411
O O16 0.750000 0.750000 0.500000
O O17 0.698957 0.000000 0.271651
#
# Coordination Sequence:
#
# PCOD9195245 Si02
#       6
#     8   8   8   8   8   8
#     4  10  20  35  53  72  99 135 171 204 245 297
#     4   8  14  27  48  71  93 121 159 196 234 286
#     4   9  17  30  50  71  93 125 160 197 239 287
#     4   8  14  26  47  70  92 123 159 196 238 286
#     4  11  20  32  53  77 102 130 166 207 247 293
#     4   8  14  29  50  68  91 128 166 193 233 293
#
# _framework density 20.486635
#
# number of rings (size 3 to 8) (size 9 to 14) (size 15 to 20)
#    0.000    3.000    1.667    2.500    0.000    0.333 
#    3.000    0.833    0.000    0.500    0.000    0.000 
#    0.000    0.000    0.000    0.000    0.000    0.000 
#
# Total GULP energy -133853.585748 kJ/mol
# GULP energy per Si atom -5577.232739 kJ/mol
# Density = 2.044001 g / cm^3
# Si number density = 20.486635 Si / 1000 Ang^3
#
#
#
# Elastic Constant Matrix: (Units=GPa)
#
#
# Indices 1 2 3 4 5 6 
#
# 1 91.2767 -5.1224 91.1592 0.0002 -17.4898 -0.0001
# 2 -5.1224 67.2837 1.4267 0.0003 -5.4606 0.0008
# 3 91.1592 1.4267 208.4016 0.0000 -22.5436 -0.0005
# 4 0.0002 0.0003 0.0000 8.0168 0.0000 10.2783
# 5 -17.4898 -5.4606 -22.5436 0.0000 43.9354 0.0000
# 6 -0.0001 0.0008 -0.0005 10.2783 0.0000 9.2750
#
#
#
# Elastic Compliance Matrix: (Units=1/GPa)
#
#
# Indices 1 2 3 4 5 6 
#
# 1 0.020275 0.002047 -0.008451 0.000000 0.003989 0.000000
# 2 0.002047 0.015223 -0.000748 -0.000002 0.002323 0.000001
# 3 -0.008451 -0.000748 0.008604 0.000001 0.000957 0.000000
# 4 0.000000 -0.000002 0.000001 -0.296450 0.000000 0.328515
# 5 0.003989 0.002323 0.000957 0.000000 0.025129 0.000000
# 6 0.000000 0.000001 0.000000 0.328515 0.000000 -0.256233
#
#
# Mechanical properties :
#
#
# Convention : Reuss Voigt Hill
#
# Bulk Modulus (GPa) = 33.56157 60.20989 46.88573
# Shear Modulus (GPa) = -10.88816 30.87869 9.99526
#
# Velocity S-wave (km/s) = -2.30788 3.88656 2.21122
# Velocity P-wave (km/s) = 3.05221 7.04231 5.42725
#
# Compressibility (1/GPa) = 0.02979599
#
# Stress axis : x y z
#
# Youngs Moduli (GPa) = 49.32085 65.69175 116.22614
#
# Poissons Ratio (x) = -0.13444 0.98227
# Poissons Ratio (y) = -0.10094 0.08695
# Poissons Ratio (z) = 0.41683 0.04915
#
# Static dielectric constant tensor:
#      x y z
#    x 1.692200 0.000000 -0.006170 
#    y 0.000000 1.778420 0.000000 
#    z -0.006170 0.000000 1.754340 
# 
# From -- ./inp_files/276726.got.cif
#   From: 2010.05.17/outbox.cif.g08.bks.cpg/sg12_139_cif.got.tgz:276726.got - 2010.06.03 13:09:07.
