data_PCOD9195612
_publ_section_title
;
Structure prediction by ZEFSAII (Michael W. Deem and Ramdas Pophale) SiO2 
 PCOD9195612
Probable space group: C 2/M
;
_chemical_formula_sum "Si O2"
_cell_formula_units_Z 48
_cell_length_a 30.264294
_cell_length_b 11.151889
_cell_length_c 7.257800
_cell_angle_alpha 90.000000
_cell_angle_beta 75.758749
_cell_angle_gamma 90.000000
_cell_volume 2374.258897
_symmetry_space_group_name_H-M "C 2/M"
_symmetry_group_IT_number 12
_symmetry_cell_setting 'monoclinic'
loop_
_space_group_symop_operation_xyz
x,y,z
-x,y,-z
-x,-y,-z
x,-y,z
1/2+x,1/2+y,z
1/2-x,1/2+y,-z
1/2-x,1/2-y,-z
1/2+x,1/2-y,z
loop_
_atom_site_type_symbol
_atom_site_label
_atom_site_fract_x
_atom_site_fract_y
_atom_site_fract_z
Si Si1 0.985629 0.637604 0.302069
Si Si2 0.267113 0.629353 0.717982
Si Si3 0.644476 0.364678 0.118537
Si Si4 0.584889 0.138339 0.126915
Si Si5 0.887412 0.365369 0.321655
Si Si6 0.310617 0.302173 0.303890
O O1 0.978400 0.500000 0.246324
O O2 0.031978 0.677441 0.156082
O O3 0.000000 0.638602 0.500000
O O4 0.935371 0.691746 0.337474
O O5 0.246604 0.500000 0.787478
O O6 0.309921 0.649319 0.807086
O O7 0.285143 0.625556 0.489008
O O8 0.228224 0.728231 0.763058
O O9 0.625987 0.500000 0.176493
O O10 0.611945 0.249484 0.190216
O O11 0.659210 0.361688 0.887133
O O12 0.584774 0.000000 0.207260
O O13 0.606753 0.125901 0.904367
O O14 0.881485 0.500000 0.403940
O O15 0.843231 0.285375 0.389204
#
# Coordination Sequence:
#
# PCOD9195612 Si02
#       6
#     8   8   8   8   8   8
#     4   9  17  28  47  76 107 135 169 218 270 316
#     4  10  21  36  54  78 108 142 180 223 266 314
#     4  10  21  37  57  79 111 146 178 217 266 317
#     4   9  18  33  53  78 106 138 179 218 262 316
#     4   9  17  30  50  75 104 137 174 222 270 314
#     4  10  20  35  55  78 104 140 182 220 263 320
#
# _framework density 20.216832
#
# number of rings (size 3 to 8) (size 9 to 14) (size 15 to 20)
#    0.000    2.500    0.000    2.000    2.333    2.667 
#    0.000    4.167    0.000    9.500    0.000    0.000 
#    0.000    0.000    0.000    0.000    0.000    0.000 
#
# Total GULP energy -133628.084940 kJ/mol
# GULP energy per Si atom -5567.836873 kJ/mol
# Density = 2.017082 g / cm^3
# Si number density = 20.216832 Si / 1000 Ang^3
#
#
#
# Elastic Constant Matrix: (Units=GPa)
#
#
# Indices 1 2 3 4 5 6 
#
# 1 88.6971 62.7303 -12.5804 0.0000 10.2125 0.0000
# 2 62.7303 109.0443 2.9908 0.0000 4.3948 0.0000
# 3 -12.5804 2.9908 30.2462 0.0000 1.8546 0.0000
# 4 0.0000 0.0000 0.0000 16.0949 0.0000 -19.6035
# 5 10.2125 4.3948 1.8546 0.0000 29.8504 0.0000
# 6 0.0000 0.0000 0.0000 -19.6035 0.0000 27.7118
#
#
#
# Elastic Compliance Matrix: (Units=1/GPa)
#
#
# Indices 1 2 3 4 5 6 
#
# 1 0.023050 -0.013303 0.011309 0.000000 -0.006630 0.000000
# 2 -0.013303 0.016924 -0.007361 0.000000 0.002517 0.000000
# 3 0.011309 -0.007361 0.038813 0.000000 -0.005197 0.000000
# 4 0.000000 0.000000 0.000000 0.448975 0.000000 0.317608
# 5 -0.006630 0.002517 -0.005197 0.000000 0.035721 0.000000
# 6 0.000000 0.000000 0.000000 0.317608 0.000000 0.260764
#
#
# Mechanical properties :
#
#
# Convention : Reuss Voigt Hill
#
# Bulk Modulus (GPa) = 16.64526 37.14101 26.89313
# Shear Modulus (GPa) = 5.79386 26.38787 16.09086
#
# Velocity S-wave (km/s) = 1.69472 3.61673 2.82426
# Velocity P-wave (km/s) = 3.47573 5.98767 4.89555
#
# Compressibility (1/GPa) = 0.06007718
#
# Stress axis : x y z
#
# Youngs Moduli (GPa) = 43.38315 59.08740 25.76484
#
# Poissons Ratio (x) = 0.78606 -0.29139
# Poissons Ratio (y) = 0.57714 0.18966
# Poissons Ratio (z) = -0.49064 0.43495
#
# Static dielectric constant tensor:
#      x y z
#    x 1.734320 0.000000 -0.003940 
#    y 0.000000 1.763990 0.000000 
#    z -0.003940 0.000000 1.759280 
# 
# From -- ./inp_files/94437.got.cif
#   From: 2010.05.17/outbox.cif.g08.bks.cpg/sg12_48_cif.got.tgz:94437.got - 2010.06.03 13:09:07.
