data_PCOD9195921
_publ_section_title
;
Structure prediction by ZEFSAII (Michael W. Deem and Ramdas Pophale) SiO2 
 PCOD9195921
Probable space group: C 2/M
;
_chemical_formula_sum "Si O2"
_cell_formula_units_Z 40
_cell_length_a 12.702864
_cell_length_b 14.548718
_cell_length_c 21.567423
_cell_angle_alpha 90.000000
_cell_angle_beta 153.247066
_cell_angle_gamma 90.000000
_cell_volume 1794.222335
_symmetry_space_group_name_H-M "C 2/M"
_symmetry_group_IT_number 12
_symmetry_cell_setting 'monoclinic'
loop_
_space_group_symop_operation_xyz
x,y,z
-x,y,-z
-x,-y,-z
x,-y,z
1/2+x,1/2+y,z
1/2-x,1/2+y,-z
1/2-x,1/2-y,-z
1/2+x,1/2-y,z
loop_
_atom_site_type_symbol
_atom_site_label
_atom_site_fract_x
_atom_site_fract_y
_atom_site_fract_z
Si Si1 0.954905 0.731432 0.793212
Si Si2 0.643439 0.602393 0.701533
Si Si3 0.760776 0.608511 0.134979
Si Si4 0.791457 0.316590 0.578896
Si Si5 0.235841 0.105057 0.887578
O O1 0.803478 0.690783 0.769249
O O2 0.786006 0.730516 0.643609
O O3 0.127523 0.647080 0.868670
O O4 0.114848 0.822163 0.870330
O O5 0.749670 0.500000 0.747444
O O6 0.413048 0.609767 0.538100
O O7 0.589635 0.608150 0.746292
O O8 0.753780 0.500000 0.132906
O O9 0.945995 0.642465 0.283661
O O10 0.500000 0.646230 0.000000
O O11 0.750000 0.250000 0.500000
O O12 0.233942 0.000000 0.910139
O O13 0.500000 0.123769 0.000000
#
# Coordination Sequence:
#
# PCOD9195921 Si02
#       5
#     8   8   8   8   8
#     4  10  21  34  60  89 120 155 203 258 304 362
#     4  11  21  37  63  93 120 157 208 254 305 368
#     4   9  18  32  53  85 123 157 194 253 318 364
#     4  10  20  35  55  88 125 160 198 250 310 365
#     4  10  22  41  62  87 124 167 207 251 308 377
#
# _framework density 22.293780999999999
#
# number of rings (size 3 to 8) (size 9 to 14) (size 15 to 20)
#    1.200    0.800    2.000    2.400    0.000    1.600 
#    0.000    0.000    0.000   12.000    0.000    0.000 
#    0.000    0.000    0.000    0.000    0.000    0.000 
#
# Total GULP energy -111364.960885 kJ/mol
# GULP energy per Si atom -5568.248044 kJ/mol
# Density = 2.224304 g / cm^3
# Si number density = 22.293781 Si / 1000 Ang^3
#
#
#
# Elastic Constant Matrix: (Units=GPa)
#
#
# Indices 1 2 3 4 5 6 
#
# 1 48.8922 40.0342 17.5134 -0.0004 -6.2237 0.0004
# 2 40.0342 140.2545 35.9006 -0.0010 10.1016 0.0008
# 3 17.5134 35.9006 134.0676 -0.0039 2.2825 0.0013
# 4 -0.0004 -0.0010 -0.0039 36.0344 -0.0009 15.1681
# 5 -6.2237 10.1016 2.2825 -0.0009 37.1980 0.0009
# 6 0.0004 0.0008 0.0013 15.1681 0.0009 3.3990
#
#
#
# Elastic Compliance Matrix: (Units=1/GPa)
#
#
# Indices 1 2 3 4 5 6 
#
# 1 0.028755 -0.008300 -0.001656 -0.000002 0.007167 0.000004
# 2 -0.008300 0.010195 -0.001577 0.000000 -0.004061 -0.000001
# 3 -0.001656 -0.001577 0.008103 -0.000002 -0.000346 0.000007
# 4 -0.000002 0.000000 -0.000002 -0.031592 -0.000004 0.140981
# 5 0.007167 -0.004061 -0.000346 -0.000004 0.029206 0.000012
# 6 0.000004 -0.000001 0.000007 0.140981 0.000012 -0.334924
#
#
# Mechanical properties :
#
#
# Convention : Reuss Voigt Hill
#
# Bulk Modulus (GPa) = 41.68695 56.67895 49.18295
# Shear Modulus (GPa) = -19.29044 30.64402 5.67679
#
# Velocity S-wave (km/s) = -2.94476 3.71152 1.59746
# Velocity P-wave (km/s) = 2.67906 6.62163 5.05091
#
# Compressibility (1/GPa) = 0.02398833
#
# Stress axis : x y z
#
# Youngs Moduli (GPa) = 34.77669 98.08619 123.40656
#
# Poissons Ratio (x) = 0.81413 0.20432
# Poissons Ratio (y) = 0.28865 0.19457
# Poissons Ratio (z) = 0.05758 0.15465
#
# Static dielectric constant tensor:
#      x y z
#    x 1.827020 0.000000 0.034540 
#    y 0.000000 1.852860 0.000000 
#    z 0.034540 0.000000 1.965390 
# 
# From -- ./inp_files/361513.got.cif
#   From: 2010.05.17/outbox.cif.g08.bks.cpg/sg12_181_cif.got.tgz:361513.got - 2010.06.03 13:09:07.
