data_PCOD9195336
_publ_section_title
;
Structure prediction by ZEFSAII (Michael W. Deem and Ramdas Pophale) SiO2 
 PCOD9195336
Probable space group: C 2/M
;
_chemical_formula_sum "Si O2"
_cell_formula_units_Z 36
_cell_length_a 10.011986
_cell_length_b 13.635239
_cell_length_c 29.966098
_cell_angle_alpha 90.000000
_cell_angle_beta 27.339836
_cell_angle_gamma 90.000000
_cell_volume 1878.791912
_symmetry_space_group_name_H-M "C 2/M"
_symmetry_group_IT_number 12
_symmetry_cell_setting 'monoclinic'
loop_
_space_group_symop_operation_xyz
x,y,z
-x,y,-z
-x,-y,-z
x,-y,z
1/2+x,1/2+y,z
1/2-x,1/2+y,-z
1/2-x,1/2-y,-z
1/2+x,1/2-y,z
loop_
_atom_site_type_symbol
_atom_site_label
_atom_site_fract_x
_atom_site_fract_y
_atom_site_fract_z
Si Si1 0.731526 0.500000 0.612423
Si Si2 0.580480 0.000000 0.251044
Si Si3 0.261282 0.332608 0.748108
Si Si4 0.972654 0.500000 0.379470
Si Si5 0.162045 0.713237 0.682865
Si Si6 0.000000 0.833280 0.500000
Si Si7 0.783140 0.500000 0.885877
O O1 0.527206 0.407547 0.664059
O O2 0.000000 0.500000 0.500000
O O3 0.845328 0.500000 0.629450
O O4 0.671981 0.000000 0.275550
O O5 0.384170 0.096142 0.303596
O O6 0.786649 0.000000 0.146683
O O7 0.246268 0.265131 0.708437
O O8 0.359558 0.264743 0.759790
O O9 0.980132 0.402599 0.836403
O O10 0.759088 0.405668 0.439366
O O11 0.390028 0.729118 0.575107
O O12 0.500000 0.500000 0.000000
#
# Coordination Sequence:
#
# PCOD9195336 Si02
#       7
#     4   4   8   4   8   4   4
#     4  11  22  35  53  77 122 161 206 228 274 326
#     4   8  18  35  56  79 109 146 181 233 291 327
#     4  10  23  36  56  87 113 149 193 239 283 343
#     4   9  17  32  52  78 108 162 199 233 260 330
#     4  10  20  35  53  81 118 150 193 230 277 333
#     4   9  18  30  52  75 116 158 194 217 284 317
#     4   9  19  44  67  81 108 150 184 236 303 356
#
# _framework density 19.161249000000002
#
# number of rings (size 3 to 8) (size 9 to 14) (size 15 to 20)
#    0.000    2.444    0.000    2.667    7.778    2.667 
#    0.000    4.444    0.000    2.667    0.000    0.000 
#    0.000    0.000    0.000    0.000    0.000    0.000 
#
# Total GULP energy -100382.537249 kJ/mol
# GULP energy per Si atom -5576.807625 kJ/mol
# Density = 1.911764 g / cm^3
# Si number density = 19.161249 Si / 1000 Ang^3
#
#
#
# Elastic Constant Matrix: (Units=GPa)
#
#
# Indices 1 2 3 4 5 6 
#
# 1 166.3286 18.5079 53.4383 -0.0025 10.4861 0.0026
# 2 18.5079 58.1604 17.0802 -0.0020 -8.6507 0.0005
# 3 53.4383 17.0802 130.3864 -0.0110 13.9105 0.0000
# 4 -0.0025 -0.0020 -0.0110 9.8242 0.0021 -5.0918
# 5 10.4861 -8.6507 13.9105 0.0021 21.5794 -0.0008
# 6 0.0026 0.0005 0.0000 -5.0918 -0.0008 23.6465
#
#
#
# Elastic Compliance Matrix: (Units=1/GPa)
#
#
# Indices 1 2 3 4 5 6 
#
# 1 0.007173 -0.001990 -0.002386 -0.000001 -0.002745 -0.000001
# 2 -0.001990 0.020368 -0.003035 -0.000002 0.011089 0.000000
# 3 -0.002386 -0.003035 0.009720 0.000012 -0.006323 0.000003
# 4 -0.000001 -0.000002 0.000012 0.114577 -0.000018 0.024672
# 5 -0.002745 0.011089 -0.006323 -0.000018 0.056196 -0.000002
# 6 -0.000001 0.000000 0.000003 0.024672 -0.000002 0.047602
#
#
# Mechanical properties :
#
#
# Convention : Reuss Voigt Hill
#
# Bulk Modulus (GPa) = 44.56945 59.21424 51.89184
# Shear Modulus (GPa) = 17.98953 28.73329 23.36141
#
# Velocity S-wave (km/s) = 3.06739 3.87661 3.49549
# Velocity P-wave (km/s) = 5.98798 7.14196 6.59028
#
# Compressibility (1/GPa) = 0.02243689
#
# Stress axis : x y z
#
# Youngs Moduli (GPa) = 139.40316 49.09677 102.88322
#
# Poissons Ratio (x) = 0.09772 0.24552
# Poissons Ratio (y) = 0.27745 0.31230
# Poissons Ratio (z) = 0.33267 0.14903
#
# Static dielectric constant tensor:
#      x y z
#    x 1.732250 -0.000010 0.028910 
#    y -0.000010 1.734230 0.000000 
#    z 0.028910 0.000000 1.638340 
# 
# From -- ./inp_files/129423.got.cif
#   From: 2010.05.17/outbox.cif.g08.bks.cpg/sg12_65_cif.got.tgz:129423.got - 2010.06.03 13:09:07.
