data_PCOD9195289
_publ_section_title
;
Structure prediction by ZEFSAII (Michael W. Deem and Ramdas Pophale) SiO2 
 PCOD9195289
Probable space group: C 2/M
;
_chemical_formula_sum "Si O2"
_cell_formula_units_Z 56
_cell_length_a 29.983562
_cell_length_b 11.586224
_cell_length_c 9.089943
_cell_angle_alpha 90.000000
_cell_angle_beta 115.388173
_cell_angle_gamma 90.000000
_cell_volume 2852.842791
_symmetry_space_group_name_H-M "C 2/M"
_symmetry_group_IT_number 12
_symmetry_cell_setting 'monoclinic'
loop_
_space_group_symop_operation_xyz
x,y,z
-x,y,-z
-x,-y,-z
x,-y,z
1/2+x,1/2+y,z
1/2-x,1/2+y,-z
1/2-x,1/2-y,-z
1/2+x,1/2-y,z
loop_
_atom_site_type_symbol
_atom_site_label
_atom_site_fract_x
_atom_site_fract_y
_atom_site_fract_z
Si Si1 0.993512 0.634934 0.167332
Si Si2 0.529632 0.365785 0.388996
Si Si3 0.303232 0.238688 0.150451
Si Si4 0.145281 0.871272 0.532055
Si Si5 0.679793 0.797495 0.325434
Si Si6 0.123152 0.369663 0.967512
Si Si7 0.743717 0.880650 0.667935
O O1 0.008997 0.500000 0.230735
O O2 0.017437 0.750404 0.274870
O O3 0.935432 0.644323 0.123088
O O4 0.000000 0.641892 0.000000
O O5 0.500000 0.355783 0.500000
O O6 0.519591 0.500000 0.317551
O O7 0.588378 0.361913 0.498482
O O8 0.319862 0.342116 0.280629
O O9 0.295212 0.136580 0.257111
O O10 0.250000 0.250000 0.000000
O O11 0.345878 0.213246 0.094443
O O12 0.155145 0.785503 0.411270
O O13 0.155524 0.000000 0.494439
O O14 0.640981 0.852423 0.160615
O O15 0.714257 0.878055 0.473299
O O16 0.718113 0.723308 0.283412
O O17 0.135883 0.500000 0.941710
O O18 0.771217 0.000000 0.726767
#
# Coordination Sequence:
#
# PCOD9195289 Si02
#       7
#     8   8   8   8   8   8   8
#     4  10  22  40  63  92 124 158 201 254 311 368
#     4  10  21  40  63  89 120 156 201 253 307 366
#     4  11  22  39  55  84 118 152 194 238 288 355
#     4  10  22  39  61  84 114 155 197 244 297 356
#     4  10  20  36  55  81 111 147 197 235 283 346
#     4  11  22  38  60  87 120 156 196 246 301 356
#     4  10  20  35  53  76 109 150 191 233 278 335
#
# _framework density 19.629542000000001
#
# number of rings (size 3 to 8) (size 9 to 14) (size 15 to 20)
#    0.000    1.714    1.429    3.000    0.000    1.714 
#    0.000    5.000    0.000    0.000    0.000    0.000 
#    0.000    0.000    0.000    0.000    0.000    0.000 
#
# Total GULP energy -156003.746496 kJ/mol
# GULP energy per Si atom -5571.562375 kJ/mol
# Density = 1.958486 g / cm^3
# Si number density = 19.629542 Si / 1000 Ang^3
#
#
#
# Elastic Constant Matrix: (Units=GPa)
#
#
# Indices 1 2 3 4 5 6 
#
# 1 85.3491 19.3627 9.2644 0.0000 -11.2335 0.0000
# 2 19.3627 114.1872 27.3435 0.0000 4.9120 0.0000
# 3 9.2644 27.3435 59.1820 0.0000 1.8503 0.0000
# 4 0.0000 0.0000 0.0000 18.9083 0.0000 9.4115
# 5 -11.2335 4.9120 1.8503 0.0000 32.6153 0.0000
# 6 0.0000 0.0000 0.0000 9.4115 0.0000 44.1607
#
#
#
# Elastic Compliance Matrix: (Units=1/GPa)
#
#
# Indices 1 2 3 4 5 6 
#
# 1 0.012967 -0.002120 -0.001202 0.000000 0.004854 0.000000
# 2 -0.002120 0.010243 -0.004337 0.000000 -0.002027 0.000000
# 3 -0.001202 -0.004337 0.019116 0.000000 -0.000845 0.000000
# 4 0.000000 0.000000 0.000000 0.059163 0.000000 -0.012609
# 5 0.004854 -0.002027 -0.000845 0.000000 0.032685 0.000000
# 6 0.000000 0.000000 0.000000 -0.012609 0.000000 0.025332
#
#
# Mechanical properties :
#
#
# Convention : Reuss Voigt Hill
#
# Bulk Modulus (GPa) = 37.02769 41.18441 39.10605
# Shear Modulus (GPa) = 27.19974 32.65337 29.92655
#
# Velocity S-wave (km/s) = 3.72647 4.08300 3.90881
# Velocity P-wave (km/s) = 6.11716 6.57680 6.35114
#
# Compressibility (1/GPa) = 0.02700682
#
# Stress axis : x y z
#
# Youngs Moduli (GPa) = 77.12014 97.62987 52.31342
#
# Poissons Ratio (x) = 0.20694 0.06289
# Poissons Ratio (y) = 0.16347 0.22690
# Poissons Ratio (z) = 0.09272 0.42344
#
# Static dielectric constant tensor:
#      x y z
#    x 1.693190 0.000000 -0.015840 
#    y 0.000000 1.724530 0.000000 
#    z -0.015840 0.000000 1.696560 
# 
# From -- ./inp_files/103274.got.cif
#   From: 2010.05.17/outbox.cif.g08.bks.cpg/sg12_52_cif.got.tgz:103274.got - 2010.06.03 13:09:07.
