data_PCOD9195883
_publ_section_title
;
Structure prediction by ZEFSAII (Michael W. Deem and Ramdas Pophale) SiO2 
 PCOD9195883
Probable space group: C 2/M
;
_chemical_formula_sum "Si O2"
_cell_formula_units_Z 48
_cell_length_a 24.899454
_cell_length_b 8.630699
_cell_length_c 11.792053
_cell_angle_alpha 90.000000
_cell_angle_beta 111.278847
_cell_angle_gamma 90.000000
_cell_volume 2361.346406
_symmetry_space_group_name_H-M "C 2/M"
_symmetry_group_IT_number 12
_symmetry_cell_setting 'monoclinic'
loop_
_space_group_symop_operation_xyz
x,y,z
-x,y,-z
-x,-y,-z
x,-y,z
1/2+x,1/2+y,z
1/2-x,1/2+y,-z
1/2-x,1/2-y,-z
1/2+x,1/2-y,z
loop_
_atom_site_type_symbol
_atom_site_label
_atom_site_fract_x
_atom_site_fract_y
_atom_site_fract_z
Si Si1 0.730631 0.816250 0.864061
Si Si2 0.056573 0.316167 0.966718
Si Si3 0.666955 0.185478 0.203946
Si Si4 0.876610 0.187143 0.345670
Si Si5 0.015674 0.815597 0.703226
Si Si6 0.116472 0.812257 0.394519
O O1 0.776557 0.761313 0.805537
O O2 0.668656 0.754764 0.777287
O O3 0.729309 0.000000 0.870477
O O4 0.750000 0.750000 0.000000
O O5 0.060098 0.500000 0.943634
O O6 0.047849 0.223521 0.844747
O O7 0.112812 0.272346 0.081497
O O8 0.000000 0.291178 0.000000
O O9 0.651757 0.241099 0.318312
O O10 0.672968 0.000000 0.206879
O O11 0.941492 0.238506 0.363178
O O12 0.861637 0.229357 0.463259
O O13 0.875142 0.000000 0.337324
O O14 0.950314 0.756567 0.661059
O O15 0.010043 0.000000 0.684711
O O16 0.117425 0.000000 0.384630
#
# Coordination Sequence:
#
# PCOD9195883 Si02
#       6
#     8   8   8   8   8   8
#     4  12  26  45  67  91 120 156 202 252 304 361
#     4  10  20  35  55  84 120 156 194 243 301 357
#     4  11  23  40  63  90 124 163 204 251 303 359
#     4  10  22  41  63  89 123 164 206 249 300 360
#     4  10  20  35  60  91 123 160 203 250 299 356
#     4  10  21  38  61  91 126 162 203 250 302 359
#
# _framework density 20.327387999999999
#
# number of rings (size 3 to 8) (size 9 to 14) (size 15 to 20)
#    0.000    1.500    1.667    3.500    0.000    8.333 
#    0.000    0.000    0.000    3.000    0.000    0.000 
#    0.000    0.000    0.000    0.000    0.000    0.000 
#
# Total GULP energy -134174.344737 kJ/mol
# GULP energy per Si atom -5590.597697 kJ/mol
# Density = 2.028112 g / cm^3
# Si number density = 20.327388 Si / 1000 Ang^3
#
#
#
# Elastic Constant Matrix: (Units=GPa)
#
#
# Indices 1 2 3 4 5 6 
#
# 1 103.7705 22.9039 29.6718 0.0000 -11.5766 0.0000
# 2 22.9039 32.7927 25.2233 0.0000 -2.2747 0.0000
# 3 29.6718 25.2233 100.5045 0.0000 -12.4632 0.0000
# 4 0.0000 0.0000 0.0000 25.1676 0.0000 -0.3146
# 5 -11.5766 -2.2747 -12.4632 0.0000 29.0001 0.0000
# 6 0.0000 0.0000 0.0000 -0.3146 0.0000 23.4216
#
#
#
# Elastic Compliance Matrix: (Units=1/GPa)
#
#
# Indices 1 2 3 4 5 6 
#
# 1 0.011989 -0.007121 -0.001297 0.000000 0.003670 0.000000
# 2 -0.007121 0.042057 -0.008869 0.000000 -0.003355 0.000000
# 3 -0.001297 -0.008869 0.013107 0.000000 0.004419 0.000000
# 4 0.000000 0.000000 0.000000 0.039740 0.000000 0.000534
# 5 0.003670 -0.003355 0.004419 0.000000 0.037584 0.000000
# 6 0.000000 0.000000 0.000000 0.000534 0.000000 0.042703
#
#
# Mechanical properties :
#
#
# Convention : Reuss Voigt Hill
#
# Bulk Modulus (GPa) = 30.69518 43.62951 37.16235
# Shear Modulus (GPa) = 21.49496 26.13576 23.81536
#
# Velocity S-wave (km/s) = 3.25536 3.58961 3.42656
# Velocity P-wave (km/s) = 5.40953 6.22016 5.82895
#
# Compressibility (1/GPa) = 0.03257841
#
# Stress axis : x y z
#
# Youngs Moduli (GPa) = 83.41179 23.77718 76.29793
#
# Poissons Ratio (x) = 0.16932 0.09897
# Poissons Ratio (y) = 0.59399 0.67666
# Poissons Ratio (z) = 0.10820 0.21087
#
# Static dielectric constant tensor:
#      x y z
#    x 1.726150 0.000000 0.003380 
#    y 0.000000 1.690820 0.000000 
#    z 0.003380 0.000000 1.702330 
# 
# From -- ./inp_files/172952.got.cif
#   From: 2010.05.17/outbox.cif.g08.bks.cpg/sg12_87_cif.got.tgz:172952.got - 2010.06.03 13:09:07.
