data_PCOD9195546
_publ_section_title
;
Structure prediction by ZEFSAII (Michael W. Deem and Ramdas Pophale) SiO2 
 PCOD9195546
Probable space group: C 2/M
;
_chemical_formula_sum "Si O2"
_cell_formula_units_Z 48
_cell_length_a 21.136807
_cell_length_b 20.499084
_cell_length_c 15.049718
_cell_angle_alpha 90.000000
_cell_angle_beta 156.812165
_cell_angle_gamma 90.000000
_cell_volume 2567.551609
_symmetry_space_group_name_H-M "C 2/M"
_symmetry_group_IT_number 12
_symmetry_cell_setting 'monoclinic'
loop_
_space_group_symop_operation_xyz
x,y,z
-x,y,-z
-x,-y,-z
x,-y,z
1/2+x,1/2+y,z
1/2-x,1/2+y,-z
1/2-x,1/2-y,-z
1/2+x,1/2-y,z
loop_
_atom_site_type_symbol
_atom_site_label
_atom_site_fract_x
_atom_site_fract_y
_atom_site_fract_z
Si Si1 0.735927 0.336948 0.319678
Si Si2 0.680271 0.810179 0.215000
Si Si3 0.324052 0.577091 0.921278
Si Si4 0.705756 0.783389 0.060877
Si Si5 0.080162 0.175453 0.311161
Si Si6 0.608213 0.836864 0.755920
O O1 0.675754 0.268680 0.202299
O O2 0.668172 0.393716 0.168729
O O3 0.925696 0.341324 0.549889
O O4 0.153060 0.270027 0.762855
O O5 0.724018 0.827534 0.171051
O O6 0.805428 0.823877 0.455226
O O7 0.500000 0.834107 0.000000
O O8 0.331970 0.500000 0.931390
O O9 0.167055 0.604923 0.769292
O O10 0.685969 0.668913 0.357989
O O11 0.538815 0.739350 0.844232
O O12 0.707057 0.827228 0.974634
O O13 0.965692 0.112752 0.158268
#
# Coordination Sequence:
#
# PCOD9195546 Si02
#       6
#     8   8   8   8   8   8
#     4  12  20  34  58  90 122 155 186 239 300 361
#     4  12  20  33  58  89 125 153 187 243 303 359
#     4  11  25  43  59  83 120 163 205 245 288 345
#     4  10  20  35  54  86 122 159 189 235 297 355
#     4  11  22  37  59  86 121 158 194 241 295 355
#     4  10  21  35  55  85 122 155 194 239 290 352
#
# _framework density 18.694852999999998
#
# number of rings (size 3 to 8) (size 9 to 14) (size 15 to 20)
#    0.000    1.000    6.667    2.500    0.000    2.667 
#    0.000    0.000    0.000    2.500    0.000    0.000 
#    0.000    0.000    0.000    0.000    0.000    0.000 
#
# Total GULP energy -133936.753045 kJ/mol
# GULP energy per Si atom -5580.698044 kJ/mol
# Density = 1.865230 g / cm^3
# Si number density = 18.694853 Si / 1000 Ang^3
#
#
#
# Elastic Constant Matrix: (Units=GPa)
#
#
# Indices 1 2 3 4 5 6 
#
# 1 132.8735 17.1167 41.0753 0.0000 -12.9554 0.0000
# 2 17.1167 66.9573 20.4119 0.0000 -8.3206 0.0000
# 3 41.0753 20.4119 113.2591 0.0000 -13.4632 0.0000
# 4 0.0000 0.0000 0.0000 10.3949 0.0000 -4.8975
# 5 -12.9554 -8.3206 -13.4632 0.0000 45.5276 0.0000
# 6 0.0000 0.0000 0.0000 -4.8975 0.0000 11.7665
#
#
#
# Elastic Compliance Matrix: (Units=1/GPa)
#
#
# Indices 1 2 3 4 5 6 
#
# 1 0.008673 -0.001198 -0.002759 0.000000 0.001433 0.000000
# 2 -0.001198 0.016169 -0.002248 0.000000 0.001949 0.000000
# 3 -0.002759 -0.002248 0.010461 0.000000 0.001897 0.000000
# 4 0.000000 0.000000 0.000000 0.119668 0.000000 0.049809
# 5 0.001433 0.001949 0.001897 0.000000 0.023290 0.000000
# 6 0.000000 0.000000 0.000000 0.049809 0.000000 0.105719
#
#
# Mechanical properties :
#
#
# Convention : Reuss Voigt Hill
#
# Bulk Modulus (GPa) = 43.68247 52.25530 47.96888
# Shear Modulus (GPa) = 16.44632 29.17020 22.80826
#
# Velocity S-wave (km/s) = 2.96923 3.95439 3.49668
# Velocity P-wave (km/s) = 5.93059 6.99014 6.48205
#
# Compressibility (1/GPa) = 0.02289248
#
# Stress axis : x y z
#
# Youngs Moduli (GPa) = 115.30118 61.84827 95.59677
#
# Poissons Ratio (x) = 0.07409 0.26376
# Poissons Ratio (y) = 0.13812 0.21488
# Poissons Ratio (z) = 0.31813 0.13902
#
# Static dielectric constant tensor:
#      x y z
#    x 1.764600 0.000000 0.005240 
#    y 0.000000 1.603710 0.000000 
#    z 0.005240 0.000000 1.713610 
# 
# From -- ./inp_files/242229.got.cif
#   From: 2010.05.17/outbox.cif.g08.bks.cpg/sg12_122_cif.got.tgz:242229.got - 2010.06.03 13:09:07.
