data_PCOD9195592
_publ_section_title
;
Structure prediction by ZEFSAII (Michael W. Deem and Ramdas Pophale) SiO2 
 PCOD9195592
Probable space group: C 2/M
;
_chemical_formula_sum "Si O2"
_cell_formula_units_Z 48
_cell_length_a 8.239160
_cell_length_b 11.604382
_cell_length_c 23.702404
_cell_angle_alpha 90.000000
_cell_angle_beta 88.526583
_cell_angle_gamma 90.000000
_cell_volume 2265.446090
_symmetry_space_group_name_H-M "C 2/M"
_symmetry_group_IT_number 12
_symmetry_cell_setting 'monoclinic'
loop_
_space_group_symop_operation_xyz
x,y,z
-x,y,-z
-x,-y,-z
x,-y,z
1/2+x,1/2+y,z
1/2-x,1/2+y,-z
1/2-x,1/2-y,-z
1/2+x,1/2-y,z
loop_
_atom_site_type_symbol
_atom_site_label
_atom_site_fract_x
_atom_site_fract_y
_atom_site_fract_z
Si Si1 0.854577 0.377141 0.712228
Si Si2 0.119274 0.130300 0.552479
Si Si3 0.988531 0.371195 0.934917
Si Si4 0.464436 0.869700 0.583496
Si Si5 0.788071 0.188853 0.863040
Si Si6 0.451382 0.315078 0.221635
O O1 0.928528 0.500000 0.729239
O O2 0.876066 0.366778 0.645278
O O3 0.668780 0.377103 0.734183
O O4 0.949265 0.276191 0.742290
O O5 0.071577 0.253630 0.580918
O O6 0.000000 0.126829 0.500000
O O7 0.314009 0.137193 0.540698
O O8 0.097199 0.000000 0.579578
O O9 0.917136 0.500000 0.933408
O O10 0.882931 0.283198 0.899461
O O11 0.167671 0.375354 0.906154
O O12 0.000000 0.335193 0.000000
O O13 0.538814 0.000000 0.577868
O O14 0.669668 0.251701 0.820160
O O15 0.919246 0.126631 0.821699
#
# Coordination Sequence:
#
# PCOD9195592 Si02
#       6
#     8   8   8   8   8   8
#     4  10  20  36  55  76 107 140 175 223 270 320
#     4  10  21  37  57  83 115 149 188 235 283 334
#     4  10  20  35  55  77 105 141 176 217 270 320
#     4  10  21  36  56  82 112 148 188 231 281 338
#     4   9  19  34  53  78 106 134 174 220 260 318
#     4   9  19  34  53  77 102 136 175 213 266 320
#
# _framework density 21.187881000000001
#
# number of rings (size 3 to 8) (size 9 to 14) (size 15 to 20)
#    0.000    2.333    0.000    2.000    0.000    7.667 
#    0.000    5.833    0.000    9.000    0.000    0.000 
#    0.000    0.000    0.000    0.000    0.000    0.000 
#
# Total GULP energy -133630.162450 kJ/mol
# GULP energy per Si atom -5567.923435 kJ/mol
# Density = 2.113966 g / cm^3
# Si number density = 21.187881 Si / 1000 Ang^3
#
#
#
# Elastic Constant Matrix: (Units=GPa)
#
#
# Indices 1 2 3 4 5 6 
#
# 1 59.3233 41.7735 2.4520 0.0000 -0.1053 0.0000
# 2 41.7735 150.2368 30.0988 0.0000 -0.8036 0.0000
# 3 2.4520 30.0988 69.0693 0.0000 -7.8788 0.0000
# 4 0.0000 0.0000 0.0000 210.6943 0.0000 -7.0380
# 5 -0.1053 -0.8036 -7.8788 0.0000 35.1800 0.0000
# 6 0.0000 0.0000 0.0000 -7.0380 0.0000 23.4624
#
#
#
# Elastic Compliance Matrix: (Units=1/GPa)
#
#
# Indices 1 2 3 4 5 6 
#
# 1 0.021213 -0.006304 0.002037 0.000000 0.000376 0.000000
# 2 -0.006304 0.009177 -0.003852 0.000000 -0.000672 0.000000
# 3 0.002037 -0.003852 0.016497 0.000000 0.003613 0.000000
# 4 0.000000 0.000000 0.000000 0.004794 0.000000 0.001438
# 5 0.000376 -0.000672 0.003613 0.000000 0.029220 0.000000
# 6 0.000000 0.000000 0.000000 0.001438 0.000000 0.043053
#
#
# Mechanical properties :
#
#
# Convention : Reuss Voigt Hill
#
# Bulk Modulus (GPa) = 32.62874 47.47533 40.05204
# Shear Modulus (GPa) = 33.24293 67.48767 50.36530
#
# Velocity S-wave (km/s) = 3.96531 5.64988 4.88082
# Velocity P-wave (km/s) = 6.03308 8.06331 7.12092
#
# Compressibility (1/GPa) = 0.03064783
#
# Stress axis : x y z
#
# Youngs Moduli (GPa) = 47.14200 108.96567 60.61846
#
# Poissons Ratio (x) = 0.68695 -0.12348
# Poissons Ratio (y) = 0.29720 0.23351
# Poissons Ratio (z) = -0.09603 0.41974
#
# Static dielectric constant tensor:
#      x y z
#    x 1.768010 0.000000 -0.045360 
#    y 0.000000 1.780380 0.000000 
#    z -0.045360 0.000000 1.788390 
# 
# From -- ./inp_files/331993.got.cif
#   From: 2010.05.17/outbox.cif.g08.bks.cpg/sg12_166_cif.got.tgz:331993.got - 2010.06.03 13:09:07.
