data_PCOD9195314
_publ_section_title
;
Structure prediction by ZEFSAII (Michael W. Deem and Ramdas Pophale) SiO2 
 PCOD9195314
Probable space group: C 2/M
;
_chemical_formula_sum "Si O2"
_cell_formula_units_Z 64
_cell_length_a 22.395399
_cell_length_b 23.700222
_cell_length_c 5.344528
_cell_angle_alpha 90.000000
_cell_angle_beta 84.242564
_cell_angle_gamma 90.000000
_cell_volume 2822.436860
_symmetry_space_group_name_H-M "C 2/M"
_symmetry_group_IT_number 12
_symmetry_cell_setting 'monoclinic'
loop_
_space_group_symop_operation_xyz
x,y,z
-x,y,-z
-x,-y,-z
x,-y,z
1/2+x,1/2+y,z
1/2-x,1/2+y,-z
1/2-x,1/2-y,-z
1/2+x,1/2-y,z
loop_
_atom_site_type_symbol
_atom_site_label
_atom_site_fract_x
_atom_site_fract_y
_atom_site_fract_z
Si Si1 0.974640 0.354146 0.256219
Si Si2 0.539633 0.439012 0.737640
Si Si3 0.306130 0.433419 0.701215
Si Si4 0.600343 0.649356 0.432505
Si Si5 0.244375 0.118668 0.794739
Si Si6 0.851337 0.329410 0.490081
Si Si7 0.330848 0.274722 0.249243
Si Si8 0.434596 0.752102 0.809314
O O1 0.903061 0.354502 0.291989
O O2 0.000000 0.379045 0.500000
O O3 0.004785 0.290343 0.229249
O O4 0.000000 0.382832 0.000000
O O5 0.500000 0.439070 0.500000
O O6 0.572197 0.500000 0.730186
O O7 0.577725 0.383166 0.686344
O O8 0.500000 0.436185 0.000000
O O9 0.314114 0.500000 0.701252
O O10 0.368186 0.400186 0.736360
O O11 0.286763 0.413002 0.430339
O O12 0.262084 0.414669 0.943488
O O13 0.650523 0.692469 0.506443
O O14 0.554757 0.689956 0.309101
O O15 0.311219 0.129298 0.667640
O O16 0.214521 0.180935 0.853548
O O17 0.809733 0.287066 0.345106
O O18 0.891300 0.291928 0.661781
O O19 0.391767 0.262490 0.065414
#
# Coordination Sequence:
#
# PCOD9195314 Si02
#       8
#     8   8   8   8   8   8   8   8
#     4  10  20  35  53  78 118 160 195 236 277 335
#     4  10  23  40  55  76 104 143 200 259 307 352
#     4  11  24  43  65  88 117 153 205 265 309 354
#     4  10  22  38  56  85 112 159 199 245 307 354
#     4  11  24  39  62  90 119 158 206 243 310 368
#     4  10  22  36  56  85 125 164 200 242 295 357
#     4  10  20  36  54  85 121 158 199 239 287 359
#     4  10  20  36  55  85 122 156 200 236 284 359
#
# _framework density 22.675440999999999
#
# number of rings (size 3 to 8) (size 9 to 14) (size 15 to 20)
#    0.000    1.750    2.500    1.125    3.500    3.000 
#    0.000    2.500    0.000    0.000    0.000    0.000 
#    0.000   42.000    0.000    0.000    0.000    0.000 
#
# Total GULP energy -178470.422168 kJ/mol
# GULP energy per Si atom -5577.200693 kJ/mol
# Density = 2.262383 g / cm^3
# Si number density = 22.675441 Si / 1000 Ang^3
#
#
#
# Elastic Constant Matrix: (Units=GPa)
#
#
# Indices 1 2 3 4 5 6 
#
# 1 63.2646 7.1828 13.7858 0.0000 -22.8712 0.0000
# 2 7.1828 31.7719 17.6499 0.0000 -12.8425 0.0000
# 3 13.7858 17.6499 128.2940 0.0000 -20.8945 0.0000
# 4 0.0000 0.0000 0.0000 36.6837 0.0000 -13.1713
# 5 -22.8712 -12.8425 -20.8945 0.0000 31.6734 0.0000
# 6 0.0000 0.0000 0.0000 -13.1713 0.0000 12.8921
#
#
#
# Elastic Compliance Matrix: (Units=1/GPa)
#
#
# Indices 1 2 3 4 5 6 
#
# 1 0.021468 0.001651 0.000112 0.000000 0.016245 0.000000
# 2 0.001651 0.038843 -0.003094 0.000000 0.014900 0.000000
# 3 0.000112 -0.003094 0.008982 0.000000 0.004751 0.000000
# 4 0.000000 0.000000 0.000000 0.043053 0.000000 0.043985
# 5 0.016245 0.014900 0.004751 0.000000 0.052479 0.000000
# 6 0.000000 0.000000 0.000000 0.043985 0.000000 0.122505
#
#
# Mechanical properties :
#
#
# Convention : Reuss Voigt Hill
#
# Bulk Modulus (GPa) = 15.00841 33.39638 24.20239
# Shear Modulus (GPa) = 16.01523 28.56395 22.28959
#
# Velocity S-wave (km/s) = 2.66048 3.55306 3.13866
# Velocity P-wave (km/s) = 4.00883 5.62070 4.88175
#
# Compressibility (1/GPa) = 0.06662932
#
# Stress axis : x y z
#
# Youngs Moduli (GPa) = 46.58176 25.74466 111.33206
#
# Poissons Ratio (x) = -0.04250 -0.01245
# Poissons Ratio (y) = -0.07690 0.34451
# Poissons Ratio (z) = -0.00521 0.07967
#
# Static dielectric constant tensor:
#      x y z
#    x 1.957490 0.000000 0.043780 
#    y 0.000000 1.848200 0.000000 
#    z 0.043780 0.000000 1.963080 
# 
# From -- ./inp_files/26063.got.cif
#   From: 2010.05.17/outbox.cif.g08.bks.cpg/sg12_14_cif.got.tgz:26063.got - 2010.06.03 13:09:07.
