data_PCOD9195601
_publ_section_title
;
Structure prediction by ZEFSAII (Michael W. Deem and Ramdas Pophale) SiO2 
 PCOD9195601
Probable space group: C 2/M
;
_chemical_formula_sum "Si O2"
_cell_formula_units_Z 32
_cell_length_a 8.552814
_cell_length_b 28.065152
_cell_length_c 14.132013
_cell_angle_alpha 90.000000
_cell_angle_beta 26.080247
_cell_angle_gamma 90.000000
_cell_volume 1491.307922
_symmetry_space_group_name_H-M "C 2/M"
_symmetry_group_IT_number 12
_symmetry_cell_setting 'monoclinic'
loop_
_space_group_symop_operation_xyz
x,y,z
-x,y,-z
-x,-y,-z
x,-y,z
1/2+x,1/2+y,z
1/2-x,1/2+y,-z
1/2-x,1/2-y,-z
1/2+x,1/2-y,z
loop_
_atom_site_type_symbol
_atom_site_label
_atom_site_fract_x
_atom_site_fract_y
_atom_site_fract_z
Si Si1 0.916455 0.000000 0.434860
Si Si2 0.072360 0.080776 0.709997
Si Si3 0.526438 0.687787 0.687265
Si Si4 0.918803 0.000000 0.152919
Si Si5 0.708069 0.721251 0.792379
O O1 0.040982 0.048248 0.317375
O O2 0.000000 0.000000 0.500000
O O3 0.508951 0.000000 0.618231
O O4 0.500000 0.086562 0.500000
O O5 0.941892 0.133307 0.755655
O O6 0.952185 0.047598 0.863483
O O7 0.531213 0.711811 0.788066
O O8 0.278759 0.722168 0.761260
O O9 0.912967 0.694032 0.427050
O O10 0.000000 0.000000 0.000000
O O11 0.500000 0.705612 0.000000
#
# Coordination Sequence:
#
# PCOD9195601 Si02
#       5
#     4   8   8   4   8
#     4   9  19  37  56  80 106 139 177 229 282 331
#     4   9  17  37  56  75 112 147 178 223 279 336
#     4  10  20  37  54  80 114 147 187 234 274 324
#     4   9  19  35  62  84 108 143 189 224 279 350
#     4  10  20  35  55  77 113 147 191 229 275 324
#
# _framework density 21.457674000000001
#
# number of rings (size 3 to 8) (size 9 to 14) (size 15 to 20)
#    0.000    2.500    2.500    2.250    0.000    1.000 
#    9.000    5.000    0.000    0.000    0.000    0.000 
#    0.000    0.000    0.000    0.000    0.000    0.000 
#
# Total GULP energy -89148.428161 kJ/mol
# GULP energy per Si atom -5571.776760 kJ/mol
# Density = 2.140884 g / cm^3
# Si number density = 21.457674 Si / 1000 Ang^3
#
#
#
# Elastic Constant Matrix: (Units=GPa)
#
#
# Indices 1 2 3 4 5 6 
#
# 1 119.7032 91.5931 36.0404 0.0000 36.2935 0.0000
# 2 91.5931 245.0197 29.1473 0.0000 30.4813 0.0000
# 3 36.0404 29.1473 97.8083 0.0000 18.0021 0.0000
# 4 0.0000 0.0000 0.0000 -1.0364 0.0000 0.2065
# 5 36.2935 30.4813 18.0021 0.0000 42.2727 0.0000
# 6 0.0000 0.0000 0.0000 0.2065 0.0000 15.0875
#
#
#
# Elastic Compliance Matrix: (Units=1/GPa)
#
#
# Indices 1 2 3 4 5 6 
#
# 1 0.015030 -0.004215 -0.002676 0.000000 -0.008726 0.000000
# 2 -0.004215 0.005724 -0.000064 0.000000 -0.000482 0.000000
# 3 -0.002676 -0.000064 0.011716 0.000000 -0.002645 0.000000
# 4 0.000000 0.000000 0.000000 -0.962241 0.000000 0.013167
# 5 -0.008726 -0.000482 -0.002645 0.000000 0.032621 0.000000
# 6 0.000000 0.000000 0.000000 0.013167 0.000000 0.066100
#
#
# Mechanical properties :
#
#
# Convention : Reuss Voigt Hill
#
# Bulk Modulus (GPa) = 53.87813 86.23254 70.05534
# Shear Modulus (GPa) = -6.16560 31.64811 12.74126
#
# Velocity S-wave (km/s) = -1.69694 3.84462 2.43941
# Velocity P-wave (km/s) = 4.61780 7.74485 6.37600
#
# Compressibility (1/GPa) = 0.01856041
#
# Stress axis : x y z
#
# Youngs Moduli (GPa) = 66.53205 174.68983 85.35116
#
# Poissons Ratio (x) = 0.73628 0.22843
# Poissons Ratio (y) = 0.28042 0.00548
# Poissons Ratio (z) = 0.17807 0.01121
#
# Static dielectric constant tensor:
#      x y z
#    x 1.751560 0.000000 -0.044910 
#    y 0.000000 1.783700 0.000000 
#    z -0.044910 0.000000 1.699810 
# 
# From -- ./inp_files/39776.got.cif
#   From: 2010.05.17/outbox.cif.g08.bks.cpg/sg12_20_cif.got.tgz:39776.got - 2010.06.03 13:09:07.
