data_PCOD9195568
_publ_section_title
;
Structure prediction by ZEFSAII (Michael W. Deem and Ramdas Pophale) SiO2 
 PCOD9195568
Probable space group: C 2/M
;
_chemical_formula_sum "Si O2"
_cell_formula_units_Z 64
_cell_length_a 32.276550
_cell_length_b 8.722685
_cell_length_c 26.686911
_cell_angle_alpha 90.000000
_cell_angle_beta 29.851210
_cell_angle_gamma 90.000000
_cell_volume 3739.782207
_symmetry_space_group_name_H-M "C 2/M"
_symmetry_group_IT_number 12
_symmetry_cell_setting 'monoclinic'
loop_
_space_group_symop_operation_xyz
x,y,z
-x,y,-z
-x,-y,-z
x,-y,z
1/2+x,1/2+y,z
1/2-x,1/2+y,-z
1/2-x,1/2-y,-z
1/2+x,1/2-y,z
loop_
_atom_site_type_symbol
_atom_site_label
_atom_site_fract_x
_atom_site_fract_y
_atom_site_fract_z
Si Si1 0.629118 0.313910 0.680971
Si Si2 0.276359 0.814922 0.049243
Si Si3 0.708597 0.814793 0.429387
Si Si4 0.808938 0.184448 0.226416
Si Si5 0.063036 0.183786 0.642693
Si Si6 0.473288 0.684858 0.114661
Si Si7 0.380220 0.183325 0.843287
Si Si8 0.656281 0.183063 0.913508
O O1 0.630676 0.500000 0.678869
O O2 0.719214 0.264517 0.607033
O O3 0.603775 0.260845 0.652613
O O4 0.561297 0.270280 0.794156
O O5 0.190558 0.741894 0.120425
O O6 0.303311 0.765619 0.076342
O O7 0.268180 0.000000 0.057016
O O8 0.346304 0.773735 0.934409
O O9 0.742545 0.771446 0.338804
O O10 0.621675 0.744794 0.537084
O O11 0.704247 0.000000 0.435629
O O12 0.900118 0.227527 0.152634
O O13 0.797498 0.255537 0.184118
O O14 0.807998 0.000000 0.223703
O O15 0.969266 0.243832 0.739085
O O16 0.062831 0.000000 0.642898
O O17 0.481098 0.500000 0.104950
O O18 0.561652 0.757597 0.011010
O O19 0.386135 0.000000 0.834725
O O20 0.656146 0.000000 0.913170
#
# Coordination Sequence:
#
# PCOD9195568 Si02
#       8
#     8   8   8   8   8   8   8   8
#     4   8  16  30  48  71  99 133 169 202 238 284
#     4   9  20  37  53  74 103 129 156 196 246 294
#     4   9  18  34  51  68  96 133 173 210 239 276
#     4   9  19  34  50  68  95 134 174 208 239 278
#     4  11  20  30  49  76 103 130 162 201 247 294
#     4   9  17  31  49  69  98 135 171 202 235 282
#     4  10  20  35  55  76  99 129 162 195 237 292
#     4  11  21  31  48  74 102 129 159 201 250 294
#
# _framework density 17.113295999999998
#
# number of rings (size 3 to 8) (size 9 to 14) (size 15 to 20)
#    0.000    2.500    0.000    4.125    0.000    4.000 
#    0.000    3.125    0.000    0.750    0.000    5.250 
#    0.000    0.000    0.000    0.000    0.000    0.000 
#
# Total GULP energy -178559.142586 kJ/mol
# GULP energy per Si atom -5579.973206 kJ/mol
# Density = 1.707435 g / cm^3
# Si number density = 17.113296 Si / 1000 Ang^3
#
#
#
# Elastic Constant Matrix: (Units=GPa)
#
#
# Indices 1 2 3 4 5 6 
#
# 1 112.5350 35.0958 84.4267 -0.0023 19.5357 0.0010
# 2 35.0958 26.0088 41.3116 0.0166 2.6476 -0.0049
# 3 84.4267 41.3116 150.6017 0.0057 -1.8038 -0.0008
# 4 -0.0023 0.0166 0.0057 21.8730 -0.0011 2.6672
# 5 19.5357 2.6476 -1.8038 -0.0011 19.3210 -0.0007
# 6 0.0010 -0.0049 -0.0008 2.6672 -0.0007 22.3048
#
#
#
# Elastic Compliance Matrix: (Units=1/GPa)
#
#
# Indices 1 2 3 4 5 6 
#
# 1 0.026233 -0.015910 -0.010645 0.000017 -0.025338 -0.000008
# 2 -0.015910 0.080247 -0.013047 -0.000062 0.003873 0.000025
# 3 -0.010645 -0.013047 0.016355 0.000005 0.014078 -0.000002
# 4 0.000017 -0.000062 0.000005 0.046395 -0.000006 -0.005548
# 5 -0.025338 0.003873 0.014078 -0.000006 0.078160 0.000006
# 6 -0.000008 0.000025 -0.000002 -0.005548 0.000006 0.045497
#
#
# Mechanical properties :
#
#
# Convention : Reuss Voigt Hill
#
# Bulk Modulus (GPa) = 22.91997 67.86817 45.39407
# Shear Modulus (GPa) = 12.93210 21.25386 17.09298
#
# Velocity S-wave (km/s) = 2.75194 3.52795 3.16383
# Velocity P-wave (km/s) = 4.84971 7.50597 6.31899
#
# Compressibility (1/GPa) = 0.04363008
#
# Stress axis : x y z
#
# Youngs Moduli (GPa) = 38.12021 12.46155 61.14299
#
# Poissons Ratio (x) = 0.19827 0.65087
# Poissons Ratio (y) = 0.60651 0.79772
# Poissons Ratio (z) = 0.40579 0.16258
#
# Static dielectric constant tensor:
#      x y z
#    x 1.574400 0.000000 0.019780 
#    y 0.000000 1.574230 0.000000 
#    z 0.019780 0.000000 1.567320 
# 
# From -- ./inp_files/353332.got.cif
#   From: 2010.05.17/outbox.cif.g08.bks.cpg/sg12_177_cif.got.tgz:353332.got - 2010.06.03 13:09:07.
