data_PCOD9195747
_publ_section_title
;
Structure prediction by ZEFSAII (Michael W. Deem and Ramdas Pophale) SiO2 
 PCOD9195747
Probable space group: C 2/M
;
_chemical_formula_sum "Si O2"
_cell_formula_units_Z 32
_cell_length_a 29.175559
_cell_length_b 8.538820
_cell_length_c 23.075189
_cell_angle_alpha 90.000000
_cell_angle_beta 161.599643
_cell_angle_gamma 90.000000
_cell_volume 1814.574964
_symmetry_space_group_name_H-M "C 2/M"
_symmetry_group_IT_number 12
_symmetry_cell_setting 'monoclinic'
loop_
_space_group_symop_operation_xyz
x,y,z
-x,y,-z
-x,-y,-z
x,-y,z
1/2+x,1/2+y,z
1/2-x,1/2+y,-z
1/2-x,1/2-y,-z
1/2+x,1/2-y,z
loop_
_atom_site_type_symbol
_atom_site_label
_atom_site_fract_x
_atom_site_fract_y
_atom_site_fract_z
Si Si1 0.449421 0.309542 0.001859
Si Si2 0.196585 0.313442 0.997431
Si Si3 0.844143 0.310354 0.288772
Si Si4 0.406250 0.311942 0.705859
O O1 0.451661 0.500000 0.002692
O O2 0.552532 0.262605 0.178970
O O3 0.500000 0.251465 0.000000
O O4 0.286420 0.264071 0.824561
O O5 0.192915 0.500000 0.991936
O O6 0.036710 0.250062 0.822173
O O7 0.250000 0.250000 0.000000
O O8 0.302328 0.256194 0.175919
O O9 0.843236 0.500000 0.283350
O O10 0.000000 0.261073 0.500000
O O11 0.407571 0.500000 0.705400
O O12 0.250000 0.250000 0.500000
#
# Coordination Sequence:
#
# PCOD9195747 Si02
#       4
#     8   8   8   8
#     4   8  15  29  49  73 100 132 171 211 251 304
#     4  11  22  37  56  78 108 144 184 230 277 324
#     4   9  18  33  53  77 106 139 176 218 266 322
#     4  10  20  35  55  80 109 141 179 222 270 323
#
# _framework density 17.634983999999999
#
# number of rings (size 3 to 8) (size 9 to 14) (size 15 to 20)
#    0.000    2.500    0.000    4.500    0.000    2.500 
#    0.000    5.000    0.000   18.750    0.000    0.000 
#    0.000    0.000    0.000    0.000    0.000    0.000 
#
# Total GULP energy -89261.735127 kJ/mol
# GULP energy per Si atom -5578.858445 kJ/mol
# Density = 1.759485 g / cm^3
# Si number density = 17.634984 Si / 1000 Ang^3
#
#
#
# Elastic Constant Matrix: (Units=GPa)
#
#
# Indices 1 2 3 4 5 6 
#
# 1 204.2281 44.5184 113.1991 0.0000 -3.8567 0.0000
# 2 44.5184 61.0506 49.5373 0.0000 0.7702 0.0000
# 3 113.1991 49.5373 205.0418 0.0000 2.1214 0.0000
# 4 0.0000 0.0000 0.0000 29.5411 0.0000 -1.5875
# 5 -3.8567 0.7702 2.1214 0.0000 5.9579 0.0000
# 6 0.0000 0.0000 0.0000 -1.5875 0.0000 23.2833
#
#
#
# Elastic Compliance Matrix: (Units=1/GPa)
#
#
# Indices 1 2 3 4 5 6 
#
# 1 0.007615 -0.002698 -0.003620 0.000000 0.006567 0.000000
# 2 -0.002698 0.021335 -0.003631 0.000000 -0.003212 0.000000
# 3 -0.003620 -0.003631 0.007801 0.000000 -0.004652 0.000000
# 4 0.000000 0.000000 0.000000 0.033976 0.000000 0.002316
# 5 0.006567 -0.003212 -0.004652 0.000000 0.174166 0.000000
# 6 0.000000 0.000000 0.000000 0.002316 0.000000 0.043107
#
#
# Mechanical properties :
#
#
# Convention : Reuss Voigt Hill
#
# Bulk Modulus (GPa) = 59.34380 98.31445 78.82913
# Shear Modulus (GPa) = 15.94806 29.29416 22.62111
#
# Velocity S-wave (km/s) = 3.01049 4.08013 3.58542
# Velocity P-wave (km/s) = 6.76818 8.83557 7.87006
#
# Compressibility (1/GPa) = 0.01685096
#
# Stress axis : x y z
#
# Youngs Moduli (GPa) = 131.31318 46.87207 128.18547
#
# Poissons Ratio (x) = 0.12648 0.46407
# Poissons Ratio (y) = 0.35435 0.46549
# Poissons Ratio (z) = 0.47539 0.17021
#
# Static dielectric constant tensor:
#      x y z
#    x 1.584790 0.000000 -0.000810 
#    y 0.000000 1.602620 0.000000 
#    z -0.000810 0.000000 1.582270 
# 
# From -- ./inp_files/81656.got.cif
#   From: 2010.05.17/outbox.cif.g08.bks.cpg/sg12_41_cif.got.tgz:81656.got - 2010.06.03 13:09:07.
