data_PCOD9195274
_publ_section_title
;
Structure prediction by ZEFSAII (Michael W. Deem and Ramdas Pophale) SiO2 
 PCOD9195274
Probable space group: C 2/M
;
_chemical_formula_sum "Si O2"
_cell_formula_units_Z 56
_cell_length_a 16.795335
_cell_length_b 7.675669
_cell_length_c 23.256184
_cell_angle_alpha 90.000000
_cell_angle_beta 57.315289
_cell_angle_gamma 90.000000
_cell_volume 2523.349609
_symmetry_space_group_name_H-M "C 2/M"
_symmetry_group_IT_number 12
_symmetry_cell_setting 'monoclinic'
loop_
_space_group_symop_operation_xyz
x,y,z
-x,y,-z
-x,-y,-z
x,-y,z
1/2+x,1/2+y,z
1/2-x,1/2+y,-z
1/2-x,1/2-y,-z
1/2+x,1/2-y,z
loop_
_atom_site_type_symbol
_atom_site_label
_atom_site_fract_x
_atom_site_fract_y
_atom_site_fract_z
Si Si1 0.366556 0.794679 0.219949
Si Si2 0.229578 0.291072 0.073753
Si Si3 0.449555 0.786416 0.786900
Si Si4 0.965846 0.706981 0.653533
Si Si5 0.801925 0.700156 0.643360
Si Si6 0.814633 0.207235 0.420360
Si Si7 0.910935 0.789005 0.072757
O O1 0.447533 0.730332 0.231858
O O2 0.268218 0.704879 0.274317
O O3 0.406009 0.766759 0.140657
O O4 0.352181 0.000000 0.234073
O O5 0.227748 0.500000 0.079648
O O6 0.130475 0.226657 0.137608
O O7 0.315815 0.226797 0.078870
O O8 0.250000 0.250000 0.000000
O O9 0.431683 0.726254 0.729079
O O10 0.450520 0.000000 0.786730
O O11 0.947815 0.500000 0.660265
O O12 0.901483 0.778144 0.626491
O O13 0.078808 0.728693 0.609527
O O14 0.820414 0.500000 0.618671
O O15 0.740504 0.778275 0.614771
O O16 0.750000 0.250000 0.500000
O O17 0.823571 0.000000 0.409921
O O18 0.912564 0.000000 0.071782
O O19 0.000000 0.729331 0.000000
#
# Coordination Sequence:
#
# PCOD9195274 Si02
#       7
#     8   8   8   8   8   8   8
#     4  11  21  34  57  86 115 150 196 251 304 356
#     4  10  20  35  53  75 107 147 194 243 298 359
#     4   9  18  33  55  81 110 148 190 239 299 353
#     4  10  20  40  66  89 119 161 204 249 301 364
#     4  10  22  40  64  91 122 161 204 247 302 366
#     4  11  24  42  64  94 128 163 202 251 304 363
#     4  10  21  36  53  76 110 153 197 245 304 366
#
# _framework density 22.192723999999998
#
# number of rings (size 3 to 8) (size 9 to 14) (size 15 to 20)
#    0.000    1.857    1.429    2.571    0.000    4.857 
#    0.000    4.286    0.000    0.000    0.000    0.000 
#    0.000    0.000    0.000    0.000    0.000    0.000 
#
# Total GULP energy -156402.129290 kJ/mol
# GULP energy per Si atom -5585.790332 kJ/mol
# Density = 2.214221 g / cm^3
# Si number density = 22.192724 Si / 1000 Ang^3
#
#
#
# Elastic Constant Matrix: (Units=GPa)
#
#
# Indices 1 2 3 4 5 6 
#
# 1 179.7469 4.6470 47.8337 -0.0001 -0.2858 0.0000
# 2 4.6470 42.1753 -12.9366 -0.0001 2.8299 0.0005
# 3 47.8337 -12.9366 107.9602 0.0000 -1.5199 0.0000
# 4 -0.0001 -0.0001 0.0000 25.7652 -0.0001 -2.3028
# 5 -0.2858 2.8299 -1.5199 -0.0001 28.6100 -0.0002
# 6 0.0000 0.0005 0.0000 -2.3028 -0.0002 5.3987
#
#
#
# Elastic Compliance Matrix: (Units=1/GPa)
#
#
# Indices 1 2 3 4 5 6 
#
# 1 0.006414 -0.001643 -0.003038 0.000000 0.000065 0.000000
# 2 -0.001643 0.025186 0.003713 0.000000 -0.002310 -0.000002
# 3 -0.003038 0.003713 0.011056 0.000000 0.000190 0.000000
# 4 0.000000 0.000000 0.000000 0.040350 0.000000 0.017212
# 5 0.000065 -0.002310 0.000190 0.000000 0.035192 0.000001
# 6 0.000000 -0.000002 0.000000 0.017212 0.000001 0.192572
#
#
# Mechanical properties :
#
#
# Convention : Reuss Voigt Hill
#
# Bulk Modulus (GPa) = 24.55727 45.44119 34.99923
# Shear Modulus (GPa) = 15.32426 31.31066 23.31746
#
# Velocity S-wave (km/s) = 2.63060 3.76021 3.24494
# Velocity P-wave (km/s) = 4.50735 6.27474 5.46299
#
# Compressibility (1/GPa) = 0.04072114
#
# Stress axis : x y z
#
# Youngs Moduli (GPa) = 155.89886 39.70524 90.44588
#
# Poissons Ratio (x) = 0.06523 0.27477
# Poissons Ratio (y) = 0.25614 -0.33586
# Poissons Ratio (z) = 0.47362 -0.14744
#
# Static dielectric constant tensor:
#      x y z
#    x 1.823800 0.000000 0.012660 
#    y 0.000000 1.850680 0.000000 
#    z 0.012660 0.000000 1.791800 
# 
# From -- ./inp_files/309021.got.cif
#   From: 2010.05.17/outbox.cif.g08.bks.cpg/sg12_155_cif.got.tgz:309021.got - 2010.06.03 13:09:07.
