data_PCOD9195996
_publ_section_title
;
Structure prediction by ZEFSAII (Michael W. Deem and Ramdas Pophale) SiO2 
 PCOD9195996
Probable space group: C 2/M
;
_chemical_formula_sum "Si O2"
_cell_formula_units_Z 48
_cell_length_a 18.025073
_cell_length_b 19.209515
_cell_length_c 15.797304
_cell_angle_alpha 90.000000
_cell_angle_beta 28.786749
_cell_angle_gamma 90.000000
_cell_volume 2634.017719
_symmetry_space_group_name_H-M "C 2/M"
_symmetry_group_IT_number 12
_symmetry_cell_setting 'monoclinic'
loop_
_space_group_symop_operation_xyz
x,y,z
-x,y,-z
-x,-y,-z
x,-y,z
1/2+x,1/2+y,z
1/2-x,1/2+y,-z
1/2-x,1/2-y,-z
1/2+x,1/2-y,z
loop_
_atom_site_type_symbol
_atom_site_label
_atom_site_fract_x
_atom_site_fract_y
_atom_site_fract_z
Si Si1 0.314040 0.330125 0.347013
Si Si2 0.311950 0.579837 0.188056
Si Si3 0.184583 0.080562 0.315411
Si Si4 0.814002 0.169884 0.024960
Si Si5 0.815807 0.331895 0.028893
Si Si6 0.815793 0.331884 0.339490
O O1 0.263825 0.379036 0.320305
O O2 0.500020 0.333326 0.167903
O O3 0.242801 0.350660 0.508214
O O4 0.272756 0.249573 0.369673
O O5 0.261055 0.500000 0.238940
O O6 0.500000 0.580207 0.000000
O O7 0.263804 0.620985 0.152097
O O8 0.244908 0.120449 0.337859
O O9 0.000000 0.082038 0.500000
O O10 0.235397 0.000000 0.264609
O O11 0.244903 0.120428 0.172300
O O12 0.772733 0.250441 0.084834
O O13 0.742745 0.149338 0.006265
O O14 0.000006 0.336651 0.848337
#
# Coordination Sequence:
#
# PCOD9195996 Si02
#       6
#     8   8   8   8   8   8
#     4   9  18  34  55  80 109 140 177 218 260 310
#     4   9  17  30  51  77 104 137 174 210 250 301
#     4  11  24  39  55  77 106 141 180 224 276 333
#     4   9  18  34  55  80 109 140 177 218 260 310
#     4  10  20  35  56  80 106 138 177 222 268 315
#     4  10  20  35  56  80 106 138 177 222 268 315
#
# _framework density 18.223112
#
# number of rings (size 3 to 8) (size 9 to 14) (size 15 to 20)
#    0.000    2.333    0.000    2.500    0.000    6.667 
#    0.000    4.167    0.000    1.000    0.000    0.000 
#    0.000    0.000    0.000    0.000    0.000    0.000 
#
# Total GULP energy -133997.042996 kJ/mol
# GULP energy per Si atom -5583.210125 kJ/mol
# Density = 1.818164 g / cm^3
# Si number density = 18.223112 Si / 1000 Ang^3
#
#
#
# Elastic Constant Matrix: (Units=GPa)
#
#
# Indices 1 2 3 4 5 6 
#
# 1 143.5132 112.4019 59.9291 0.0032 47.3491 -0.0030
# 2 112.4019 134.4755 66.9894 0.0070 46.1413 -0.0058
# 3 59.9291 66.9894 63.4396 0.0096 34.0540 -0.0047
# 4 0.0032 0.0070 0.0096 13.0571 -0.0048 -14.3853
# 5 47.3491 46.1413 34.0540 -0.0048 31.9696 0.0046
# 6 -0.0030 -0.0058 -0.0047 -14.3853 0.0046 -1.0686
#
#
#
# Elastic Compliance Matrix: (Units=1/GPa)
#
#
# Indices 1 2 3 4 5 6 
#
# 1 0.022427 -0.015106 0.002083 -0.000004 -0.013633 0.000000
# 2 -0.015106 0.027979 -0.013095 -0.000005 -0.004060 -0.000002
# 3 0.002083 -0.013095 0.044684 -0.000021 -0.031782 0.000016
# 4 -0.000004 -0.000005 -0.000021 0.004838 0.000045 -0.065125
# 5 -0.013633 -0.004060 -0.031782 0.000045 0.091185 -0.000016
# 6 0.000000 -0.000002 0.000016 -0.065125 -0.000016 -0.059112
#
#
# Mechanical properties :
#
#
# Convention : Reuss Voigt Hill
#
# Bulk Modulus (GPa) = 23.33526 91.11879 57.22703
# Shear Modulus (GPa) = 25.18620 15.59881 20.39250
#
# Velocity S-wave (km/s) = 3.72170 2.92891 3.34884
# Velocity P-wave (km/s) = 5.59474 7.84527 6.81357
#
# Compressibility (1/GPa) = 0.04285361
#
# Stress axis : x y z
#
# Youngs Moduli (GPa) = 44.58902 35.74108 22.37947
#
# Poissons Ratio (x) = 0.53989 -0.04661
# Poissons Ratio (y) = 0.67354 0.29307
# Poissons Ratio (z) = -0.09287 0.46804
#
# Static dielectric constant tensor:
#      x y z
#    x 1.596620 0.000000 -0.009360 
#    y 0.000000 1.615560 0.000000 
#    z -0.009360 0.000000 1.605790 
# 
# From -- ./inp_files/75462.got.cif
#   From: 2010.05.17/outbox.cif.g08.bks.cpg/sg12_38_cif.got.tgz:75462.got - 2010.06.03 13:09:07.
