data_PCOD9195370
_publ_section_title
;
Structure prediction by ZEFSAII (Michael W. Deem and Ramdas Pophale) SiO2 
 PCOD9195370
Probable space group: C 2/M
;
_chemical_formula_sum "Si O2"
_cell_formula_units_Z 64
_cell_length_a 12.697286
_cell_length_b 13.294917
_cell_length_c 17.327200
_cell_angle_alpha 90.000000
_cell_angle_beta 86.613740
_cell_angle_gamma 90.000000
_cell_volume 2919.886627
_symmetry_space_group_name_H-M "C 2/M"
_symmetry_group_IT_number 12
_symmetry_cell_setting 'monoclinic'
loop_
_space_group_symop_operation_xyz
x,y,z
-x,y,-z
-x,-y,-z
x,-y,z
1/2+x,1/2+y,z
1/2-x,1/2+y,-z
1/2-x,1/2-y,-z
1/2+x,1/2-y,z
loop_
_atom_site_type_symbol
_atom_site_label
_atom_site_fract_x
_atom_site_fract_y
_atom_site_fract_z
Si Si1 0.941217 0.174764 0.311409
Si Si2 0.749047 0.113037 0.227046
Si Si3 0.614429 0.671095 0.511344
Si Si4 0.643520 0.621734 0.929772
Si Si5 0.094827 0.878250 0.099079
Si Si6 0.333637 0.678288 0.734483
Si Si7 0.893199 0.392367 0.306842
Si Si8 0.346915 0.107622 0.486781
O O1 0.866942 0.112472 0.258322
O O2 0.882800 0.176893 0.395879
O O3 0.946753 0.289003 0.278980
O O4 0.061668 0.141882 0.313920
O O5 0.768531 0.145659 0.137446
O O6 0.688815 0.202316 0.273116
O O7 0.705674 0.000000 0.234362
O O8 0.500000 0.626479 0.500000
O O9 0.619090 0.785921 0.478167
O O10 0.720579 0.616899 0.481511
O O11 0.639741 0.500000 0.930375
O O12 0.527025 0.655195 0.906767
O O13 0.655347 0.653261 0.018177
O O14 0.142493 0.841996 0.176913
O O15 0.094499 0.000000 0.101492
O O16 0.228852 0.622128 0.711785
O O17 0.932308 0.500000 0.275587
O O18 0.897420 0.394397 0.399665
O O19 0.370242 0.000000 0.524760
#
# Coordination Sequence:
#
# PCOD9195370 Si02
#       8
#     8   8   8   8   8   8   8   8
#     4  10  21  35  51  74 103 135 166 202 254 302
#     4  10  21  36  52  74 104 135 168 209 252 296
#     4  10  20  35  54  75 102 131 165 210 250 297
#     4   8  15  30  50  73 102 133 165 206 253 293
#     4   9  16  28  51  78 102 131 167 208 250 295
#     4  11  20  31  53  80 101 131 173 209 247 297
#     4   9  19  35  53  73 101 133 167 208 250 297
#     4   9  19  36  54  74 101 133 167 205 251 298
#
# _framework density 21.918661
#
# number of rings (size 3 to 8) (size 9 to 14) (size 15 to 20)
#    0.000    2.500    1.250    1.875    0.000    3.500 
#    0.000    0.000    0.000    0.000    0.000    1.750 
#    0.000    0.000    0.000    0.000    0.000    0.000 
#
# Total GULP energy -178530.929806 kJ/mol
# GULP energy per Si atom -5579.091556 kJ/mol
# Density = 2.186877 g / cm^3
# Si number density = 21.918661 Si / 1000 Ang^3
#
#
#
# Elastic Constant Matrix: (Units=GPa)
#
#
# Indices 1 2 3 4 5 6 
#
# 1 66.8878 -4.5804 -12.8813 0.0000 -0.6256 0.0000
# 2 -4.5804 84.9471 6.8438 0.0000 -1.6409 0.0000
# 3 -12.8813 6.8438 50.7728 0.0000 -5.0187 0.0000
# 4 0.0000 0.0000 0.0000 15.2668 0.0000 1.8526
# 5 -0.6256 -1.6409 -5.0187 0.0000 18.8667 0.0000
# 6 0.0000 0.0000 0.0000 1.8526 0.0000 1.3906
#
#
#
# Elastic Compliance Matrix: (Units=1/GPa)
#
#
# Indices 1 2 3 4 5 6 
#
# 1 0.015793 0.000554 0.004096 0.000000 0.001662 0.000000
# 2 0.000554 0.011928 -0.001400 0.000000 0.000683 0.000000
# 3 0.004096 -0.001400 0.021490 0.000000 0.005731 0.000000
# 4 0.000000 0.000000 0.000000 0.078134 0.000000 -0.104094
# 5 0.001662 0.000683 0.005731 0.000000 0.054642 0.000000
# 6 0.000000 0.000000 0.000000 -0.104094 0.000000 0.857811
#
#
# Mechanical properties :
#
#
# Convention : Reuss Voigt Hill
#
# Bulk Modulus (GPa) = 17.94983 20.15244 19.05114
# Shear Modulus (GPa) = 4.75345 21.31985 13.03665
#
# Velocity S-wave (km/s) = 1.47424 3.12217 2.44144
# Velocity P-wave (km/s) = 3.33240 4.71290 4.08144
#
# Compressibility (1/GPa) = 0.05571082
#
# Stress axis : x y z
#
# Youngs Moduli (GPa) = 63.32023 83.83738 46.53338
#
# Poissons Ratio (x) = -0.04641 -0.19061
# Poissons Ratio (y) = -0.03506 0.06514
# Poissons Ratio (z) = -0.25938 0.11735
#
# Static dielectric constant tensor:
#      x y z
#    x 1.803390 0.000000 -0.020480 
#    y 0.000000 1.833370 0.000000 
#    z -0.020480 0.000000 1.820450 
# 
# From -- ./inp_files/263340.got.cif
#   From: 2010.05.17/outbox.cif.g08.bks.cpg/sg12_132_cif.got.tgz:263340.got - 2010.06.03 13:09:07.
