data_PCOD9195311
_publ_section_title
;
Structure prediction by ZEFSAII (Michael W. Deem and Ramdas Pophale) SiO2 
 PCOD9195311
Probable space group: C 2/M
;
_chemical_formula_sum "Si O2"
_cell_formula_units_Z 56
_cell_length_a 29.894740
_cell_length_b 9.042687
_cell_length_c 11.974647
_cell_angle_alpha 90.000000
_cell_angle_beta 69.727511
_cell_angle_gamma 90.000000
_cell_volume 3036.571360
_symmetry_space_group_name_H-M "C 2/M"
_symmetry_group_IT_number 12
_symmetry_cell_setting 'monoclinic'
loop_
_space_group_symop_operation_xyz
x,y,z
-x,y,-z
-x,-y,-z
x,-y,z
1/2+x,1/2+y,z
1/2-x,1/2+y,-z
1/2-x,1/2-y,-z
1/2+x,1/2-y,z
loop_
_atom_site_type_symbol
_atom_site_label
_atom_site_fract_x
_atom_site_fract_y
_atom_site_fract_z
Si Si1 0.215308 0.175889 0.373038
Si Si2 0.948722 0.173724 0.486654
Si Si3 0.915498 0.676244 0.879838
Si Si4 0.685985 0.323905 0.651257
Si Si5 0.365103 0.823985 0.694875
Si Si6 0.099002 0.675746 0.854263
Si Si7 0.981759 0.175104 0.207919
O O1 0.266509 0.253808 0.336474
O O2 0.189739 0.204267 0.514975
O O3 0.181961 0.241727 0.306319
O O4 0.221182 0.000000 0.356348
O O5 0.908534 0.272279 0.578056
O O6 0.955372 0.199325 0.349399
O O7 0.000000 0.199797 0.500000
O O8 0.936555 0.000000 0.514048
O O9 0.925633 0.500000 0.863924
O O10 0.881043 0.714041 0.807010
O O11 0.965045 0.763094 0.827230
O O12 0.893996 0.705482 0.020429
O O13 0.685316 0.500000 0.667904
O O14 0.639777 0.251878 0.745887
O O15 0.358642 0.000000 0.692185
O O16 0.099493 0.500000 0.836154
O O17 0.048335 0.741195 0.859835
O O18 0.982686 0.000000 0.185327
#
# Coordination Sequence:
#
# PCOD9195311 Si02
#       7
#     8   8   8   8   8   8   8
#     4  10  21  38  62  89 117 146 177 223 285 339
#     4  10  20  35  53  78 113 148 181 226 281 332
#     4  10  23  40  55  77 113 154 192 233 277 328
#     4  10  21  39  62  89 116 142 182 231 276 330
#     4  11  22  36  57  84 114 149 191 232 276 332
#     4  11  23  39  58  80 112 151 190 232 282 332
#     4  11  22  36  57  83 111 147 192 237 281 332
#
# _framework density 18.441852999999998
#
# number of rings (size 3 to 8) (size 9 to 14) (size 15 to 20)
#    0.000    1.571    1.429    3.429    0.000   10.000 
#    0.000    0.714    0.000    0.000    0.000    0.000 
#    0.000    0.000    0.000    0.000    0.000    0.000 
#
# Total GULP energy -156529.492485 kJ/mol
# GULP energy per Si atom -5590.339017 kJ/mol
# Density = 1.839988 g / cm^3
# Si number density = 18.441853 Si / 1000 Ang^3
#
#
#
# Elastic Constant Matrix: (Units=GPa)
#
#
# Indices 1 2 3 4 5 6 
#
# 1 115.3536 55.2702 45.4882 0.0000 24.3912 0.0000
# 2 55.2702 62.9330 42.5719 0.0000 13.4841 0.0000
# 3 45.4882 42.5719 50.8325 0.0000 10.7188 0.0000
# 4 0.0000 0.0000 0.0000 20.6121 0.0000 1.0223
# 5 24.3912 13.4841 10.7188 0.0000 19.8631 0.0000
# 6 0.0000 0.0000 0.0000 1.0223 0.0000 35.8705
#
#
#
# Elastic Compliance Matrix: (Units=1/GPa)
#
#
# Indices 1 2 3 4 5 6 
#
# 1 0.018067 -0.009257 -0.005712 0.000000 -0.012820 0.000000
# 2 -0.009257 0.043020 -0.027064 0.000000 -0.003233 0.000000
# 3 -0.005712 -0.027064 0.047502 0.000000 -0.000247 0.000000
# 4 0.000000 0.000000 0.000000 0.048584 0.000000 -0.001385
# 5 -0.012820 -0.003233 -0.000247 0.000000 0.068415 0.000000
# 6 0.000000 0.000000 0.000000 -0.001385 0.000000 0.027917
#
#
# Mechanical properties :
#
#
# Convention : Reuss Voigt Hill
#
# Bulk Modulus (GPa) = 40.77650 57.30885 49.04267
# Shear Modulus (GPa) = 14.46151 20.98840 17.72496
#
# Velocity S-wave (km/s) = 2.80334 3.37721 3.10357
# Velocity P-wave (km/s) = 5.71289 6.80811 6.28440
#
# Compressibility (1/GPa) = 0.02452393
#
# Stress axis : x y z
#
# Youngs Moduli (GPa) = 55.34811 23.24516 21.05172
#
# Poissons Ratio (x) = 0.21517 0.12026
# Poissons Ratio (y) = 0.51233 0.56974
# Poissons Ratio (z) = 0.31617 0.62910
#
# Static dielectric constant tensor:
#      x y z
#    x 1.616000 0.000000 0.018890 
#    y 0.000000 1.611710 0.000000 
#    z 0.018890 0.000000 1.628500 
# 
# From -- ./inp_files/180734.got.cif
#   From: 2010.05.17/outbox.cif.g08.bks.cpg/sg12_91_cif.got.tgz:180734.got - 2010.06.03 13:09:07.
