data_PCOD9195494
_publ_section_title
;
Structure prediction by ZEFSAII (Michael W. Deem and Ramdas Pophale) SiO2 
 PCOD9195494
Probable space group: C 2/M
;
_chemical_formula_sum "Si O2"
_cell_formula_units_Z 40
_cell_length_a 17.883681
_cell_length_b 10.701797
_cell_length_c 11.020569
_cell_angle_alpha 90.000000
_cell_angle_beta 79.931354
_cell_angle_gamma 90.000000
_cell_volume 2076.715627
_symmetry_space_group_name_H-M "C 2/M"
_symmetry_group_IT_number 12
_symmetry_cell_setting 'monoclinic'
loop_
_space_group_symop_operation_xyz
x,y,z
-x,y,-z
-x,-y,-z
x,-y,z
1/2+x,1/2+y,z
1/2-x,1/2+y,-z
1/2-x,1/2-y,-z
1/2+x,1/2-y,z
loop_
_atom_site_type_symbol
_atom_site_label
_atom_site_fract_x
_atom_site_fract_y
_atom_site_fract_z
Si Si1 0.768119 0.730355 0.699656
Si Si2 0.404680 0.353918 0.806616
Si Si3 0.452473 0.356945 0.387642
Si Si4 0.197591 0.856426 0.954253
Si Si5 0.166158 0.633951 0.560436
O O1 0.843366 0.772544 0.750234
O O2 0.708784 0.667580 0.809039
O O3 0.792519 0.644397 0.580834
O O4 0.728083 0.848413 0.648207
O O5 0.392849 0.500000 0.777493
O O6 0.488990 0.325554 0.737500
O O7 0.383139 0.341695 0.954825
O O8 0.500000 0.353479 0.500000
O O9 0.424560 0.500000 0.380992
O O10 0.388448 0.252845 0.414226
O O11 0.222243 0.000000 0.972778
O O12 0.250000 0.750000 0.000000
O O13 0.127006 0.500000 0.581931
#
# Coordination Sequence:
#
# PCOD9195494 Si02
#       5
#     8   8   8   8   8
#     4  10  20  35  54  80 112 142 178 221 271 323
#     4   9  17  34  58  80 103 140 183 219 260 320
#     4  10  20  36  56  78 107 145 183 219 265 325
#     4   9  18  33  55  81 108 138 178 223 268 317
#     4  11  23  35  54  83 113 144 178 225 275 317
#
# _framework density 19.261182999999999
#
# number of rings (size 3 to 8) (size 9 to 14) (size 15 to 20)
#    0.000    2.200    2.000    1.200    0.000    5.200 
#    0.000    2.000    0.000    4.800    0.000    0.000 
#    0.000    0.000    0.000    0.000    0.000    0.000 
#
# Total GULP energy -111450.707669 kJ/mol
# GULP energy per Si atom -5572.535383 kJ/mol
# Density = 1.921734 g / cm^3
# Si number density = 19.261183 Si / 1000 Ang^3
#
#
#
# Elastic Constant Matrix: (Units=GPa)
#
#
# Indices 1 2 3 4 5 6 
#
# 1 34.5226 32.9604 33.1525 0.0000 -12.8369 0.0000
# 2 32.9604 112.6449 46.6449 0.0000 -13.3526 0.0000
# 3 33.1525 46.6449 136.9749 0.0000 -35.2037 0.0000
# 4 0.0000 0.0000 0.0000 -0.5751 0.0000 -12.2127
# 5 -12.8369 -13.3526 -35.2037 0.0000 26.9749 0.0000
# 6 0.0000 0.0000 0.0000 -12.2127 0.0000 20.7100
#
#
#
# Elastic Compliance Matrix: (Units=1/GPa)
#
#
# Indices 1 2 3 4 5 6 
#
# 1 0.048200 -0.010643 -0.005267 0.000000 0.010795 0.000000
# 2 -0.010643 0.012696 -0.002158 0.000000 -0.001596 0.000000
# 3 -0.005267 -0.002158 0.012627 0.000000 0.012904 0.000000
# 4 0.000000 0.000000 0.000000 -0.128584 0.000000 -0.075827
# 5 0.010795 -0.001596 0.012904 0.000000 0.058259 0.000000
# 6 0.000000 0.000000 0.000000 -0.075827 0.000000 0.003571
#
#
# Mechanical properties :
#
#
# Convention : Reuss Voigt Hill
#
# Bulk Modulus (GPa) = 26.74733 56.62868 41.68800
# Shear Modulus (GPa) = 90.30878 20.84760 55.57819
#
# Velocity S-wave (km/s) = 6.85479 3.29350 5.37751
# Velocity P-wave (km/s) = 8.75030 6.62775 7.76192
#
# Compressibility (1/GPa) = 0.03738692
#
# Stress axis : x y z
#
# Youngs Moduli (GPa) = 20.74681 78.76580 79.19779
#
# Poissons Ratio (x) = 0.83829 0.41716
# Poissons Ratio (y) = 0.22080 0.17089
# Poissons Ratio (z) = 0.10928 0.16995
#
# Static dielectric constant tensor:
#      x y z
#    x 1.658570 0.000000 -0.012040 
#    y 0.000000 1.671330 0.000000 
#    z -0.012040 0.000000 1.725840 
# 
# From -- ./inp_files/152746.got.cif
#   From: 2010.05.17/outbox.cif.g08.bks.cpg/sg12_77_cif.got.tgz:152746.got - 2010.06.03 13:09:07.
