data_PCOD9195313
_publ_section_title
;
Structure prediction by ZEFSAII (Michael W. Deem and Ramdas Pophale) SiO2 
 PCOD9195313
Probable space group: C 2/M
;
_chemical_formula_sum "Si O2"
_cell_formula_units_Z 64
_cell_length_a 24.134350
_cell_length_b 14.195297
_cell_length_c 9.196609
_cell_angle_alpha 90.000000
_cell_angle_beta 83.051614
_cell_angle_gamma 90.000000
_cell_volume 3127.565259
_symmetry_space_group_name_H-M "C 2/M"
_symmetry_group_IT_number 12
_symmetry_cell_setting 'monoclinic'
loop_
_space_group_symop_operation_xyz
x,y,z
-x,y,-z
-x,-y,-z
x,-y,z
1/2+x,1/2+y,z
1/2-x,1/2+y,-z
1/2-x,1/2-y,-z
1/2+x,1/2-y,z
loop_
_atom_site_type_symbol
_atom_site_label
_atom_site_fract_x
_atom_site_fract_y
_atom_site_fract_z
Si Si1 0.227523 0.336154 0.798396
Si Si2 0.782806 0.893588 0.495297
Si Si3 0.368721 0.764251 0.355320
Si Si4 0.046059 0.164434 0.876416
Si Si5 0.031096 0.894323 0.351883
Si Si6 0.842406 0.608798 0.599564
Si Si7 0.873247 0.110326 0.894881
Si Si8 0.805789 0.696194 0.891333
O O1 0.271194 0.382264 0.672765
O O2 0.170191 0.330113 0.731297
O O3 0.251148 0.231725 0.822713
O O4 0.212513 0.366794 0.966077
O O5 0.829157 0.821552 0.423188
O O6 0.721589 0.877656 0.441855
O O7 0.800105 0.000000 0.458037
O O8 0.418423 0.731853 0.237955
O O9 0.381988 0.824171 0.493399
O O10 0.011568 0.104095 0.770262
O O11 0.088328 0.112301 0.972217
O O12 0.000000 0.208808 0.000000
O O13 0.088567 0.862833 0.257796
O O14 0.000000 0.847549 0.500000
O O15 0.044895 0.000000 0.397417
O O16 0.855679 0.500000 0.576828
O O17 0.842457 0.639795 0.766197
O O18 0.833067 0.201663 0.923191
O O19 0.853484 0.000000 0.886055
#
# Coordination Sequence:
#
# PCOD9195313 Si02
#       8
#     8   8   8   8   8   8   8   8
#     4  10  20  35  53  78 118 151 190 240 276 326
#     4  10  20  35  56  83 113 153 193 230 289 354
#     4  11  19  39  58  83 117 153 197 242 286 346
#     4  10  21  37  58  83 114 159 198 232 285 349
#     4   9  19  34  53  82 116 148 191 239 283 342
#     4  10  21  37  58  81 113 153 193 241 298 344
#     4  10  21  36  54  81 121 162 192 227 284 349
#     4  11  20  35  55  79 116 153 193 241 278 338
#
# _framework density 20.463203
#
# number of rings (size 3 to 8) (size 9 to 14) (size 15 to 20)
#    0.000    1.875    3.750    1.125    1.750    3.500 
#    0.000    1.875    0.000    0.375    0.000    6.125 
#    0.000    0.000    0.000    0.000    0.000    0.000 
#
# Total GULP energy -178174.334758 kJ/mol
# GULP energy per Si atom -5567.947961 kJ/mol
# Density = 2.041663 g / cm^3
# Si number density = 20.463203 Si / 1000 Ang^3
#
#
#
# Elastic Constant Matrix: (Units=GPa)
#
#
# Indices 1 2 3 4 5 6 
#
# 1 41.4731 20.9644 21.2292 0.0000 -19.8504 0.0000
# 2 20.9644 70.9118 41.2396 0.0000 -21.5419 0.0000
# 3 21.2292 41.2396 136.0670 0.0000 -24.8751 0.0000
# 4 0.0000 0.0000 0.0000 5.5666 0.0000 -0.2283
# 5 -19.8504 -21.5419 -24.8751 0.0000 36.9229 0.0000
# 6 0.0000 0.0000 0.0000 -0.2283 0.0000 10.0644
#
#
#
# Elastic Compliance Matrix: (Units=1/GPa)
#
#
# Indices 1 2 3 4 5 6 
#
# 1 0.034277 -0.004991 -0.001139 0.000000 0.014749 0.000000
# 2 -0.004991 0.019827 -0.004113 0.000000 0.006113 0.000000
# 3 -0.001139 -0.004113 0.009378 0.000000 0.003306 0.000000
# 4 0.000000 0.000000 0.000000 0.179809 0.000000 0.004079
# 5 0.014749 0.006113 0.003306 0.000000 0.040807 0.000000
# 6 0.000000 0.000000 0.000000 0.004079 0.000000 0.099452
#
#
# Mechanical properties :
#
#
# Convention : Reuss Voigt Hill
#
# Bulk Modulus (GPa) = 23.25777 46.14649 34.70213
# Shear Modulus (GPa) = 11.95122 21.51204 16.73163
#
# Velocity S-wave (km/s) = 2.41930 3.24582 2.86255
# Velocity P-wave (km/s) = 4.38114 6.05368 5.28401
#
# Compressibility (1/GPa) = 0.04299638
#
# Stress axis : x y z
#
# Youngs Moduli (GPa) = 29.17394 50.43750 106.63315
#
# Poissons Ratio (x) = 0.25173 0.12145
# Poissons Ratio (y) = 0.14560 0.43856
# Poissons Ratio (z) = 0.03323 0.20744
#
# Static dielectric constant tensor:
#      x y z
#    x 1.796290 0.000000 0.007040 
#    y 0.000000 1.710620 0.000000 
#    z 0.007040 0.000000 1.806690 
# 
# From -- ./inp_files/104552.got.cif
#   From: 2010.05.17/outbox.cif.g08.bks.cpg/sg12_53_cif.got.tgz:104552.got - 2010.06.03 13:09:07.
