data_PCOD9195857
_publ_section_title
;
Structure prediction by ZEFSAII (Michael W. Deem and Ramdas Pophale) SiO2 
 PCOD9195857
Probable space group: C 2/M
;
_chemical_formula_sum "Si O2"
_cell_formula_units_Z 56
_cell_length_a 22.919750
_cell_length_b 11.879342
_cell_length_c 11.538841
_cell_angle_alpha 90.000000
_cell_angle_beta 106.321048
_cell_angle_gamma 90.000000
_cell_volume 3015.094344
_symmetry_space_group_name_H-M "C 2/M"
_symmetry_group_IT_number 12
_symmetry_cell_setting 'monoclinic'
loop_
_space_group_symop_operation_xyz
x,y,z
-x,y,-z
-x,-y,-z
x,-y,z
1/2+x,1/2+y,z
1/2-x,1/2+y,-z
1/2-x,1/2-y,-z
1/2+x,1/2-y,z
loop_
_atom_site_type_symbol
_atom_site_label
_atom_site_fract_x
_atom_site_fract_y
_atom_site_fract_z
Si Si1 0.393886 0.701025 0.160497
Si Si2 0.013902 0.616304 0.873652
Si Si3 0.005589 0.129931 0.373669
Si Si4 0.840537 0.871196 0.888104
Si Si5 0.302046 0.129384 0.233420
Si Si6 0.710287 0.133757 0.497684
Si Si7 0.100735 0.722559 0.283513
O O1 0.441451 0.784701 0.128322
O O2 0.439700 0.636563 0.273241
O O3 0.344619 0.776050 0.200887
O O4 0.363250 0.639431 0.033653
O O5 0.043100 0.500000 0.851761
O O6 0.949235 0.632010 0.779382
O O7 0.000000 0.615598 0.000000
O O8 0.000000 0.179204 0.500000
O O9 0.059925 0.190672 0.335484
O O10 0.022707 0.000000 0.393104
O O11 0.768217 0.850823 0.841233
O O12 0.872963 0.786878 0.815348
O O13 0.851725 0.000000 0.855235
O O14 0.305153 0.135195 0.374578
O O15 0.317430 0.000000 0.207689
O O16 0.750000 0.250000 0.500000
O O17 0.652952 0.161581 0.385012
O O18 0.731448 0.000000 0.487198
#
# Coordination Sequence:
#
# PCOD9195857 Si02
#       7
#     8   8   8   8   8   8   8
#     4  11  21  38  60  85 117 159 201 250 307 375
#     4  10  20  35  55  83 114 148 190 242 296 353
#     4  10  22  38  59  87 121 160 204 257 308 363
#     4  11  22  37  59  87 121 160 205 257 308 369
#     4  10  22  40  61  86 120 160 203 254 312 371
#     4  11  23  41  65  93 126 164 209 257 306 369
#     4  11  21  38  61  88 119 160 200 251 304 372
#
# _framework density 18.573217
#
# number of rings (size 3 to 8) (size 9 to 14) (size 15 to 20)
#    0.000    1.429    2.857    3.000    0.000    0.571 
#    0.000    3.571    0.000    6.857    0.000    0.000 
#    0.000    0.000    0.000    0.000    0.000    0.000 
#
# Total GULP energy -155918.149934 kJ/mol
# GULP energy per Si atom -5568.505355 kJ/mol
# Density = 1.853094 g / cm^3
# Si number density = 18.573217 Si / 1000 Ang^3
#
#
#
# Elastic Constant Matrix: (Units=GPa)
#
#
# Indices 1 2 3 4 5 6 
#
# 1 60.6701 29.1818 23.3939 0.0000 -6.2903 0.0000
# 2 29.1818 87.6254 16.7757 0.0000 -6.6871 0.0000
# 3 23.3939 16.7757 105.6055 0.0000 5.6607 0.0000
# 4 0.0000 0.0000 0.0000 30.7012 0.0000 -18.8569
# 5 -6.2903 -6.6871 5.6607 0.0000 27.0232 0.0000
# 6 0.0000 0.0000 0.0000 -18.8569 0.0000 55.4290
#
#
#
# Elastic Compliance Matrix: (Units=1/GPa)
#
#
# Indices 1 2 3 4 5 6 
#
# 1 0.021373 -0.006020 -0.004010 0.000000 0.004325 0.000000
# 2 -0.006020 0.013772 -0.000973 0.000000 0.002210 0.000000
# 3 -0.004010 -0.000973 0.010695 0.000000 -0.003415 0.000000
# 4 0.000000 0.000000 0.000000 0.041176 0.000000 0.014008
# 5 0.004325 0.002210 -0.003415 0.000000 0.039274 0.000000
# 6 0.000000 0.000000 0.000000 0.014008 0.000000 0.022807
#
#
# Mechanical properties :
#
#
# Convention : Reuss Voigt Hill
#
# Bulk Modulus (GPa) = 41.95611 43.62264 42.78937
# Shear Modulus (GPa) = 27.92566 34.93398 31.42982
#
# Velocity S-wave (km/s) = 3.88176 4.34162 4.11811
# Velocity P-wave (km/s) = 6.53677 6.97644 6.76018
#
# Compressibility (1/GPa) = 0.02383443
#
# Stress axis : x y z
#
# Youngs Moduli (GPa) = 46.78836 72.61149 93.50105
#
# Poissons Ratio (x) = 0.43712 0.37495
# Poissons Ratio (y) = 0.28166 0.09094
# Poissons Ratio (z) = 0.18763 0.07063
#
# Static dielectric constant tensor:
#      x y z
#    x 1.611970 0.000000 0.013560 
#    y 0.000000 1.709230 0.000000 
#    z 0.013560 0.000000 1.661120 
# 
# From -- ./inp_files/165619.got.cif
#   From: 2010.05.17/outbox.cif.g08.bks.cpg/sg12_83_cif.got.tgz:165619.got - 2010.06.03 13:09:07.
