data_PCOD9195316
_publ_section_title
;
Structure prediction by ZEFSAII (Michael W. Deem and Ramdas Pophale) SiO2 
 PCOD9195316
Probable space group: C 2/M
;
_chemical_formula_sum "Si O2"
_cell_formula_units_Z 64
_cell_length_a 21.097934
_cell_length_b 13.070129
_cell_length_c 19.573891
_cell_angle_alpha 90.000000
_cell_angle_beta 43.103774
_cell_angle_gamma 90.000000
_cell_volume 3688.266448
_symmetry_space_group_name_H-M "C 2/M"
_symmetry_group_IT_number 12
_symmetry_cell_setting 'monoclinic'
loop_
_space_group_symop_operation_xyz
x,y,z
-x,y,-z
-x,-y,-z
x,-y,z
1/2+x,1/2+y,z
1/2-x,1/2+y,-z
1/2-x,1/2-y,-z
1/2+x,1/2-y,z
loop_
_atom_site_type_symbol
_atom_site_label
_atom_site_fract_x
_atom_site_fract_y
_atom_site_fract_z
Si Si1 0.080573 0.769490 0.888686
Si Si2 0.637770 0.247742 0.266157
Si Si3 0.001911 0.385711 0.694632
Si Si4 0.761505 0.377273 0.693493
Si Si5 0.311726 0.119615 0.094789
Si Si6 0.179198 0.728830 0.492806
Si Si7 0.481453 0.113695 0.871597
Si Si8 0.032977 0.117942 0.552849
O O1 0.158619 0.846978 0.801076
O O2 0.126673 0.678418 0.897234
O O3 0.034048 0.708222 0.863615
O O4 0.000000 0.816241 0.000000
O O5 0.595212 0.161749 0.251670
O O6 0.672316 0.190159 0.308037
O O7 0.718764 0.314292 0.168808
O O8 0.551420 0.323101 0.345440
O O9 0.007045 0.500000 0.663609
O O10 0.091020 0.328574 0.594759
O O11 0.002035 0.385477 0.775927
O O12 0.777291 0.500000 0.685533
O O13 0.776561 0.336940 0.604095
O O14 0.295285 0.000000 0.124273
O O15 0.373504 0.123577 0.977635
O O16 0.250000 0.750000 0.500000
O O17 0.130246 0.827227 0.494951
O O18 0.509622 0.000000 0.876663
O O19 0.000000 0.122471 0.500000
O O20 0.038458 0.000000 0.568994
#
# Coordination Sequence:
#
# PCOD9195316 Si02
#       8
#     8   8   8   8   8   8   8   8
#     4   9  18  33  53  78 106 137 173 218 272 324
#     4  10  20  35  53  79 105 141 181 222 267 319
#     4  10  21  35  53  74 105 144 181 219 262 316
#     4  11  22  36  55  77 106 142 182 223 265 319
#     4   9  17  30  53  80 106 135 174 221 269 322
#     4  11  23  39  57  82 111 141 182 225 274 326
#     4   9  17  32  52  77 106 138 174 219 273 321
#     4  10  20  37  58  81 110 142 178 223 277 328
#
# _framework density 17.352326000000001
#
# number of rings (size 3 to 8) (size 9 to 14) (size 15 to 20)
#    0.000    2.125    1.250    2.250    0.000    3.250 
#    0.000    2.500    0.000    0.750    0.000    0.000 
#    0.000    0.000    0.000    0.000    0.000    0.000 
#
# Total GULP energy -178192.540850 kJ/mol
# GULP energy per Si atom -5568.516902 kJ/mol
# Density = 1.731283 g / cm^3
# Si number density = 17.352326 Si / 1000 Ang^3
#
#
#
# Elastic Constant Matrix: (Units=GPa)
#
#
# Indices 1 2 3 4 5 6 
#
# 1 57.7457 33.9013 29.9532 0.0000 -12.1532 0.0000
# 2 33.9013 111.3433 43.1733 0.0000 -6.5572 0.0000
# 3 29.9532 43.1733 90.5574 0.0000 -2.3430 0.0000
# 4 0.0000 0.0000 0.0000 23.7601 0.0000 -1.5200
# 5 -12.1532 -6.5572 -2.3430 0.0000 24.5063 0.0000
# 6 0.0000 0.0000 0.0000 -1.5200 0.0000 18.1118
#
#
#
# Elastic Compliance Matrix: (Units=1/GPa)
#
#
# Indices 1 2 3 4 5 6 
#
# 1 0.025457 -0.004858 -0.005826 0.000000 0.010768 0.000000
# 2 -0.004858 0.012094 -0.004148 0.000000 0.000430 0.000000
# 3 -0.005826 -0.004148 0.014880 0.000000 -0.002576 0.000000
# 4 0.000000 0.000000 0.000000 0.042315 0.000000 0.003551
# 5 0.010768 0.000430 -0.002576 0.000000 0.046015 0.000000
# 6 0.000000 0.000000 0.000000 0.003551 0.000000 0.055511
#
#
# Mechanical properties :
#
#
# Convention : Reuss Voigt Hill
#
# Bulk Modulus (GPa) = 43.91994 52.63355 48.27675
# Shear Modulus (GPa) = 21.41101 23.45024 22.43062
#
# Velocity S-wave (km/s) = 3.51650 3.68015 3.59926
# Velocity P-wave (km/s) = 6.46942 6.96104 6.71973
#
# Compressibility (1/GPa) = 0.02276870
#
# Stress axis : x y z
#
# Youngs Moduli (GPa) = 39.28120 82.68528 67.20216
#
# Poissons Ratio (x) = 0.40169 0.39150
# Poissons Ratio (y) = 0.19083 0.27874
# Poissons Ratio (z) = 0.22884 0.34296
#
# Static dielectric constant tensor:
#      x y z
#    x 1.593260 0.000000 -0.001080 
#    y 0.000000 1.589670 0.000000 
#    z -0.001080 0.000000 1.588780 
# 
# From -- ./inp_files/245915.got.cif
#   From: 2010.05.17/outbox.cif.g08.bks.cpg/sg12_123_cif.got.tgz:245915.got - 2010.06.03 13:09:07.
