data_PCOD9195250
_publ_section_title
;
Structure prediction by ZEFSAII (Michael W. Deem and Ramdas Pophale) SiO2 
 PCOD9195250
Probable space group: C 2/M
;
_chemical_formula_sum "Si O2"
_cell_formula_units_Z 40
_cell_length_a 7.282326
_cell_length_b 28.347249
_cell_length_c 14.497590
_cell_angle_alpha 90.000000
_cell_angle_beta 29.543757
_cell_angle_gamma 90.000000
_cell_volume 1475.711220
_symmetry_space_group_name_H-M "C 2/M"
_symmetry_group_IT_number 12
_symmetry_cell_setting 'monoclinic'
loop_
_space_group_symop_operation_xyz
x,y,z
-x,y,-z
-x,-y,-z
x,-y,z
1/2+x,1/2+y,z
1/2-x,1/2+y,-z
1/2-x,1/2-y,-z
1/2+x,1/2-y,z
loop_
_atom_site_type_symbol
_atom_site_label
_atom_site_fract_x
_atom_site_fract_y
_atom_site_fract_z
Si Si1 0.841523 0.603909 0.775787
Si Si2 0.142294 0.500000 0.225445
Si Si3 0.919099 0.000000 0.774950
Si Si4 0.225850 0.794925 0.808581
Si Si5 0.597338 0.400989 0.223000
Si Si6 0.554379 0.696671 0.688907
O O1 0.028620 0.552751 0.712765
O O2 0.980574 0.658502 0.713280
O O3 0.687145 0.600471 0.738381
O O4 0.500000 0.605521 0.000000
O O5 0.309466 0.500000 0.255904
O O6 0.500000 0.500000 0.000000
O O7 0.966673 0.048837 0.701464
O O8 0.500000 0.000000 0.000000
O O9 0.412897 0.744600 0.707496
O O10 0.948866 0.804081 0.843974
O O11 0.000000 0.789084 0.000000
O O12 0.567346 0.353972 0.295564
O O13 0.000000 0.401662 0.000000
O O14 0.000000 0.696826 0.500000
#
# Coordination Sequence:
#
# PCOD9195250 Si02
#       6
#     8   4   4   8   8   8
#     4   8  15  26  44  70  94 118 153 195 237 279
#     4   8  12  22  40  65  95 117 141 190 242 276
#     4   8  14  26  45  69  94 121 157 198 237 280
#     4  10  20  35  53  73  96 128 170 207 240 290
#     4   9  17  30  49  71  96 127 162 199 239 288
#     4  11  22  35  50  73 102 132 163 203 251 295
#
# _framework density 27.105575000000002
#
# number of rings (size 3 to 8) (size 9 to 14) (size 15 to 20)
#    0.000    2.800    0.000    1.800    0.000    3.200 
#    0.000    0.500    0.000    0.000    0.000    0.700 
#    0.000    0.000    0.000   16.400    0.000    0.000 
#
# Total GULP energy -111652.583436 kJ/mol
# GULP energy per Si atom -5582.629172 kJ/mol
# Density = 2.704388 g / cm^3
# Si number density = 27.105575 Si / 1000 Ang^3
#
#
#
# Elastic Constant Matrix: (Units=GPa)
#
#
# Indices 1 2 3 4 5 6 
#
# 1 93.0505 14.4247 -4.2514 0.0000 12.4592 0.0000
# 2 14.4247 400.9063 23.3302 0.0000 -15.2980 0.0000
# 3 -4.2514 23.3302 65.6223 0.0000 10.5621 0.0000
# 4 0.0000 0.0000 0.0000 -21.6740 0.0000 -1.2089
# 5 12.4592 -15.2980 10.5621 0.0000 28.3223 0.0000
# 6 0.0000 0.0000 0.0000 -1.2089 0.0000 -8.6422
#
#
#
# Elastic Compliance Matrix: (Units=1/GPa)
#
#
# Indices 1 2 3 4 5 6 
#
# 1 0.011822 -0.000791 0.002077 0.000000 -0.006402 0.000000
# 2 -0.000791 0.002692 -0.001381 0.000000 0.002317 0.000000
# 3 0.002077 -0.001381 0.017162 0.000000 -0.008060 0.000000
# 4 0.000000 0.000000 0.000000 -0.046501 0.000000 0.006505
# 5 -0.006402 0.002317 -0.008060 0.000000 0.042381 0.000000
# 6 0.000000 0.000000 0.000000 0.006505 0.000000 -0.116621
#
#
# Mechanical properties :
#
#
# Convention : Reuss Voigt Hill
#
# Bulk Modulus (GPa) = 31.75987 69.62066 50.69026
# Shear Modulus (GPa) = -63.78937 34.67293 -14.55822
#
# Velocity S-wave (km/s) = -4.85641 3.58044 -2.32004
# Velocity P-wave (km/s) = 4.43890 6.54473 3.40071
#
# Compressibility (1/GPa) = 0.03148628
#
# Stress axis : x y z
#
# Youngs Moduli (GPa) = 84.59141 371.53277 58.26995
#
# Poissons Ratio (x) = 0.29370 -0.12105
# Poissons Ratio (y) = 0.06687 0.08047
# Poissons Ratio (z) = -0.17573 0.51308
#
# Static dielectric constant tensor:
#      x y z
#    x 2.168220 0.000000 -0.048280 
#    y 0.000000 2.211320 0.000000 
#    z -0.048280 0.000000 2.183710 
# 
# From -- ./inp_files/50084.got.cif
#   From: 2010.05.17/outbox.cif.g08.bks.cpg/sg12_26_cif.got.tgz:50084.got - 2010.06.03 13:09:07.
