data_PCOD9195704
_publ_section_title
;
Structure prediction by ZEFSAII (Michael W. Deem and Ramdas Pophale) SiO2 
 PCOD9195704
Probable space group: C 2/M
;
_chemical_formula_sum "Si O2"
_cell_formula_units_Z 48
_cell_length_a 19.074318
_cell_length_b 8.542699
_cell_length_c 15.948616
_cell_angle_alpha 90.000000
_cell_angle_beta 89.991611
_cell_angle_gamma 90.000000
_cell_volume 2598.765664
_symmetry_space_group_name_H-M "C 2/M"
_symmetry_group_IT_number 12
_symmetry_cell_setting 'monoclinic'
loop_
_space_group_symop_operation_xyz
x,y,z
-x,y,-z
-x,-y,-z
x,-y,z
1/2+x,1/2+y,z
1/2-x,1/2+y,-z
1/2-x,1/2-y,-z
1/2+x,1/2-y,z
loop_
_atom_site_type_symbol
_atom_site_label
_atom_site_fract_x
_atom_site_fract_y
_atom_site_fract_z
Si Si1 0.294117 0.814046 0.922435
Si Si2 0.705154 0.812188 0.578080
Si Si3 0.047162 0.189590 0.579959
Si Si4 0.207425 0.810834 0.259414
Si Si5 0.048622 0.810457 0.076288
Si Si6 0.045026 0.190074 0.263531
O O1 0.270085 0.751919 0.831354
O O2 0.373617 0.755320 0.932793
O O3 0.291441 0.000000 0.921979
O O4 0.250000 0.750000 0.000000
O O5 0.750000 0.750000 0.500000
O O6 0.625534 0.753581 0.574218
O O7 0.742943 0.760796 0.664494
O O8 0.706101 0.000000 0.576220
O O9 0.000000 0.234051 0.500000
O O10 0.006626 0.244351 0.663620
O O11 0.051027 0.000000 0.581295
O O12 0.126328 0.761250 0.275320
O O13 0.207415 0.000000 0.255635
O O14 0.022826 0.764592 0.169358
O O15 0.052497 0.000000 0.074553
O O16 0.000000 0.758561 0.000000
O O17 0.045149 0.000000 0.267044
#
# Coordination Sequence:
#
# PCOD9195704 Si02
#       6
#     8   8   8   8   8   8
#     4  11  22  36  56  82 113 149 188 231 278 328
#     4  11  23  38  58  84 114 147 184 230 279 328
#     4  10  20  35  55  79 109 146 184 221 268 328
#     4   9  19  38  59  79 107 145 188 232 279 329
#     4   9  18  34  55  79 109 145 183 223 271 328
#     4   8  15  31  54  75  99 136 180 221 264 319
#
# _framework density 18.470306999999998
#
# number of rings (size 3 to 8) (size 9 to 14) (size 15 to 20)
#    0.000    2.333    0.000    4.000    0.000    6.000 
#    0.000    5.000    0.000    0.000    0.000    0.000 
#    0.000    0.000    0.000    0.000    0.000    0.000 
#
# Total GULP energy -133952.308308 kJ/mol
# GULP energy per Si atom -5581.346179 kJ/mol
# Density = 1.842827 g / cm^3
# Si number density = 18.470307 Si / 1000 Ang^3
#
#
#
# Elastic Constant Matrix: (Units=GPa)
#
#
# Indices 1 2 3 4 5 6 
#
# 1 130.5799 27.6428 129.6882 0.0000 -0.1564 0.0000
# 2 27.6428 21.3028 44.9499 0.0000 4.3692 0.0000
# 3 129.6882 44.9499 221.0366 0.0000 -0.7214 0.0000
# 4 0.0000 0.0000 0.0000 19.5299 0.0000 -3.4958
# 5 -0.1564 4.3692 -0.7214 0.0000 43.5971 0.0000
# 6 0.0000 0.0000 0.0000 -3.4958 0.0000 27.8260
#
#
#
# Elastic Compliance Matrix: (Units=1/GPa)
#
#
# Indices 1 2 3 4 5 6 
#
# 1 0.018398 -0.001954 -0.010397 0.000000 0.000090 0.000000
# 2 -0.001954 0.085721 -0.016315 0.000000 -0.008868 0.000000
# 3 -0.010397 -0.016315 0.013948 0.000000 0.001829 0.000000
# 4 0.000000 0.000000 0.000000 0.052381 0.000000 0.006581
# 5 0.000090 -0.008868 0.001829 0.000000 0.023857 0.000000
# 6 0.000000 0.000000 0.000000 0.006581 0.000000 0.036764
#
#
# Mechanical properties :
#
#
# Convention : Reuss Voigt Hill
#
# Bulk Modulus (GPa) = 16.46465 86.38679 51.42572
# Shear Modulus (GPa) = 16.19981 29.56649 22.88315
#
# Velocity S-wave (km/s) = 2.96475 4.00529 3.52364
# Velocity P-wave (km/s) = 4.54457 8.26208 6.66765
#
# Compressibility (1/GPa) = 0.06073620
#
# Stress axis : x y z
#
# Youngs Moduli (GPa) = 54.35480 11.66570 71.69494
#
# Poissons Ratio (x) = 0.02279 0.74540
# Poissons Ratio (y) = 0.10619 1.16970
# Poissons Ratio (z) = 0.56512 0.19032
#
# Static dielectric constant tensor:
#      x y z
#    x 1.598080 0.000000 0.006590 
#    y 0.000000 1.629720 0.000000 
#    z 0.006590 0.000000 1.641960 
# 
# From -- ./inp_files/221575.got.cif
#   From: 2010.05.17/outbox.cif.g08.bks.cpg/sg12_111_cif.got.tgz:221575.got - 2010.06.03 13:09:07.
