data_PCOD9195928
_publ_section_title
;
Structure prediction by ZEFSAII (Michael W. Deem and Ramdas Pophale) SiO2 
 PCOD9195928
Probable space group: C 2/M
;
_chemical_formula_sum "Si O2"
_cell_formula_units_Z 56
_cell_length_a 21.232869
_cell_length_b 7.627295
_cell_length_c 32.359329
_cell_angle_alpha 90.000000
_cell_angle_beta 32.313260
_cell_angle_gamma 90.000000
_cell_volume 2801.337299
_symmetry_space_group_name_H-M "C 2/M"
_symmetry_group_IT_number 12
_symmetry_cell_setting 'monoclinic'
loop_
_space_group_symop_operation_xyz
x,y,z
-x,y,-z
-x,-y,-z
x,-y,z
1/2+x,1/2+y,z
1/2-x,1/2+y,-z
1/2-x,1/2-y,-z
1/2+x,1/2-y,z
loop_
_atom_site_type_symbol
_atom_site_label
_atom_site_fract_x
_atom_site_fract_y
_atom_site_fract_z
Si Si1 0.934037 0.786799 0.404948
Si Si2 0.332953 0.708802 0.993082
Si Si3 0.694642 0.710639 0.240142
Si Si4 0.593601 0.206964 0.821210
Si Si5 0.582162 0.784211 0.733625
Si Si6 0.259343 0.206927 0.426807
Si Si7 0.674251 0.210535 0.155707
O O1 0.859611 0.723364 0.485941
O O2 0.860629 0.730145 0.405317
O O3 0.067942 0.725367 0.326863
O O4 0.933213 0.000000 0.405754
O O5 0.341225 0.500000 0.991798
O O6 0.464155 0.774712 0.912253
O O7 0.250000 0.750000 0.000000
O O8 0.269086 0.777052 0.069814
O O9 0.692898 0.500000 0.244980
O O10 0.804434 0.779610 0.205752
O O11 0.703607 0.748416 0.186575
O O12 0.593064 0.276776 0.774701
O O13 0.616604 0.000000 0.804272
O O14 0.687314 0.723434 0.645386
O O15 0.456571 0.727595 0.784331
O O16 0.581707 0.000000 0.733550
O O17 0.240385 0.000000 0.431138
O O18 0.671611 0.000000 0.153262
#
# Coordination Sequence:
#
# PCOD9195928 Si02
#       7
#     8   8   8   8   8   8   8
#     4   9  17  29  46  75 107 131 165 212 259 302
#     4  11  22  37  57  81 105 134 173 219 263 305
#     4  10  21  35  52  77 110 142 169 212 266 308
#     4  10  21  38  55  74 107 143 174 211 261 314
#     4   9  16  31  53  76  99 134 176 211 250 304
#     4   9  16  28  50  75  99 132 173 212 251 300
#     4  10  20  35  56  77 102 135 174 215 255 308
#
# _framework density 19.990452000000001
#
# number of rings (size 3 to 8) (size 9 to 14) (size 15 to 20)
#    0.000    2.286    2.857    0.429    0.000    2.286 
#    0.000    4.286    0.000    4.286    0.000    0.000 
#    0.000    6.857    0.000    0.000    0.000    0.000 
#
# Total GULP energy -156262.056017 kJ/mol
# GULP energy per Si atom -5580.787715 kJ/mol
# Density = 1.994495 g / cm^3
# Si number density = 19.990452 Si / 1000 Ang^3
#
#
#
# Elastic Constant Matrix: (Units=GPa)
#
#
# Indices 1 2 3 4 5 6 
#
# 1 142.3742 -7.8736 97.6593 -0.0037 6.9618 -0.0498
# 2 -7.8736 33.2649 -8.6435 0.0204 7.2687 0.0101
# 3 97.6593 -8.6435 206.3259 -0.0003 19.5246 0.0013
# 4 -0.0037 0.0204 -0.0003 13.7779 0.0034 0.8573
# 5 6.9618 7.2687 19.5246 0.0034 27.0484 -0.0002
# 6 -0.0498 0.0101 0.0013 0.8573 -0.0002 17.7470
#
#
#
# Elastic Compliance Matrix: (Units=1/GPa)
#
#
# Indices 1 2 3 4 5 6 
#
# 1 0.010456 0.001053 -0.004963 -0.000001 0.000608 0.000029
# 2 0.001053 0.033101 0.001885 -0.000045 -0.010526 -0.000014
# 3 -0.004963 0.001885 0.007730 -0.000002 -0.004809 -0.000015
# 4 -0.000001 -0.000045 -0.000002 0.072799 0.000005 -0.003517
# 5 0.000608 -0.010526 -0.004809 0.000005 0.043114 0.000008
# 6 0.000029 -0.000014 -0.000015 -0.003517 0.000008 0.056518
#
#
# Mechanical properties :
#
#
# Convention : Reuss Voigt Hill
#
# Bulk Modulus (GPa) = 21.17049 60.47214 40.82132
# Shear Modulus (GPa) = 20.53275 31.76951 26.15113
#
# Velocity S-wave (km/s) = 3.20836 3.99084 3.62080
# Velocity P-wave (km/s) = 4.93336 7.17997 6.15995
#
# Compressibility (1/GPa) = 0.04723556
#
# Stress axis : x y z
#
# Youngs Moduli (GPa) = 95.63616 30.21083 129.37181
#
# Poissons Ratio (x) = -0.03180 0.64203
# Poissons Ratio (y) = -0.10066 -0.24381
# Poissons Ratio (z) = 0.47461 -0.05693
#
# Static dielectric constant tensor:
#      x y z
#    x 1.665470 0.000030 0.009840 
#    y 0.000030 1.729140 -0.000110 
#    z 0.009840 -0.000110 1.715650 
# 
# From -- ./inp_files/280404.got.cif
#   From: 2010.05.17/outbox.cif.g08.bks.cpg/sg12_141_cif.got.tgz:280404.got - 2010.06.03 13:09:07.
