data_PCOD9195073
_publ_section_title
;
Structure prediction by ZEFSAII (Michael W. Deem and Ramdas Pophale) SiO2 
 PCOD9195073
Probable space group: C 2/M
;
_chemical_formula_sum "Si O2"
_cell_formula_units_Z 56
_cell_length_a 15.350616
_cell_length_b 20.317654
_cell_length_c 17.470550
_cell_angle_alpha 90.000000
_cell_angle_beta 145.320950
_cell_angle_gamma 90.000000
_cell_volume 3100.288326
_symmetry_space_group_name_H-M "C 2/M"
_symmetry_group_IT_number 12
_symmetry_cell_setting 'monoclinic'
loop_
_space_group_symop_operation_xyz
x,y,z
-x,y,-z
-x,-y,-z
x,-y,z
1/2+x,1/2+y,z
1/2-x,1/2+y,-z
1/2-x,1/2-y,-z
1/2+x,1/2-y,z
loop_
_atom_site_type_symbol
_atom_site_label
_atom_site_fract_x
_atom_site_fract_y
_atom_site_fract_z
Si Si1 0.663688 0.319213 0.943636
Si Si2 0.894851 0.166790 0.855317
Si Si3 0.103759 0.420843 0.809955
Si Si4 0.640100 0.077099 0.653546
Si Si5 0.334804 0.823855 0.631738
Si Si6 0.477105 0.689463 0.665484
Si Si7 0.153293 0.230313 0.649546
O O1 0.518496 0.301897 0.890300
O O2 0.587160 0.340305 0.808813
O O3 0.750000 0.250000 0.000000
O O4 0.764345 0.377178 0.053958
O O5 0.799350 0.110070 0.746023
O O6 0.762889 0.220097 0.775294
O O7 0.000000 0.141592 0.000000
O O8 0.111746 0.500000 0.829850
O O9 0.116372 0.410610 0.727026
O O10 0.945839 0.385941 0.721395
O O11 0.500000 0.099336 0.500000
O O12 0.653477 0.000000 0.652958
O O13 0.432466 0.764076 0.662795
O O14 0.190907 0.839668 0.472357
O O15 0.255474 0.799922 0.654359
O O16 0.573889 0.686355 0.657012
O O17 0.000000 0.260765 0.500000
#
# Coordination Sequence:
#
# PCOD9195073 Si02
#       7
#     8   8   8   8   8   8   8
#     4  12  22  38  55  85 122 156 200 249 291 350
#     4  12  21  32  54  82 115 154 191 233 292 352
#     4  11  23  41  61  84 122 164 199 245 304 358
#     4  10  23  39  56  82 118 157 196 235 287 364
#     4  10  20  37  58  90 116 152 199 245 303 358
#     4  10  20  34  61  87 119 147 195 253 298 354
#     4  10  20  35  57  87 118 148 186 249 305 347
#
# _framework density 18.062836000000001
#
# number of rings (size 3 to 8) (size 9 to 14) (size 15 to 20)
#    0.000    1.286    4.286    2.143    2.000    0.857 
#    0.000    0.714    0.000    5.571    0.000    0.000 
#    0.000    0.000    0.000    0.000    0.000    0.000 
#
# Total GULP energy -155925.143576 kJ/mol
# GULP energy per Si atom -5568.755128 kJ/mol
# Density = 1.802172 g / cm^3
# Si number density = 18.062836 Si / 1000 Ang^3
#
#
#
# Elastic Constant Matrix: (Units=GPa)
#
#
# Indices 1 2 3 4 5 6 
#
# 1 47.9798 15.2870 18.4194 0.0009 22.2598 0.0001
# 2 15.2870 74.4437 50.4209 -0.0018 14.1358 0.0003
# 3 18.4194 50.4209 172.7407 0.0000 3.1836 0.0012
# 4 0.0009 -0.0018 0.0000 29.9587 -0.0006 -1.6949
# 5 22.2598 14.1358 3.1836 -0.0006 31.3783 0.0004
# 6 0.0001 0.0003 0.0012 -1.6949 0.0004 16.0188
#
#
#
# Elastic Compliance Matrix: (Units=1/GPa)
#
#
# Indices 1 2 3 4 5 6 
#
# 1 0.032610 -0.000402 -0.002942 -0.000001 -0.022654 0.000000
# 2 -0.000402 0.018470 -0.005210 0.000001 -0.007507 0.000000
# 3 -0.002942 -0.005210 0.007556 0.000000 0.003668 -0.000001
# 4 -0.000001 0.000001 0.000000 0.033580 0.000001 0.003553
# 5 -0.022654 -0.007507 0.003668 0.000001 0.050950 -0.000001
# 6 0.000000 0.000000 -0.000001 0.003553 -0.000001 0.062803
#
#
# Mechanical properties :
#
#
# Convention : Reuss Voigt Hill
#
# Bulk Modulus (GPa) = 24.08073 51.49098 37.78586
# Shear Modulus (GPa) = 21.10433 29.54027 25.32230
#
# Velocity S-wave (km/s) = 3.42187 4.04842 3.74826
# Velocity P-wave (km/s) = 5.38264 7.10080 6.30056
#
# Compressibility (1/GPa) = 0.04152697
#
# Stress axis : x y z
#
# Youngs Moduli (GPa) = 30.66564 54.14322 132.34767
#
# Poissons Ratio (x) = 0.02176 0.38942
# Poissons Ratio (y) = 0.01232 0.68951
# Poissons Ratio (z) = 0.09023 0.28208
#
# Static dielectric constant tensor:
#      x y z
#    x 1.664790 0.000000 -0.007760 
#    y 0.000000 1.622970 0.000000 
#    z -0.007760 0.000000 1.509980 
# 
# From -- ./inp_files/272406.got.cif
#   From: 2010.05.17/outbox.cif.g08.bks.cpg/sg12_137_cif.got.tgz:272406.got - 2010.06.03 13:09:07.
