data_PCOD9195907
_publ_section_title
;
Structure prediction by ZEFSAII (Michael W. Deem and Ramdas Pophale) SiO2 
 PCOD9195907
Probable space group: C 2/M
;
_chemical_formula_sum "Si O2"
_cell_formula_units_Z 48
_cell_length_a 13.546322
_cell_length_b 27.848651
_cell_length_c 10.242562
_cell_angle_alpha 90.000000
_cell_angle_beta 139.817144
_cell_angle_gamma 90.000000
_cell_volume 2493.148319
_symmetry_space_group_name_H-M "C 2/M"
_symmetry_group_IT_number 12
_symmetry_cell_setting 'monoclinic'
loop_
_space_group_symop_operation_xyz
x,y,z
-x,y,-z
-x,-y,-z
x,-y,z
1/2+x,1/2+y,z
1/2-x,1/2+y,-z
1/2-x,1/2-y,-z
1/2+x,1/2-y,z
loop_
_atom_site_type_symbol
_atom_site_label
_atom_site_fract_x
_atom_site_fract_y
_atom_site_fract_z
Si Si1 0.319991 0.000000 0.988409
Si Si2 0.331184 0.397263 0.159125
Si Si3 0.176524 0.698719 0.883768
Si Si4 0.834532 0.309302 0.635547
Si Si5 0.820111 0.902081 0.462976
Si Si6 0.171292 0.778618 0.218797
Si Si7 0.173277 0.500000 0.323354
O O1 0.239146 0.050188 0.950585
O O2 0.322249 0.000000 0.831410
O O3 0.500694 0.000000 0.201632
O O4 0.326635 0.398955 0.312315
O O5 0.511561 0.392226 0.310575
O O6 0.246398 0.349876 0.017992
O O7 0.211562 0.698623 0.764667
O O8 0.999752 0.701735 0.744044
O O9 0.250000 0.750000 0.000000
O O10 0.811077 0.364795 0.634043
O O11 0.811825 0.278957 0.745364
O O12 0.706026 0.295788 0.399741
O O13 0.765687 0.953350 0.455615
O O14 0.000000 0.789206 0.000000
#
# Coordination Sequence:
#
# PCOD9195907 Si02
#       7
#     4   8   8   8   8   8   4
#     4   9  17  33  53  84 115 152 197 239 300 345
#     4  10  21  34  57  85 119 156 195 246 293 351
#     4  12  23  38  58  84 117 156 196 240 295 346
#     4  11  24  39  59  84 117 155 199 238 296 352
#     4  10  20  35  55  86 117 154 197 240 298 347
#     4  11  23  41  58  82 115 155 195 246 288 349
#     4   9  17  31  55  80 117 150 189 247 292 347
#
# _framework density 19.252765
#
# number of rings (size 3 to 8) (size 9 to 14) (size 15 to 20)
#    0.000    1.500    1.667    4.000    2.333    3.333 
#    0.000    0.000    0.000    1.000    0.000    7.000 
#    0.000    0.000    0.000    0.000    0.000    0.000 
#
# Total GULP energy -133839.876132 kJ/mol
# GULP energy per Si atom -5576.661505 kJ/mol
# Density = 1.920894 g / cm^3
# Si number density = 19.252765 Si / 1000 Ang^3
#
#
#
# Elastic Constant Matrix: (Units=GPa)
#
#
# Indices 1 2 3 4 5 6 
#
# 1 61.3178 33.1433 30.7016 0.0000 18.9577 0.0000
# 2 33.1433 141.6090 40.4382 0.0000 17.6292 0.0000
# 3 30.7016 40.4382 99.6203 0.0000 21.2467 0.0000
# 4 0.0000 0.0000 0.0000 28.4429 0.0000 10.1610
# 5 18.9577 17.6292 21.2467 0.0000 26.7439 0.0000
# 6 0.0000 0.0000 0.0000 10.1610 0.0000 24.0802
#
#
#
# Elastic Compliance Matrix: (Units=1/GPa)
#
#
# Indices 1 2 3 4 5 6 
#
# 1 0.023306 -0.003001 -0.003447 0.000000 -0.011804 0.000000
# 2 -0.003001 0.008614 -0.002185 0.000000 -0.001815 0.000000
# 3 -0.003447 -0.002185 0.013435 0.000000 -0.006790 0.000000
# 4 0.000000 0.000000 0.000000 0.041399 0.000000 -0.017469
# 5 -0.011804 -0.001815 -0.006790 0.000000 0.052351 0.000000
# 6 0.000000 0.000000 0.000000 -0.017469 0.000000 0.048899
#
#
# Mechanical properties :
#
#
# Convention : Reuss Voigt Hill
#
# Bulk Modulus (GPa) = 35.59918 56.79037 46.19477
# Shear Modulus (GPa) = 23.29574 29.07101 26.18337
#
# Velocity S-wave (km/s) = 3.48227 3.89004 3.69179
# Velocity P-wave (km/s) = 5.89057 7.05251 6.49757
#
# Compressibility (1/GPa) = 0.02809053
#
# Stress axis : x y z
#
# Youngs Moduli (GPa) = 42.90768 116.09175 74.43033
#
# Poissons Ratio (x) = 0.34838 0.25655
# Poissons Ratio (y) = 0.12876 0.16260
# Poissons Ratio (z) = 0.14790 0.25361
#
# Static dielectric constant tensor:
#      x y z
#    x 1.678850 0.000000 -0.002160 
#    y 0.000000 1.720760 0.000000 
#    z -0.002160 0.000000 1.676470 
# 
# From -- ./inp_files/149902.got.cif
#   From: 2010.05.17/outbox.cif.g08.bks.cpg/sg12_75_cif.got.tgz:149902.got - 2010.06.03 13:09:07.
