data_PCOD9195428
_publ_section_title
;
Structure prediction by ZEFSAII (Michael W. Deem and Ramdas Pophale) SiO2 
 PCOD9195428
Probable space group: C 2/M
;
_chemical_formula_sum "Si O2"
_cell_formula_units_Z 56
_cell_length_a 17.498613
_cell_length_b 8.922873
_cell_length_c 29.158761
_cell_angle_alpha 90.000000
_cell_angle_beta 40.977961
_cell_angle_gamma 90.000000
_cell_volume 2985.575610
_symmetry_space_group_name_H-M "C 2/M"
_symmetry_group_IT_number 12
_symmetry_cell_setting 'monoclinic'
loop_
_space_group_symop_operation_xyz
x,y,z
-x,y,-z
-x,-y,-z
x,-y,z
1/2+x,1/2+y,z
1/2-x,1/2+y,-z
1/2-x,1/2-y,-z
1/2+x,1/2-y,z
loop_
_atom_site_type_symbol
_atom_site_label
_atom_site_fract_x
_atom_site_fract_y
_atom_site_fract_z
Si Si1 0.475390 0.825033 0.295704
Si Si2 0.484988 0.180275 0.149689
Si Si3 0.873931 0.823238 0.432583
Si Si4 0.039750 0.326097 0.429524
Si Si5 0.333265 0.820132 0.001259
Si Si6 0.782130 0.325409 0.302621
Si Si7 0.849475 0.821113 0.847831
O O1 0.427819 0.739693 0.361269
O O2 0.377629 0.812011 0.299948
O O3 0.595292 0.758292 0.221216
O O4 0.489815 0.000000 0.299511
O O5 0.352280 0.211488 0.224002
O O6 0.564547 0.271392 0.149578
O O7 0.501082 0.000000 0.150842
O O8 0.536350 0.213358 0.075923
O O9 0.750000 0.750000 0.500000
O O10 0.961111 0.777817 0.433473
O O11 0.859729 0.000000 0.435711
O O12 0.022977 0.500000 0.424209
O O13 0.173195 0.278334 0.362260
O O14 0.000000 0.308649 0.500000
O O15 0.278528 0.775336 0.075038
O O16 0.320711 0.000000 0.005189
O O17 0.250000 0.750000 0.000000
O O18 0.745122 0.500000 0.317633
O O19 0.853345 0.000000 0.839758
#
# Coordination Sequence:
#
# PCOD9195428 Si02
#       7
#     8   8   8   8   8   8   8
#     4  10  20  35  54  77 108 143 178 216 261 310
#     4   8  14  25  40  62  96 136 174 213 261 310
#     4  12  25  41  61  83 108 136 170 211 256 308
#     4  11  24  40  58  80 106 137 173 212 255 306
#     4   8  13  21  35  58  92 132 171 212 256 305
#     4   9  18  32  52  77 105 139 176 216 261 308
#     4   9  15  23  39  66  98 133 174 216 259 305
#
# _framework density 18.756851000000001
#
# number of rings (size 3 to 8) (size 9 to 14) (size 15 to 20)
#    0.000    2.429    0.000    4.286    0.000    6.857 
#    0.000    0.000    0.000    0.000    0.000    1.000 
#    0.000    8.000    0.000    0.000    0.000    0.000 
#
# Total GULP energy -156034.270160 kJ/mol
# GULP energy per Si atom -5572.652506 kJ/mol
# Density = 1.871416 g / cm^3
# Si number density = 18.756851 Si / 1000 Ang^3
#
#
#
# Elastic Constant Matrix: (Units=GPa)
#
#
# Indices 1 2 3 4 5 6 
#
# 1 13.4702 19.0718 23.3435 0.0000 2.3469 -0.0001
# 2 19.0718 95.4740 76.6724 -0.0002 6.3921 -0.0008
# 3 23.3435 76.6724 193.8935 0.0001 4.1667 0.0001
# 4 0.0000 -0.0002 0.0001 24.8825 0.0000 -0.6853
# 5 2.3469 6.3921 4.1667 0.0000 14.8222 0.0000
# 6 -0.0001 -0.0008 0.0001 -0.6853 0.0000 18.2223
#
#
#
# Elastic Compliance Matrix: (Units=1/GPa)
#
#
# Indices 1 2 3 4 5 6 
#
# 1 0.110072 -0.015996 -0.006741 0.000000 -0.008635 0.000000
# 2 -0.015996 0.018041 -0.005127 0.000000 -0.003806 0.000001
# 3 -0.006741 -0.005127 0.007974 0.000000 0.001037 0.000000
# 4 0.000000 0.000000 0.000000 0.040231 0.000000 0.001513
# 5 -0.008635 -0.003806 0.001037 0.000000 0.070184 0.000000
# 6 0.000000 0.000001 0.000000 0.001513 0.000000 0.054935
#
#
# Mechanical properties :
#
#
# Convention : Reuss Voigt Hill
#
# Bulk Modulus (GPa) = 12.44400 60.11258 36.27829
# Shear Modulus (GPa) = 13.02249 23.83540 18.42894
#
# Velocity S-wave (km/s) = 2.63778 3.56863 3.13791
# Velocity P-wave (km/s) = 3.99073 7.00700 5.70193
#
# Compressibility (1/GPa) = 0.08036001
#
# Stress axis : x y z
#
# Youngs Moduli (GPa) = 9.08493 55.42841 125.40830
#
# Poissons Ratio (x) = 0.88666 0.84536
# Poissons Ratio (y) = 0.14533 0.64291
# Poissons Ratio (z) = 0.06124 0.28415
#
# Static dielectric constant tensor:
#      x y z
#    x 1.646330 0.000000 -0.003540 
#    y 0.000000 1.614420 0.000000 
#    z -0.003540 0.000000 1.716440 
# 
# From -- ./inp_files/362939.got.cif
#   From: 2010.05.17/outbox.cif.g08.bks.cpg/sg12_182_cif.got.tgz:362939.got - 2010.06.03 13:09:07.
