data_PCOD9195391
_publ_section_title
;
Structure prediction by ZEFSAII (Michael W. Deem and Ramdas Pophale) SiO2 
 PCOD9195391
Probable space group: C 2/M
;
_chemical_formula_sum "Si O2"
_cell_formula_units_Z 64
_cell_length_a 31.367207
_cell_length_b 7.318956
_cell_length_c 13.017599
_cell_angle_alpha 90.000000
_cell_angle_beta 121.042650
_cell_angle_gamma 90.000000
_cell_volume 2560.513440
_symmetry_space_group_name_H-M "C 2/M"
_symmetry_group_IT_number 12
_symmetry_cell_setting 'monoclinic'
loop_
_space_group_symop_operation_xyz
x,y,z
-x,y,-z
-x,-y,-z
x,-y,z
1/2+x,1/2+y,z
1/2-x,1/2+y,-z
1/2-x,1/2-y,-z
1/2+x,1/2-y,z
loop_
_atom_site_type_symbol
_atom_site_label
_atom_site_fract_x
_atom_site_fract_y
_atom_site_fract_z
Si Si1 0.659572 0.723030 0.161191
Si Si2 0.712245 0.283239 0.858430
Si Si3 0.928703 0.216622 0.813686
Si Si4 0.631099 0.218925 0.471051
Si Si5 0.131625 0.222557 0.906234
Si Si6 0.523814 0.708419 0.831224
Si Si7 0.236781 0.293567 0.657384
Si Si8 0.966094 0.721824 0.552558
O O1 0.659871 0.500000 0.166398
O O2 0.606557 0.785006 0.139451
O O3 0.708038 0.788517 0.282904
O O4 0.663025 0.773130 0.046270
O O5 0.710136 0.500000 0.838224
O O6 0.659195 0.217171 0.837707
O O7 0.726786 0.198802 0.767942
O O8 0.750000 0.250000 0.000000
O O9 0.895186 0.241995 0.669900
O O10 0.984062 0.290683 0.861591
O O11 0.935256 0.000000 0.836283
O O12 0.686940 0.292403 0.549154
O O13 0.591621 0.279584 0.509516
O O14 0.635007 0.000000 0.486238
O O15 0.076387 0.289213 0.863065
O O16 0.130257 0.000000 0.899111
O O17 0.534566 0.500000 0.878651
O O18 0.492379 0.707310 0.687522
O O19 0.240502 0.500000 0.620821
O O20 0.966957 0.500000 0.556424
O O21 0.000000 0.781018 0.500000
#
# Coordination Sequence:
#
# PCOD9195391 Si02
#       8
#     8   8   8   8   8   8   8   8
#     4   9  17  32  53  75 101 133 168 211 258 299
#     4  11  21  35  54  76 105 139 169 208 255 300
#     4   9  18  33  54  76 100 132 171 214 253 297
#     4   9  19  34  51  72 102 137 169 208 258 304
#     4   9  18  32  51  76 105 133 164 205 255 302
#     4   9  18  32  50  75 101 128 167 208 250 298
#     4  10  20  35  54  76 103 137 173 208 253 306
#     4   9  18  32  48  69  98 132 170 208 248 298
#
# _framework density 24.994987999999999
#
# number of rings (size 3 to 8) (size 9 to 14) (size 15 to 20)
#    0.000    2.625    1.250    0.375    1.750    1.750 
#    0.000    3.750    0.000    0.000    0.000    3.500 
#    0.000    0.000    0.000    0.000    0.000    0.000 
#
# Total GULP energy -178722.178342 kJ/mol
# GULP energy per Si atom -5585.068073 kJ/mol
# Density = 2.493810 g / cm^3
# Si number density = 24.994988 Si / 1000 Ang^3
#
#
#
# Elastic Constant Matrix: (Units=GPa)
#
#
# Indices 1 2 3 4 5 6 
#
# 1 132.8523 -1.1644 -4.0358 0.0000 14.9527 0.0000
# 2 -1.1644 110.7649 -13.6392 0.0000 6.0450 0.0000
# 3 -4.0358 -13.6392 35.0523 0.0000 10.5391 0.0000
# 4 0.0000 0.0000 0.0000 2.1875 0.0000 5.2919
# 5 14.9527 6.0450 10.5391 0.0000 40.2577 0.0000
# 6 0.0000 0.0000 0.0000 5.2919 0.0000 -16.4241
#
#
#
# Elastic Compliance Matrix: (Units=1/GPa)
#
#
# Indices 1 2 3 4 5 6 
#
# 1 0.008010 0.000558 0.002235 0.000000 -0.003644 0.000000
# 2 0.000558 0.009778 0.004746 0.000000 -0.002918 0.000000
# 3 0.002235 0.004746 0.033754 0.000000 -0.010379 0.000000
# 4 0.000000 0.000000 0.000000 0.256903 0.000000 0.082775
# 5 -0.003644 -0.002918 -0.010379 0.000000 0.029349 0.000000
# 6 0.000000 0.000000 0.000000 0.082775 0.000000 -0.034216
#
#
# Mechanical properties :
#
#
# Convention : Reuss Voigt Hill
#
# Bulk Modulus (GPa) = 15.01028 26.77676 20.89352
# Shear Modulus (GPa) = 16.09245 25.03814 20.56530
#
# Velocity S-wave (km/s) = 2.54013 3.16844 2.87152
# Velocity P-wave (km/s) = 3.82379 4.91136 4.40130
#
# Compressibility (1/GPa) = 0.06662101
#
# Stress axis : x y z
#
# Youngs Moduli (GPa) = 124.84239 102.27364 29.62635
#
# Poissons Ratio (x) = -0.05710 -0.06622
# Poissons Ratio (y) = -0.06970 -0.14061
# Poissons Ratio (z) = -0.27904 -0.48542
#
# Static dielectric constant tensor:
#      x y z
#    x 2.024060 0.000000 0.036890 
#    y 0.000000 1.948870 0.000000 
#    z 0.036890 0.000000 1.939910 
# 
# From -- ./inp_files/249166.got.cif
#   From: 2010.05.17/outbox.cif.g08.bks.cpg/sg12_125_cif.got.tgz:249166.got - 2010.06.03 13:09:07.
