data_PCOD9195327
_publ_section_title
;
Structure prediction by ZEFSAII (Michael W. Deem and Ramdas Pophale) SiO2 
 PCOD9195327
Probable space group: C 2/M
;
_chemical_formula_sum "Si O2"
_cell_formula_units_Z 64
_cell_length_a 13.430803
_cell_length_b 20.698394
_cell_length_c 13.721604
_cell_angle_alpha 90.000000
_cell_angle_beta 110.518791
_cell_angle_gamma 90.000000
_cell_volume 3572.546216
_symmetry_space_group_name_H-M "C 2/M"
_symmetry_group_IT_number 12
_symmetry_cell_setting 'monoclinic'
loop_
_space_group_symop_operation_xyz
x,y,z
-x,y,-z
-x,-y,-z
x,-y,z
1/2+x,1/2+y,z
1/2-x,1/2+y,-z
1/2-x,1/2-y,-z
1/2+x,1/2-y,z
loop_
_atom_site_type_symbol
_atom_site_label
_atom_site_fract_x
_atom_site_fract_y
_atom_site_fract_z
Si Si1 0.426965 0.705711 0.878913
Si Si2 0.622031 0.425169 0.575018
Si Si3 0.763516 0.303390 0.586879
Si Si4 0.013790 0.319426 0.251058
Si Si5 0.568617 0.076513 0.118314
Si Si6 0.197192 0.253319 0.774724
Si Si7 0.499999 0.569287 0.882874
Si Si8 0.182793 0.109767 0.815578
O O1 0.461755 0.762555 0.818573
O O2 0.303105 0.717254 0.858227
O O3 0.440173 0.635118 0.834810
O O4 0.500000 0.708417 0.000000
O O5 0.500000 0.416201 0.500000
O O6 0.652181 0.500000 0.564101
O O7 0.695745 0.369426 0.552936
O O8 0.634709 0.414115 0.695882
O O9 0.750000 0.250000 0.500000
O O10 0.887968 0.319129 0.641062
O O11 0.725788 0.270833 0.675748
O O12 0.021367 0.385219 0.193235
O O13 0.900581 0.302214 0.257167
O O14 0.691652 0.095987 0.145068
O O15 0.563882 0.000000 0.130972
O O16 0.500000 0.093974 0.000000
O O17 0.167840 0.186701 0.818779
O O18 0.456088 0.500000 0.833510
O O19 0.618238 0.576592 0.880003
O O20 0.500000 0.568239 0.000000
#
# Coordination Sequence:
#
# PCOD9195327 Si02
#       8
#     8   8   8   8   8   8   8   8
#     4  10  20  35  53  80 112 150 192 238 288 342
#     4  10  21  36  61  92 115 148 198 251 306 355
#     4  10  23  37  60  85 120 156 188 249 304 362
#     4  11  21  38  58  84 119 152 196 243 298 354
#     4  11  23  38  60  90 121 159 205 248 297 354
#     4  10  22  36  57  88 112 149 202 242 291 358
#     4  10  21  35  53  79 113 155 194 233 293 354
#     4  11  20  38  61  83 121 156 195 256 296 347
#
# _framework density 17.914394999999999
#
# number of rings (size 3 to 8) (size 9 to 14) (size 15 to 20)
#    0.000    1.625    5.000    1.500    3.500    2.500 
#    0.000    1.875    0.000    0.750    0.000    1.750 
#    0.000    0.000    0.000    0.000    0.000    0.000 
#
# Total GULP energy -178511.040361 kJ/mol
# GULP energy per Si atom -5578.470011 kJ/mol
# Density = 1.787362 g / cm^3
# Si number density = 17.914395 Si / 1000 Ang^3
#
#
#
# Elastic Constant Matrix: (Units=GPa)
#
#
# Indices 1 2 3 4 5 6 
#
# 1 105.2436 36.5685 43.2743 0.0000 21.3413 0.0000
# 2 36.5685 95.4743 34.5953 0.0000 13.7845 0.0000
# 3 43.2743 34.5953 70.2528 0.0000 26.6381 0.0000
# 4 0.0000 0.0000 0.0000 17.0238 0.0000 2.0857
# 5 21.3413 13.7845 26.6381 0.0000 31.2156 0.0000
# 6 0.0000 0.0000 0.0000 2.0857 0.0000 20.2718
#
#
#
# Elastic Compliance Matrix: (Units=1/GPa)
#
#
# Indices 1 2 3 4 5 6 
#
# 1 0.013418 -0.002584 -0.005835 0.000000 -0.003053 0.000000
# 2 -0.002584 0.013250 -0.005003 0.000000 0.000185 0.000000
# 3 -0.005835 -0.005003 0.026525 0.000000 -0.016436 0.000000
# 4 0.000000 0.000000 0.000000 0.059491 0.000000 -0.006121
# 5 -0.003053 0.000185 -0.016436 0.000000 0.048067 0.000000
# 6 0.000000 0.000000 0.000000 -0.006121 0.000000 0.049959
#
#
# Mechanical properties :
#
#
# Convention : Reuss Voigt Hill
#
# Bulk Modulus (GPa) = 37.95410 55.53854 46.74632
# Shear Modulus (GPa) = 20.29736 24.13776 22.21756
#
# Velocity S-wave (km/s) = 3.36969 3.67467 3.52548
# Velocity P-wave (km/s) = 6.03093 7.00527 6.53628
#
# Compressibility (1/GPa) = 0.02634762
#
# Stress axis : x y z
#
# Youngs Moduli (GPa) = 74.52645 75.47149 37.70086
#
# Poissons Ratio (x) = 0.19504 0.21999
# Poissons Ratio (y) = 0.19259 0.18863
# Poissons Ratio (z) = 0.43486 0.37760
#
# Static dielectric constant tensor:
#      x y z
#    x 1.618180 0.000000 -0.001770 
#    y 0.000000 1.635800 0.000000 
#    z -0.001770 0.000000 1.619190 
# 
# From -- ./inp_files/207713.got.cif
#   From: 2010.05.17/outbox.cif.g08.bks.cpg/sg12_104_cif.got.tgz:207713.got - 2010.06.03 13:09:07.
