data_PCOD9195142
_publ_section_title
;
Structure prediction by ZEFSAII (Michael W. Deem and Ramdas Pophale) SiO2 
 PCOD9195142
Probable space group: C 2/M
;
_chemical_formula_sum "Si O2"
_cell_formula_units_Z 38
_cell_length_a 19.067182
_cell_length_b 13.963949
_cell_length_c 8.707178
_cell_angle_alpha 90.000000
_cell_angle_beta 139.085648
_cell_angle_gamma 90.000000
_cell_volume 1518.333440
_symmetry_space_group_name_H-M "C 2/M"
_symmetry_group_IT_number 12
_symmetry_cell_setting 'monoclinic'
loop_
_space_group_symop_operation_xyz
x,y,z
-x,y,-z
-x,-y,-z
x,-y,z
1/2+x,1/2+y,z
1/2-x,1/2+y,-z
1/2-x,1/2-y,-z
1/2+x,1/2-y,z
loop_
_atom_site_type_symbol
_atom_site_label
_atom_site_fract_x
_atom_site_fract_y
_atom_site_fract_z
Si Si1 0.405896 0.201203 0.672139
Si Si2 0.293917 0.500000 0.449250
Si Si3 0.500000 0.500000 0.000000
Si Si4 0.789098 0.695071 0.794447
Si Si5 0.628153 0.000000 0.465448
Si Si6 0.570242 0.698278 0.764619
Si Si7 0.332354 0.500000 0.999343
O O1 0.294916 0.224591 0.399911
O O2 0.377009 0.194727 0.802938
O O3 0.439670 0.097373 0.664187
O O4 0.484471 0.288008 0.761132
O O5 0.269003 0.594267 0.310558
O O6 0.207445 0.500000 0.447033
O O7 0.413125 0.500000 0.710841
O O8 0.398715 0.500000 0.950368
O O9 0.842054 0.723646 0.041209
O O10 0.707386 0.000000 0.743204
O O11 0.500000 0.718825 0.500000
O O12 0.627394 0.596440 0.852440
#
# Coordination Sequence:
#
# PCOD9195142 Si02
#       7
#     8   4   2   8   4   8   4
#     4  10  21  39  67  93 123 170 213 276 326 385
#     4   9  19  35  62  98 135 158 204 281 328 379
#     4  10  20  34  70 104 118 150 222 272 320 372
#     4  10  21  40  63  96 130 167 220 268 329 379
#     4   9  18  39  62  91 125 161 206 265 339 374
#     4  12  26  41  63  93 134 174 221 261 325 396
#     4  11  22  40  63  93 127 165 212 277 321 380
#
# _framework density 25.027441
#
# number of rings (size 3 to 8) (size 9 to 14) (size 15 to 20)
#    0.000    1.684    2.105    2.211    5.895    1.684 
#    0.000    5.263    0.000    0.000    0.000    0.000 
#    0.000    0.000    0.000    0.000    0.000    0.000 
#
# Total GULP energy -106100.141582 kJ/mol
# GULP energy per Si atom -5584.217978 kJ/mol
# Density = 2.497048 g / cm^3
# Si number density = 25.027441 Si / 1000 Ang^3
#
#
#
# Elastic Constant Matrix: (Units=GPa)
#
#
# Indices 1 2 3 4 5 6 
#
# 1 68.7655 9.6198 -1.4773 0.0000 -0.0509 0.0000
# 2 9.6198 180.9265 89.8259 0.0000 -3.6218 0.0000
# 3 -1.4773 89.8259 208.1294 0.0000 -16.6347 0.0000
# 4 0.0000 0.0000 0.0000 -4.4905 0.0000 -0.1449
# 5 -0.0509 -3.6218 -16.6347 0.0000 22.0218 0.0000
# 6 0.0000 0.0000 0.0000 -0.1449 0.0000 4.3947
#
#
#
# Elastic Compliance Matrix: (Units=1/GPa)
#
#
# Indices 1 2 3 4 5 6 
#
# 1 0.014705 -0.001069 0.000590 0.000000 0.000304 0.000000
# 2 -0.001069 0.007142 -0.003189 0.000000 -0.001237 0.000000
# 3 0.000590 -0.003189 0.006538 0.000000 0.004416 0.000000
# 4 0.000000 0.000000 0.000000 -0.222454 0.000000 -0.007337
# 5 0.000304 -0.001237 0.004416 0.000000 0.048542 0.000000
# 6 0.000000 0.000000 0.000000 -0.007337 0.000000 0.227305
#
#
# Mechanical properties :
#
#
# Convention : Reuss Voigt Hill
#
# Bulk Modulus (GPa) = 47.50685 72.63982 60.07334
# Shear Modulus (GPa) = 52.01260 28.37540 40.19400
#
# Velocity S-wave (km/s) = 4.56370 3.37081 4.01184
# Velocity P-wave (km/s) = 6.84053 6.65108 6.74647
#
# Compressibility (1/GPa) = 0.02104960
#
# Stress axis : x y z
#
# Youngs Moduli (GPa) = 68.00613 140.00818 152.94863
#
# Poissons Ratio (x) = 0.14961 -0.09022
# Poissons Ratio (y) = 0.07267 0.48775
# Poissons Ratio (z) = -0.04011 0.44649
#
# Static dielectric constant tensor:
#      x y z
#    x 2.008760 0.000000 -0.000160 
#    y 0.000000 2.010760 0.000000 
#    z -0.000160 0.000000 1.956750 
# 
# From -- ./inp_files/96677.got.cif
#   From: 2010.05.17/outbox.cif.g08.bks.cpg/sg12_49_cif.got.tgz:96677.got - 2010.06.03 13:09:07.
