data_PCOD9195147
_publ_section_title
;
Structure prediction by ZEFSAII (Michael W. Deem and Ramdas Pophale) SiO2 
 PCOD9195147
Probable space group: C 2/M
;
_chemical_formula_sum "Si O2"
_cell_formula_units_Z 64
_cell_length_a 9.464134
_cell_length_b 25.579246
_cell_length_c 16.047479
_cell_angle_alpha 90.000000
_cell_angle_beta 70.929720
_cell_angle_gamma 90.000000
_cell_volume 3671.653652
_symmetry_space_group_name_H-M "C 2/M"
_symmetry_group_IT_number 12
_symmetry_cell_setting 'monoclinic'
loop_
_space_group_symop_operation_xyz
x,y,z
-x,y,-z
-x,-y,-z
x,-y,z
1/2+x,1/2+y,z
1/2-x,1/2+y,-z
1/2-x,1/2-y,-z
1/2+x,1/2-y,z
loop_
_atom_site_type_symbol
_atom_site_label
_atom_site_fract_x
_atom_site_fract_y
_atom_site_fract_z
Si Si1 0.846736 0.438098 0.580893
Si Si2 0.653312 0.132230 0.260584
Si Si3 0.837879 0.860428 0.487406
Si Si4 0.328208 0.284484 0.338576
Si Si5 0.930983 0.142226 0.100346
Si Si6 0.678322 0.838582 0.682021
Si Si7 0.650108 0.759759 0.938039
Si Si8 0.870959 0.170480 0.790879
O O1 0.824319 0.500000 0.585457
O O2 0.860385 0.414803 0.671015
O O3 0.708335 0.407829 0.564251
O O4 0.000000 0.426873 0.500000
O O5 0.718366 0.180806 0.302505
O O6 0.774220 0.120850 0.165257
O O7 0.490686 0.148779 0.260501
O O8 0.823196 0.808517 0.432657
O O9 0.718045 0.861196 0.584567
O O10 0.000000 0.862669 0.500000
O O11 0.296670 0.223620 0.334472
O O12 0.494359 0.295650 0.272842
O O13 0.899332 0.204446 0.091929
O O14 0.052726 0.137516 0.150277
O O15 0.000000 0.122767 0.000000
O O16 0.793014 0.858760 0.729605
O O17 0.744695 0.793059 0.855491
O O18 0.500000 0.786942 0.000000
O O19 0.750000 0.750000 0.000000
#
# Coordination Sequence:
#
# PCOD9195147 Si02
#       8
#     8   8   8   8   8   8   8   8
#     4  10  21  42  65  83 106 137 180 234 283 329
#     4  10  22  35  56  82 107 144 192 228 267 325
#     4  11  22  37  52  80 113 145 179 226 270 329
#     4  10  21  34  49  70 112 155 186 217 263 316
#     4  10  20  35  49  71 109 144 180 231 279 312
#     4  12  21  32  50  77 113 151 192 219 258 320
#     4  11  20  31  46  66  99 145 197 230 262 307
#     4  11  20  32  46  69  98 149 188 235 263 305
#
# _framework density 17.430838000000001
#
# number of rings (size 3 to 8) (size 9 to 14) (size 15 to 20)
#    0.000    1.375    5.000    3.375    1.750    0.250 
#    0.000    0.000    0.000    0.375    0.000    0.000 
#    0.000    1.000    0.000    0.000    0.000    0.000 
#
# Total GULP energy -178573.658171 kJ/mol
# GULP energy per Si atom -5580.426818 kJ/mol
# Density = 1.739116 g / cm^3
# Si number density = 17.430838 Si / 1000 Ang^3
#
#
#
# Elastic Constant Matrix: (Units=GPa)
#
#
# Indices 1 2 3 4 5 6 
#
# 1 87.9729 12.2474 17.5414 0.0000 6.9858 0.0000
# 2 12.2474 38.1589 12.2463 0.0000 5.7065 0.0000
# 3 17.5414 12.2463 106.7046 0.0000 -5.3014 0.0000
# 4 0.0000 0.0000 0.0000 9.7169 0.0000 -2.4773
# 5 6.9858 5.7065 -5.3014 0.0000 36.0788 0.0000
# 6 0.0000 0.0000 0.0000 -2.4773 0.0000 10.7640
#
#
#
# Elastic Compliance Matrix: (Units=1/GPa)
#
#
# Indices 1 2 3 4 5 6 
#
# 1 0.012320 -0.003059 -0.001782 0.000000 -0.002163 0.000000
# 2 -0.003059 0.028818 -0.003024 0.000000 -0.004410 0.000000
# 3 -0.001782 -0.003024 0.010126 0.000000 0.002311 0.000000
# 4 0.000000 0.000000 0.000000 0.109328 0.000000 0.025162
# 5 -0.002163 -0.004410 0.002311 0.000000 0.029173 0.000000
# 6 0.000000 0.000000 0.000000 0.025162 0.000000 0.098693
#
#
# Mechanical properties :
#
#
# Convention : Reuss Voigt Hill
#
# Bulk Modulus (GPa) = 28.14060 35.21183 31.67621
# Shear Modulus (GPa) = 15.82113 24.03203 19.92658
#
# Velocity S-wave (km/s) = 3.01599 3.71712 3.38476
# Velocity P-wave (km/s) = 5.32048 6.21831 5.78683
#
# Compressibility (1/GPa) = 0.03553585
#
# Stress axis : x y z
#
# Youngs Moduli (GPa) = 81.16849 34.70070 98.75161
#
# Poissons Ratio (x) = 0.10615 0.17595
# Poissons Ratio (y) = 0.24828 0.29859
# Poissons Ratio (z) = 0.14462 0.10492
#
# Static dielectric constant tensor:
#      x y z
#    x 1.647780 0.000000 0.013710 
#    y 0.000000 1.550670 0.000000 
#    z 0.013710 0.000000 1.642640 
# 
# From -- ./inp_files/199755.got.cif
#   From: 2010.05.17/outbox.cif.g08.bks.cpg/sg12_100_cif.got.tgz:199755.got - 2010.06.03 13:09:07.
