data_PCOD9195218
_publ_section_title
;
Structure prediction by ZEFSAII (Michael W. Deem and Ramdas Pophale) SiO2 
 PCOD9195218
Probable space group: C 2/M
;
_chemical_formula_sum "Si O2"
_cell_formula_units_Z 64
_cell_length_a 9.455916
_cell_length_b 27.914114
_cell_length_c 14.097221
_cell_angle_alpha 90.000000
_cell_angle_beta 82.126999
_cell_angle_gamma 90.000000
_cell_volume 3685.937262
_symmetry_space_group_name_H-M "C 2/M"
_symmetry_group_IT_number 12
_symmetry_cell_setting 'monoclinic'
loop_
_space_group_symop_operation_xyz
x,y,z
-x,y,-z
-x,-y,-z
x,-y,z
1/2+x,1/2+y,z
1/2-x,1/2+y,-z
1/2-x,1/2-y,-z
1/2+x,1/2-y,z
loop_
_atom_site_type_symbol
_atom_site_label
_atom_site_fract_x
_atom_site_fract_y
_atom_site_fract_z
Si Si1 0.670285 0.052358 0.475896
Si Si2 0.341275 0.710759 0.298347
Si Si3 0.097617 0.055744 0.398502
Si Si4 0.892339 0.139523 0.749078
Si Si5 0.359884 0.321177 0.949714
Si Si6 0.650929 0.212063 0.122789
Si Si7 0.886969 0.649296 0.594535
Si Si8 0.410563 0.182951 0.269819
O O1 0.500000 0.050421 0.500000
O O2 0.743898 0.059638 0.570949
O O3 0.696091 0.099215 0.410999
O O4 0.720515 0.000000 0.436007
O O5 0.474105 0.674879 0.278994
O O6 0.254296 0.711237 0.206066
O O7 0.228612 0.690985 0.384682
O O8 0.396912 0.763796 0.314427
O O9 0.079755 0.090897 0.311662
O O10 0.000000 0.067833 0.500000
O O11 0.071835 0.000000 0.377040
O O12 0.863717 0.140275 0.864918
O O13 0.746239 0.162017 0.722440
O O14 0.365451 0.267712 0.903725
O O15 0.500000 0.327405 0.000000
O O16 0.225284 0.317746 0.032446
O O17 0.495515 0.192010 0.164224
O O18 0.000000 0.655929 0.500000
O O19 0.985150 0.650124 0.678348
#
# Coordination Sequence:
#
# PCOD9195218 Si02
#       8
#     8   8   8   8   8   8   8   8
#     4   9  17  34  57  78  98 129 176 230 280 324
#     4  11  20  36  50  74 112 151 188 227 266 328
#     4  10  22  40  61  84 109 141 188 241 287 332
#     4  12  21  33  57  86 111 145 187 236 281 328
#     4  11  20  32  57  83 111 148 192 231 274 318
#     4  10  20  35  52  76 111 150 190 227 265 321
#     4  10  21  35  51  73 104 146 185 229 276 336
#     4  11  21  35  50  76 116 149 186 224 270 327
#
# _framework density 17.363289999999999
#
# number of rings (size 3 to 8) (size 9 to 14) (size 15 to 20)
#    0.000    1.500    3.750    3.000    1.750    0.500 
#    0.000    2.500    0.000    0.375    0.000    2.625 
#    0.000    0.000    0.000    0.000    0.000    0.000 
#
# Total GULP energy -178452.880940 kJ/mol
# GULP energy per Si atom -5576.652529 kJ/mol
# Density = 1.732377 g / cm^3
# Si number density = 17.363290 Si / 1000 Ang^3
#
#
#
# Elastic Constant Matrix: (Units=GPa)
#
#
# Indices 1 2 3 4 5 6 
#
# 1 64.5089 23.2771 12.8244 0.0000 -4.5998 0.0000
# 2 23.2771 100.3199 58.1279 0.0000 3.3742 0.0000
# 3 12.8244 58.1279 77.0816 0.0000 -12.0977 0.0000
# 4 0.0000 0.0000 0.0000 23.2948 0.0000 7.7242
# 5 -4.5998 3.3742 -12.0977 0.0000 34.0277 0.0000
# 6 0.0000 0.0000 0.0000 7.7242 0.0000 17.5255
#
#
#
# Elastic Compliance Matrix: (Units=1/GPa)
#
#
# Indices 1 2 3 4 5 6 
#
# 1 0.017232 -0.004878 0.001327 0.000000 0.003285 0.000000
# 2 -0.004878 0.020751 -0.016166 0.000000 -0.008464 0.000000
# 3 0.001327 -0.016166 0.026714 0.000000 0.011280 0.000000
# 4 0.000000 0.000000 0.000000 0.050275 0.000000 -0.022158
# 5 0.003285 -0.008464 0.011280 0.000000 0.034681 0.000000
# 6 0.000000 0.000000 0.000000 -0.022158 0.000000 0.066826
#
#
# Mechanical properties :
#
#
# Convention : Reuss Voigt Hill
#
# Bulk Modulus (GPa) = 39.58200 47.81879 43.70039
# Shear Modulus (GPa) = 18.91542 24.81499 21.86521
#
# Velocity S-wave (km/s) = 3.30417 3.78453 3.55248
# Velocity P-wave (km/s) = 6.11577 6.83351 6.48458
#
# Compressibility (1/GPa) = 0.02526401
#
# Stress axis : x y z
#
# Youngs Moduli (GPa) = 58.03086 48.18951 37.43414
#
# Poissons Ratio (x) = 0.23505 -0.04967
# Poissons Ratio (y) = 0.28305 0.60515
# Poissons Ratio (z) = -0.07699 0.77902
#
# Static dielectric constant tensor:
#      x y z
#    x 1.627070 0.000000 -0.003770 
#    y 0.000000 1.601060 0.000000 
#    z -0.003770 0.000000 1.623010 
# 
# From -- ./inp_files/199828.got.cif
#   From: 2010.05.17/outbox.cif.g08.bks.cpg/sg12_100_cif.got.tgz:199828.got - 2010.06.03 13:09:07.
