data_PCOD9195037
_publ_section_title
;
Structure prediction by ZEFSAII (Michael W. Deem and Ramdas Pophale) SiO2 
 PCOD9195037
Probable space group: C 2/M
;
_chemical_formula_sum "Si O2"
_cell_formula_units_Z 44
_cell_length_a 7.358742
_cell_length_b 12.134058
_cell_length_c 19.299123
_cell_angle_alpha 90.000000
_cell_angle_beta 89.232919
_cell_angle_gamma 90.000000
_cell_volume 1723.091319
_symmetry_space_group_name_H-M "C 2/M"
_symmetry_group_IT_number 12
_symmetry_cell_setting 'monoclinic'
loop_
_space_group_symop_operation_xyz
x,y,z
-x,y,-z
-x,-y,-z
x,-y,z
1/2+x,1/2+y,z
1/2-x,1/2+y,-z
1/2-x,1/2-y,-z
1/2+x,1/2-y,z
loop_
_atom_site_type_symbol
_atom_site_label
_atom_site_fract_x
_atom_site_fract_y
_atom_site_fract_z
Si Si1 0.227283 0.887468 0.938741
Si Si2 0.300291 0.876168 0.741218
Si Si3 0.000000 0.193876 0.500000
Si Si4 0.329338 0.118378 0.581400
Si Si5 0.128811 0.347280 0.908355
Si Si6 0.898963 0.123891 0.779791
O O1 0.112742 0.782511 0.921386
O O2 0.421921 0.884394 0.898976
O O3 0.126095 0.000000 0.926110
O O4 0.288371 0.884923 0.018873
O O5 0.254229 0.875258 0.659406
O O6 0.379729 0.751878 0.751552
O O7 0.116069 0.880489 0.786189
O O8 0.391171 0.000000 0.750610
O O9 0.830252 0.125469 0.474375
O O10 0.951627 0.276879 0.562969
O O11 0.425500 0.000000 0.575386
O O12 0.261952 0.374150 0.845363
O O13 0.860222 0.000000 0.745767
#
# Coordination Sequence:
#
# PCOD9195037 Si02
#       6
#     8   8   4   8   8   8
#     4  10  20  36  54  77 108 140 174 229 284 329
#     4  10  23  39  57  82 116 149 185 229 274 323
#     4  10  20  34  60  86 108 142 182 218 270 326
#     4  10  20  37  56  82 114 144 179 224 270 320
#     4  10  20  35  56  79 106 140 183 226 277 332
#     4  11  22  38  58  82 110 149 191 230 275 331
#
# _framework density 25.535501
#
# number of rings (size 3 to 8) (size 9 to 14) (size 15 to 20)
#    0.000    1.818    0.000    4.909    0.000    1.455 
#    0.000   13.636    0.000    0.000    0.000    0.000 
#    0.000    0.000    0.000    0.000    0.000    0.000 
#
# Total GULP energy -122828.906503 kJ/mol
# GULP energy per Si atom -5583.132114 kJ/mol
# Density = 2.547738 g / cm^3
# Si number density = 25.535501 Si / 1000 Ang^3
#
#
#
# Elastic Constant Matrix: (Units=GPa)
#
#
# Indices 1 2 3 4 5 6 
#
# 1 64.9310 24.5163 -3.1411 0.0000 -7.8599 0.0000
# 2 24.5163 285.2560 21.0609 0.0000 16.9335 0.0000
# 3 -3.1411 21.0609 86.1723 0.0000 -6.6683 0.0000
# 4 0.0000 0.0000 0.0000 27.0272 0.0000 -1.6286
# 5 -7.8599 16.9335 -6.6683 0.0000 22.5451 0.0000
# 6 0.0000 0.0000 0.0000 -1.6286 0.0000 -113.4170
#
#
#
# Elastic Compliance Matrix: (Units=1/GPa)
#
#
# Indices 1 2 3 4 5 6 
#
# 1 0.017260 -0.002096 0.001769 0.000000 0.008115 0.000000
# 2 -0.002096 0.004036 -0.001386 0.000000 -0.004172 0.000000
# 3 0.001769 -0.001386 0.012420 0.000000 0.005331 0.000000
# 4 0.000000 0.000000 0.000000 0.036968 0.000000 -0.000531
# 5 0.008115 -0.004172 0.005331 0.000000 0.051895 0.000000
# 6 0.000000 0.000000 0.000000 -0.000531 0.000000 -0.008809
#
#
# Mechanical properties :
#
#
# Convention : Reuss Voigt Hill
#
# Bulk Modulus (GPa) = 33.01181 57.91461 45.46321
# Shear Modulus (GPa) = 39.28021 13.49261 26.38641
#
# Velocity S-wave (km/s) = 3.92632 2.30116 3.21802
# Velocity P-wave (km/s) = 5.78883 5.45800 5.62584
#
# Compressibility (1/GPa) = 0.03029219
#
# Stress axis : x y z
#
# Youngs Moduli (GPa) = 57.93686 247.78983 80.51323
#
# Poissons Ratio (x) = 0.51931 -0.14245
# Poissons Ratio (y) = 0.12142 0.11155
# Poissons Ratio (z) = -0.10251 0.34332
#
# Static dielectric constant tensor:
#      x y z
#    x 1.935830 0.000000 0.016430 
#    y 0.000000 2.065480 0.000000 
#    z 0.016430 0.000000 2.102890 
# 
# From -- ./inp_files/299273.got.cif
#   From: 2010.05.17/outbox.cif.g08.bks.cpg/sg12_150_cif.got.tgz:299273.got - 2010.06.03 13:09:07.
