data_PCOD9195879
_publ_section_title
;
Structure prediction by ZEFSAII (Michael W. Deem and Ramdas Pophale) SiO2 
 PCOD9195879
Probable space group: C 2/M
;
_chemical_formula_sum "Si O2"
_cell_formula_units_Z 48
_cell_length_a 12.323656
_cell_length_b 21.256321
_cell_length_c 17.478854
_cell_angle_alpha 90.000000
_cell_angle_beta 145.093305
_cell_angle_gamma 90.000000
_cell_volume 2620.113634
_symmetry_space_group_name_H-M "C 2/M"
_symmetry_group_IT_number 12
_symmetry_cell_setting 'monoclinic'
loop_
_space_group_symop_operation_xyz
x,y,z
-x,y,-z
-x,-y,-z
x,-y,z
1/2+x,1/2+y,z
1/2-x,1/2+y,-z
1/2-x,1/2-y,-z
1/2+x,1/2-y,z
loop_
_atom_site_type_symbol
_atom_site_label
_atom_site_fract_x
_atom_site_fract_y
_atom_site_fract_z
Si Si1 0.439076 0.571876 0.107236
Si Si2 0.830777 0.074311 0.456350
Si Si3 0.167763 0.179669 0.159792
Si Si4 0.381267 0.573135 0.254250
Si Si5 0.079324 0.627410 0.820184
Si Si6 0.600414 0.182447 0.140347
O O1 0.507354 0.500000 0.136290
O O2 0.592859 0.624408 0.171877
O O3 0.385311 0.580378 0.165283
O O4 0.249609 0.581699 0.946300
O O5 0.625494 0.099908 0.318130
O O6 0.000000 0.099472 0.500000
O O7 0.911915 0.083461 0.588726
O O8 0.819865 0.000000 0.436484
O O9 0.347868 0.161053 0.213880
O O10 0.191993 0.249232 0.207874
O O11 0.000000 0.184059 0.000000
O O12 0.326350 0.500000 0.239445
O O13 0.240668 0.623081 0.211747
O O14 0.044808 0.670865 0.874453
O O15 0.500000 0.184746 0.000000
#
# Coordination Sequence:
#
# PCOD9195879 Si02
#       6
#     8   8   8   8   8   8
#     4  10  21  38  61  89 117 147 193 240 281 340
#     4  10  20  35  55  84 119 148 183 234 295 344
#     4   9  23  37  57  87 117 156 188 233 293 338
#     4  10  21  36  57  85 119 153 184 238 293 333
#     4  11  21  36  60  86 110 154 193 233 289 334
#     4  11  21  35  59  86 119 148 193 240 283 346
#
# _framework density 18.319814999999998
#
# number of rings (size 3 to 8) (size 9 to 14) (size 15 to 20)
#    0.000    1.833    3.333    0.500    2.333    6.667 
#    0.000    1.667    3.667    3.000    0.000    0.000 
#    0.000    0.000    0.000    0.000    0.000    0.000 
#
# Total GULP energy -133705.611796 kJ/mol
# GULP energy per Si atom -5571.067158 kJ/mol
# Density = 1.827812 g / cm^3
# Si number density = 18.319815 Si / 1000 Ang^3
#
#
#
# Elastic Constant Matrix: (Units=GPa)
#
#
# Indices 1 2 3 4 5 6 
#
# 1 79.1416 61.4855 15.7112 0.0008 20.4113 -0.0004
# 2 61.4855 126.4388 23.6847 0.0003 10.5000 0.0003
# 3 15.7112 23.6847 69.2320 -0.0025 9.3654 0.0004
# 4 0.0008 0.0003 -0.0025 -0.0016 -0.0010 1.3811
# 5 20.4113 10.5000 9.3654 -0.0010 22.0472 0.0002
# 6 -0.0004 0.0003 0.0004 1.3811 0.0002 18.9654
#
#
#
# Elastic Compliance Matrix: (Units=1/GPa)
#
#
# Indices 1 2 3 4 5 6 
#
# 1 0.026207 -0.011248 0.000486 0.000360 -0.019112 -0.000025
# 2 -0.011248 0.013465 -0.002753 -0.000039 0.005170 0.000002
# 3 0.000486 -0.002753 0.016083 -0.000348 -0.005971 0.000025
# 4 0.000360 -0.000039 -0.000348 -9.785481 -0.000605 0.712589
# 5 -0.019112 0.005170 -0.005971 -0.000605 0.063125 0.000043
# 6 -0.000025 0.000002 0.000025 0.712589 0.000043 0.000836
#
#
# Mechanical properties :
#
#
# Convention : Reuss Voigt Hill
#
# Bulk Modulus (GPa) = 34.81281 52.95279 43.88280
# Shear Modulus (GPa) = -0.51926 19.79760 9.63917
#
# Velocity S-wave (km/s) = -0.53297 3.29091 2.29631
# Velocity P-wave (km/s) = 4.32034 6.58844 5.57104
#
# Compressibility (1/GPa) = 0.02872506
#
# Stress axis : x y z
#
# Youngs Moduli (GPa) = 38.15809 74.26611 62.17558
#
# Poissons Ratio (x) = 0.83534 -0.03022
# Poissons Ratio (y) = 0.42920 0.17119
# Poissons Ratio (z) = -0.01855 0.20448
#
# Static dielectric constant tensor:
#      x y z
#    x 1.682500 0.000000 -0.005260 
#    y 0.000000 1.669320 0.000000 
#    z -0.005260 0.000000 1.632890 
# 
# From -- ./inp_files/133709.got.cif
#   From: 2010.05.17/outbox.cif.g08.bks.cpg/sg12_67_cif.got.tgz:133709.got - 2010.06.03 13:09:07.
