data_PCOD9195759
_publ_section_title
;
Structure prediction by ZEFSAII (Michael W. Deem and Ramdas Pophale) SiO2 
 PCOD9195759
Probable space group: C 2/M
;
_chemical_formula_sum "Si O2"
_cell_formula_units_Z 56
_cell_length_a 18.433976
_cell_length_b 8.119911
_cell_length_c 19.200528
_cell_angle_alpha 90.000000
_cell_angle_beta 103.960088
_cell_angle_gamma 90.000000
_cell_volume 2789.092345
_symmetry_space_group_name_H-M "C 2/M"
_symmetry_group_IT_number 12
_symmetry_cell_setting 'monoclinic'
loop_
_space_group_symop_operation_xyz
x,y,z
-x,y,-z
-x,-y,-z
x,-y,z
1/2+x,1/2+y,z
1/2-x,1/2+y,-z
1/2-x,1/2-y,-z
1/2+x,1/2-y,z
loop_
_atom_site_type_symbol
_atom_site_label
_atom_site_fract_x
_atom_site_fract_y
_atom_site_fract_z
Si Si1 0.476156 0.201451 0.571724
Si Si2 0.809193 0.301089 0.571961
Si Si3 0.594978 0.199056 0.715340
Si Si4 0.881099 0.301441 0.856901
Si Si5 0.261938 0.800919 0.714639
Si Si6 0.666586 0.695303 0.000290
Si Si7 0.952863 0.301411 0.142540
O O1 0.500000 0.254385 0.500000
O O2 0.392569 0.255631 0.571653
O O3 0.535929 0.255364 0.643369
O O4 0.476108 0.000000 0.571840
O O5 0.811199 0.500000 0.574492
O O6 0.750000 0.250000 0.500000
O O7 0.784354 0.242474 0.642674
O O8 0.678484 0.250177 0.715196
O O9 0.571910 0.258404 0.786875
O O10 0.592351 0.000000 0.715609
O O11 0.882776 0.500000 0.852585
O O12 0.821193 0.241749 0.786085
O O13 0.856102 0.257338 0.928643
O O14 0.964633 0.240760 0.859260
O O15 0.264971 0.000000 0.714746
O O16 0.664403 0.500000 0.000320
O O17 0.750000 0.750000 0.000000
O O18 0.607823 0.757282 0.929439
O O19 0.956637 0.500000 0.146892
#
# Coordination Sequence:
#
# PCOD9195759 Si02
#       7
#     8   8   8   8   8   8   8
#     4   9  17  31  53  79 106 139 180 224 268 317
#     4  10  20  35  55  80 110 143 181 225 274 328
#     4  10  20  35  57  83 109 143 188 230 269 323
#     4  10  21  39  61  84 114 150 185 226 281 338
#     4  10  21  36  55  81 113 147 181 223 277 331
#     4  12  25  40  59  84 114 148 188 232 279 332
#     4  10  21  38  60  85 113 146 185 230 280 334
#
# _framework density 20.078216000000001
#
# number of rings (size 3 to 8) (size 9 to 14) (size 15 to 20)
#    0.000    1.857    0.000    4.286    0.000   10.857 
#    0.000    0.714    0.000    6.000    0.000    0.000 
#    0.000    0.000    0.000    0.000    0.000    0.000 
#
# Total GULP energy -156513.855144 kJ/mol
# GULP energy per Si atom -5589.780541 kJ/mol
# Density = 2.003252 g / cm^3
# Si number density = 20.078216 Si / 1000 Ang^3
#
#
#
# Elastic Constant Matrix: (Units=GPa)
#
#
# Indices 1 2 3 4 5 6 
#
# 1 250.1737 12.7339 155.2279 0.0000 0.7179 0.0000
# 2 12.7339 13.7991 12.0549 0.0000 -0.8071 0.0000
# 3 155.2279 12.0549 250.1016 0.0000 -1.4916 0.0000
# 4 0.0000 0.0000 0.0000 15.2171 0.0000 3.2197
# 5 0.7179 -0.8071 -1.4916 0.0000 39.7089 0.0000
# 6 0.0000 0.0000 0.0000 3.2197 0.0000 29.2951
#
#
#
# Elastic Compliance Matrix: (Units=1/GPa)
#
#
# Indices 1 2 3 4 5 6 
#
# 1 0.006594 -0.002638 -0.003968 0.000000 -0.000322 0.000000
# 2 -0.002638 0.076787 -0.002055 0.000000 0.001531 0.000000
# 3 -0.003968 -0.002055 0.006562 0.000000 0.000276 0.000000
# 4 0.000000 0.000000 0.000000 0.067280 0.000000 -0.007394
# 5 -0.000322 0.001531 0.000276 0.000000 0.025231 0.000000
# 6 0.000000 0.000000 0.000000 -0.007394 0.000000 0.034948
#
#
# Mechanical properties :
#
#
# Convention : Reuss Voigt Hill
#
# Bulk Modulus (GPa) = 13.76979 97.12310 55.44644
# Shear Modulus (GPa) = 19.31024 39.11473 29.21249
#
# Velocity S-wave (km/s) = 3.10458 4.41854 3.81850
# Velocity P-wave (km/s) = 4.44119 8.63184 6.86414
#
# Compressibility (1/GPa) = 0.07262277
#
# Stress axis : x y z
#
# Youngs Moduli (GPa) = 151.64875 13.02295 152.40328
#
# Poissons Ratio (x) = 0.03435 0.60466
# Poissons Ratio (y) = 0.40005 0.31315
# Poissons Ratio (z) = 0.60167 0.02676
#
# Static dielectric constant tensor:
#      x y z
#    x 1.662050 0.000000 -0.006490 
#    y 0.000000 1.722260 0.000000 
#    z -0.006490 0.000000 1.687330 
# 
# From -- ./inp_files/275639.got.cif
#   From: 2010.05.17/outbox.cif.g08.bks.cpg/sg12_138_cif.got.tgz:275639.got - 2010.06.03 13:09:07.
