data_PCOD9195053
_publ_section_title
;
Structure prediction by ZEFSAII (Michael W. Deem and Ramdas Pophale) SiO2 
 PCOD9195053
Probable space group: C 2/M
;
_chemical_formula_sum "Si O2"
_cell_formula_units_Z 58
_cell_length_a 19.828239
_cell_length_b 7.517400
_cell_length_c 22.227016
_cell_angle_alpha 90.000000
_cell_angle_beta 53.901316
_cell_angle_gamma 90.000000
_cell_volume 2676.986395
_symmetry_space_group_name_H-M "C 2/M"
_symmetry_group_IT_number 12
_symmetry_cell_setting 'monoclinic'
loop_
_space_group_symop_operation_xyz
x,y,z
-x,y,-z
-x,-y,-z
x,-y,z
1/2+x,1/2+y,z
1/2-x,1/2+y,-z
1/2-x,1/2-y,-z
1/2+x,1/2-y,z
loop_
_atom_site_type_symbol
_atom_site_label
_atom_site_fract_x
_atom_site_fract_y
_atom_site_fract_z
Si Si1 0.246356 0.713482 0.072862
Si Si2 0.389748 0.286231 0.524481
Si Si3 0.091593 0.715396 0.804062
Si Si4 0.063023 0.292859 0.194246
Si Si5 0.500000 0.000000 0.500000
Si Si6 0.695769 0.787234 0.636227
Si Si7 0.592111 0.293598 0.941550
Si Si8 0.956860 0.799485 0.363251
O O1 0.246537 0.500000 0.082563
O O2 0.156189 0.783163 0.142698
O O3 0.329001 0.783321 0.063492
O O4 0.250000 0.750000 0.000000
O O5 0.400993 0.500000 0.526382
O O6 0.430862 0.158828 0.551087
O O7 0.291454 0.251388 0.572731
O O8 0.434294 0.219336 0.439513
O O9 0.088100 0.500000 0.809376
O O10 0.165334 0.762399 0.718965
O O11 0.106262 0.785366 0.862775
O O12 0.005247 0.779662 0.817667
O O13 0.070694 0.500000 0.174304
O O14 0.021080 0.282524 0.282125
O O15 0.631840 0.699030 0.624149
O O16 0.682466 0.000000 0.637270
O O17 0.585947 0.500000 0.964404
O O18 0.500000 0.212436 0.000000
O O19 0.985704 0.000000 0.359091
#
# Coordination Sequence:
#
# PCOD9195053 Si02
#       8
#     8   8   8   8   2   8   8   8
#     4  10  21  37  56  81 109 146 189 235 287 349
#     4  10  23  42  59  89 123 159 210 256 296 363
#     4   9  18  34  56  82 108 146 187 232 289 339
#     4   9  19  36  56  80 114 149 189 238 290 350
#     4  12  26  40  64  82 120 176 208 238 318 370
#     4   9  19  37  61  86 121 151 188 252 302 345
#     4  10  21  36  53  79 113 146 180 231 291 346
#     4  10  20  34  60  90 117 147 195 252 300 352
#
# _framework density 21.666153999999999
#
# number of rings (size 3 to 8) (size 9 to 14) (size 15 to 20)
#    0.000    2.345    0.000    2.690    2.897    3.586 
#    2.483    0.000    0.000    0.000    0.000    0.000 
#    0.000    0.000    0.000    0.000    0.000    0.000 
#
# Total GULP energy -161538.221463 kJ/mol
# GULP energy per Si atom -5570.283499 kJ/mol
# Density = 2.161684 g / cm^3
# Si number density = 21.666154 Si / 1000 Ang^3
#
#
#
# Elastic Constant Matrix: (Units=GPa)
#
#
# Indices 1 2 3 4 5 6 
#
# 1 150.0086 13.6424 94.7512 -0.0008 -20.7069 0.0010
# 2 13.6424 58.4959 0.3746 -0.0050 -12.1910 0.0098
# 3 94.7512 0.3746 115.4360 -0.0004 -8.8705 0.0008
# 4 -0.0008 -0.0050 -0.0004 -9.1008 0.0007 42.8655
# 5 -20.7069 -12.1910 -8.8705 0.0007 34.1344 -0.0013
# 6 0.0010 0.0098 0.0008 42.8655 -0.0013 -109.7155
#
#
#
# Elastic Compliance Matrix: (Units=1/GPa)
#
#
# Indices 1 2 3 4 5 6 
#
# 1 0.015261 -0.002386 -0.012115 0.000000 0.005257 0.000000
# 2 -0.002386 0.018867 0.002351 0.000003 0.005902 0.000003
# 3 -0.012115 0.002351 0.018468 0.000000 -0.001710 0.000000
# 4 0.000000 0.000003 0.000000 0.130777 0.000000 0.051094
# 5 0.005257 0.005902 -0.001710 0.000000 0.034149 0.000000
# 6 0.000000 0.000003 0.000000 0.051094 0.000000 0.010848
#
#
# Mechanical properties :
#
#
# Convention : Reuss Voigt Hill
#
# Bulk Modulus (GPa) = 35.34149 60.16410 47.75279
# Shear Modulus (GPa) = 19.07662 -2.59156 8.24253
#
# Velocity S-wave (km/s) = 2.97051 -1.09486 1.95259
# Velocity P-wave (km/s) = 5.30212 5.12159 5.21264
#
# Compressibility (1/GPa) = 0.02829536
#
# Stress axis : x y z
#
# Youngs Moduli (GPa) = 65.52567 53.00379 54.14851
#
# Poissons Ratio (x) = 0.12646 0.65600
# Poissons Ratio (y) = 0.15634 -0.12729
# Poissons Ratio (z) = 0.79383 -0.12460
#
# Static dielectric constant tensor:
#      x y z
#    x 1.852270 0.000000 0.011570 
#    y 0.000000 1.826860 0.000000 
#    z 0.011570 0.000000 1.793840 
# 
# From -- ./inp_files/314817.got.cif
#   From: 2010.05.17/outbox.cif.g08.bks.cpg/sg12_158_cif.got.tgz:314817.got - 2010.06.03 13:09:07.
