data_PCOD9195500
_publ_section_title
;
Structure prediction by ZEFSAII (Michael W. Deem and Ramdas Pophale) SiO2 
 PCOD9195500
Probable space group: C 2/M
;
_chemical_formula_sum "Si O2"
_cell_formula_units_Z 60
_cell_length_a 25.051032
_cell_length_b 9.737316
_cell_length_c 12.459203
_cell_angle_alpha 90.000000
_cell_angle_beta 60.293962
_cell_angle_gamma 90.000000
_cell_volume 2639.761079
_symmetry_space_group_name_H-M "C 2/M"
_symmetry_group_IT_number 12
_symmetry_cell_setting 'monoclinic'
loop_
_space_group_symop_operation_xyz
x,y,z
-x,y,-z
-x,-y,-z
x,-y,z
1/2+x,1/2+y,z
1/2-x,1/2+y,-z
1/2-x,1/2-y,-z
1/2+x,1/2-y,z
loop_
_atom_site_type_symbol
_atom_site_label
_atom_site_fract_x
_atom_site_fract_y
_atom_site_fract_z
Si Si1 0.264757 0.159573 0.590170
Si Si2 0.587536 0.847535 0.526584
Si Si3 0.561917 0.346618 0.735832
Si Si4 0.418874 0.655485 0.902745
Si Si5 0.424806 0.843732 0.088748
Si Si6 0.606381 0.151562 0.265460
Si Si7 0.772153 0.000000 0.961851
Si Si8 0.747833 0.225542 0.156088
O O1 0.250000 0.250000 0.500000
O O2 0.338997 0.159500 0.529403
O O3 0.238506 0.215273 0.730306
O O4 0.245790 0.000000 0.595739
O O5 0.560295 0.724684 0.622147
O O6 0.575555 0.835398 0.412079
O O7 0.566352 0.000000 0.583536
O O8 0.588582 0.500000 0.708245
O O9 0.492219 0.356868 0.845577
O O10 0.592017 0.239370 0.787408
O O11 0.396660 0.500000 0.922009
O O12 0.409543 0.728807 0.799178
O O13 0.397860 0.757756 0.016765
O O14 0.403296 0.000000 0.112838
O O15 0.500000 0.849610 0.000000
O O16 0.678949 0.161502 0.213119
O O17 0.592318 0.000000 0.233782
O O18 0.783804 0.123452 0.041176
O O19 0.755255 0.122209 0.889503
#
# Coordination Sequence:
#
# PCOD9195500 Si02
#       8
#     8   8   8   8   8   8   4   8
#     4  10  21  39  62  87 118 150 191 238 285 346
#     4   9  20  38  58  79 108 149 188 231 276 325
#     4  10  20  35  54  80 113 146 187 235 280 326
#     4  10  21  34  53  81 114 148 184 232 282 328
#     4   9  17  32  55  77 101 142 188 226 274 334
#     4  10  20  37  57  80 113 148 189 229 274 336
#     4  10  20  36  64  84 114 148 188 234 290 348
#     4  10  20  39  61  90 115 152 191 235 292 343
#
# _framework density 22.729330000000001
#
# number of rings (size 3 to 8) (size 9 to 14) (size 15 to 20)
#    0.000    2.267    1.333    2.000    1.867    4.800 
#    2.400    5.333    2.933    0.000    0.000    0.000 
#    0.000    0.000    0.000    0.000    0.000    0.000 
#
# Total GULP energy -167166.270976 kJ/mol
# GULP energy per Si atom -5572.209033 kJ/mol
# Density = 2.267760 g / cm^3
# Si number density = 22.729330 Si / 1000 Ang^3
#
#
#
# Elastic Constant Matrix: (Units=GPa)
#
#
# Indices 1 2 3 4 5 6 
#
# 1 46.8535 29.5078 25.7774 0.0000 11.4318 0.0000
# 2 29.5078 262.0999 105.8830 0.0000 33.7362 0.0000
# 3 25.7774 105.8830 108.4338 0.0000 35.8647 0.0000
# 4 0.0000 0.0000 0.0000 36.8720 0.0000 5.0093
# 5 11.4318 33.7362 35.8647 0.0000 40.0124 0.0000
# 6 0.0000 0.0000 0.0000 5.0093 0.0000 33.9318
#
#
#
# Elastic Compliance Matrix: (Units=1/GPa)
#
#
# Indices 1 2 3 4 5 6 
#
# 1 0.024814 -0.000699 -0.004359 0.000000 -0.002593 0.000000
# 2 -0.000699 0.006323 -0.006127 0.000000 0.000361 0.000000
# 3 -0.004359 -0.006127 0.020071 0.000000 -0.011579 0.000000
# 4 0.000000 0.000000 0.000000 0.027676 0.000000 -0.004086
# 5 -0.002593 0.000361 -0.011579 0.000000 0.035808 0.000000
# 6 0.000000 0.000000 0.000000 -0.004086 0.000000 0.030074
#
#
# Mechanical properties :
#
#
# Convention : Reuss Voigt Hill
#
# Bulk Modulus (GPa) = 34.67573 82.19150 58.43361
# Shear Modulus (GPa) = 28.28867 39.24450 33.76658
#
# Velocity S-wave (km/s) = 3.53170 4.15975 3.85852
# Velocity P-wave (km/s) = 5.64974 7.70135 6.75390
#
# Compressibility (1/GPa) = 0.02883862
#
# Stress axis : x y z
#
# Youngs Moduli (GPa) = 40.29967 158.15488 49.82206
#
# Poissons Ratio (x) = 0.11056 0.21715
# Poissons Ratio (y) = 0.02817 0.30528
# Poissons Ratio (z) = 0.17565 0.96907
#
# Static dielectric constant tensor:
#      x y z
#    x 1.970060 0.000000 -0.068900 
#    y 0.000000 1.787430 0.000000 
#    z -0.068900 0.000000 1.853270 
# 
# From -- ./inp_files/187354.got.cif
#   From: 2010.05.17/outbox.cif.g08.bks.cpg/sg12_94_cif.got.tgz:187354.got - 2010.06.03 13:09:07.
