data_PCOD9195462
_publ_section_title
;
Structure prediction by ZEFSAII (Michael W. Deem and Ramdas Pophale) SiO2 
 PCOD9195462
Probable space group: C 2/M
;
_chemical_formula_sum "Si O2"
_cell_formula_units_Z 58
_cell_length_a 14.854311
_cell_length_b 8.886605
_cell_length_c 24.796264
_cell_angle_alpha 90.000000
_cell_angle_beta 102.933659
_cell_angle_gamma 90.000000
_cell_volume 3190.173920
_symmetry_space_group_name_H-M "C 2/M"
_symmetry_group_IT_number 12
_symmetry_cell_setting 'monoclinic'
loop_
_space_group_symop_operation_xyz
x,y,z
-x,y,-z
-x,-y,-z
x,-y,z
1/2+x,1/2+y,z
1/2-x,1/2+y,-z
1/2-x,1/2-y,-z
1/2+x,1/2-y,z
loop_
_atom_site_type_symbol
_atom_site_label
_atom_site_fract_x
_atom_site_fract_y
_atom_site_fract_z
Si Si1 0.000000 0.500000 0.000000
Si Si2 0.326561 0.680703 0.348134
Si Si3 0.005479 0.318271 0.562774
Si Si4 0.123914 0.679955 0.361149
Si Si5 0.442618 0.680064 0.754630
Si Si6 0.377034 0.680511 0.154777
Si Si7 0.337561 0.166672 0.037590
Si Si8 0.261161 0.819913 0.230504
O O1 0.076989 0.629269 0.990928
O O2 0.332620 0.500000 0.344833
O O3 0.409317 0.745648 0.394305
O O4 0.229463 0.723190 0.363708
O O5 0.320593 0.750900 0.287660
O O6 0.015375 0.500000 0.564955
O O7 0.000000 0.269935 0.500000
O O8 0.915128 0.277993 0.585744
O O9 0.118656 0.500000 0.355563
O O10 0.062057 0.749453 0.305318
O O11 0.447161 0.500000 0.749326
O O12 0.528952 0.728826 0.802109
O O13 0.345427 0.717191 0.770343
O O14 0.372548 0.500000 0.154109
O O15 0.372607 0.742585 0.094037
O O16 0.294537 0.747417 0.179605
O O17 0.306204 0.000000 0.052154
O O18 0.250000 0.250000 0.000000
O O19 0.271424 0.000000 0.230915
#
# Coordination Sequence:
#
# PCOD9195462 Si02
#       8
#     2   8   8   8   8   8   8   8
#     4   8  24  44  70  94 128 168 222 264 318 374
#     4  10  20  35  54  78 110 144 186 235 294 358
#     4  10  21  36  53  75 103 141 190 239 290 352
#     4   9  19  35  54  75 106 148 185 230 292 353
#     4   9  20  36  54  81 119 149 189 233 291 361
#     4  11  22  37  59  93 126 156 200 250 300 356
#     4  10  22  44  67  93 128 169 218 263 313 376
#     4  10  20  36  57  85 116 156 191 235 297 360
#
# _framework density 18.180826
#
# number of rings (size 3 to 8) (size 9 to 14) (size 15 to 20)
#    0.414    1.793    0.000    2.483    0.000    6.897 
#    0.000    2.759    0.000    0.000    0.000    0.000 
#    0.000    0.000    0.000    0.000    0.000    0.000 
#
# Total GULP energy -161510.172845 kJ/mol
# GULP energy per Si atom -5569.316305 kJ/mol
# Density = 1.813945 g / cm^3
# Si number density = 18.180826 Si / 1000 Ang^3
#
#
#
# Elastic Constant Matrix: (Units=GPa)
#
#
# Indices 1 2 3 4 5 6 
#
# 1 74.0023 22.6899 36.0842 0.0000 -21.4151 0.0000
# 2 22.6899 38.1177 17.7976 0.0000 -8.7438 0.0000
# 3 36.0842 17.7976 67.8543 0.0000 -18.4801 0.0000
# 4 0.0000 0.0000 0.0000 30.0476 0.0000 1.8076
# 5 -21.4151 -8.7438 -18.4801 0.0000 18.7571 0.0000
# 6 0.0000 0.0000 0.0000 1.8076 0.0000 25.9008
#
#
#
# Elastic Compliance Matrix: (Units=1/GPa)
#
#
# Indices 1 2 3 4 5 6 
#
# 1 0.023822 -0.007318 -0.005837 0.000000 0.018036 0.000000
# 2 -0.007318 0.033166 -0.003926 0.000000 0.003238 0.000000
# 3 -0.005837 -0.003926 0.022630 0.000000 0.013802 0.000000
# 4 0.000000 0.000000 0.000000 0.033421 0.000000 -0.002332
# 5 0.018036 0.003238 0.013802 0.000000 0.089012 0.000000
# 6 0.000000 0.000000 0.000000 -0.002332 0.000000 0.038772
#
#
# Mechanical properties :
#
#
# Convention : Reuss Voigt Hill
#
# Bulk Modulus (GPa) = 21.99851 37.01306 29.50578
# Shear Modulus (GPa) = 17.23321 21.83461 19.53391
#
# Velocity S-wave (km/s) = 3.08210 3.46926 3.28140
# Velocity P-wave (km/s) = 4.97915 6.03740 5.53363
#
# Compressibility (1/GPa) = 0.04545763
#
# Stress axis : x y z
#
# Youngs Moduli (GPa) = 41.97736 30.15103 44.18899
#
# Poissons Ratio (x) = 0.22064 0.25793
# Poissons Ratio (y) = 0.30718 0.17348
# Poissons Ratio (z) = 0.24502 0.11837
#
# Static dielectric constant tensor:
#      x y z
#    x 1.641970 0.000000 -0.013050 
#    y 0.000000 1.611740 0.000000 
#    z -0.013050 0.000000 1.601640 
# 
# From -- ./inp_files/338096.got.cif
#   From: 2010.05.17/outbox.cif.g08.bks.cpg/sg12_170_cif.got.tgz:338096.got - 2010.06.03 13:09:07.
