data_PCOD9195266
_publ_section_title
;
Structure prediction by ZEFSAII (Michael W. Deem and Ramdas Pophale) SiO2 
 PCOD9195266
Probable space group: C 2/M
;
_chemical_formula_sum "Si O2"
_cell_formula_units_Z 56
_cell_length_a 19.331996
_cell_length_b 8.834296
_cell_length_c 19.297491
_cell_angle_alpha 90.000000
_cell_angle_beta 118.132243
_cell_angle_gamma 90.000000
_cell_volume 2906.363661
_symmetry_space_group_name_H-M "C 2/M"
_symmetry_group_IT_number 12
_symmetry_cell_setting 'monoclinic'
loop_
_space_group_symop_operation_xyz
x,y,z
-x,y,-z
-x,-y,-z
x,-y,z
1/2+x,1/2+y,z
1/2-x,1/2+y,-z
1/2-x,1/2-y,-z
1/2+x,1/2-y,z
loop_
_atom_site_type_symbol
_atom_site_label
_atom_site_fract_x
_atom_site_fract_y
_atom_site_fract_z
Si Si1 0.578222 0.316350 0.575778
Si Si2 0.674648 0.318918 0.234541
Si Si3 0.594609 0.821699 0.326697
Si Si4 0.666648 0.682012 0.751892
Si Si5 0.427248 0.821994 0.172836
Si Si6 0.330284 0.680076 0.511918
Si Si7 0.508290 0.681367 0.083230
O O1 0.500000 0.260698 0.500000
O O2 0.571932 0.500000 0.575636
O O3 0.602236 0.266486 0.663710
O O4 0.648075 0.276610 0.555941
O O5 0.683086 0.500000 0.244911
O O6 0.656295 0.247028 0.300886
O O7 0.750554 0.248292 0.234205
O O8 0.595989 0.286696 0.152649
O O9 0.508961 0.800256 0.253407
O O10 0.603817 0.737989 0.403819
O O11 0.609556 0.000000 0.342429
O O12 0.669988 0.500000 0.752877
O O13 0.639166 0.740094 0.813654
O O14 0.446237 0.756209 0.106152
O O15 0.410947 0.000000 0.161167
O O16 0.326500 0.500000 0.513449
O O17 0.250000 0.750000 0.500000
O O18 0.497458 0.500000 0.081001
O O19 0.500000 0.731389 0.000000
#
# Coordination Sequence:
#
# PCOD9195266 Si02
#       7
#     8   8   8   8   8   8   8
#     4   9  19  34  51  72  99 136 182 228 271 314
#     4  10  20  35  57  83 111 143 179 223 276 329
#     4  10  20  35  53  75 105 141 184 229 273 326
#     4  11  21  35  56  80 110 146 185 228 274 327
#     4  10  21  36  56  82 111 143 180 222 268 322
#     4  11  21  33  51  74 102 137 180 232 285 331
#     4   9  19  38  63  88 112 140 177 220 268 327
#
# _framework density 19.268063000000001
#
# number of rings (size 3 to 8) (size 9 to 14) (size 15 to 20)
#    0.000    2.000    0.000    3.857    0.000    4.857 
#    0.000    2.857    0.000    5.143    0.000    0.000 
#    0.000    0.000    0.000    0.000    0.000    0.000 
#
# Total GULP energy -156387.725652 kJ/mol
# GULP energy per Si atom -5585.275916 kJ/mol
# Density = 1.922421 g / cm^3
# Si number density = 19.268063 Si / 1000 Ang^3
#
#
#
# Elastic Constant Matrix: (Units=GPa)
#
#
# Indices 1 2 3 4 5 6 
#
# 1 101.2459 35.3763 15.8442 0.0000 -25.1151 0.0000
# 2 35.3763 38.5534 13.8946 0.0000 -10.9321 0.0000
# 3 15.8442 13.8946 73.1244 0.0000 -28.7089 0.0000
# 4 0.0000 0.0000 0.0000 21.9783 0.0000 -2.1789
# 5 -25.1151 -10.9321 -28.7089 0.0000 29.9918 0.0000
# 6 0.0000 0.0000 0.0000 -2.1789 0.0000 30.7003
#
#
#
# Elastic Compliance Matrix: (Units=1/GPa)
#
#
# Indices 1 2 3 4 5 6 
#
# 1 0.017316 -0.013544 0.004127 0.000000 0.013514 0.000000
# 2 -0.013544 0.039740 -0.005419 0.000000 -0.002044 0.000000
# 3 0.004127 -0.005419 0.023057 0.000000 0.023552 0.000000
# 4 0.000000 0.000000 0.000000 0.045822 0.000000 0.003252
# 5 0.013514 -0.002044 0.023552 0.000000 0.066459 0.000000
# 6 0.000000 0.000000 0.000000 0.003252 0.000000 0.032804
#
#
# Mechanical properties :
#
#
# Convention : Reuss Voigt Hill
#
# Bulk Modulus (GPa) = 19.82495 38.12821 28.97658
# Shear Modulus (GPa) = 18.40380 26.38796 22.39588
#
# Velocity S-wave (km/s) = 3.09390 3.70471 3.41300
# Velocity P-wave (km/s) = 4.80357 6.17504 5.53197
#
# Compressibility (1/GPa) = 0.05044150
#
# Stress axis : x y z
#
# Youngs Moduli (GPa) = 57.75035 25.16380 43.37012
#
# Poissons Ratio (x) = 0.34083 -0.17901
# Poissons Ratio (y) = 0.78219 0.23501
# Poissons Ratio (z) = -0.23836 0.13636
#
# Static dielectric constant tensor:
#      x y z
#    x 1.673160 0.000000 0.018370 
#    y 0.000000 1.642510 0.000000 
#    z 0.018370 0.000000 1.710990 
# 
# From -- ./inp_files/275189.got.cif
#   From: 2010.05.17/outbox.cif.g08.bks.cpg/sg12_138_cif.got.tgz:275189.got - 2010.06.03 13:09:07.
