data_PCOD9195946
_publ_section_title
;
Structure prediction by ZEFSAII (Michael W. Deem and Ramdas Pophale) SiO2 
 PCOD9195946
Probable space group: C 2/M
;
_chemical_formula_sum "Si O2"
_cell_formula_units_Z 36
_cell_length_a 12.624134
_cell_length_b 12.325032
_cell_length_c 11.333243
_cell_angle_alpha 90.000000
_cell_angle_beta 81.110304
_cell_angle_gamma 90.000000
_cell_volume 1742.189443
_symmetry_space_group_name_H-M "C 2/M"
_symmetry_group_IT_number 12
_symmetry_cell_setting 'monoclinic'
loop_
_space_group_symop_operation_xyz
x,y,z
-x,y,-z
-x,-y,-z
x,-y,z
1/2+x,1/2+y,z
1/2-x,1/2+y,-z
1/2-x,1/2-y,-z
1/2+x,1/2-y,z
loop_
_atom_site_type_symbol
_atom_site_label
_atom_site_fract_x
_atom_site_fract_y
_atom_site_fract_z
Si Si1 0.000000 0.793379 0.500000
Si Si2 0.111818 0.290167 0.116318
Si Si3 0.173396 0.119245 0.306078
Si Si4 0.593156 0.793021 0.723304
Si Si5 0.841595 0.875359 0.099803
O O1 0.099460 0.862452 0.432835
O O2 0.044540 0.724871 0.602388
O O3 0.137339 0.207089 0.217722
O O4 0.213328 0.369713 0.098550
O O5 0.998110 0.340273 0.173358
O O6 0.114121 0.211997 0.002316
O O7 0.298941 0.138176 0.305209
O O8 0.154691 0.000000 0.260580
O O9 0.626960 0.678109 0.779559
O O10 0.877704 0.000000 0.083233
#
# Coordination Sequence:
#
# PCOD9195946 Si02
#       5
#     4   8   8   8   8
#     4  10  21  38  53  74 108 140 173 220 263 302
#     4   9  20  36  53  79 111 137 168 216 264 307
#     4  10  20  35  56  79 104 137 175 215 262 313
#     4  10  21  36  54  77 107 139 175 217 259 307
#     4  10  20  35  56  80 106 139 176 212 257 312
#
# _framework density 20.663654000000001
#
# number of rings (size 3 to 8) (size 9 to 14) (size 15 to 20)
#    0.000    2.222    0.000    2.333    0.000    7.111 
#    0.000    0.556    0.000    8.000    0.000    0.000 
#    0.000    0.000    0.000    0.000    0.000    0.000 
#
# Total GULP energy -100389.604054 kJ/mol
# GULP energy per Si atom -5577.200225 kJ/mol
# Density = 2.061662 g / cm^3
# Si number density = 20.663654 Si / 1000 Ang^3
#
#
#
# Elastic Constant Matrix: (Units=GPa)
#
#
# Indices 1 2 3 4 5 6 
#
# 1 111.9834 -9.4561 28.1997 0.0000 -35.5966 0.0000
# 2 -9.4561 38.6342 11.0352 0.0000 -5.7476 0.0000
# 3 28.1997 11.0352 94.4628 0.0000 -1.7447 0.0000
# 4 0.0000 0.0000 0.0000 -4.7758 0.0000 4.2268
# 5 -35.5966 -5.7476 -1.7447 0.0000 43.4730 0.0000
# 6 0.0000 0.0000 0.0000 4.2268 0.0000 -0.6273
#
#
#
# Elastic Compliance Matrix: (Units=1/GPa)
#
#
# Indices 1 2 3 4 5 6 
#
# 1 0.014893 0.007003 -0.005026 0.000000 0.012919 0.000000
# 2 0.007003 0.030587 -0.005487 0.000000 0.009558 0.000000
# 3 -0.005026 -0.005487 0.012647 0.000000 -0.004333 0.000000
# 4 0.000000 0.000000 0.000000 0.042184 0.000000 0.284247
# 5 0.012919 0.009558 -0.004333 0.000000 0.034671 0.000000
# 6 0.000000 0.000000 0.000000 0.284247 0.000000 0.321164
#
#
# Mechanical properties :
#
#
# Convention : Reuss Voigt Hill
#
# Bulk Modulus (GPa) = 19.56644 33.84867 26.70755
# Shear Modulus (GPa) = 10.41228 21.96743 16.18985
#
# Velocity S-wave (km/s) = 2.24719 3.26405 2.80213
# Velocity P-wave (km/s) = 4.02775 5.53369 4.83965
#
# Compressibility (1/GPa) = 0.05110792
#
# Stress axis : x y z
#
# Youngs Moduli (GPa) = 67.14371 32.69361 79.06744
#
# Poissons Ratio (x) = -0.22895 0.39736
# Poissons Ratio (y) = -0.47019 0.43386
# Poissons Ratio (z) = 0.33743 0.17940
#
# Static dielectric constant tensor:
#      x y z
#    x 1.821240 0.000000 -0.041230 
#    y 0.000000 1.671060 0.000000 
#    z -0.041230 0.000000 1.762320 
# 
# From -- ./inp_files/127774.got.cif
#   From: 2010.05.17/outbox.cif.g08.bks.cpg/sg12_64_cif.got.tgz:127774.got - 2010.06.03 13:09:07.
