data_PCOD9195247
_publ_section_title
;
Structure prediction by ZEFSAII (Michael W. Deem and Ramdas Pophale) SiO2 
 PCOD9195247
Probable space group: C 2/M
;
_chemical_formula_sum "Si O2"
_cell_formula_units_Z 56
_cell_length_a 23.406916
_cell_length_b 9.001453
_cell_length_c 14.664653
_cell_angle_alpha 90.000000
_cell_angle_beta 53.541125
_cell_angle_gamma 90.000000
_cell_volume 2485.065371
_symmetry_space_group_name_H-M "C 2/M"
_symmetry_group_IT_number 12
_symmetry_cell_setting 'monoclinic'
loop_
_space_group_symop_operation_xyz
x,y,z
-x,y,-z
-x,-y,-z
x,-y,z
1/2+x,1/2+y,z
1/2-x,1/2+y,-z
1/2-x,1/2-y,-z
1/2+x,1/2-y,z
loop_
_atom_site_type_symbol
_atom_site_label
_atom_site_fract_x
_atom_site_fract_y
_atom_site_fract_z
Si Si1 0.389042 0.821197 0.225114
Si Si2 0.244861 0.172936 0.691218
Si Si3 0.958831 0.330198 0.877452
Si Si4 0.865757 0.330340 0.728267
Si Si5 0.825483 0.829700 0.938873
Si Si6 0.981423 0.665667 0.389543
Si Si7 0.650069 0.675246 0.544004
O O1 0.328694 0.755599 0.216938
O O2 0.471500 0.776951 0.133691
O O3 0.365734 0.753573 0.344869
O O4 0.386689 0.000000 0.229852
O O5 0.303286 0.180951 0.715212
O O6 0.283567 0.251500 0.569636
O O7 0.230905 0.000000 0.685351
O O8 0.944058 0.500000 0.918403
O O9 0.885655 0.240588 0.946789
O O10 0.986979 0.331847 0.745052
O O11 0.860193 0.500000 0.773835
O O12 0.856648 0.199123 0.808759
O O13 0.947190 0.320353 0.618579
O O14 0.814984 0.000000 0.972120
O O15 0.750000 0.750000 0.000000
O O16 0.949675 0.500000 0.431869
O O17 0.920162 0.786824 0.448986
O O18 0.659411 0.500000 0.545086
#
# Coordination Sequence:
#
# PCOD9195247 Si02
#       7
#     8   8   8   8   8   8   8
#     4  10  20  35  53  73 101 137 176 217 256 298
#     4  11  22  35  51  71 100 139 177 215 257 302
#     4   8  16  32  53  76 103 133 166 205 252 301
#     4   9  20  37  54  74 103 136 169 206 256 312
#     4  11  21  34  58  86 110 132 160 201 248 301
#     4   8  15  31  51  70  97 133 170 210 256 305
#     4  11  21  32  48  72 101 134 178 225 260 296
#
# _framework density 22.53462
#
# number of rings (size 3 to 8) (size 9 to 14) (size 15 to 20)
#    0.000    2.286    0.000    5.571    0.000    7.429 
#    0.000    2.857    0.000    0.857    0.000    6.000 
#    0.000    0.000    0.000    0.000    0.000    0.000 
#
# Total GULP energy -156368.829197 kJ/mol
# GULP energy per Si atom -5584.601043 kJ/mol
# Density = 2.248333 g / cm^3
# Si number density = 22.534620 Si / 1000 Ang^3
#
#
#
# Elastic Constant Matrix: (Units=GPa)
#
#
# Indices 1 2 3 4 5 6 
#
# 1 147.3184 51.0146 31.2548 0.0000 -51.7205 0.0000
# 2 51.0146 109.6643 30.2564 0.0000 -35.8120 0.0000
# 3 31.2548 30.2564 52.1985 0.0000 -25.3346 0.0000
# 4 0.0000 0.0000 0.0000 20.6527 0.0000 -13.3954
# 5 -51.7205 -35.8120 -25.3346 0.0000 48.3730 0.0000
# 6 0.0000 0.0000 0.0000 -13.3954 0.0000 39.2933
#
#
#
# Elastic Compliance Matrix: (Units=1/GPa)
#
#
# Indices 1 2 3 4 5 6 
#
# 1 0.011121 -0.001603 -0.000717 0.000000 0.010329 0.000000
# 2 -0.001603 0.012769 -0.003601 0.000000 0.005854 0.000000
# 3 -0.000717 -0.003601 0.026828 0.000000 0.010618 0.000000
# 4 0.000000 0.000000 0.000000 0.062165 0.000000 0.021193
# 5 0.010329 0.005854 0.010618 0.000000 0.041612 0.000000
# 6 0.000000 0.000000 0.000000 0.021193 0.000000 0.032674
#
#
# Mechanical properties :
#
#
# Convention : Reuss Voigt Hill
#
# Bulk Modulus (GPa) = 25.72167 59.35920 42.54043
# Shear Modulus (GPa) = 23.58823 34.77415 29.18119
#
# Velocity S-wave (km/s) = 3.23887 3.93255 3.60244
# Velocity P-wave (km/s) = 5.04243 6.85700 6.01849
#
# Compressibility (1/GPa) = 0.03887773
#
# Stress axis : x y z
#
# Youngs Moduli (GPa) = 89.91646 78.31162 37.27498
#
# Poissons Ratio (x) = 0.12551 0.02672
# Poissons Ratio (y) = 0.14411 0.13422
# Poissons Ratio (z) = 0.06447 0.28198
#
# Static dielectric constant tensor:
#      x y z
#    x 1.972270 0.000000 0.047500 
#    y 0.000000 1.770440 0.000000 
#    z 0.047500 0.000000 1.931360 
# 
# From -- ./inp_files/288266.got.cif
#   From: 2010.05.17/outbox.cif.g08.bks.cpg/sg12_145_cif.got.tgz:288266.got - 2010.06.03 13:09:07.
