data_PCOD9195190
_publ_section_title
;
Structure prediction by ZEFSAII (Michael W. Deem and Ramdas Pophale) SiO2 
 PCOD9195190
Probable space group: C 2/M
;
_chemical_formula_sum "Si O2"
_cell_formula_units_Z 56
_cell_length_a 14.732052
_cell_length_b 7.507462
_cell_length_c 27.115687
_cell_angle_alpha 90.000000
_cell_angle_beta 123.844922
_cell_angle_gamma 90.000000
_cell_volume 2490.816677
_symmetry_space_group_name_H-M "C 2/M"
_symmetry_group_IT_number 12
_symmetry_cell_setting 'monoclinic'
loop_
_space_group_symop_operation_xyz
x,y,z
-x,y,-z
-x,-y,-z
x,-y,z
1/2+x,1/2+y,z
1/2-x,1/2+y,-z
1/2-x,1/2-y,-z
1/2+x,1/2-y,z
loop_
_atom_site_type_symbol
_atom_site_label
_atom_site_fract_x
_atom_site_fract_y
_atom_site_fract_z
Si Si1 0.669428 0.218127 0.153786
Si Si2 0.751807 0.215964 0.076034
Si Si3 0.831818 0.204265 0.643720
Si Si4 0.567601 0.205764 0.947779
Si Si5 0.760358 0.794059 0.284233
Si Si6 0.159356 0.788640 0.514879
Si Si7 0.003237 0.780819 0.612948
O O1 0.747941 0.264377 0.132011
O O2 0.548947 0.283081 0.102075
O O3 0.710273 0.282897 0.219117
O O4 0.663712 0.000000 0.154351
O O5 0.853457 0.285491 0.075716
O O6 0.754107 0.000000 0.072991
O O7 0.641194 0.279302 0.014701
O O8 0.820439 0.288763 0.693700
O O9 0.714585 0.213850 0.580551
O O10 0.920617 0.276300 0.631738
O O11 0.860782 0.000000 0.660683
O O12 0.546967 0.000000 0.954885
O O13 0.876080 0.717687 0.337377
O O14 0.784459 0.000000 0.280257
O O15 0.250000 0.750000 0.500000
O O16 0.047846 0.724995 0.455225
O O17 0.150196 0.000000 0.520211
O O18 0.001064 0.000000 0.610594
#
# Coordination Sequence:
#
# PCOD9195190 Si02
#       7
#     8   8   8   8   8   8   8
#     4   9  18  32  51  72  97 132 170 203 240 293
#     4   9  17  31  52  76 100 130 167 203 243 294
#     4  10  20  35  52  74 102 130 162 206 256 299
#     4   9  17  31  51  76 103 128 160 206 252 289
#     4  10  20  35  52  71  95 131 174 204 237 295
#     4   9  16  30  52  76  99 128 165 206 254 301
#     4   8  17  33  52  71  96 128 161 200 247 298
#
# _framework density 22.482586999999999
#
# number of rings (size 3 to 8) (size 9 to 14) (size 15 to 20)
#    0.000    2.857    0.000    2.143    0.000    3.429 
#    0.000   10.714    0.000    3.429    0.000    0.000 
#    0.000    0.000    0.000    0.000    0.000    0.000 
#
# Total GULP energy -156257.272295 kJ/mol
# GULP energy per Si atom -5580.616868 kJ/mol
# Density = 2.243142 g / cm^3
# Si number density = 22.482587 Si / 1000 Ang^3
#
#
#
# Elastic Constant Matrix: (Units=GPa)
#
#
# Indices 1 2 3 4 5 6 
#
# 1 61.9636 -5.0697 43.0612 0.0000 -9.4554 0.0000
# 2 -5.0697 56.9723 -1.4662 0.0000 3.4558 0.0000
# 3 43.0612 -1.4662 99.2651 0.0000 -37.6802 0.0000
# 4 0.0000 0.0000 0.0000 7.6830 0.0000 -7.8765
# 5 -9.4554 3.4558 -37.6802 0.0000 29.8854 0.0000
# 6 0.0000 0.0000 0.0000 -7.8765 0.0000 12.6775
#
#
#
# Elastic Compliance Matrix: (Units=1/GPa)
#
#
# Indices 1 2 3 4 5 6 
#
# 1 0.025216 0.002555 -0.015314 0.000000 -0.011625 0.000000
# 2 0.002555 0.017986 -0.002542 0.000000 -0.004476 0.000000
# 3 -0.015314 -0.002542 0.028676 0.000000 0.031605 0.000000
# 4 0.000000 0.000000 0.000000 0.358502 0.000000 0.222736
# 5 -0.011625 -0.004476 0.031605 0.000000 0.070149 0.000000
# 6 0.000000 0.000000 0.000000 0.222736 0.000000 0.217266
#
#
# Mechanical properties :
#
#
# Convention : Reuss Voigt Hill
#
# Bulk Modulus (GPa) = 24.22664 32.36130 28.29397
# Shear Modulus (GPa) = 6.56035 22.16089 14.36062
#
# Velocity S-wave (km/s) = 1.71006 3.14298 2.53008
# Velocity P-wave (km/s) = 3.83382 5.25322 4.59861
#
# Compressibility (1/GPa) = 0.04127688
#
# Stress axis : x y z
#
# Youngs Moduli (GPa) = 39.65777 55.59927 34.87178
#
# Poissons Ratio (x) = -0.14205 0.53402
# Poissons Ratio (y) = -0.10132 0.08864
# Poissons Ratio (z) = 0.60731 0.14132
#
# Static dielectric constant tensor:
#      x y z
#    x 1.826730 0.000000 0.011650 
#    y 0.000000 1.856160 0.000000 
#    z 0.011650 0.000000 1.822510 
# 
# From -- ./inp_files/339026.got.cif
#   From: 2010.05.17/outbox.cif.g08.bks.cpg/sg12_170_cif.got.tgz:339026.got - 2010.06.03 13:09:07.
