data_PCOD9195783
_publ_section_title
;
Structure prediction by ZEFSAII (Michael W. Deem and Ramdas Pophale) SiO2 
 PCOD9195783
Probable space group: C 2/M
;
_chemical_formula_sum "Si O2"
_cell_formula_units_Z 64
_cell_length_a 18.982543
_cell_length_b 24.121098
_cell_length_c 16.187484
_cell_angle_alpha 90.000000
_cell_angle_beta 155.624902
_cell_angle_gamma 90.000000
_cell_volume 3058.963701
_symmetry_space_group_name_H-M "C 2/M"
_symmetry_group_IT_number 12
_symmetry_cell_setting 'monoclinic'
loop_
_space_group_symop_operation_xyz
x,y,z
-x,y,-z
-x,-y,-z
x,-y,z
1/2+x,1/2+y,z
1/2-x,1/2+y,-z
1/2-x,1/2-y,-z
1/2+x,1/2-y,z
loop_
_atom_site_type_symbol
_atom_site_label
_atom_site_fract_x
_atom_site_fract_y
_atom_site_fract_z
Si Si1 0.861291 0.105391 0.090402
Si Si2 0.482071 0.744866 0.381934
Si Si3 0.021050 0.436552 0.768130
Si Si4 0.595412 0.932919 0.184603
Si Si5 0.460074 0.379121 0.555394
Si Si6 0.653058 0.438983 0.289522
Si Si7 0.627473 0.710568 0.007708
Si Si8 0.212707 0.817869 0.284840
O O1 0.901615 0.099265 0.230744
O O2 0.993036 0.067516 0.180153
O O3 0.663196 0.092425 0.865388
O O4 0.889675 0.166228 0.083373
O O5 0.500000 0.744411 0.500000
O O6 0.558130 0.685475 0.439679
O O7 0.280771 0.748261 0.145752
O O8 0.604224 0.796072 0.486780
O O9 0.080500 0.500000 0.839641
O O10 0.001850 0.411557 0.838651
O O11 0.831596 0.437737 0.529334
O O12 0.786230 0.911005 0.386819
O O13 0.598507 0.000000 0.191706
O O14 0.500000 0.915550 0.000000
O O15 0.500000 0.384043 0.500000
O O16 0.643025 0.500000 0.237317
O O17 0.664043 0.381652 0.250749
O O18 0.701639 0.686942 0.173882
O O19 0.432387 0.721693 0.828028
#
# Coordination Sequence:
#
# PCOD9195783 Si02
#       8
#     8   8   8   8   8   8   8   8
#     4  11  21  36  58  84 119 154 189 244 291 344
#     4   9  19  38  58  83 119 152 194 243 285 344
#     4  10  20  35  55  80 112 153 189 228 292 345
#     4  10  21  39  59  82 114 151 195 245 296 354
#     4  11  23  39  58  89 116 149 198 244 294 349
#     4  10  20  36  59  87 119 152 196 243 286 345
#     4   9  19  36  58  83 114 155 195 229 289 347
#     4   9  18  37  60  83 114 160 194 233 295 344
#
# _framework density 20.922117
#
# number of rings (size 3 to 8) (size 9 to 14) (size 15 to 20)
#    0.000    2.125    1.250    1.875    0.000    1.250 
#    9.000    8.125    0.000    4.875    0.000    0.000 
#    0.000    0.000    0.000    0.000    0.000    0.000 
#
# Total GULP energy -178242.648511 kJ/mol
# GULP energy per Si atom -5570.082766 kJ/mol
# Density = 2.087450 g / cm^3
# Si number density = 20.922117 Si / 1000 Ang^3
#
#
#
# Elastic Constant Matrix: (Units=GPa)
#
#
# Indices 1 2 3 4 5 6 
#
# 1 62.7052 -6.7044 14.7644 0.0000 11.5108 0.0000
# 2 -6.7044 15.4598 -1.6225 0.0000 9.5162 0.0000
# 3 14.7644 -1.6225 74.9786 0.0001 18.2345 0.0000
# 4 0.0000 0.0000 0.0001 18.9610 0.0000 -0.5387
# 5 11.5108 9.5162 18.2345 0.0000 24.7308 0.0000
# 6 0.0000 0.0000 0.0000 -0.5387 0.0000 20.3432
#
#
#
# Elastic Compliance Matrix: (Units=1/GPa)
#
#
# Indices 1 2 3 4 5 6 
#
# 1 0.021378 0.020706 0.000726 0.000000 -0.018453 0.000000
# 2 0.020706 0.114526 0.013966 0.000000 -0.064003 0.000000
# 3 0.000726 0.013966 0.018138 0.000000 -0.019086 0.000000
# 4 0.000000 0.000000 0.000000 0.052779 0.000000 0.001398
# 5 -0.018453 -0.064003 -0.019086 0.000000 0.087724 0.000000
# 6 0.000000 0.000000 0.000000 0.001398 0.000000 0.049193
#
#
# Mechanical properties :
#
#
# Convention : Reuss Voigt Hill
#
# Bulk Modulus (GPa) = 4.44765 18.44651 11.44708
# Shear Modulus (GPa) = 14.37243 22.58741 18.47992
#
# Velocity S-wave (km/s) = 2.62381 3.28928 2.97521
# Velocity P-wave (km/s) = 3.36298 4.82304 4.15761
#
# Compressibility (1/GPa) = 0.22483802
#
# Stress axis : x y z
#
# Youngs Moduli (GPa) = 46.77716 8.73167 55.13309
#
# Poissons Ratio (x) = -0.18080 -0.04003
# Poissons Ratio (y) = -0.96855 -0.77001
# Poissons Ratio (z) = -0.03397 -0.12195
#
# Static dielectric constant tensor:
#      x y z
#    x 1.773910 0.000000 0.008480 
#    y 0.000000 1.781700 0.000000 
#    z 0.008480 0.000000 1.788160 
# 
# From -- ./inp_files/286717.got.cif
#   From: 2010.05.17/outbox.cif.g08.bks.cpg/sg12_144_cif.got.tgz:286717.got - 2010.06.03 13:09:07.
