data_PCOD9195616
_publ_section_title
;
Structure prediction by ZEFSAII (Michael W. Deem and Ramdas Pophale) SiO2 
 PCOD9195616
Probable space group: C 2/M
;
_chemical_formula_sum "Si O2"
_cell_formula_units_Z 64
_cell_length_a 19.527691
_cell_length_b 7.869090
_cell_length_c 16.203745
_cell_angle_alpha 90.000000
_cell_angle_beta 91.324433
_cell_angle_gamma 90.000000
_cell_volume 2489.285829
_symmetry_space_group_name_H-M "C 2/M"
_symmetry_group_IT_number 12
_symmetry_cell_setting 'monoclinic'
loop_
_space_group_symop_operation_xyz
x,y,z
-x,y,-z
-x,-y,-z
x,-y,z
1/2+x,1/2+y,z
1/2-x,1/2+y,-z
1/2-x,1/2-y,-z
1/2+x,1/2-y,z
loop_
_atom_site_type_symbol
_atom_site_label
_atom_site_fract_x
_atom_site_fract_y
_atom_site_fract_z
Si Si1 0.521216 0.794003 0.373196
Si Si2 0.640216 0.801662 0.959340
Si Si3 0.269002 0.698031 0.364477
Si Si4 0.227910 0.799585 0.119231
Si Si5 0.015856 0.802018 0.873126
Si Si6 0.390724 0.195932 0.780185
Si Si7 0.106876 0.798338 0.723887
Si Si8 0.148278 0.707425 0.471969
O O1 0.565920 0.733472 0.295061
O O2 0.445556 0.728082 0.353877
O O3 0.569660 0.748245 0.451196
O O4 0.516634 0.000000 0.372337
O O5 0.695129 0.732322 0.892635
O O6 0.566597 0.713727 0.951849
O O7 0.627139 0.000000 0.946183
O O8 0.681741 0.777900 0.044825
O O9 0.259625 0.500000 0.343330
O O10 0.319088 0.777327 0.297025
O O11 0.195770 0.760482 0.394856
O O12 0.316027 0.712086 0.448121
O O13 0.182912 0.770100 0.199121
O O14 0.232113 0.000000 0.104732
O O15 0.065420 0.730017 0.801332
O O16 0.943652 0.711533 0.858511
O O17 0.001413 0.000000 0.858906
O O18 0.379195 0.000000 0.761690
O O19 0.114577 0.000000 0.736853
O O20 0.152620 0.500000 0.479327
#
# Coordination Sequence:
#
# PCOD9195616 Si02
#       8
#     8   8   8   8   8   8   8   8
#     4   9  19  34  52  74 101 133 167 207 252 300
#     4  10  21  37  56  79 107 137 171 212 256 304
#     4   9  18  33  51  72  99 131 168 208 250 297
#     4  10  21  37  56  79 107 137 171 212 256 304
#     4  10  20  35  55  78 105 137 173 213 258 307
#     4  10  20  35  55  78 105 137 173 213 258 307
#     4   9  19  34  52  74 101 133 167 207 252 300
#     4   9  18  33  51  72  99 131 168 208 250 297
#
# _framework density 25.710184999999999
#
# number of rings (size 3 to 8) (size 9 to 14) (size 15 to 20)
#    0.000    2.500    0.000    1.500    0.000    5.500 
#    0.000    7.500    0.000    3.000    0.000    0.000 
#    0.000    0.000    0.000    0.000    0.000    0.000 
#
# Total GULP energy -178857.943263 kJ/mol
# GULP energy per Si atom -5589.310727 kJ/mol
# Density = 2.565167 g / cm^3
# Si number density = 25.710185 Si / 1000 Ang^3
#
#
#
# Elastic Constant Matrix: (Units=GPa)
#
#
# Indices 1 2 3 4 5 6 
#
# 1 181.2751 8.4674 10.5449 0.0000 0.0478 0.0000
# 2 8.4674 56.4121 -9.8712 0.0000 0.8033 0.0000
# 3 10.5449 -9.8712 49.0484 0.0000 1.8622 0.0000
# 4 0.0000 0.0000 0.0000 14.9992 0.0000 2.1848
# 5 0.0478 0.8033 1.8622 0.0000 52.3391 0.0000
# 6 0.0000 0.0000 0.0000 2.1848 0.0000 21.3600
#
#
#
# Elastic Compliance Matrix: (Units=1/GPa)
#
#
# Indices 1 2 3 4 5 6 
#
# 1 0.005652 -0.001101 -0.001439 0.000000 0.000063 0.000000
# 2 -0.001101 0.018597 0.003996 0.000000 -0.000427 0.000000
# 3 -0.001439 0.003996 0.021533 0.000000 -0.000826 0.000000
# 4 0.000000 0.000000 0.000000 0.067678 0.000000 -0.006922
# 5 0.000063 -0.000427 -0.000826 0.000000 0.019142 0.000000
# 6 0.000000 0.000000 0.000000 -0.006922 0.000000 0.047525
#
#
# Mechanical properties :
#
#
# Convention : Reuss Voigt Hill
#
# Bulk Modulus (GPa) = 20.53681 33.89085 27.21383
# Shear Modulus (GPa) = 25.84695 36.24597 31.04646
#
# Velocity S-wave (km/s) = 3.17412 3.75879 3.47876
# Velocity P-wave (km/s) = 4.63017 5.66114 5.17141
#
# Compressibility (1/GPa) = 0.04869304
#
# Stress axis : x y z
#
# Youngs Moduli (GPa) = 176.94117 53.77149 46.44056
#
# Poissons Ratio (x) = 0.05920 0.06683
# Poissons Ratio (y) = 0.19481 -0.18556
# Poissons Ratio (z) = 0.25462 -0.21485
#
# Static dielectric constant tensor:
#      x y z
#    x 2.012770 0.000000 -0.035220 
#    y 0.000000 1.903600 0.000000 
#    z -0.035220 0.000000 2.184860 
# 
# From -- ./inp_files/281280.got.cif
#   From: 2010.05.17/outbox.cif.g08.bks.cpg/sg12_141_cif.got.tgz:281280.got - 2010.06.03 13:09:07.
