data_PCOD9195705
_publ_section_title
;
Structure prediction by ZEFSAII (Michael W. Deem and Ramdas Pophale) SiO2 
 PCOD9195705
Probable space group: C 2/M
;
_chemical_formula_sum "Si O2"
_cell_formula_units_Z 64
_cell_length_a 20.723190
_cell_length_b 7.927603
_cell_length_c 34.550848
_cell_angle_alpha 90.000000
_cell_angle_beta 145.053889
_cell_angle_gamma 90.000000
_cell_volume 3251.356360
_symmetry_space_group_name_H-M "C 2/M"
_symmetry_group_IT_number 12
_symmetry_cell_setting 'monoclinic'
loop_
_space_group_symop_operation_xyz
x,y,z
-x,y,-z
-x,-y,-z
x,-y,z
1/2+x,1/2+y,z
1/2-x,1/2+y,-z
1/2-x,1/2-y,-z
1/2+x,1/2-y,z
loop_
_atom_site_type_symbol
_atom_site_label
_atom_site_fract_x
_atom_site_fract_y
_atom_site_fract_z
Si Si1 0.390535 0.293666 0.969607
Si Si2 0.643808 0.199790 0.822919
Si Si3 0.622940 0.701945 0.948090
Si Si4 0.878874 0.696916 0.558154
Si Si5 0.228500 0.793552 0.704634
Si Si6 0.011932 0.204076 0.549658
Si Si7 0.906657 0.802314 0.288087
Si Si8 0.526537 0.801925 0.196470
O O1 0.390343 0.500000 0.968136
O O2 0.270177 0.234677 0.893424
O O3 0.500000 0.235768 0.000000
O O4 0.399532 0.244986 0.018927
O O5 0.606750 0.221957 0.760482
O O6 0.550850 0.271061 0.807141
O O7 0.650196 0.000000 0.834399
O O8 0.609995 0.500000 0.939320
O O9 0.542156 0.784716 0.876958
O O10 0.750000 0.750000 0.000000
O O11 0.888268 0.500000 0.570551
O O12 0.750000 0.750000 0.500000
O O13 0.918571 0.734178 0.533926
O O14 0.970629 0.782194 0.631692
O O15 0.131775 0.746630 0.626702
O O16 0.183730 0.736234 0.724688
O O17 0.349518 0.729924 0.750491
O O18 0.231434 0.000000 0.707800
O O19 0.000000 0.264036 0.500000
O O20 0.006444 0.000000 0.546927
O O21 0.885667 0.000000 0.272520
O O22 0.543496 0.000000 0.213805
#
# Coordination Sequence:
#
# PCOD9195705 Si02
#       8
#     8   8   8   8   8   8   8   8
#     4   9  19  35  53  77 109 143 182 228 278 331
#     4  10  20  35  55  79 109 146 185 227 278 333
#     4  11  21  36  57  79 104 140 180 229 281 330
#     4  11  22  38  60  86 116 153 194 236 284 337
#     4   8  17  34  55  78 109 145 180 223 272 324
#     4   9  18  35  59  87 118 153 191 232 281 336
#     4  10  21  38  57  81 113 147 185 230 280 333
#     4  10  20  36  55  78 109 145 185 226 274 333
#
# _framework density 19.684092
#
# number of rings (size 3 to 8) (size 9 to 14) (size 15 to 20)
#    0.000    2.250    1.250    2.625    1.750    1.750 
#    0.000    5.000    0.000    1.875    0.000    0.000 
#    0.000    0.000    0.000    0.000    0.000    0.000 
#
# Total GULP energy -178592.619107 kJ/mol
# GULP energy per Si atom -5581.019347 kJ/mol
# Density = 1.963929 g / cm^3
# Si number density = 19.684092 Si / 1000 Ang^3
#
#
#
# Elastic Constant Matrix: (Units=GPa)
#
#
# Indices 1 2 3 4 5 6 
#
# 1 197.8267 -3.7830 105.2784 -0.0001 14.1465 0.0000
# 2 -3.7830 16.0216 -13.3828 -0.0001 5.5208 -0.0003
# 3 105.2784 -13.3828 99.4898 -0.0001 9.1660 0.0001
# 4 -0.0001 -0.0001 -0.0001 21.9023 0.0001 -5.8643
# 5 14.1465 5.5208 9.1660 0.0001 41.5731 -0.0001
# 6 0.0000 -0.0003 0.0001 -5.8643 -0.0001 13.6374
#
#
#
# Elastic Compliance Matrix: (Units=1/GPa)
#
#
# Indices 1 2 3 4 5 6 
#
# 1 0.012683 -0.009333 -0.014692 0.000000 0.000163 0.000000
# 2 -0.009333 0.083196 0.022245 0.000001 -0.012777 0.000002
# 3 -0.014692 0.022245 0.028991 0.000000 -0.004346 0.000001
# 4 0.000000 0.000001 0.000000 0.051598 0.000000 0.022188
# 5 0.000163 -0.012777 -0.004346 0.000000 0.026654 0.000000
# 6 0.000000 0.000002 0.000001 0.022188 0.000000 0.082869
#
#
# Mechanical properties :
#
#
# Convention : Reuss Voigt Hill
#
# Bulk Modulus (GPa) = 8.24345 54.39590 31.31968
# Shear Modulus (GPa) = 15.15207 30.43760 22.79483
#
# Velocity S-wave (km/s) = 2.77747 3.93657 3.40668
# Velocity P-wave (km/s) = 3.80562 6.95389 5.60532
#
# Compressibility (1/GPa) = 0.12130843
#
# Stress axis : x y z
#
# Youngs Moduli (GPa) = 78.84266 12.01985 34.49379
#
# Poissons Ratio (x) = 0.11219 0.50678
# Poissons Ratio (y) = 0.73588 -0.76730
# Poissons Ratio (z) = 1.15835 -0.26738
#
# Static dielectric constant tensor:
#      x y z
#    x 1.683420 0.000000 0.010220 
#    y 0.000000 1.715230 0.000000 
#    z 0.010220 0.000000 1.711960 
# 
# From -- ./inp_files/378515.got.cif
#   From: 2010.05.17/outbox.cif.g08.bks.cpg/sg12_190_cif.got.tgz:378515.got - 2010.06.03 13:09:07.
