data_PCOD9195611
_publ_section_title
;
Structure prediction by ZEFSAII (Michael W. Deem and Ramdas Pophale) SiO2 
 PCOD9195611
Probable space group: C 2/M
;
_chemical_formula_sum "Si O2"
_cell_formula_units_Z 40
_cell_length_a 10.040454
_cell_length_b 10.551736
_cell_length_c 20.892314
_cell_angle_alpha 90.000000
_cell_angle_beta 66.717810
_cell_angle_gamma 90.000000
_cell_volume 2033.179554
_symmetry_space_group_name_H-M "C 2/M"
_symmetry_group_IT_number 12
_symmetry_cell_setting 'monoclinic'
loop_
_space_group_symop_operation_xyz
x,y,z
-x,y,-z
-x,-y,-z
x,-y,z
1/2+x,1/2+y,z
1/2-x,1/2+y,-z
1/2-x,1/2-y,-z
1/2+x,1/2-y,z
loop_
_atom_site_type_symbol
_atom_site_label
_atom_site_fract_x
_atom_site_fract_y
_atom_site_fract_z
Si Si1 0.603748 0.136983 0.059969
Si Si2 0.173078 0.646201 0.470180
Si Si3 0.690302 0.218842 0.904286
Si Si4 0.119708 0.856367 0.248678
Si Si5 0.778391 0.146390 0.303937
O O1 0.472994 0.236655 0.089369
O O2 0.723400 0.157033 0.090727
O O3 0.533666 0.000000 0.079742
O O4 0.672132 0.148972 0.976368
O O5 0.197079 0.500000 0.487853
O O6 0.250000 0.750000 0.500000
O O7 0.235002 0.655858 0.386641
O O8 0.000000 0.666992 0.500000
O O9 0.786488 0.149950 0.833861
O O10 0.187813 0.749231 0.281375
O O11 0.950885 0.830301 0.266242
O O12 0.128556 0.000000 0.273865
O O13 0.749905 0.000000 0.288787
#
# Coordination Sequence:
#
# PCOD9195611 Si02
#       5
#     8   8   8   8   8
#     4  10  20  36  54  75 105 137 179 229 273 319
#     4  10  21  38  60  85 113 145 182 224 269 318
#     4  10  20  35  55  78 104 140 181 224 272 322
#     4  11  22  37  57  81 112 148 184 223 274 328
#     4  10  23  39  56  84 116 144 181 226 268 323
#
# _framework density 19.673618999999999
#
# number of rings (size 3 to 8) (size 9 to 14) (size 15 to 20)
#    0.000    1.800    0.000    4.800    0.000    2.800 
#    0.000   10.000    0.000    0.000    0.000    0.000 
#    0.000    0.000    0.000    0.000    0.000    0.000 
#
# Total GULP energy -111566.802802 kJ/mol
# GULP energy per Si atom -5578.340140 kJ/mol
# Density = 1.962884 g / cm^3
# Si number density = 19.673619 Si / 1000 Ang^3
#
#
#
# Elastic Constant Matrix: (Units=GPa)
#
#
# Indices 1 2 3 4 5 6 
#
# 1 80.4539 53.2514 19.3432 0.0000 -0.9903 0.0000
# 2 53.2514 114.2153 15.8893 0.0000 27.4123 0.0000
# 3 19.3432 15.8893 51.9130 0.0000 -12.3510 0.0000
# 4 0.0000 0.0000 0.0000 18.0362 0.0000 3.4080
# 5 -0.9903 27.4123 -12.3510 0.0000 32.9041 0.0000
# 6 0.0000 0.0000 0.0000 3.4080 0.0000 34.8660
#
#
#
# Elastic Compliance Matrix: (Units=1/GPa)
#
#
# Indices 1 2 3 4 5 6 
#
# 1 0.020782 -0.011778 -0.001818 0.000000 0.009755 0.000000
# 2 -0.011778 0.019682 -0.006172 0.000000 -0.019068 0.000000
# 3 -0.001818 -0.006172 0.025299 0.000000 0.014584 0.000000
# 4 0.000000 0.000000 0.000000 0.056487 0.000000 -0.005521
# 5 0.009755 -0.019068 0.014584 0.000000 0.052045 0.000000
# 6 0.000000 0.000000 0.000000 -0.005521 0.000000 0.029221
#
#
# Mechanical properties :
#
#
# Convention : Reuss Voigt Hill
#
# Bulk Modulus (GPa) = 38.12795 47.06111 42.59453
# Shear Modulus (GPa) = 19.85746 27.70113 23.77929
#
# Velocity S-wave (km/s) = 3.18046 3.75645 3.48039
# Velocity P-wave (km/s) = 5.73668 6.54121 6.15211
#
# Compressibility (1/GPa) = 0.02622748
#
# Stress axis : x y z
#
# Youngs Moduli (GPa) = 48.11805 50.80836 39.52697
#
# Poissons Ratio (x) = 0.59841 0.07185
# Poissons Ratio (y) = 0.56673 0.24397
# Poissons Ratio (z) = 0.08747 0.31360
#
# Static dielectric constant tensor:
#      x y z
#    x 1.685600 0.000000 -0.005750 
#    y 0.000000 1.699410 0.000000 
#    z -0.005750 0.000000 1.668320 
# 
# From -- ./inp_files/254610.got.cif
#   From: 2010.05.17/outbox.cif.g08.bks.cpg/sg12_128_cif.got.tgz:254610.got - 2010.06.03 13:09:07.
