data_PCOD9195484
_publ_section_title
;
Structure prediction by ZEFSAII (Michael W. Deem and Ramdas Pophale) SiO2 
 PCOD9195484
Probable space group: C 2/M
;
_chemical_formula_sum "Si O2"
_cell_formula_units_Z 56
_cell_length_a 18.343418
_cell_length_b 11.416097
_cell_length_c 15.298153
_cell_angle_alpha 90.000000
_cell_angle_beta 119.586829
_cell_angle_gamma 90.000000
_cell_volume 2785.868837
_symmetry_space_group_name_H-M "C 2/M"
_symmetry_group_IT_number 12
_symmetry_cell_setting 'monoclinic'
loop_
_space_group_symop_operation_xyz
x,y,z
-x,y,-z
-x,-y,-z
x,-y,z
1/2+x,1/2+y,z
1/2-x,1/2+y,-z
1/2-x,1/2-y,-z
1/2+x,1/2-y,z
loop_
_atom_site_type_symbol
_atom_site_label
_atom_site_fract_x
_atom_site_fract_y
_atom_site_fract_z
Si Si1 0.895473 0.362828 0.321274
Si Si2 0.659078 0.134590 0.518785
Si Si3 0.351274 0.632386 0.607666
Si Si4 0.661333 0.370895 0.928940
Si Si5 0.771742 0.234678 0.864572
Si Si6 0.499342 0.242817 0.232179
Si Si7 0.572525 0.865844 0.112865
O O1 0.898877 0.500000 0.303266
O O2 0.894397 0.349794 0.424924
O O3 0.806866 0.312006 0.235615
O O4 0.968070 0.301631 0.308078
O O5 0.647953 0.250488 0.452768
O O6 0.759480 0.133749 0.597859
O O7 0.641390 0.000000 0.473961
O O8 0.358511 0.500000 0.572256
O O9 0.431488 0.655872 0.715825
O O10 0.632079 0.500000 0.890913
O O11 0.736125 0.335291 0.908202
O O12 0.584609 0.284844 0.865841
O O13 0.693289 0.359904 0.046424
O O14 0.847068 0.284709 0.852604
O O15 0.539250 0.147428 0.191639
O O16 0.595202 0.000000 0.108156
O O17 0.500000 0.833001 0.000000
#
# Coordination Sequence:
#
# PCOD9195484 Si02
#       7
#     8   8   8   8   8   8   8
#     4  10  21  38  60  86 117 156 197 245 294 348
#     4   9  20  40  64  89 118 155 201 245 296 360
#     4  10  21  40  65  91 122 155 193 248 303 355
#     4  10  20  35  54  79 110 148 191 237 286 345
#     4  10  20  36  56  80 109 151 197 237 286 349
#     4  11  22  37  57  87 119 152 196 239 295 357
#     4  11  22  37  55  80 116 154 196 248 296 346
#
# _framework density 20.101448999999999
#
# number of rings (size 3 to 8) (size 9 to 14) (size 15 to 20)
#    0.000    1.857    1.429    2.571    0.000    1.714 
#    0.000   12.143    0.000    0.000    0.000    0.000 
#    0.000    0.000    0.000    0.000    0.000    0.000 
#
# Total GULP energy -156125.348319 kJ/mol
# GULP energy per Si atom -5575.905297 kJ/mol
# Density = 2.005570 g / cm^3
# Si number density = 20.101449 Si / 1000 Ang^3
#
#
#
# Elastic Constant Matrix: (Units=GPa)
#
#
# Indices 1 2 3 4 5 6 
#
# 1 103.8352 30.4151 26.1885 0.0000 0.0380 0.0000
# 2 30.4151 85.5109 11.8958 0.0000 -6.6566 0.0000
# 3 26.1885 11.8958 33.2697 0.0000 1.1063 0.0000
# 4 0.0000 0.0000 0.0000 18.6949 0.0000 6.8241
# 5 0.0380 -6.6566 1.1063 0.0000 30.8684 0.0000
# 6 0.0000 0.0000 0.0000 6.8241 0.0000 10.0355
#
#
#
# Elastic Compliance Matrix: (Units=1/GPa)
#
#
# Indices 1 2 3 4 5 6 
#
# 1 0.012864 -0.003369 -0.008907 0.000000 -0.000423 0.000000
# 2 -0.003369 0.013438 -0.002252 0.000000 0.002983 0.000000
# 3 -0.008907 -0.002252 0.037935 0.000000 -0.001834 0.000000
# 4 0.000000 0.000000 0.000000 0.071152 0.000000 -0.048383
# 5 -0.000423 0.002983 -0.001834 0.000000 0.033105 0.000000
# 6 0.000000 0.000000 0.000000 -0.048383 0.000000 0.132546
#
#
# Mechanical properties :
#
#
# Convention : Reuss Voigt Hill
#
# Bulk Modulus (GPa) = 28.42504 39.95720 34.19112
# Shear Modulus (GPa) = 14.62737 22.19417 18.41077
#
# Velocity S-wave (km/s) = 2.70048 3.32642 3.02966
# Velocity P-wave (km/s) = 4.88824 5.88849 5.41153
#
# Compressibility (1/GPa) = 0.03518025
#
# Stress axis : x y z
#
# Youngs Moduli (GPa) = 77.73435 74.41389 26.36087
#
# Poissons Ratio (x) = 0.25074 0.23481
# Poissons Ratio (y) = 0.26192 0.05936
# Poissons Ratio (z) = 0.69241 0.16757
#
# Static dielectric constant tensor:
#      x y z
#    x 1.687490 0.000000 0.006420 
#    y 0.000000 1.695550 0.000000 
#    z 0.006420 0.000000 1.735000 
# 
# From -- ./inp_files/223902.got.cif
#   From: 2010.05.17/outbox.cif.g08.bks.cpg/sg12_112_cif.got.tgz:223902.got - 2010.06.03 13:09:07.
