data_PCOD9195730
_publ_section_title
;
Structure prediction by ZEFSAII (Michael W. Deem and Ramdas Pophale) SiO2 
 PCOD9195730
Probable space group: C 2/M
;
_chemical_formula_sum "Si O2"
_cell_formula_units_Z 60
_cell_length_a 9.494932
_cell_length_b 24.783170
_cell_length_c 18.109821
_cell_angle_alpha 90.000000
_cell_angle_beta 131.205057
_cell_angle_gamma 90.000000
_cell_volume 3206.171175
_symmetry_space_group_name_H-M "C 2/M"
_symmetry_group_IT_number 12
_symmetry_cell_setting 'monoclinic'
loop_
_space_group_symop_operation_xyz
x,y,z
-x,y,-z
-x,-y,-z
x,-y,z
1/2+x,1/2+y,z
1/2-x,1/2+y,-z
1/2-x,1/2-y,-z
1/2+x,1/2-y,z
loop_
_atom_site_type_symbol
_atom_site_label
_atom_site_fract_x
_atom_site_fract_y
_atom_site_fract_z
Si Si1 0.286670 0.759759 0.427504
Si Si2 0.968458 0.163010 0.255978
Si Si3 0.578308 0.063820 0.791976
Si Si4 0.479510 0.408830 0.860701
Si Si5 0.500000 0.329301 0.000000
Si Si6 0.381959 0.059870 0.023299
Si Si7 0.166226 0.259956 0.889781
Si Si8 0.167389 0.335618 0.276862
O O1 0.500000 0.777998 0.500000
O O2 0.250000 0.750000 0.500000
O O3 0.254003 0.705530 0.367431
O O4 0.143383 0.804381 0.348784
O O5 0.867880 0.205377 0.166121
O O6 0.825557 0.147752 0.272023
O O7 0.037334 0.115617 0.226459
O O8 0.780503 0.069560 0.821580
O O9 0.606604 0.078438 0.888472
O O10 0.432778 0.111818 0.720982
O O11 0.522644 0.000000 0.765654
O O12 0.544548 0.365540 0.945055
O O13 0.666608 0.444179 0.925219
O O14 0.333471 0.293300 0.911123
O O15 0.466757 0.000000 0.058392
O O16 0.500000 0.089816 0.000000
O O17 0.985480 0.298308 0.819214
O O18 0.250000 0.250000 0.000000
#
# Coordination Sequence:
#
# PCOD9195730 Si02
#       8
#     8   8   8   8   4   8   8   8
#     4  11  24  44  69  97 126 156 196 250 314 384
#     4  11  25  36  60  93 124 161 203 248 310 375
#     4  11  23  39  59  84 120 166 215 263 304 353
#     4  12  21  35  54  82 119 160 213 252 295 357
#     4  12  20  32  47  76 114 172 197 238 280 344
#     4  10  20  35  55  79 114 163 214 260 301 347
#     4  11  21  34  52  82 130 165 197 239 297 365
#     4  11  23  40  61  92 123 161 210 250 305 372
#
# _framework density 18.713909999999998
#
# number of rings (size 3 to 8) (size 9 to 14) (size 15 to 20)
#    0.000    0.933    5.333    2.000    3.733    1.067 
#    1.200    0.667    0.000    0.400    0.000    0.933 
#    0.000    0.000    0.000    0.000    0.000    0.000 
#
# Total GULP energy -167198.837011 kJ/mol
# GULP energy per Si atom -5573.294567 kJ/mol
# Density = 1.867132 g / cm^3
# Si number density = 18.713910 Si / 1000 Ang^3
#
#
#
# Elastic Constant Matrix: (Units=GPa)
#
#
# Indices 1 2 3 4 5 6 
#
# 1 120.3630 15.0748 19.3020 0.0000 2.4297 0.0000
# 2 15.0748 56.8746 9.8267 0.0000 3.4822 0.0000
# 3 19.3020 9.8267 78.4361 0.0000 -1.3199 0.0000
# 4 0.0000 0.0000 0.0000 100.3981 0.0000 79.0735
# 5 2.4297 3.4822 -1.3199 0.0000 32.6939 0.0000
# 6 0.0000 0.0000 0.0000 79.0735 0.0000 92.4763
#
#
#
# Elastic Compliance Matrix: (Units=1/GPa)
#
#
# Indices 1 2 3 4 5 6 
#
# 1 0.008879 -0.001985 -0.001945 0.000000 -0.000527 0.000000
# 2 -0.001985 0.018548 -0.001867 0.000000 -0.001903 0.000000
# 3 -0.001945 -0.001867 0.013477 0.000000 0.000888 0.000000
# 4 0.000000 0.000000 0.000000 0.030502 0.000000 -0.026081
# 5 -0.000527 -0.001903 0.000888 0.000000 0.030864 0.000000
# 6 0.000000 0.000000 0.000000 -0.026081 0.000000 0.033115
#
#
# Mechanical properties :
#
#
# Convention : Reuss Voigt Hill
#
# Bulk Modulus (GPa) = 34.11946 38.23118 36.17532
# Shear Modulus (GPa) = 31.89790 59.21168 45.55479
#
# Velocity S-wave (km/s) = 4.13304 5.63109 4.93919
# Velocity P-wave (km/s) = 6.40685 7.92165 7.20417
#
# Compressibility (1/GPa) = 0.02930879
#
# Stress axis : x y z
#
# Youngs Moduli (GPa) = 112.61999 53.91455 74.20161
#
# Poissons Ratio (x) = 0.10703 0.14434
# Poissons Ratio (y) = 0.22357 0.13855
# Poissons Ratio (z) = 0.21908 0.10067
#
# Static dielectric constant tensor:
#      x y z
#    x 1.732990 0.000000 -0.002350 
#    y 0.000000 1.716480 0.000000 
#    z -0.002350 0.000000 1.632820 
# 
# From -- ./inp_files/259731.got.cif
#   From: 2010.05.17/outbox.cif.g08.bks.cpg/sg12_130_cif.got.tgz:259731.got - 2010.06.03 13:09:07.
