data_PCOD9195419
_publ_section_title
;
Structure prediction by ZEFSAII (Michael W. Deem and Ramdas Pophale) SiO2 
 PCOD9195419
Probable space group: C 2/M
;
_chemical_formula_sum "Si O2"
_cell_formula_units_Z 40
_cell_length_a 6.772434
_cell_length_b 25.100743
_cell_length_c 13.608842
_cell_angle_alpha 90.000000
_cell_angle_beta 40.816647
_cell_angle_gamma 90.000000
_cell_volume 1512.138237
_symmetry_space_group_name_H-M "C 2/M"
_symmetry_group_IT_number 12
_symmetry_cell_setting 'monoclinic'
loop_
_space_group_symop_operation_xyz
x,y,z
-x,y,-z
-x,-y,-z
x,-y,z
1/2+x,1/2+y,z
1/2-x,1/2+y,-z
1/2-x,1/2-y,-z
1/2+x,1/2-y,z
loop_
_atom_site_type_symbol
_atom_site_label
_atom_site_fract_x
_atom_site_fract_y
_atom_site_fract_z
Si Si1 0.290898 0.555032 0.984512
Si Si2 0.844107 0.295854 0.360003
Si Si3 0.603898 0.677572 0.707597
Si Si4 0.359182 0.558992 0.350854
Si Si5 0.299775 0.168965 0.955992
O O1 0.113067 0.500000 0.051460
O O2 0.512294 0.556691 0.808619
O O3 0.500000 0.554688 0.000000
O O4 0.100500 0.607874 0.066045
O O5 0.500000 0.314440 0.500000
O O6 0.858526 0.231837 0.366930
O O7 0.093919 0.324200 0.335904
O O8 0.956737 0.303296 0.204312
O O9 0.573338 0.622489 0.658400
O O10 0.326474 0.686015 0.889860
O O11 0.457264 0.500000 0.358376
O O12 0.000000 0.557330 0.500000
O O13 0.000000 0.170116 0.000000
#
# Coordination Sequence:
#
# PCOD9195419 Si02
#       5
#     8   8   8   8   8
#     4   8  13  24  45  71  98 133 176 217 258 309
#     4  11  21  33  50  76 109 141 176 219 266 317
#     4  10  20  35  54  77 106 140 177 217 266 321
#     4   9  17  30  51  79 106 133 174 226 268 307
#     4   8  16  30  48  71 101 136 175 217 260 315
#
# _framework density 26.452607
#
# number of rings (size 3 to 8) (size 9 to 14) (size 15 to 20)
#    0.000    2.800    0.000    3.000    0.000    0.000 
#    0.000    0.000    0.000    2.400    0.000    2.800 
#    0.000   21.600    0.000    0.000    0.000    0.000 
#
# Total GULP energy -111669.871392 kJ/mol
# GULP energy per Si atom -5583.493570 kJ/mol
# Density = 2.639240 g / cm^3
# Si number density = 26.452607 Si / 1000 Ang^3
#
#
#
# Elastic Constant Matrix: (Units=GPa)
#
#
# Indices 1 2 3 4 5 6 
#
# 1 105.6347 22.3211 33.3946 0.0000 -9.3409 0.0000
# 2 22.3211 203.8811 57.0847 0.0000 10.7461 0.0000
# 3 33.3946 57.0847 189.6156 0.0000 -33.6048 0.0000
# 4 0.0000 0.0000 0.0000 22.9143 0.0000 18.1102
# 5 -9.3409 10.7461 -33.6048 0.0000 45.5707 0.0000
# 6 0.0000 0.0000 0.0000 18.1102 0.0000 -2.5440
#
#
#
# Elastic Compliance Matrix: (Units=1/GPa)
#
#
# Indices 1 2 3 4 5 6 
#
# 1 0.010170 -0.000814 -0.001314 0.000000 0.001307 0.000000
# 2 -0.000814 0.005756 -0.002139 0.000000 -0.003102 0.000000
# 3 -0.001314 -0.002139 0.007122 0.000000 0.005487 0.000000
# 4 0.000000 0.000000 0.000000 0.006586 0.000000 0.046884
# 5 0.001307 -0.003102 0.005487 0.000000 0.026989 0.000000
# 6 0.000000 0.000000 0.000000 0.046884 0.000000 -0.059321
#
#
# Mechanical properties :
#
#
# Convention : Reuss Voigt Hill
#
# Bulk Modulus (GPa) = 68.90751 80.52580 74.71666
# Shear Modulus (GPa) = 468.37293 38.94361 253.65827
#
# Velocity S-wave (km/s) = 13.32087 3.84109 9.80305
# Velocity P-wave (km/s) = 16.20802 7.08376 12.50759
#
# Compressibility (1/GPa) = 0.01451221
#
# Stress axis : x y z
#
# Youngs Moduli (GPa) = 98.33099 173.71774 140.41512
#
# Poissons Ratio (x) = 0.14147 0.18453
# Poissons Ratio (y) = 0.08008 0.30040
# Poissons Ratio (z) = 0.12922 0.37164
#
# Static dielectric constant tensor:
#      x y z
#    x 2.179690 0.000000 -0.012830 
#    y 0.000000 2.177000 0.000000 
#    z -0.012830 0.000000 2.049650 
# 
# From -- ./inp_files/259635.got.cif
#   From: 2010.05.17/outbox.cif.g08.bks.cpg/sg12_130_cif.got.tgz:259635.got - 2010.06.03 13:09:07.
