data_PCOD9195662
_publ_section_title
;
Structure prediction by ZEFSAII (Michael W. Deem and Ramdas Pophale) SiO2 
 PCOD9195662
Probable space group: C 2/M
;
_chemical_formula_sum "Si O2"
_cell_formula_units_Z 48
_cell_length_a 15.837523
_cell_length_b 9.511796
_cell_length_c 16.393963
_cell_angle_alpha 90.000000
_cell_angle_beta 115.201163
_cell_angle_gamma 90.000000
_cell_volume 2234.576179
_symmetry_space_group_name_H-M "C 2/M"
_symmetry_group_IT_number 12
_symmetry_cell_setting 'monoclinic'
loop_
_space_group_symop_operation_xyz
x,y,z
-x,y,-z
-x,-y,-z
x,-y,z
1/2+x,1/2+y,z
1/2-x,1/2+y,-z
1/2-x,1/2-y,-z
1/2+x,1/2-y,z
loop_
_atom_site_type_symbol
_atom_site_label
_atom_site_fract_x
_atom_site_fract_y
_atom_site_fract_z
Si Si1 0.898226 0.168347 0.284274
Si Si2 0.731569 0.666635 0.619069
Si Si3 0.386139 0.334934 0.592226
Si Si4 0.580295 0.339850 0.104618
Si Si5 0.461350 0.842398 0.164254
Si Si6 0.310909 0.843946 0.965589
O O1 0.820204 0.206183 0.318565
O O2 0.896583 0.265084 0.203603
O O3 0.003589 0.194252 0.360912
O O4 0.891853 0.000000 0.264906
O O5 0.750357 0.500000 0.630327
O O6 0.657746 0.691382 0.515060
O O7 0.824681 0.746645 0.630524
O O8 0.373904 0.500000 0.605160
O O9 0.609701 0.500000 0.130832
O O10 0.540009 0.267336 0.168840
O O11 0.500000 0.346265 0.000000
O O12 0.661115 0.240890 0.102813
O O13 0.404504 0.860716 0.057234
O O14 0.490899 0.000000 0.202438
O O15 0.272500 0.000000 0.934217
O O16 0.250000 0.750000 0.000000
#
# Coordination Sequence:
#
# PCOD9195662 Si02
#       6
#     8   8   8   8   8   8
#     4  10  20  35  55  79 110 149 185 223 275 333
#     4   9  18  34  56  81 109 142 185 230 272 325
#     4   9  18  34  56  81 108 142 184 229 275 325
#     4   9  17  32  55  77  99 131 170 212 259 315
#     4  10  21  36  53  77 108 139 175 221 268 320
#     4  10  20  35  55  79 105 137 178 223 268 318
#
# _framework density 21.480582999999999
#
# number of rings (size 3 to 8) (size 9 to 14) (size 15 to 20)
#    0.000    2.500    0.000    2.000    0.000    7.333 
#    3.000    0.000    0.000    5.000    0.000    0.000 
#    0.000    0.000    0.000    0.000    0.000    0.000 
#
# Total GULP energy -133996.484792 kJ/mol
# GULP energy per Si atom -5583.186866 kJ/mol
# Density = 2.143169 g / cm^3
# Si number density = 21.480583 Si / 1000 Ang^3
#
#
#
# Elastic Constant Matrix: (Units=GPa)
#
#
# Indices 1 2 3 4 5 6 
#
# 1 84.6851 53.3969 40.1551 0.0000 -43.8944 0.0000
# 2 53.3969 137.8979 35.0040 0.0000 -41.0432 0.0000
# 3 40.1551 35.0040 79.5647 0.0000 -18.1857 0.0000
# 4 0.0000 0.0000 0.0000 20.3975 0.0000 -8.8063
# 5 -43.8944 -41.0432 -18.1857 0.0000 53.7167 0.0000
# 6 0.0000 0.0000 0.0000 -8.8063 0.0000 33.4499
#
#
#
# Elastic Compliance Matrix: (Units=1/GPa)
#
#
# Indices 1 2 3 4 5 6 
#
# 1 0.025957 -0.003252 -0.008009 0.000000 0.016015 0.000000
# 2 -0.003252 0.010361 -0.001859 0.000000 0.004630 0.000000
# 3 -0.008009 -0.001859 0.016917 0.000000 -0.002238 0.000000
# 4 0.000000 0.000000 0.000000 0.055313 0.000000 0.014562
# 5 0.016015 0.004630 -0.002238 0.000000 0.034483 0.000000
# 6 0.000000 0.000000 0.000000 0.014562 0.000000 0.033729
#
#
# Mechanical properties :
#
#
# Convention : Reuss Voigt Hill
#
# Bulk Modulus (GPa) = 37.04319 62.13996 49.59157
# Shear Modulus (GPa) = 23.58518 33.08559 28.33539
#
# Velocity S-wave (km/s) = 3.31717 3.92887 3.63590
# Velocity P-wave (km/s) = 5.65278 7.04078 6.38461
#
# Compressibility (1/GPa) = 0.02699552
#
# Stress axis : x y z
#
# Youngs Moduli (GPa) = 38.52457 96.51863 59.11256
#
# Poissons Ratio (x) = 0.31383 0.47345
# Poissons Ratio (y) = 0.12526 0.10988
# Poissons Ratio (z) = 0.30856 0.17942
#
# Static dielectric constant tensor:
#      x y z
#    x 1.794710 0.000000 0.069580 
#    y 0.000000 1.738830 0.000000 
#    z 0.069580 0.000000 1.823340 
# 
# From -- ./inp_files/273694.got.cif
#   From: 2010.05.17/outbox.cif.g08.bks.cpg/sg12_137_cif.got.tgz:273694.got - 2010.06.03 13:09:07.
