data_PCOD9195235
_publ_section_title
;
Structure prediction by ZEFSAII (Michael W. Deem and Ramdas Pophale) SiO2 
 PCOD9195235
Probable space group: C 2/M
;
_chemical_formula_sum "Si O2"
_cell_formula_units_Z 42
_cell_length_a 16.319828
_cell_length_b 16.010989
_cell_length_c 19.640417
_cell_angle_alpha 90.000000
_cell_angle_beta 159.518929
_cell_angle_gamma 90.000000
_cell_volume 1795.666952
_symmetry_space_group_name_H-M "C 2/M"
_symmetry_group_IT_number 12
_symmetry_cell_setting 'monoclinic'
loop_
_space_group_symop_operation_xyz
x,y,z
-x,y,-z
-x,-y,-z
x,-y,z
1/2+x,1/2+y,z
1/2-x,1/2+y,-z
1/2-x,1/2-y,-z
1/2+x,1/2-y,z
loop_
_atom_site_type_symbol
_atom_site_label
_atom_site_fract_x
_atom_site_fract_y
_atom_site_fract_z
Si Si1 0.500000 0.000000 0.500000
Si Si2 0.442336 0.141649 0.186909
Si Si3 0.519421 0.407671 0.936210
Si Si4 0.542844 0.340695 0.454952
Si Si5 0.691176 0.849441 0.571219
Si Si6 0.897271 0.165800 0.200246
O O1 0.474087 0.075108 0.538311
O O2 0.708406 0.123067 0.376205
O O3 0.426473 0.235212 0.206597
O O4 0.284544 0.090384 0.116758
O O5 0.304444 0.137101 0.007789
O O6 0.403347 0.500000 0.831637
O O7 0.382190 0.343967 0.781589
O O8 0.500000 0.389937 0.000000
O O9 0.500000 0.364507 0.500000
O O10 0.569985 0.239619 0.473406
O O11 0.365109 0.356675 0.254112
O O12 0.853801 0.868785 0.633307
#
# Coordination Sequence:
#
# PCOD9195235 Si02
#       6
#     2   8   8   8   8   8
#     4  12  20  32  54  88 126 150 188 228 300 374
#     4   9  19  37  58  80 115 160 191 249 295 340
#     4  10  21  35  54  85 122 157 194 233 295 373
#     4  11  22  36  60  88 114 155 205 251 287 344
#     4  10  20  35  52  83 121 158 189 234 295 360
#     4   9  20  38  56  81 115 156 206 242 288 348
#
# _framework density 23.389638999999999
#
# number of rings (size 3 to 8) (size 9 to 14) (size 15 to 20)
#    0.000    2.095    1.905    3.429    2.667    2.286 
#    0.000    0.000    0.000    0.571    0.000    2.667 
#    0.000    0.000    0.000    0.000    0.000    0.000 
#
# Total GULP energy -117137.398456 kJ/mol
# GULP energy per Si atom -5577.971355 kJ/mol
# Density = 2.333640 g / cm^3
# Si number density = 23.389639 Si / 1000 Ang^3
#
#
#
# Elastic Constant Matrix: (Units=GPa)
#
#
# Indices 1 2 3 4 5 6 
#
# 1 182.9437 8.6068 76.4429 0.0150 -50.2348 -0.0145
# 2 8.6068 34.8125 3.6379 0.0348 11.6318 -0.0003
# 3 76.4429 3.6379 78.7364 0.0290 -16.8245 -0.0063
# 4 0.0150 0.0348 0.0290 37.4313 0.0093 5.3556
# 5 -50.2348 11.6318 -16.8245 0.0093 46.0467 -0.0078
# 6 -0.0145 -0.0003 -0.0063 5.3556 -0.0078 27.7032
#
#
#
# Elastic Compliance Matrix: (Units=1/GPa)
#
#
# Indices 1 2 3 4 5 6 
#
# 1 0.013438 -0.006492 -0.010048 0.000004 0.012629 0.000007
# 2 -0.006492 0.035376 0.001351 -0.000027 -0.015525 -0.000002
# 3 -0.010048 0.001351 0.021670 -0.000013 -0.003385 0.000001
# 4 0.000004 -0.000027 -0.000013 0.027476 0.000000 -0.005312
# 5 0.012629 -0.015525 -0.003385 0.000000 0.038179 0.000016
# 6 0.000007 -0.000002 0.000001 -0.005312 0.000016 0.037124
#
#
# Mechanical properties :
#
#
# Convention : Reuss Voigt Hill
#
# Bulk Modulus (GPa) = 24.93364 52.65198 38.79281
# Shear Modulus (GPa) = 23.04043 36.08991 29.56517
#
# Velocity S-wave (km/s) = 3.14199 3.93235 3.55917
# Velocity P-wave (km/s) = 4.88324 6.57096 5.78894
#
# Compressibility (1/GPa) = 0.04010646
#
# Stress axis : x y z
#
# Youngs Moduli (GPa) = 74.41682 28.26736 46.14652
#
# Poissons Ratio (x) = 0.18351 0.46368
# Poissons Ratio (y) = 0.48310 -0.06233
# Poissons Ratio (z) = 0.74774 -0.03818
#
# Static dielectric constant tensor:
#      x y z
#    x 1.861920 0.000000 -0.105750 
#    y 0.000000 1.890940 -0.000010 
#    z -0.105750 -0.000010 1.728780 
# 
# From -- ./inp_files/317437.got.cif
#   From: 2010.05.17/outbox.cif.g08.bks.cpg/sg12_159_cif.got.tgz:317437.got - 2010.06.03 13:09:07.
