data_PCOD9195107
_publ_section_title
;
Structure prediction by ZEFSAII (Michael W. Deem and Ramdas Pophale) SiO2 
 PCOD9195107
Probable space group: C 2/M
;
_chemical_formula_sum "Si O2"
_cell_formula_units_Z 52
_cell_length_a 13.052812
_cell_length_b 18.856849
_cell_length_c 12.007494
_cell_angle_alpha 90.000000
_cell_angle_beta 68.482771
_cell_angle_gamma 90.000000
_cell_volume 2749.489223
_symmetry_space_group_name_H-M "C 2/M"
_symmetry_group_IT_number 12
_symmetry_cell_setting 'monoclinic'
loop_
_space_group_symop_operation_xyz
x,y,z
-x,y,-z
-x,-y,-z
x,-y,z
1/2+x,1/2+y,z
1/2-x,1/2+y,-z
1/2-x,1/2-y,-z
1/2+x,1/2-y,z
loop_
_atom_site_type_symbol
_atom_site_label
_atom_site_fract_x
_atom_site_fract_y
_atom_site_fract_z
Si Si1 0.193650 0.000000 0.767483
Si Si2 0.121116 0.735164 0.941738
Si Si3 0.615972 0.500000 0.026025
Si Si4 0.511699 0.300266 0.628566
Si Si5 0.557246 0.000000 0.357537
Si Si6 0.943824 0.649230 0.643214
Si Si7 0.658841 0.651042 0.125120
Si Si8 0.819144 0.156603 0.277865
O O1 0.313342 0.000000 0.665365
O O2 0.141158 0.075713 0.760223
O O3 0.208576 0.000000 0.893455
O O4 0.215396 0.675042 0.900425
O O5 0.135540 0.787905 0.830541
O O6 0.129994 0.789347 0.043310
O O7 0.000000 0.703296 0.000000
O O8 0.500000 0.500000 0.000000
O O9 0.634535 0.572851 0.085765
O O10 0.500000 0.305456 0.500000
O O11 0.493426 0.219268 0.674896
O O12 0.417656 0.340967 0.735315
O O13 0.631348 0.323641 0.622705
O O14 0.500000 0.000000 0.500000
O O15 0.533724 0.074189 0.307608
O O16 0.812718 0.658548 0.680595
O O17 0.000000 0.645092 0.500000
#
# Coordination Sequence:
#
# PCOD9195107 Si02
#       8
#     4   8   4   8   4   8   8   8
#     4  10  20  34  62  90 115 153 195 258 303 344
#     4  11  21  38  63  88 122 157 196 257 312 358
#     4  12  22  38  65  95 122 156 203 257 306 358
#     4  11  23  37  58  89 120 163 201 248 304 362
#     4   8  16  32  56  81 116 144 190 247 289 341
#     4   9  19  35  56  85 116 157 196 246 299 352
#     4  11  23  39  62  93 121 154 207 256 307 368
#     4  11  20  38  59  89 121 151 207 248 306 363
#
# _framework density 18.912603000000001
#
# number of rings (size 3 to 8) (size 9 to 14) (size 15 to 20)
#    0.000    1.538    4.615    1.385    0.000    2.462 
#    0.000    1.923    0.000    0.923    0.000    0.000 
#    0.000    0.000    0.000    0.000    0.000    0.000 
#
# Total GULP energy -144810.733072 kJ/mol
# GULP energy per Si atom -5569.643580 kJ/mol
# Density = 1.886956 g / cm^3
# Si number density = 18.912603 Si / 1000 Ang^3
#
#
#
# Elastic Constant Matrix: (Units=GPa)
#
#
# Indices 1 2 3 4 5 6 
#
# 1 46.9472 40.6327 29.9573 0.0000 -15.1453 0.0000
# 2 40.6327 153.5199 26.6174 0.0000 4.8072 0.0000
# 3 29.9573 26.6174 89.4188 0.0000 -5.1350 0.0000
# 4 0.0000 0.0000 0.0000 27.7662 0.0000 3.9913
# 5 -15.1453 4.8072 -5.1350 0.0000 31.9379 0.0000
# 6 0.0000 0.0000 0.0000 3.9913 0.0000 -1.2478
#
#
#
# Elastic Compliance Matrix: (Units=1/GPa)
#
#
# Indices 1 2 3 4 5 6 
#
# 1 0.043451 -0.010357 -0.010296 0.000000 0.020509 0.000000
# 2 -0.010357 0.009398 0.000312 0.000000 -0.006276 0.000000
# 3 -0.010296 0.000312 0.014390 0.000000 -0.002616 0.000000
# 4 0.000000 0.000000 0.000000 0.024671 0.000000 0.078915
# 5 0.020509 -0.006276 -0.002616 0.000000 0.041560 0.000000
# 6 0.000000 0.000000 0.000000 0.078915 0.000000 -0.548988
#
#
# Mechanical properties :
#
#
# Convention : Reuss Voigt Hill
#
# Bulk Modulus (GPa) = 37.65722 53.81118 45.73420
# Shear Modulus (GPa) = -13.66181 24.53649 5.43734
#
# Velocity S-wave (km/s) = -2.69060 3.60580 1.69742
# Velocity P-wave (km/s) = 3.20967 6.77126 5.29868
#
# Compressibility (1/GPa) = 0.02655534
#
# Stress axis : x y z
#
# Youngs Moduli (GPa) = 23.01439 106.41088 69.49435
#
# Poissons Ratio (x) = 1.10214 0.71553
# Poissons Ratio (y) = 0.23837 -0.02169
# Poissons Ratio (z) = 0.23696 -0.03322
#
# Static dielectric constant tensor:
#      x y z
#    x 1.686610 0.000000 -0.029370 
#    y 0.000000 1.723890 0.000000 
#    z -0.029370 0.000000 1.666670 
# 
# From -- ./inp_files/133114.got.cif
#   From: 2010.05.17/outbox.cif.g08.bks.cpg/sg12_67_cif.got.tgz:133114.got - 2010.06.03 13:09:07.
