data_PCOD9195951
_publ_section_title
;
Structure prediction by ZEFSAII (Michael W. Deem and Ramdas Pophale) SiO2 
 PCOD9195951
Probable space group: C 2/M
;
_chemical_formula_sum "Si O2"
_cell_formula_units_Z 64
_cell_length_a 8.284706
_cell_length_b 21.535203
_cell_length_c 16.328860
_cell_angle_alpha 90.000000
_cell_angle_beta 107.418351
_cell_angle_gamma 90.000000
_cell_volume 2779.688232
_symmetry_space_group_name_H-M "C 2/M"
_symmetry_group_IT_number 12
_symmetry_cell_setting 'monoclinic'
loop_
_space_group_symop_operation_xyz
x,y,z
-x,y,-z
-x,-y,-z
x,-y,z
1/2+x,1/2+y,z
1/2-x,1/2+y,-z
1/2-x,1/2-y,-z
1/2+x,1/2-y,z
loop_
_atom_site_type_symbol
_atom_site_label
_atom_site_fract_x
_atom_site_fract_y
_atom_site_fract_z
Si Si1 0.856616 0.800717 0.919318
Si Si2 0.877452 0.809527 0.171050
Si Si3 0.971139 0.192988 0.376918
Si Si4 0.360551 0.827727 0.416757
Si Si5 0.828895 0.431760 0.846641
Si Si6 0.730686 0.068112 0.903417
Si Si7 0.231101 0.068175 0.286648
Si Si8 0.881986 0.932762 0.340563
O O1 0.712604 0.751263 0.878986
O O2 0.803388 0.867286 0.947697
O O3 0.944560 0.814071 0.846308
O O4 0.000000 0.773260 0.000000
O O5 0.765888 0.870726 0.136097
O O6 0.913090 0.803532 0.272747
O O7 0.169860 0.181962 0.419432
O O8 0.884171 0.129289 0.394134
O O9 0.920080 0.258820 0.403540
O O10 0.500000 0.853506 0.500000
O O11 0.338906 0.875118 0.338177
O O12 0.771167 0.500000 0.869380
O O13 0.780576 0.431915 0.743026
O O14 0.029195 0.428357 0.886998
O O15 0.768772 0.068755 0.811611
O O16 0.788718 0.000000 0.942847
O O17 0.044479 0.071482 0.301849
O O18 0.299214 0.000000 0.321116
O O19 0.892894 0.000000 0.383455
#
# Coordination Sequence:
#
# PCOD9195951 Si02
#       8
#     8   8   8   8   8   8   8   8
#     4  12  25  40  59  85 118 150 187 242 303 352
#     4  11  22  39  62  84 110 150 197 238 287 351
#     4  10  20  35  56  79 104 144 188 228 275 339
#     4  11  22  35  52  79 115 148 183 233 291 341
#     4   9  18  33  57  87 113 140 182 236 284 330
#     4  10  20  36  58  85 115 148 192 240 285 342
#     4   9  18  34  57  81 107 145 193 238 280 334
#     4   8  15  30  52  78 103 133 180 232 277 324
#
# _framework density 23.024165
#
# number of rings (size 3 to 8) (size 9 to 14) (size 15 to 20)
#    0.000    2.000    0.000    5.250    0.000    5.000 
#    0.000    0.000    0.000    2.250    0.000    0.000 
#    0.000    0.000    0.000    0.000    0.000    0.000 
#
# Total GULP energy -178734.016022 kJ/mol
# GULP energy per Si atom -5585.438001 kJ/mol
# Density = 2.297176 g / cm^3
# Si number density = 23.024165 Si / 1000 Ang^3
#
#
#
# Elastic Constant Matrix: (Units=GPa)
#
#
# Indices 1 2 3 4 5 6 
#
# 1 41.5695 32.4125 9.7547 0.0000 13.7153 0.0000
# 2 32.4125 155.7512 22.7716 0.0000 10.4348 0.0000
# 3 9.7547 22.7716 73.9249 0.0000 10.7007 0.0000
# 4 0.0000 0.0000 0.0000 42.3069 0.0000 -7.1427
# 5 13.7153 10.4348 10.7007 0.0000 30.2676 0.0000
# 6 0.0000 0.0000 0.0000 -7.1427 0.0000 30.6629
#
#
#
# Elastic Compliance Matrix: (Units=1/GPa)
#
#
# Indices 1 2 3 4 5 6 
#
# 1 0.033017 -0.005920 -0.000699 0.000000 -0.012673 0.000000
# 2 -0.005920 0.007866 -0.001726 0.000000 0.000581 0.000000
# 3 -0.000699 -0.001726 0.014775 0.000000 -0.004312 0.000000
# 4 0.000000 0.000000 0.000000 0.024604 0.000000 0.005731
# 5 -0.012673 0.000581 -0.004312 0.000000 0.040105 0.000000
# 6 0.000000 0.000000 0.000000 0.005731 0.000000 0.033948
#
#
# Mechanical properties :
#
#
# Convention : Reuss Voigt Hill
#
# Bulk Modulus (GPa) = 25.66115 44.56925 35.11520
# Shear Modulus (GPa) = 27.17468 34.40127 30.78798
#
# Velocity S-wave (km/s) = 3.43923 3.86960 3.66075
# Velocity P-wave (km/s) = 5.19043 6.27413 5.75783
#
# Compressibility (1/GPa) = 0.03896942
#
# Stress axis : x y z
#
# Youngs Moduli (GPa) = 30.28722 127.13178 67.68071
#
# Poissons Ratio (x) = 0.75259 0.04729
# Poissons Ratio (y) = 0.17929 0.11681
# Poissons Ratio (z) = 0.02116 0.21942
#
# Static dielectric constant tensor:
#      x y z
#    x 1.862280 0.000000 -0.023620 
#    y 0.000000 1.904270 0.000000 
#    z -0.023620 0.000000 1.841280 
# 
# From -- ./inp_files/301731.got.cif
#   From: 2010.05.17/outbox.cif.g08.bks.cpg/sg12_151_cif.got.tgz:301731.got - 2010.06.03 13:09:07.
