data_PCOD9195432
_publ_section_title
;
Structure prediction by ZEFSAII (Michael W. Deem and Ramdas Pophale) SiO2 
 PCOD9195432
Probable space group: C 2/M
;
_chemical_formula_sum "Si O2"
_cell_formula_units_Z 64
_cell_length_a 18.693037
_cell_length_b 28.213800
_cell_length_c 13.288896
_cell_angle_alpha 90.000000
_cell_angle_beta 153.469778
_cell_angle_gamma 90.000000
_cell_volume 3130.523345
_symmetry_space_group_name_H-M "C 2/M"
_symmetry_group_IT_number 12
_symmetry_cell_setting 'monoclinic'
loop_
_space_group_symop_operation_xyz
x,y,z
-x,y,-z
-x,-y,-z
x,-y,z
1/2+x,1/2+y,z
1/2-x,1/2+y,-z
1/2-x,1/2-y,-z
1/2+x,1/2-y,z
loop_
_atom_site_type_symbol
_atom_site_label
_atom_site_fract_x
_atom_site_fract_y
_atom_site_fract_z
Si Si1 0.255129 0.685791 0.422374
Si Si2 0.078813 0.448247 0.990578
Si Si3 0.687805 0.553712 0.208577
Si Si4 0.998328 0.229323 0.881534
Si Si5 0.841067 0.880954 0.233083
Si Si6 0.421768 0.444561 0.145237
Si Si7 0.726623 0.913925 0.483475
Si Si8 0.180576 0.781953 0.724206
O O1 0.111221 0.723050 0.258563
O O2 0.407738 0.696756 0.686586
O O3 0.201178 0.634023 0.388831
O O4 0.297531 0.693648 0.358826
O O5 0.158707 0.500000 0.087509
O O6 0.926804 0.446136 0.726766
O O7 0.200269 0.407526 0.114355
O O8 0.000000 0.441962 0.000000
O O9 0.751847 0.500000 0.304408
O O10 0.758088 0.590533 0.376764
O O11 0.500000 0.551165 0.000000
O O12 0.686871 0.565072 0.089875
O O13 0.000000 0.211407 0.000000
O O14 0.179335 0.244144 0.084631
O O15 0.873724 0.908864 0.171994
O O16 0.804589 0.825221 0.178617
O O17 0.000000 0.884359 0.500000
O O18 0.402746 0.500000 0.148919
O O19 0.607797 0.436291 0.348981
O O20 0.000000 0.762518 0.500000
#
# Coordination Sequence:
#
# PCOD9195432 Si02
#       8
#     8   8   8   8   8   8   8   8
#     4  10  20  35  57  82 108 143 180 222 276 332
#     4  11  22  33  49  77 110 144 183 227 272 315
#     4   8  16  31  51  76 106 141 181 226 272 315
#     4   9  20  38  58  81 110 138 174 223 276 334
#     4  11  22  36  54  77 108 147 187 224 272 328
#     4  10  20  35  54  77 108 145 185 227 270 322
#     4  11  19  33  57  82 108 140 185 231 274 322
#     4  10  20  36  56  80 110 143 180 223 277 333
#
# _framework density 20.443866
#
# number of rings (size 3 to 8) (size 9 to 14) (size 15 to 20)
#    0.000    2.000    0.000    6.000    0.000    5.000 
#    0.000    0.625    0.000    2.250    0.000    0.000 
#    0.000    0.000    0.000    0.000    0.000    0.125 
#
# Total GULP energy -178632.700134 kJ/mol
# GULP energy per Si atom -5582.271879 kJ/mol
# Density = 2.039733 g / cm^3
# Si number density = 20.443866 Si / 1000 Ang^3
#
#
#
# Elastic Constant Matrix: (Units=GPa)
#
#
# Indices 1 2 3 4 5 6 
#
# 1 42.7358 6.1147 7.4423 0.0000 2.7966 0.0000
# 2 6.1147 28.3568 1.6032 0.0000 0.9404 0.0000
# 3 7.4423 1.6032 56.1846 0.0000 5.3677 0.0000
# 4 0.0000 0.0000 0.0000 23.9851 0.0000 3.2110
# 5 2.7966 0.9404 5.3677 0.0000 39.4875 0.0000
# 6 0.0000 0.0000 0.0000 3.2110 0.0000 36.7482
#
#
#
# Elastic Compliance Matrix: (Units=1/GPa)
#
#
# Indices 1 2 3 4 5 6 
#
# 1 0.024737 -0.005123 -0.003014 0.000000 -0.001220 0.000000
# 2 -0.005123 0.036403 -0.000316 0.000000 -0.000461 0.000000
# 3 -0.003014 -0.000316 0.018425 0.000000 -0.002284 0.000000
# 4 0.000000 0.000000 0.000000 0.042186 0.000000 -0.003686
# 5 -0.001220 -0.000461 -0.002284 0.000000 0.025732 0.000000
# 6 0.000000 0.000000 0.000000 -0.003686 0.000000 0.027534
#
#
# Mechanical properties :
#
#
# Convention : Reuss Voigt Hill
#
# Bulk Modulus (GPa) = 15.95956 17.51084 16.73520
# Shear Modulus (GPa) = 23.49508 27.51862 25.50685
#
# Velocity S-wave (km/s) = 3.39373 3.67285 3.53605
# Velocity P-wave (km/s) = 4.81457 5.15464 4.98750
#
# Compressibility (1/GPa) = 0.06265838
#
# Stress axis : x y z
#
# Youngs Moduli (GPa) = 40.42467 27.47042 54.27443
#
# Poissons Ratio (x) = 0.14074 0.16358
# Poissons Ratio (y) = 0.20711 0.01715
# Poissons Ratio (z) = 0.12184 0.00868
#
# Static dielectric constant tensor:
#      x y z
#    x 1.745890 0.000000 -0.034590 
#    y 0.000000 1.732890 0.000000 
#    z -0.034590 0.000000 1.740730 
# 
# From -- ./inp_files/161272.got.cif
#   From: 2010.05.17/outbox.cif.g08.bks.cpg/sg12_81_cif.got.tgz:161272.got - 2010.06.03 13:09:07.
