data_PCOD9195563
_publ_section_title
;
Structure prediction by ZEFSAII (Michael W. Deem and Ramdas Pophale) SiO2 
 PCOD9195563
Probable space group: C 2/M
;
_chemical_formula_sum "Si O2"
_cell_formula_units_Z 48
_cell_length_a 8.209689
_cell_length_b 11.555813
_cell_length_c 26.372485
_cell_angle_alpha 90.000000
_cell_angle_beta 115.549251
_cell_angle_gamma 90.000000
_cell_volume 2257.294657
_symmetry_space_group_name_H-M "C 2/M"
_symmetry_group_IT_number 12
_symmetry_cell_setting 'monoclinic'
loop_
_space_group_symop_operation_xyz
x,y,z
-x,y,-z
-x,-y,-z
x,-y,z
1/2+x,1/2+y,z
1/2-x,1/2+y,-z
1/2-x,1/2-y,-z
1/2+x,1/2-y,z
loop_
_atom_site_type_symbol
_atom_site_label
_atom_site_fract_x
_atom_site_fract_y
_atom_site_fract_z
Si Si1 0.051793 0.630452 0.947904
Si Si2 0.405612 0.313215 0.636186
Si Si3 0.353614 0.369005 0.915931
Si Si4 0.233256 0.812998 0.279068
Si Si5 0.101456 0.870293 0.564373
Si Si6 0.439777 0.876451 0.210744
O O1 0.993488 0.500000 0.920749
O O2 0.965582 0.753111 0.918779
O O3 0.262643 0.637081 0.959788
O O4 0.000000 0.627258 0.000000
O O5 0.592157 0.258464 0.680106
O O6 0.329980 0.372260 0.677089
O O7 0.262655 0.214404 0.601371
O O8 0.459758 0.375336 0.591714
O O9 0.433223 0.500000 0.920228
O O10 0.180299 0.363632 0.855366
O O11 0.301911 0.879869 0.239415
O O12 0.077625 0.726636 0.238939
O O13 0.000000 0.830068 0.500000
O O14 0.171781 0.000000 0.564533
O O15 0.538821 0.000000 0.222085
#
# Coordination Sequence:
#
# PCOD9195563 Si02
#       6
#     8   8   8   8   8   8
#     4  10  21  37  57  82 112 146 186 232 279 329
#     4   9  19  34  53  78 106 133 172 219 257 311
#     4  10  21  36  56  82 112 147 185 228 278 332
#     4   9  19  34  53  77 102 136 174 210 262 315
#     4  10  20  35  55  76 102 138 173 211 264 316
#     4  10  20  36  55  76 107 140 174 219 264 315
#
# _framework density 21.264392999999998
#
# number of rings (size 3 to 8) (size 9 to 14) (size 15 to 20)
#    0.000    2.333    0.000    2.000    0.000    7.667 
#    0.000    5.833    0.000    9.000    0.000    0.000 
#    0.000    0.000    0.000    0.000    0.000    0.000 
#
# Total GULP energy -133644.610042 kJ/mol
# GULP energy per Si atom -5568.525418 kJ/mol
# Density = 2.121599 g / cm^3
# Si number density = 21.264393 Si / 1000 Ang^3
#
#
#
# Elastic Constant Matrix: (Units=GPa)
#
#
# Indices 1 2 3 4 5 6 
#
# 1 58.0829 34.3983 3.1050 0.0000 -7.8420 0.0000
# 2 34.3983 159.2704 16.9905 0.0000 24.3805 0.0000
# 3 3.1050 16.9905 74.8118 0.0000 -6.3091 0.0000
# 4 0.0000 0.0000 0.0000 107.6383 0.0000 18.8241
# 5 -7.8420 24.3805 -6.3091 0.0000 34.1078 0.0000
# 6 0.0000 0.0000 0.0000 18.8241 0.0000 25.9463
#
#
#
# Elastic Compliance Matrix: (Units=1/GPa)
#
#
# Indices 1 2 3 4 5 6 
#
# 1 0.022361 -0.006519 0.001401 0.000000 0.010060 0.000000
# 2 -0.006519 0.009277 -0.002562 0.000000 -0.008604 0.000000
# 3 0.001401 -0.002562 0.014295 0.000000 0.004798 0.000000
# 4 0.000000 0.000000 0.000000 0.010640 0.000000 -0.007720
# 5 0.010060 -0.008604 0.004798 0.000000 0.038669 0.000000
# 6 0.000000 0.000000 0.000000 -0.007720 0.000000 0.044142
#
#
# Mechanical properties :
#
#
# Convention : Reuss Voigt Hill
#
# Bulk Modulus (GPa) = 32.70854 44.57253 38.64053
# Shear Modulus (GPa) = 30.31502 49.38322 39.84912
#
# Velocity S-wave (km/s) = 3.77984 4.82430 4.33365
# Velocity P-wave (km/s) = 5.87067 7.21377 6.57660
#
# Compressibility (1/GPa) = 0.03057305
#
# Stress axis : x y z
#
# Youngs Moduli (GPa) = 44.72141 107.79538 69.95372
#
# Poissons Ratio (x) = 0.70268 -0.09799
# Poissons Ratio (y) = 0.29152 0.17921
# Poissons Ratio (z) = -0.06265 0.27616
#
# Static dielectric constant tensor:
#      x y z
#    x 1.768440 0.000000 -0.055000 
#    y 0.000000 1.769560 0.000000 
#    z -0.055000 0.000000 1.804640 
# 
# From -- ./inp_files/331997.got.cif
#   From: 2010.05.17/outbox.cif.g08.bks.cpg/sg12_166_cif.got.tgz:331997.got - 2010.06.03 13:09:07.
