data_PCOD9195627
_publ_section_title
;
Structure prediction by ZEFSAII (Michael W. Deem and Ramdas Pophale) SiO2 
 PCOD9195627
Probable space group: C 2/M
;
_chemical_formula_sum "Si O2"
_cell_formula_units_Z 48
_cell_length_a 13.554468
_cell_length_b 12.446711
_cell_length_c 25.759229
_cell_angle_alpha 90.000000
_cell_angle_beta 33.569393
_cell_angle_gamma 90.000000
_cell_volume 2402.996173
_symmetry_space_group_name_H-M "C 2/M"
_symmetry_group_IT_number 12
_symmetry_cell_setting 'monoclinic'
loop_
_space_group_symop_operation_xyz
x,y,z
-x,y,-z
-x,-y,-z
x,-y,z
1/2+x,1/2+y,z
1/2-x,1/2+y,-z
1/2-x,1/2-y,-z
1/2+x,1/2-y,z
loop_
_atom_site_type_symbol
_atom_site_label
_atom_site_fract_x
_atom_site_fract_y
_atom_site_fract_z
Si Si1 0.568922 0.374682 0.589779
Si Si2 0.397151 0.272707 0.891211
Si Si3 0.513557 0.876317 0.748425
Si Si4 0.313379 0.878297 0.100018
Si Si5 0.713232 0.227370 0.236549
Si Si6 0.809448 0.249687 0.561047
O O1 0.516702 0.500000 0.614677
O O2 0.411975 0.286776 0.666842
O O3 0.707477 0.344229 0.575024
O O4 0.658091 0.344103 0.495921
O O5 0.421050 0.172603 0.840549
O O6 0.321604 0.366769 0.888130
O O7 0.591546 0.299748 0.828265
O O8 0.250000 0.250000 0.000000
O O9 0.387403 0.863854 0.752590
O O10 0.681065 0.800791 0.660820
O O11 0.562573 0.000000 0.734867
O O12 0.239440 0.818433 0.181637
O O13 0.348598 0.000000 0.099069
O O14 0.500000 0.827221 0.000000
O O15 0.000000 0.282445 0.500000
#
# Coordination Sequence:
#
# PCOD9195627 Si02
#       6
#     8   8   8   8   8   8
#     4  10  21  37  60  88 118 154 193 233 287 345
#     4  11  22  37  57  81 111 145 191 239 283 335
#     4  10  23  39  58  84 116 155 192 236 290 345
#     4  10  20  35  55  78 106 141 183 232 283 331
#     4  10  21  38  57  81 117 148 187 241 282 339
#     4  10  21  38  59  88 121 151 190 239 286 339
#
# _framework density 19.975062999999999
#
# number of rings (size 3 to 8) (size 9 to 14) (size 15 to 20)
#    0.000    1.833    1.667    2.000    0.000    5.667 
#    0.000    0.833    0.000   12.000    0.000    0.000 
#    0.000    0.000    0.000    0.000    0.000    0.000 
#
# Total GULP energy -133918.938463 kJ/mol
# GULP energy per Si atom -5579.955769 kJ/mol
# Density = 1.992960 g / cm^3
# Si number density = 19.975063 Si / 1000 Ang^3
#
#
#
# Elastic Constant Matrix: (Units=GPa)
#
#
# Indices 1 2 3 4 5 6 
#
# 1 100.9999 -14.6792 29.4172 0.0002 -22.7903 0.0000
# 2 -14.6792 26.7287 7.3914 0.0002 11.5416 0.0000
# 3 29.4172 7.3914 107.8293 0.0003 3.8474 0.0000
# 4 0.0002 0.0002 0.0003 2.5834 -0.0002 -7.7389
# 5 -22.7903 11.5416 3.8474 -0.0002 46.3405 0.0000
# 6 0.0000 0.0000 0.0000 -7.7389 0.0000 3.1713
#
#
#
# Elastic Compliance Matrix: (Units=1/GPa)
#
#
# Indices 1 2 3 4 5 6 
#
# 1 0.013222 0.006127 -0.004217 0.000000 0.005326 0.000000
# 2 0.006127 0.045449 -0.004504 0.000001 -0.007932 0.000002
# 3 -0.004217 -0.004504 0.010799 0.000000 -0.001849 0.000000
# 4 0.000000 0.000001 0.000000 -0.061343 -0.000001 -0.149695
# 5 0.005326 -0.007932 -0.001849 -0.000001 0.026328 -0.000001
# 6 0.000000 0.000002 0.000000 -0.149695 -0.000001 -0.049970
#
#
# Mechanical properties :
#
#
# Convention : Reuss Voigt Hill
#
# Bulk Modulus (GPa) = 15.55639 31.09075 23.32357
# Shear Modulus (GPa) = 450.49085 24.64759 237.56922
#
# Velocity S-wave (km/s) = 15.03384 3.51653 10.91747
# Velocity P-wave (km/s) = 17.58294 5.66450 13.06228
#
# Compressibility (1/GPa) = 0.06428225
#
# Stress axis : x y z
#
# Youngs Moduli (GPa) = 75.63303 22.00278 92.60017
#
# Poissons Ratio (x) = -0.13482 0.39051
# Poissons Ratio (y) = -0.46344 0.41707
# Poissons Ratio (z) = 0.31895 0.09910
#
# Static dielectric constant tensor:
#      x y z
#    x 1.733520 0.000000 -0.004730 
#    y 0.000000 1.654790 0.000000 
#    z -0.004730 0.000000 1.677730 
# 
# From -- ./inp_files/204872.got.cif
#   From: 2010.05.17/outbox.cif.g08.bks.cpg/sg12_103_cif.got.tgz:204872.got - 2010.06.03 13:09:07.
