data_PCOD9195631
_publ_section_title
;
Structure prediction by ZEFSAII (Michael W. Deem and Ramdas Pophale) SiO2 
 PCOD9195631
Probable space group: C 2/M
;
_chemical_formula_sum "Si O2"
_cell_formula_units_Z 56
_cell_length_a 20.597579
_cell_length_b 8.183294
_cell_length_c 14.447439
_cell_angle_alpha 90.000000
_cell_angle_beta 81.645254
_cell_angle_gamma 90.000000
_cell_volume 2409.359349
_symmetry_space_group_name_H-M "C 2/M"
_symmetry_group_IT_number 12
_symmetry_cell_setting 'monoclinic'
loop_
_space_group_symop_operation_xyz
x,y,z
-x,y,-z
-x,-y,-z
x,-y,z
1/2+x,1/2+y,z
1/2-x,1/2+y,-z
1/2-x,1/2-y,-z
1/2+x,1/2-y,z
loop_
_atom_site_type_symbol
_atom_site_label
_atom_site_fract_x
_atom_site_fract_y
_atom_site_fract_z
Si Si1 0.815219 0.299012 0.266868
Si Si2 0.454832 0.198554 0.298440
Si Si3 0.353144 0.183366 0.825004
Si Si4 0.428011 0.813300 0.613135
Si Si5 0.726978 0.820173 0.907985
Si Si6 0.472821 0.696026 0.904925
Si Si7 0.205778 0.193941 0.424242
O O1 0.814272 0.500000 0.263096
O O2 0.878762 0.253354 0.313373
O O3 0.819631 0.239185 0.159338
O O4 0.748807 0.238913 0.329127
O O5 0.500443 0.258353 0.374707
O O6 0.482612 0.255304 0.192735
O O7 0.459228 0.000000 0.299243
O O8 0.394050 0.190498 0.722035
O O9 0.296482 0.316303 0.839833
O O10 0.403431 0.219468 0.897492
O O11 0.325412 0.000000 0.838849
O O12 0.370405 0.743148 0.561427
O O13 0.437273 0.000000 0.581300
O O14 0.701486 0.000000 0.930830
O O15 0.750000 0.750000 0.000000
O O16 0.464476 0.500000 0.905615
O O17 0.500000 0.743905 0.000000
O O18 0.250000 0.250000 0.500000
O O19 0.207373 0.000000 0.418641
#
# Coordination Sequence:
#
# PCOD9195631 Si02
#       7
#     8   8   8   8   8   8   8
#     4   9  20  39  61  85 116 155 196 243 296 349
#     4   9  19  37  59  82 110 150 197 239 289 351
#     4  10  20  35  55  78 106 150 198 241 287 341
#     4   9  18  35  59  85 112 144 187 236 285 343
#     4  11  22  36  54  82 117 156 200 246 297 350
#     4  10  21  34  49  76 112 149 193 244 293 344
#     4  11  22  39  64  91 118 151 191 238 292 354
#
# _framework density 23.242694
#
# number of rings (size 3 to 8) (size 9 to 14) (size 15 to 20)
#    0.000    2.143    1.429    2.571    2.000    3.429 
#    0.000    2.857    0.000    4.286    0.000    0.000 
#    0.000    0.000    0.000    0.000    0.000    0.000 
#
# Total GULP energy -156167.522414 kJ/mol
# GULP energy per Si atom -5577.411515 kJ/mol
# Density = 2.318979 g / cm^3
# Si number density = 23.242694 Si / 1000 Ang^3
#
#
#
# Elastic Constant Matrix: (Units=GPa)
#
#
# Indices 1 2 3 4 5 6 
#
# 1 135.1531 9.0593 34.0663 0.0000 39.6663 0.0000
# 2 9.0593 35.0616 4.4730 0.0000 9.5005 0.0000
# 3 34.0663 4.4730 92.3252 0.0000 37.7888 0.0000
# 4 0.0000 0.0000 0.0000 20.0621 0.0000 8.3917
# 5 39.6663 9.5005 37.7888 0.0000 47.2847 0.0000
# 6 0.0000 0.0000 0.0000 8.3917 0.0000 20.2636
#
#
#
# Elastic Compliance Matrix: (Units=1/GPa)
#
#
# Indices 1 2 3 4 5 6 
#
# 1 0.009829 -0.000360 -0.000392 0.000000 -0.007859 0.000000
# 2 -0.000360 0.030320 0.001536 0.000000 -0.007018 0.000000
# 3 -0.000392 0.001536 0.016189 0.000000 -0.012917 0.000000
# 4 0.000000 0.000000 0.000000 0.060289 0.000000 -0.024967
# 5 -0.007859 -0.007018 -0.012917 0.000000 0.039474 0.000000
# 6 0.000000 0.000000 0.000000 -0.024967 0.000000 0.059689
#
#
# Mechanical properties :
#
#
# Convention : Reuss Voigt Hill
#
# Bulk Modulus (GPa) = 17.26976 39.74857 28.50917
# Shear Modulus (GPa) = 21.41114 31.85149 26.63131
#
# Velocity S-wave (km/s) = 3.03842 3.70589 3.38863
# Velocity P-wave (km/s) = 4.44473 5.95400 5.25385
#
# Compressibility (1/GPa) = 0.05790469
#
# Stress axis : x y z
#
# Youngs Moduli (GPa) = 101.74343 32.98181 61.77186
#
# Poissons Ratio (x) = 0.01187 0.02424
# Poissons Ratio (y) = 0.03662 -0.09489
# Poissons Ratio (z) = 0.03992 -0.05067
#
# Static dielectric constant tensor:
#      x y z
#    x 1.911340 0.000000 0.014490 
#    y 0.000000 1.866240 0.000000 
#    z 0.014490 0.000000 1.969480 
# 
# From -- ./inp_files/230848.got.cif
#   From: 2010.05.17/outbox.cif.g08.bks.cpg/sg12_116_cif.got.tgz:230848.got - 2010.06.03 13:09:07.
