data_PCOD9195062
_publ_section_title
;
Structure prediction by ZEFSAII (Michael W. Deem and Ramdas Pophale) SiO2 
 PCOD9195062
Probable space group: C 2/M
;
_chemical_formula_sum "Si O2"
_cell_formula_units_Z 56
_cell_length_a 17.031360
_cell_length_b 15.269195
_cell_length_c 20.101288
_cell_angle_alpha 90.000000
_cell_angle_beta 149.725379
_cell_angle_gamma 90.000000
_cell_volume 2635.390266
_symmetry_space_group_name_H-M "C 2/M"
_symmetry_group_IT_number 12
_symmetry_cell_setting 'monoclinic'
loop_
_space_group_symop_operation_xyz
x,y,z
-x,y,-z
-x,-y,-z
x,-y,z
1/2+x,1/2+y,z
1/2-x,1/2+y,-z
1/2-x,1/2-y,-z
1/2+x,1/2-y,z
loop_
_atom_site_type_symbol
_atom_site_label
_atom_site_fract_x
_atom_site_fract_y
_atom_site_fract_z
Si Si1 0.513027 0.403893 0.194697
Si Si2 0.886254 0.722548 0.789590
Si Si3 0.404803 0.358610 0.493875
Si Si4 0.535790 0.897849 0.604800
Si Si5 0.790420 0.333424 0.986168
Si Si6 0.298491 0.734133 0.223855
Si Si7 0.764259 0.855307 0.523651
O O1 0.566964 0.500000 0.212005
O O2 0.558608 0.322173 0.181669
O O3 0.328936 0.404678 0.074446
O O4 0.595267 0.378650 0.324213
O O5 0.725153 0.704676 0.633508
O O6 0.844042 0.707174 0.834345
O O7 0.024737 0.656877 0.871130
O O8 0.500000 0.399854 0.500000
O O9 0.542688 0.310149 0.633901
O O10 0.304636 0.399169 0.481717
O O11 0.500000 0.873903 0.500000
O O12 0.666153 0.835826 0.733614
O O13 0.386494 0.885004 0.544329
O O14 0.578026 0.000000 0.634923
O O15 0.742294 0.301085 0.877914
O O16 0.750000 0.250000 0.000000
O O17 0.750000 0.750000 0.500000
#
# Coordination Sequence:
#
# PCOD9195062 Si02
#       7
#     8   8   8   8   8   8   8
#     4  11  21  36  59  89 124 161 200 245 308 379
#     4  10  21  36  61  90 116 157 202 256 304 360
#     4  10  20  34  60  93 115 147 203 260 296 349
#     4  11  23  36  56  94 135 160 192 250 323 385
#     4  10  22  38  58  86 114 159 209 254 291 354
#     4  11  19  37  60  88 118 154 202 252 300 365
#     4  12  19  33  61  88 122 160 205 247 294 359
#
# _framework density 21.249224999999999
#
# number of rings (size 3 to 8) (size 9 to 14) (size 15 to 20)
#    0.000    1.286    4.286    3.000    2.000    1.714 
#    0.000    2.857    0.000    8.143    0.000    0.000 
#    0.000    0.000    0.000    0.000    0.000    0.000 
#
# Total GULP energy -155986.885521 kJ/mol
# GULP energy per Si atom -5570.960197 kJ/mol
# Density = 2.120086 g / cm^3
# Si number density = 21.249225 Si / 1000 Ang^3
#
#
#
# Elastic Constant Matrix: (Units=GPa)
#
#
# Indices 1 2 3 4 5 6 
#
# 1 148.0206 -6.8802 13.8349 0.0002 6.9718 0.0002
# 2 -6.8802 67.7817 7.5891 0.0000 5.0961 0.0000
# 3 13.8349 7.5891 55.0734 0.0008 10.8584 0.0008
# 4 0.0002 0.0000 0.0008 -2.5749 0.0001 4.4571
# 5 6.9718 5.0961 10.8584 0.0001 40.9758 0.0002
# 6 0.0002 0.0000 0.0008 4.4571 0.0002 8.2676
#
#
#
# Elastic Compliance Matrix: (Units=1/GPa)
#
#
# Indices 1 2 3 4 5 6 
#
# 1 0.007002 0.000968 -0.001724 0.000000 -0.000855 0.000000
# 2 0.000968 0.015194 -0.002038 0.000000 -0.001514 0.000000
# 3 -0.001724 -0.002038 0.019798 0.000001 -0.004700 -0.000003
# 4 0.000000 0.000000 0.000001 -0.200893 0.000000 0.108303
# 5 -0.000855 -0.001514 -0.004700 0.000000 0.025984 0.000000
# 6 0.000000 0.000000 -0.000003 0.108303 0.000000 0.062567
#
#
# Mechanical properties :
#
#
# Convention : Reuss Voigt Hill
#
# Bulk Modulus (GPa) = 27.46829 33.32927 30.39878
# Shear Modulus (GPa) = -95.01128 26.42250 -34.29439
#
# Velocity S-wave (km/s) = -6.69402 3.53009 -4.02171
# Velocity P-wave (km/s) = 6.84045 5.68633 2.68862
#
# Compressibility (1/GPa) = 0.03640562
#
# Stress axis : x y z
#
# Youngs Moduli (GPa) = 142.81224 65.81733 50.50994
#
# Poissons Ratio (x) = -0.06371 0.08707
# Poissons Ratio (y) = -0.13825 0.10296
# Poissons Ratio (z) = 0.24619 0.13416
#
# Static dielectric constant tensor:
#      x y z
#    x 1.798020 0.000000 0.046680 
#    y 0.000000 1.780860 0.000000 
#    z 0.046680 0.000000 1.776350 
# 
# From -- ./inp_files/316777.got.cif
#   From: 2010.05.17/outbox.cif.g08.bks.cpg/sg12_159_cif.got.tgz:316777.got - 2010.06.03 13:09:07.
