data_PCOD9195347
_publ_section_title
;
Structure prediction by ZEFSAII (Michael W. Deem and Ramdas Pophale) SiO2 
 PCOD9195347
Probable space group: C 2/M
;
_chemical_formula_sum "Si O2"
_cell_formula_units_Z 58
_cell_length_a 24.522394
_cell_length_b 7.566226
_cell_length_c 29.534380
_cell_angle_alpha 90.000000
_cell_angle_beta 148.709215
_cell_angle_gamma 90.000000
_cell_volume 2846.142635
_symmetry_space_group_name_H-M "C 2/M"
_symmetry_group_IT_number 12
_symmetry_cell_setting 'monoclinic'
loop_
_space_group_symop_operation_xyz
x,y,z
-x,y,-z
-x,-y,-z
x,-y,z
1/2+x,1/2+y,z
1/2-x,1/2+y,-z
1/2-x,1/2-y,-z
1/2+x,1/2-y,z
loop_
_atom_site_type_symbol
_atom_site_label
_atom_site_fract_x
_atom_site_fract_y
_atom_site_fract_z
Si Si1 0.857683 0.291148 0.696582
Si Si2 0.936624 0.213477 0.847088
Si Si3 0.014012 0.714574 0.625426
Si Si4 0.627643 0.799595 0.560980
Si Si5 0.753575 0.217470 0.785719
Si Si6 0.905119 0.201951 0.969130
Si Si7 0.367714 0.212277 0.601833
Si Si8 0.000000 0.000000 0.500000
O O1 0.839493 0.500000 0.679566
O O2 0.935292 0.261142 0.793521
O O3 0.748923 0.207496 0.635404
O O4 0.882940 0.224079 0.664131
O O5 0.830156 0.271119 0.798416
O O6 0.937678 0.000000 0.851361
O O7 0.038305 0.281145 0.946815
O O8 0.016872 0.500000 0.628610
O O9 0.132759 0.774267 0.701375
O O10 0.935793 0.759358 0.528949
O O11 0.956036 0.778500 0.629687
O O12 0.589918 0.655745 0.569328
O O13 0.603606 0.000000 0.557161
O O14 0.809876 0.277787 0.872340
O O15 0.754369 0.000000 0.785634
O O16 0.874679 0.000000 0.958923
O O17 0.000000 0.194097 0.000000
O O18 0.250000 0.250000 0.500000
O O19 0.377354 0.000000 0.609054
#
# Coordination Sequence:
#
# PCOD9195347 Si02
#       8
#     8   8   8   8   8   8   8   2
#     4  11  22  35  50  75 105 143 184 226 277 323
#     4   9  17  29  50  77 104 134 171 213 269 335
#     4   9  18  32  52  78 100 135 185 227 276 326
#     4  11  23  38  56  78 110 150 187 221 270 330
#     4   8  14  26  49  78 103 125 165 221 272 328
#     4   7  11  23  44  73 102 128 162 213 267 320
#     4  10  20  35  54  71  97 133 181 236 275 320
#     4  12  26  40  52  78 120 150 178 224 274 338
#
# _framework density 20.378458999999999
#
# number of rings (size 3 to 8) (size 9 to 14) (size 15 to 20)
#    0.000    2.621    2.069    2.276    1.931    0.552 
#    0.000    0.000    0.000    4.552    0.000    0.000 
#    0.000    0.000    0.000    0.000    0.000    0.138 
#
# Total GULP energy -161491.385842 kJ/mol
# GULP energy per Si atom -5568.668477 kJ/mol
# Density = 2.033208 g / cm^3
# Si number density = 20.378459 Si / 1000 Ang^3
#
#
#
# Elastic Constant Matrix: (Units=GPa)
#
#
# Indices 1 2 3 4 5 6 
#
# 1 96.9488 15.7902 39.6412 0.0008 -27.2851 0.0005
# 2 15.7902 64.1687 2.7392 -0.0016 -3.6179 -0.0021
# 3 39.6412 2.7392 108.5217 0.0007 -29.0476 0.0007
# 4 0.0008 -0.0016 0.0007 -10.8698 0.0000 -17.4846
# 5 -27.2851 -3.6179 -29.0476 0.0000 32.2205 -0.0002
# 6 0.0005 -0.0021 0.0007 -17.4846 -0.0002 -15.6567
#
#
#
# Elastic Compliance Matrix: (Units=1/GPa)
#
#
# Indices 1 2 3 4 5 6 
#
# 1 0.014595 -0.002935 -0.002685 0.000000 0.009609 0.000001
# 2 -0.002935 0.016274 0.000640 -0.000001 -0.000082 -0.000001
# 3 -0.002685 0.000640 0.012640 0.000000 0.009193 0.000000
# 4 0.000000 -0.000001 0.000000 0.115525 -0.000001 -0.129013
# 5 0.009609 -0.000082 0.009193 -0.000001 0.047452 0.000002
# 6 0.000001 -0.000001 0.000000 -0.129013 0.000002 0.080205
#
#
# Mechanical properties :
#
#
# Convention : Reuss Voigt Hill
#
# Bulk Modulus (GPa) = 29.80797 42.88670 36.34733
# Shear Modulus (GPa) = 16.24239 15.23671 15.73955
#
# Velocity S-wave (km/s) = 2.82625 2.73735 2.78216
# Velocity P-wave (km/s) = 5.03082 5.57509 5.30993
#
# Compressibility (1/GPa) = 0.03354808
#
# Stress axis : x y z
#
# Youngs Moduli (GPa) = 68.51613 61.44675 79.11244
#
# Poissons Ratio (x) = 0.18035 0.21243
# Poissons Ratio (y) = 0.20110 -0.05059
# Poissons Ratio (z) = 0.18398 -0.03930
#
# Static dielectric constant tensor:
#      x y z
#    x 1.766170 0.000000 -0.051170 
#    y 0.000000 1.777560 0.000000 
#    z -0.051170 0.000000 1.763390 
# 
# From -- ./inp_files/382085.got.cif
#   From: 2010.05.17/outbox.cif.g08.bks.cpg/sg12_192_cif.got.tgz:382085.got - 2010.06.03 13:09:07.
