data_PCOD9195221
_publ_section_title
;
Structure prediction by ZEFSAII (Michael W. Deem and Ramdas Pophale) SiO2 
 PCOD9195221
Probable space group: C 2/M
;
_chemical_formula_sum "Si O2"
_cell_formula_units_Z 48
_cell_length_a 27.059967
_cell_length_b 23.687534
_cell_length_c 20.887856
_cell_angle_alpha 90.000000
_cell_angle_beta 169.061333
_cell_angle_gamma 90.000000
_cell_volume 2540.629172
_symmetry_space_group_name_H-M "C 2/M"
_symmetry_group_IT_number 12
_symmetry_cell_setting 'monoclinic'
loop_
_space_group_symop_operation_xyz
x,y,z
-x,y,-z
-x,-y,-z
x,-y,z
1/2+x,1/2+y,z
1/2-x,1/2+y,-z
1/2-x,1/2-y,-z
1/2+x,1/2-y,z
loop_
_atom_site_type_symbol
_atom_site_label
_atom_site_fract_x
_atom_site_fract_y
_atom_site_fract_z
Si Si1 0.577803 0.285697 0.168496
Si Si2 0.278647 0.561522 0.318164
Si Si3 0.529463 0.628829 0.737933
Si Si4 0.050712 0.663179 0.955948
Si Si5 0.842689 0.289168 0.045542
Si Si6 0.752619 0.329832 0.141408
O O1 0.430214 0.225207 0.987731
O O2 0.884880 0.278383 0.571113
O O3 0.500000 0.308499 0.000000
O O4 0.480322 0.323036 0.103995
O O5 0.322470 0.500000 0.344081
O O6 0.490416 0.575781 0.641811
O O7 0.245173 0.615774 0.230035
O O8 0.000000 0.559251 0.000000
O O9 0.242166 0.644542 0.398558
O O10 0.647887 0.677713 0.843625
O O11 0.703356 0.625393 0.022672
O O12 0.093108 0.673224 0.935097
O O13 0.735360 0.230513 0.880232
O O14 0.000000 0.339542 0.500000
#
# Coordination Sequence:
#
# PCOD9195221 Si02
#       6
#     8   8   8   8   8   8
#     4  11  20  34  51  77 112 147 182 222 265 329
#     4   9  20  37  60  83 109 145 188 233 280 320
#     4  11  20  35  54  74 108 144 181 228 270 321
#     4  10  20  35  52  77 110 142 181 225 271 320
#     4  11  22  33  51  80 109 149 183 217 268 333
#     4  11  22  32  49  78 112 144 184 219 263 333
#
# _framework density 18.892959000000001
#
# number of rings (size 3 to 8) (size 9 to 14) (size 15 to 20)
#    0.000    1.500    3.333    4.000    7.000    0.000 
#    0.000    1.667    0.000    0.500    0.000    0.000 
#    0.000    3.333    0.000    0.000    0.000    0.000 
#
# Total GULP energy -133950.911469 kJ/mol
# GULP energy per Si atom -5581.287978 kJ/mol
# Density = 1.884996 g / cm^3
# Si number density = 18.892959 Si / 1000 Ang^3
#
#
#
# Elastic Constant Matrix: (Units=GPa)
#
#
# Indices 1 2 3 4 5 6 
#
# 1 124.8045 34.4950 37.0648 0.0019 -13.9187 0.0015
# 2 34.4950 62.6998 26.9454 -0.0015 -14.8300 0.0018
# 3 37.0648 26.9454 87.3607 0.0161 -23.8286 0.0134
# 4 0.0019 -0.0015 0.0161 8.5132 0.0019 -6.0241
# 5 -13.9187 -14.8300 -23.8286 0.0019 40.5754 0.0036
# 6 0.0015 0.0018 0.0134 -6.0241 0.0036 10.5487
#
#
#
# Elastic Compliance Matrix: (Units=1/GPa)
#
#
# Indices 1 2 3 4 5 6 
#
# 1 0.010072 -0.004244 -0.002911 0.000008 0.000194 0.000007
# 2 -0.004244 0.020747 -0.003486 0.000017 0.004080 0.000010
# 3 -0.002911 -0.003486 0.015643 -0.000077 0.006914 -0.000065
# 4 0.000008 0.000017 -0.000077 0.197122 -0.000056 0.112571
# 5 0.000194 0.004080 0.006914 -0.000056 0.030264 -0.000052
# 6 0.000007 0.000010 -0.000065 0.112571 -0.000052 0.159085
#
#
# Mechanical properties :
#
#
# Convention : Reuss Voigt Hill
#
# Bulk Modulus (GPa) = 39.71439 52.43061 46.07250
# Shear Modulus (GPa) = 10.80829 23.68477 17.24653
#
# Velocity S-wave (km/s) = 2.39442 3.54450 3.02463
# Velocity P-wave (km/s) = 5.35823 6.67555 6.05284
#
# Compressibility (1/GPa) = 0.02517979
#
# Stress axis : x y z
#
# Youngs Moduli (GPa) = 99.28715 48.19987 63.92668
#
# Poissons Ratio (x) = 0.20457 0.18610
# Poissons Ratio (y) = 0.42139 0.22282
# Poissons Ratio (z) = 0.28905 0.16801
#
# Static dielectric constant tensor:
#      x y z
#    x 1.698050 0.000000 0.003240 
#    y 0.000000 1.657860 -0.000010 
#    z 0.003240 -0.000010 1.697720 
# 
# From -- ./inp_files/227777.got.cif
#   From: 2010.05.17/outbox.cif.g08.bks.cpg/sg12_114_cif.got.tgz:227777.got - 2010.06.03 13:09:07.
