data_PCOD9195885
_publ_section_title
;
Structure prediction by ZEFSAII (Michael W. Deem and Ramdas Pophale) SiO2 
 PCOD9195885
Probable space group: C 2/M
;
_chemical_formula_sum "Si O2"
_cell_formula_units_Z 58
_cell_length_a 24.961757
_cell_length_b 7.604911
_cell_length_c 23.390823
_cell_angle_alpha 90.000000
_cell_angle_beta 35.149215
_cell_angle_gamma 90.000000
_cell_volume 2556.329923
_symmetry_space_group_name_H-M "C 2/M"
_symmetry_group_IT_number 12
_symmetry_cell_setting 'monoclinic'
loop_
_space_group_symop_operation_xyz
x,y,z
-x,y,-z
-x,-y,-z
x,-y,z
1/2+x,1/2+y,z
1/2-x,1/2+y,-z
1/2-x,1/2-y,-z
1/2+x,1/2-y,z
loop_
_atom_site_type_symbol
_atom_site_label
_atom_site_fract_x
_atom_site_fract_y
_atom_site_fract_z
Si Si1 0.814198 0.713747 0.361324
Si Si2 0.113496 0.205989 0.581214
Si Si3 0.302613 0.796568 0.247651
Si Si4 0.119442 0.283566 0.943464
Si Si5 0.000000 0.000000 0.000000
Si Si6 0.397382 0.213331 0.608593
Si Si7 0.254003 0.806170 0.061722
Si Si8 0.089360 0.702304 0.275063
O O1 0.812919 0.500000 0.361386
O O2 0.879506 0.768353 0.356622
O O3 0.710183 0.774571 0.470247
O O4 0.838265 0.778374 0.276738
O O5 0.020710 0.289932 0.637675
O O6 0.108169 0.000000 0.573094
O O7 0.331970 0.726295 0.159759
O O8 0.190396 0.783357 0.349278
O O9 0.330402 0.000000 0.222053
O O10 0.105869 0.500000 0.954837
O O11 0.183927 0.228183 0.940826
O O12 0.029729 0.159277 0.019911
O O13 0.500000 0.268840 0.500000
O O14 0.385982 0.271583 0.683910
O O15 0.394708 0.000000 0.608621
O O16 0.148692 0.801715 0.176464
O O17 0.293312 0.000000 0.024608
O O18 0.250000 0.750000 0.000000
O O19 0.118752 0.500000 0.245990
#
# Coordination Sequence:
#
# PCOD9195885 Si02
#       8
#     8   8   8   8   2   8   8   8
#     4   9  19  36  57  81 119 167 209 253 310 370
#     4  10  20  35  55  84 120 163 213 259 305 366
#     4  10  20  37  61  87 121 162 203 255 316 381
#     4  10  24  46  70 102 134 169 221 278 344 414
#     4  12  26  44  80  98 134 176 206 278 342 426
#     4  10  21  34  55  90 128 165 209 253 301 374
#     4  11  24  44  70  95 129 168 216 279 341 409
#     4  11  22  37  60  88 125 164 208 258 318 382
#
# _framework density 22.688777999999999
#
# number of rings (size 3 to 8) (size 9 to 14) (size 15 to 20)
#    0.000    1.793    1.379    2.276    2.897    1.931 
#    2.483    0.000    0.000    0.000    0.000    0.000 
#    0.000    0.000    0.000    0.000    0.000    0.000 
#
# Total GULP energy -161586.208326 kJ/mol
# GULP energy per Si atom -5571.938218 kJ/mol
# Density = 2.263714 g / cm^3
# Si number density = 22.688778 Si / 1000 Ang^3
#
#
#
# Elastic Constant Matrix: (Units=GPa)
#
#
# Indices 1 2 3 4 5 6 
#
# 1 95.5701 9.6736 9.5760 -0.0055 16.7311 0.0049
# 2 9.6736 75.1298 2.0688 0.0233 6.4223 -0.0156
# 3 9.5760 2.0688 41.3412 0.0088 23.1093 -0.0040
# 4 -0.0055 0.0233 0.0088 -16.2051 -0.0065 12.5597
# 5 16.7311 6.4223 23.1093 -0.0065 44.9966 0.0056
# 6 0.0049 -0.0156 -0.0040 12.5597 0.0056 15.8727
#
#
#
# Elastic Compliance Matrix: (Units=1/GPa)
#
#
# Indices 1 2 3 4 5 6 
#
# 1 0.011288 -0.001115 -0.000423 -0.000004 -0.003821 0.000000
# 2 -0.001115 0.013594 0.000604 0.000020 -0.001836 -0.000001
# 3 -0.000423 0.000604 0.033969 0.000024 -0.017375 -0.000003
# 4 -0.000004 0.000020 0.000024 -0.038251 -0.000023 0.030267
# 5 -0.003821 -0.001836 -0.017375 -0.000023 0.032830 0.000001
# 6 0.000000 -0.000001 -0.000003 0.030267 0.000001 0.039052
#
#
# Mechanical properties :
#
#
# Convention : Reuss Voigt Hill
#
# Bulk Modulus (GPa) = 17.54911 28.29755 22.92333
# Shear Modulus (GPa) = 44.11350 21.64768 32.88059
#
# Velocity S-wave (km/s) = 4.41419 3.09222 3.81097
# Velocity P-wave (km/s) = 5.80789 5.02476 5.43046
#
# Compressibility (1/GPa) = 0.05698293
#
# Stress axis : x y z
#
# Youngs Moduli (GPa) = 88.59229 73.56096 29.43866
#
# Poissons Ratio (x) = 0.08203 0.01245
# Poissons Ratio (y) = 0.09879 -0.01779
# Poissons Ratio (z) = 0.03748 -0.04445
#
# Static dielectric constant tensor:
#      x y z
#    x 1.892050 0.000000 0.001130 
#    y 0.000000 1.865350 0.000000 
#    z 0.001130 0.000000 1.913270 
# 
# From -- ./inp_files/351391.got.cif
#   From: 2010.05.17/outbox.cif.g08.bks.cpg/sg12_176_cif.got.tgz:351391.got - 2010.06.03 13:09:07.
