data_PCOD9195376
_publ_section_title
;
Structure prediction by ZEFSAII (Michael W. Deem and Ramdas Pophale) SiO2 
 PCOD9195376
Probable space group: C 2/M
;
_chemical_formula_sum "Si O2"
_cell_formula_units_Z 64
_cell_length_a 22.747993
_cell_length_b 9.029002
_cell_length_c 24.707836
_cell_angle_alpha 90.000000
_cell_angle_beta 46.384157
_cell_angle_gamma 90.000000
_cell_volume 3674.047791
_symmetry_space_group_name_H-M "C 2/M"
_symmetry_group_IT_number 12
_symmetry_cell_setting 'monoclinic'
loop_
_space_group_symop_operation_xyz
x,y,z
-x,y,-z
-x,-y,-z
x,-y,z
1/2+x,1/2+y,z
1/2-x,1/2+y,-z
1/2-x,1/2-y,-z
1/2+x,1/2-y,z
loop_
_atom_site_type_symbol
_atom_site_label
_atom_site_fract_x
_atom_site_fract_y
_atom_site_fract_z
Si Si1 0.097481 0.674184 0.792150
Si Si2 0.976823 0.821515 0.953044
Si Si3 0.069890 0.670957 0.414528
Si Si4 0.542687 0.826440 0.203450
Si Si5 0.019605 0.671272 0.641724
Si Si6 0.161944 0.177669 0.043628
Si Si7 0.315496 0.323117 0.496794
Si Si8 0.274686 0.677982 0.645149
O O1 0.101109 0.500000 0.804934
O O2 0.187657 0.730064 0.722169
O O3 0.047940 0.760879 0.869202
O O4 0.043838 0.683602 0.771839
O O5 0.890942 0.777578 0.977296
O O6 0.976796 0.000000 0.952677
O O7 0.000000 0.774512 0.000000
O O8 0.086594 0.500000 0.419743
O O9 0.151007 0.764096 0.367101
O O10 0.000000 0.726761 0.500000
O O11 0.035914 0.673218 0.375846
O O12 0.528722 0.781455 0.274134
O O13 0.604769 0.728991 0.129610
O O14 0.568310 0.000000 0.185155
O O15 0.045977 0.500000 0.634612
O O16 0.097141 0.768863 0.578545
O O17 0.170790 0.000000 0.036349
O O18 0.250000 0.250000 0.000000
O O19 0.310817 0.500000 0.497722
O O20 0.250000 0.250000 0.500000
O O21 0.295420 0.274410 0.570800
O O22 0.272007 0.500000 0.646890
#
# Coordination Sequence:
#
# PCOD9195376 Si02
#       8
#     8   8   8   8   8   8   8   8
#     4   9  18  34  55  79 106 138 175 216 263 316
#     4   9  19  37  59  83 110 141 177 220 267 322
#     4  10  20  35  54  75 103 141 184 225 266 315
#     4   9  18  35  58  79 107 143 177 218 269 319
#     4  10  20  36  55  76 105 140 179 222 269 319
#     4  10  20  36  59  85 114 145 181 222 271 327
#     4  11  22  34  52  77 104 137 176 221 269 318
#     4  10  21  36  53  75 106 141 178 218 267 319
#
# _framework density 17.419478999999999
#
# number of rings (size 3 to 8) (size 9 to 14) (size 15 to 20)
#    0.000    2.250    1.250    1.500    0.000    5.000 
#    2.250    2.500    0.000    0.000    0.000    0.000 
#    0.000    0.000    0.000    0.000    0.000    0.000 
#
# Total GULP energy -178375.114839 kJ/mol
# GULP energy per Si atom -5574.222339 kJ/mol
# Density = 1.737983 g / cm^3
# Si number density = 17.419479 Si / 1000 Ang^3
#
#
#
# Elastic Constant Matrix: (Units=GPa)
#
#
# Indices 1 2 3 4 5 6 
#
# 1 104.2298 33.2196 65.7162 -0.0002 -3.5629 0.0003
# 2 33.2196 24.3425 26.6998 -0.0004 -3.3533 0.0009
# 3 65.7162 26.6998 99.2157 -0.0001 -0.3539 0.0002
# 4 -0.0002 -0.0004 -0.0001 28.5796 0.0001 -7.6214
# 5 -3.5629 -3.3533 -0.3539 0.0001 36.7401 -0.0002
# 6 0.0003 0.0009 0.0002 -7.6214 -0.0002 18.8022
#
#
#
# Elastic Compliance Matrix: (Units=1/GPa)
#
#
# Indices 1 2 3 4 5 6 
#
# 1 0.021444 -0.019374 -0.008989 0.000000 0.000225 0.000001
# 2 -0.019374 0.076785 -0.007813 0.000000 0.005054 -0.000003
# 3 -0.008989 -0.007813 0.018131 0.000000 -0.001410 0.000000
# 4 0.000000 0.000000 0.000000 0.039231 0.000000 0.015902
# 5 0.000225 0.005054 -0.001410 0.000000 0.027688 0.000000
# 6 0.000001 -0.000003 0.000000 0.015902 0.000000 0.059631
#
#
# Mechanical properties :
#
#
# Convention : Reuss Voigt Hill
#
# Bulk Modulus (GPa) = 22.72320 53.22879 37.97599
# Shear Modulus (GPa) = 15.15465 23.63453 19.39459
#
# Velocity S-wave (km/s) = 2.95275 3.68746 3.34036
# Velocity P-wave (km/s) = 4.96971 6.98235 6.06016
#
# Compressibility (1/GPa) = 0.04400789
#
# Stress axis : x y z
#
# Youngs Moduli (GPa) = 46.63248 13.02331 55.15474
#
# Poissons Ratio (x) = 0.25231 0.49581
# Poissons Ratio (y) = 0.90344 0.43094
# Poissons Ratio (z) = 0.41920 0.10175
#
# Static dielectric constant tensor:
#      x y z
#    x 1.375420 0.000000 -0.223070 
#    y 0.000000 1.598620 0.000000 
#    z -0.223070 0.000000 1.334510 
# 
# From -- ./inp_files/345971.got.cif
#   From: 2010.05.17/outbox.cif.g08.bks.cpg/sg12_173_cif.got.tgz:345971.got - 2010.06.03 13:09:07.
