data_PCOD9195833
_publ_section_title
;
Structure prediction by ZEFSAII (Michael W. Deem and Ramdas Pophale) SiO2 
 PCOD9195833
Probable space group: C 2/M
;
_chemical_formula_sum "Si O2"
_cell_formula_units_Z 56
_cell_length_a 31.034167
_cell_length_b 8.730923
_cell_length_c 20.088822
_cell_angle_alpha 90.000000
_cell_angle_beta 35.793005
_cell_angle_gamma 90.000000
_cell_volume 3183.505760
_symmetry_space_group_name_H-M "C 2/M"
_symmetry_group_IT_number 12
_symmetry_cell_setting 'monoclinic'
loop_
_space_group_symop_operation_xyz
x,y,z
-x,y,-z
-x,-y,-z
x,-y,z
1/2+x,1/2+y,z
1/2-x,1/2+y,-z
1/2-x,1/2-y,-z
1/2+x,1/2-y,z
loop_
_atom_site_type_symbol
_atom_site_label
_atom_site_fract_x
_atom_site_fract_y
_atom_site_fract_z
Si Si1 0.081211 0.175520 0.364644
Si Si2 0.516442 0.815873 0.782386
Si Si3 0.822831 0.683676 0.376060
Si Si4 0.646490 0.818749 0.408522
Si Si5 0.804935 0.316268 0.245233
Si Si6 0.052261 0.816408 0.997104
Si Si7 0.999576 0.184265 0.339178
O O1 0.129833 0.278156 0.352225
O O2 0.000000 0.172232 0.500000
O O3 0.063515 0.227650 0.311945
O O4 0.108919 0.000000 0.330131
O O5 0.602278 0.767761 0.681607
O O6 0.486157 0.744487 0.752449
O O7 0.513121 0.000000 0.783613
O O8 0.476740 0.757841 0.898623
O O9 0.819141 0.500000 0.383955
O O10 0.750000 0.750000 0.500000
O O11 0.825595 0.727178 0.295109
O O12 0.722742 0.741277 0.334002
O O13 0.577673 0.752612 0.537004
O O14 0.650234 0.000000 0.413824
O O15 0.808178 0.500000 0.235154
O O16 0.865667 0.240083 0.122086
O O17 0.049963 0.000000 0.005502
O O18 0.000000 0.770956 0.000000
O O19 0.994002 0.000000 0.347621
#
# Coordination Sequence:
#
# PCOD9195833 Si02
#       7
#     8   8   8   8   8   8   8
#     4   8  16  32  53  77 109 147 183 220 268 328
#     4  11  22  37  56  80 109 144 185 228 273 324
#     4  10  22  35  51  76 107 142 177 217 266 321
#     4  11  21  33  53  84 116 145 183 227 275 330
#     4  11  22  38  57  77 107 147 186 227 273 323
#     4  11  23  39  59  81 105 141 187 233 275 321
#     4  10  20  35  55  82 114 148 185 224 273 330
#
# _framework density 17.590668999999998
#
# number of rings (size 3 to 8) (size 9 to 14) (size 15 to 20)
#    0.000    1.714    1.429    4.714    0.000    8.286 
#    0.000    0.000    0.000    0.857    0.000    0.000 
#    0.000    0.000    0.000    0.000    0.000    0.000 
#
# Total GULP energy -156358.407957 kJ/mol
# GULP energy per Si atom -5584.228856 kJ/mol
# Density = 1.755063 g / cm^3
# Si number density = 17.590669 Si / 1000 Ang^3
#
#
#
# Elastic Constant Matrix: (Units=GPa)
#
#
# Indices 1 2 3 4 5 6 
#
# 1 80.0814 20.9129 4.1012 -0.0011 31.4639 -0.0003
# 2 20.9129 45.0469 8.5625 -0.0054 10.5926 0.0042
# 3 4.1012 8.5625 56.7090 -0.0097 23.7524 0.0014
# 4 -0.0011 -0.0054 -0.0097 30.7505 0.0003 1.3456
# 5 31.4639 10.5926 23.7524 0.0003 28.3747 0.0018
# 6 -0.0003 0.0042 0.0014 1.3456 0.0018 24.3067
#
#
#
# Elastic Compliance Matrix: (Units=1/GPa)
#
#
# Indices 1 2 3 4 5 6 
#
# 1 0.033557 -0.007336 0.020202 0.000007 -0.051383 0.000004
# 2 -0.007336 0.025941 -0.004215 0.000003 0.001980 -0.000005
# 3 0.020202 -0.004215 0.039319 0.000013 -0.053742 0.000002
# 4 0.000007 0.000003 0.000013 0.032599 -0.000020 -0.001805
# 5 -0.051383 0.001980 -0.053742 -0.000020 0.136468 -0.000007
# 6 0.000004 -0.000005 0.000002 -0.001805 -0.000007 0.041241
#
#
# Mechanical properties :
#
#
# Convention : Reuss Voigt Hill
#
# Bulk Modulus (GPa) = 8.61196 27.66562 18.13879
# Shear Modulus (GPa) = 15.12732 26.57043 20.84887
#
# Velocity S-wave (km/s) = 2.93569 3.89071 3.44644
# Velocity P-wave (km/s) = 4.04938 5.99542 5.11579
#
# Compressibility (1/GPa) = 0.11611760
#
# Stress axis : x y z
#
# Youngs Moduli (GPa) = 29.80032 38.54949 25.43307
#
# Poissons Ratio (x) = 0.28281 -0.51381
# Poissons Ratio (y) = 0.21862 0.10721
# Poissons Ratio (z) = -0.60203 0.16250
#
# Static dielectric constant tensor:
#      x y z
#    x 1.615400 0.000000 0.016390 
#    y 0.000000 1.588130 0.000000 
#    z 0.016390 0.000000 1.572400 
# 
# From -- ./inp_files/280878.got.cif
#   From: 2010.05.17/outbox.cif.g08.bks.cpg/sg12_141_cif.got.tgz:280878.got - 2010.06.03 13:09:07.
