data_PCOD9195674
_publ_section_title
;
Structure prediction by ZEFSAII (Michael W. Deem and Ramdas Pophale) SiO2 
 PCOD9195674
Probable space group: C 2/M
;
_chemical_formula_sum "Si O2"
_cell_formula_units_Z 48
_cell_length_a 8.343158
_cell_length_b 18.427560
_cell_length_c 15.486084
_cell_angle_alpha 90.000000
_cell_angle_beta 104.547605
_cell_angle_gamma 90.000000
_cell_volume 2304.560027
_symmetry_space_group_name_H-M "C 2/M"
_symmetry_group_IT_number 12
_symmetry_cell_setting 'monoclinic'
loop_
_space_group_symop_operation_xyz
x,y,z
-x,y,-z
-x,-y,-z
x,-y,z
1/2+x,1/2+y,z
1/2-x,1/2+y,-z
1/2-x,1/2-y,-z
1/2+x,1/2-y,z
loop_
_atom_site_type_symbol
_atom_site_label
_atom_site_fract_x
_atom_site_fract_y
_atom_site_fract_z
Si Si1 0.692306 0.920682 0.677463
Si Si2 0.903526 0.695925 0.616432
Si Si3 0.199783 0.669656 0.027230
Si Si4 0.625392 0.643893 0.448733
Si Si5 0.875228 0.295731 0.807436
Si Si6 0.754337 0.145657 0.857887
O O1 0.562278 0.855630 0.645460
O O2 0.831722 0.906300 0.625493
O O3 0.759457 0.913055 0.783652
O O4 0.615859 0.000000 0.654973
O O5 0.787612 0.663618 0.526589
O O6 0.941696 0.778533 0.594945
O O7 0.821149 0.698563 0.700819
O O8 0.233154 0.662667 0.134048
O O9 0.250000 0.750000 0.000000
O O10 0.279663 0.622714 0.961030
O O11 0.000000 0.662703 0.000000
O O12 0.500000 0.610813 0.500000
O O13 0.866150 0.212970 0.840490
O O14 0.064268 0.323781 0.832361
#
# Coordination Sequence:
#
# PCOD9195674 Si02
#       6
#     8   8   8   8   8   8
#     4  11  23  38  55  79 112 149 178 217 279 335
#     4  10  20  35  55  79 107 143 181 223 271 329
#     4   8  14  25  43  73 105 131 163 211 259 302
#     4  11  22  35  56  79 104 137 188 235 274 311
#     4   9  16  27  50  76 105 135 171 219 263 304
#     4   9  17  30  50  76 106 135 173 215 260 314
#
# _framework density 20.82827
#
# number of rings (size 3 to 8) (size 9 to 14) (size 15 to 20)
#    0.000    2.333    1.667    2.500    2.333    1.667 
#    0.000    0.000    0.000   12.500    0.000    0.000 
#    0.000   69.333    0.000    0.000    0.000    0.000 
#
# Total GULP energy -133727.565302 kJ/mol
# GULP energy per Si atom -5571.981888 kJ/mol
# Density = 2.078086 g / cm^3
# Si number density = 20.828270 Si / 1000 Ang^3
#
#
#
# Elastic Constant Matrix: (Units=GPa)
#
#
# Indices 1 2 3 4 5 6 
#
# 1 41.8458 7.1427 32.3014 0.0000 -23.9212 0.0000
# 2 7.1427 40.2267 30.3960 0.0000 -10.1546 0.0000
# 3 32.3014 30.3960 171.2483 0.0000 -51.2473 0.0000
# 4 0.0000 0.0000 0.0000 -17.5024 0.0000 0.5512
# 5 -23.9212 -10.1546 -51.2473 0.0000 32.9997 0.0000
# 6 0.0000 0.0000 0.0000 0.5512 0.0000 8.5190
#
#
#
# Elastic Compliance Matrix: (Units=1/GPa)
#
#
# Indices 1 2 3 4 5 6 
#
# 1 0.041253 -0.000659 0.002287 0.000000 0.033253 0.000000
# 2 -0.000659 0.028772 -0.004626 0.000000 0.001193 0.000000
# 3 0.002287 -0.004626 0.011769 0.000000 0.018510 0.000000
# 4 0.000000 0.000000 0.000000 -0.057019 0.000000 0.003689
# 5 0.033253 0.001193 0.018510 0.000000 0.083520 0.000000
# 6 0.000000 0.000000 0.000000 0.003689 0.000000 0.117146
#
#
# Mechanical properties :
#
#
# Convention : Reuss Voigt Hill
#
# Bulk Modulus (GPa) = 13.19285 43.66678 28.42982
# Shear Modulus (GPa) = 19.47771 17.03532 18.25652
#
# Velocity S-wave (km/s) = 3.06135 2.86299 2.96383
# Velocity P-wave (km/s) = 4.34093 5.65151 5.03901
#
# Compressibility (1/GPa) = 0.07579861
#
# Stress axis : x y z
#
# Youngs Moduli (GPa) = 24.24038 34.75542 84.97229
#
# Poissons Ratio (x) = 0.02289 -0.19430
# Poissons Ratio (y) = 0.01597 0.39307
# Poissons Ratio (z) = -0.05543 0.16078
#
# Static dielectric constant tensor:
#      x y z
#    x 1.783580 0.000000 0.006080 
#    y 0.000000 1.711830 0.000000 
#    z 0.006080 0.000000 1.866840 
# 
# From -- ./inp_files/196479.got.cif
#   From: 2010.05.17/outbox.cif.g08.bks.cpg/sg12_99_cif.got.tgz:196479.got - 2010.06.03 13:09:07.
