data_PCOD9195700
_publ_section_title
;
Structure prediction by ZEFSAII (Michael W. Deem and Ramdas Pophale) SiO2 
 PCOD9195700
Probable space group: C 2/M
;
_chemical_formula_sum "Si O2"
_cell_formula_units_Z 48
_cell_length_a 19.677214
_cell_length_b 8.744416
_cell_length_c 21.546947
_cell_angle_alpha 90.000000
_cell_angle_beta 133.422091
_cell_angle_gamma 90.000000
_cell_volume 2692.787041
_symmetry_space_group_name_H-M "C 2/M"
_symmetry_group_IT_number 12
_symmetry_cell_setting 'monoclinic'
loop_
_space_group_symop_operation_xyz
x,y,z
-x,y,-z
-x,-y,-z
x,-y,z
1/2+x,1/2+y,z
1/2-x,1/2+y,-z
1/2-x,1/2-y,-z
1/2+x,1/2-y,z
loop_
_atom_site_type_symbol
_atom_site_label
_atom_site_fract_x
_atom_site_fract_y
_atom_site_fract_z
Si Si1 0.990344 0.682478 0.261419
Si Si2 0.013797 0.183491 0.079827
Si Si3 0.148219 0.182704 0.923560
Si Si4 0.847357 0.318345 0.736349
Si Si5 0.856524 0.682419 0.408741
Si Si6 0.506078 0.317251 0.407871
O O1 0.983087 0.500000 0.264690
O O2 0.080254 0.714883 0.274264
O O3 0.901078 0.744230 0.167489
O O4 0.000561 0.762305 0.333903
O O5 0.921329 0.216611 0.062464
O O6 0.099812 0.264093 0.168320
O O7 0.028892 0.000000 0.091021
O O8 0.000000 0.230028 0.000000
O O9 0.152998 0.000000 0.919364
O O10 0.250000 0.250000 0.000000
O O11 0.831219 0.500000 0.728149
O O12 0.750234 0.232512 0.665622
O O13 0.865678 0.500000 0.414714
O O14 0.918393 0.751269 0.391593
O O15 0.902862 0.750483 0.500149
O O16 0.506438 0.500000 0.412240
#
# Coordination Sequence:
#
# PCOD9195700 Si02
#       6
#     8   8   8   8   8   8
#     4  10  21  38  58  81 111 146 185 228 277 329
#     4   9  19  36  56  78 106 142 183 226 272 323
#     4  10  20  35  55  79 109 144 183 228 277 327
#     4  10  21  37  57  82 112 145 184 229 273 322
#     4  11  22  38  59  82 112 147 183 223 272 328
#     4  11  22  38  59  83 112 143 182 229 275 325
#
# _framework density 17.825399000000001
#
# number of rings (size 3 to 8) (size 9 to 14) (size 15 to 20)
#    0.000    1.833    0.000    5.500    0.000    5.000 
#    0.000    5.000    0.000    0.000    0.000    0.000 
#    0.000    0.000    0.000    0.000    0.000    0.000 
#
# Total GULP energy -134090.122063 kJ/mol
# GULP energy per Si atom -5587.088419 kJ/mol
# Density = 1.778483 g / cm^3
# Si number density = 17.825399 Si / 1000 Ang^3
#
#
#
# Elastic Constant Matrix: (Units=GPa)
#
#
# Indices 1 2 3 4 5 6 
#
# 1 67.2934 64.7312 98.5002 0.0000 -3.5140 0.0000
# 2 64.7312 125.6032 95.8641 0.0000 1.7006 0.0000
# 3 98.5002 95.8641 180.3520 0.0000 -3.3828 0.0000
# 4 0.0000 0.0000 0.0000 39.4318 0.0000 1.3589
# 5 -3.5140 1.7006 -3.3828 0.0000 43.1566 0.0000
# 6 0.0000 0.0000 0.0000 1.3589 0.0000 28.4613
#
#
#
# Elastic Compliance Matrix: (Units=1/GPa)
#
#
# Indices 1 2 3 4 5 6 
#
# 1 0.088276 -0.014850 -0.040232 0.000000 0.004619 0.000000
# 2 -0.014850 0.015946 -0.000400 0.000000 -0.001869 0.000000
# 3 -0.040232 -0.000400 0.027710 0.000000 -0.001088 0.000000
# 4 0.000000 0.000000 0.000000 0.025402 0.000000 -0.001213
# 5 0.004619 -0.001869 -0.001088 0.000000 0.023536 0.000000
# 6 0.000000 0.000000 0.000000 -0.001213 0.000000 0.035193
#
#
# Mechanical properties :
#
#
# Convention : Reuss Voigt Hill
#
# Bulk Modulus (GPa) = 47.69586 99.04884 73.37235
# Shear Modulus (GPa) = 14.96932 29.82015 22.39474
#
# Velocity S-wave (km/s) = 2.90103 4.09455 3.54833
# Velocity P-wave (km/s) = 6.16739 8.83406 7.61831
#
# Compressibility (1/GPa) = 0.02096618
#
# Stress axis : x y z
#
# Youngs Moduli (GPa) = 11.32815 62.71321 36.08804
#
# Poissons Ratio (x) = 0.93131 1.45190
# Poissons Ratio (y) = 0.16823 0.01444
# Poissons Ratio (z) = 0.45576 0.02510
#
# Static dielectric constant tensor:
#      x y z
#    x 1.590600 0.000000 -0.003400 
#    y 0.000000 1.596020 0.000000 
#    z -0.003400 0.000000 1.576470 
# 
# From -- ./inp_files/320300.got.cif
#   From: 2010.05.17/outbox.cif.g08.bks.cpg/sg12_161_cif.got.tgz:320300.got - 2010.06.03 13:09:07.
