data_PCOD9195577
_publ_section_title
;
Structure prediction by ZEFSAII (Michael W. Deem and Ramdas Pophale) SiO2 
 PCOD9195577
Probable space group: C 2/M
;
_chemical_formula_sum "Si O2"
_cell_formula_units_Z 64
_cell_length_a 14.685795
_cell_length_b 9.302178
_cell_length_c 22.834786
_cell_angle_alpha 90.000000
_cell_angle_beta 93.867109
_cell_angle_gamma 90.000000
_cell_volume 3112.354848
_symmetry_space_group_name_H-M "C 2/M"
_symmetry_group_IT_number 12
_symmetry_cell_setting 'monoclinic'
loop_
_space_group_symop_operation_xyz
x,y,z
-x,y,-z
-x,-y,-z
x,-y,z
1/2+x,1/2+y,z
1/2-x,1/2+y,-z
1/2-x,1/2-y,-z
1/2+x,1/2-y,z
loop_
_atom_site_type_symbol
_atom_site_label
_atom_site_fract_x
_atom_site_fract_y
_atom_site_fract_z
Si Si1 0.882449 0.835511 0.536404
Si Si2 0.672286 0.164660 0.573472
Si Si3 0.302659 0.827260 0.915123
Si Si4 0.476332 0.170133 0.861432
Si Si5 0.079535 0.830526 0.334984
Si Si6 0.919304 0.832312 0.235671
Si Si7 0.737108 0.673184 0.689298
Si Si8 0.135264 0.330806 0.951230
O O1 0.775891 0.837548 0.552004
O O2 0.888184 0.736393 0.479887
O O3 0.932930 0.786386 0.597779
O O4 0.906681 0.000000 0.523367
O O5 0.682203 0.261102 0.631668
O O6 0.646315 0.000000 0.585171
O O7 0.373546 0.778049 0.868681
O O8 0.204269 0.755796 0.912787
O O9 0.294897 0.000000 0.911158
O O10 0.346049 0.790901 0.980765
O O11 0.533596 0.245072 0.813691
O O12 0.533415 0.189931 0.923839
O O13 0.472371 0.000000 0.849336
O O14 0.162063 0.740212 0.310380
O O15 0.988581 0.819036 0.293448
O O16 0.106524 0.000000 0.337489
O O17 0.819797 0.788336 0.254870
O O18 0.914479 0.000000 0.218733
O O19 0.740404 0.500000 0.685043
O O20 0.156109 0.500000 0.946965
#
# Coordination Sequence:
#
# PCOD9195577 Si02
#       8
#     8   8   8   8   8   8   8   8
#     4   8  14  26  47  73  98 127 167 211 256 311
#     4   9  16  27  47  75 104 133 166 207 259 317
#     4   9  18  34  56  82 111 141 175 215 258 307
#     4  10  21  36  55  78 106 142 179 216 260 308
#     4   9  19  37  57  75 100 137 176 215 262 313
#     4  10  23  40  55  75 105 140 180 222 261 307
#     4  10  20  35  55  77 102 135 174 217 264 311
#     4   9  18  34  56  82 111 142 175 212 258 311
#
# _framework density 20.563206999999998
#
# number of rings (size 3 to 8) (size 9 to 14) (size 15 to 20)
#    0.000    2.750    0.000    1.875    0.000    8.000 
#    0.000    5.625    0.000    7.500    0.000    0.000 
#    0.000    0.000    0.000    0.000    0.000    0.000 
#
# Total GULP energy -178608.779760 kJ/mol
# GULP energy per Si atom -5581.524368 kJ/mol
# Density = 2.051640 g / cm^3
# Si number density = 20.563207 Si / 1000 Ang^3
#
#
#
# Elastic Constant Matrix: (Units=GPa)
#
#
# Indices 1 2 3 4 5 6 
#
# 1 71.4381 28.3931 15.9934 0.0000 -34.7278 0.0000
# 2 28.3931 36.3039 13.2167 0.0000 -15.3098 0.0000
# 3 15.9934 13.2167 24.2766 0.0000 -18.1593 0.0000
# 4 0.0000 0.0000 0.0000 30.3691 0.0000 -1.2504
# 5 -34.7278 -15.3098 -18.1593 0.0000 32.5281 0.0000
# 6 0.0000 0.0000 0.0000 -1.2504 0.0000 16.6808
#
#
#
# Elastic Compliance Matrix: (Units=1/GPa)
#
#
# Indices 1 2 3 4 5 6 
#
# 1 0.036692 -0.017535 0.014599 0.000000 0.039070 0.000000
# 2 -0.017535 0.044670 -0.018963 0.000000 -0.008283 0.000000
# 3 0.014599 -0.018963 0.080494 0.000000 0.051598 0.000000
# 4 0.000000 0.000000 0.000000 0.033030 0.000000 0.002476
# 5 0.039070 -0.008283 0.051598 0.000000 0.097362 0.000000
# 6 0.000000 0.000000 0.000000 0.002476 0.000000 0.060135
#
#
# Mechanical properties :
#
#
# Convention : Reuss Voigt Hill
#
# Bulk Modulus (GPa) = 8.47036 27.46944 17.96990
# Shear Modulus (GPa) = 11.48015 20.87663 16.17839
#
# Velocity S-wave (km/s) = 2.36537 3.18974 2.80797
# Velocity P-wave (km/s) = 3.40413 5.19167 4.38985
#
# Compressibility (1/GPa) = 0.11805876
#
# Stress axis : x y z
#
# Youngs Moduli (GPa) = 27.25378 22.38634 12.42325
#
# Poissons Ratio (x) = 0.39255 -0.18137
# Poissons Ratio (y) = 0.47790 0.23558
# Poissons Ratio (z) = -0.39788 0.42451
#
# Static dielectric constant tensor:
#      x y z
#    x 1.751920 0.000000 0.008430 
#    y 0.000000 1.693770 0.000000 
#    z 0.008430 0.000000 1.752320 
# 
# From -- ./inp_files/338890.got.cif
#   From: 2010.05.17/outbox.cif.g08.bks.cpg/sg12_170_cif.got.tgz:338890.got - 2010.06.03 13:09:07.
