data_PCOD9195510
_publ_section_title
;
Structure prediction by ZEFSAII (Michael W. Deem and Ramdas Pophale) SiO2 
 PCOD9195510
Probable space group: C 2/M
;
_chemical_formula_sum "Si O2"
_cell_formula_units_Z 64
_cell_length_a 30.164012
_cell_length_b 7.472293
_cell_length_c 15.809203
_cell_angle_alpha 90.000000
_cell_angle_beta 128.930800
_cell_angle_gamma 90.000000
_cell_volume 2771.914292
_symmetry_space_group_name_H-M "C 2/M"
_symmetry_group_IT_number 12
_symmetry_cell_setting 'monoclinic'
loop_
_space_group_symop_operation_xyz
x,y,z
-x,y,-z
-x,-y,-z
x,-y,z
1/2+x,1/2+y,z
1/2-x,1/2+y,-z
1/2-x,1/2-y,-z
1/2+x,1/2-y,z
loop_
_atom_site_type_symbol
_atom_site_label
_atom_site_fract_x
_atom_site_fract_y
_atom_site_fract_z
Si Si1 0.836355 0.718149 0.825489
Si Si2 0.926999 0.210568 0.164754
Si Si3 0.216283 0.214309 0.746019
Si Si4 0.963299 0.794535 0.033312
Si Si5 0.010169 0.716736 0.416925
Si Si6 0.369649 0.786031 0.508023
Si Si7 0.186467 0.785723 0.891745
Si Si8 0.813811 0.286051 0.607668
O O1 0.838526 0.500000 0.830578
O O2 0.781440 0.777293 0.813881
O O3 0.896906 0.788181 0.928363
O O4 0.825331 0.778391 0.715846
O O5 0.863954 0.285709 0.108891
O O6 0.962168 0.228605 0.292989
O O7 0.920288 0.000000 0.137028
O O8 0.961708 0.286786 0.126023
O O9 0.180842 0.252852 0.619125
O O10 0.185290 0.282314 0.793415
O O11 0.219323 0.000000 0.757181
O O12 0.984108 0.000000 0.065733
O O13 0.000000 0.713344 0.000000
O O14 0.010787 0.500000 0.419246
O O15 0.071172 0.782473 0.457410
O O16 0.000000 0.779183 0.500000
O O17 0.354408 0.714921 0.582386
O O18 0.374851 0.000000 0.521685
O O19 0.178374 0.000000 0.879380
O O20 0.250000 0.750000 0.000000
O O21 0.820677 0.500000 0.619911
O O22 0.750000 0.250000 0.500000
#
# Coordination Sequence:
#
# PCOD9195510 Si02
#       8
#     8   8   8   8   8   8   8   8
#     4  10  21  36  56  82 112 144 184 231 278 330
#     4  10  22  40  59  83 114 148 189 234 279 331
#     4  10  20  35  55  82 112 141 177 223 273 331
#     4  10  23  41  58  80 111 148 192 237 279 329
#     4  10  22  39  59  85 116 149 187 231 277 331
#     4  10  21  35  54  81 111 144 184 224 271 329
#     4  10  21  36  57  83 110 140 179 225 275 331
#     4  10  20  35  54  81 114 146 183 227 275 331
#
# _framework density 23.088737999999999
#
# number of rings (size 3 to 8) (size 9 to 14) (size 15 to 20)
#    0.000    2.000    1.250    1.500    1.750    3.500 
#    0.000    0.000    0.000    0.000    0.000    0.000 
#    0.000    0.000    0.000    0.000    0.000    0.000 
#
# Total GULP energy -178856.237129 kJ/mol
# GULP energy per Si atom -5589.257410 kJ/mol
# Density = 2.303619 g / cm^3
# Si number density = 23.088738 Si / 1000 Ang^3
#
#
#
# Elastic Constant Matrix: (Units=GPa)
#
#
# Indices 1 2 3 4 5 6 
#
# 1 188.5849 11.8907 33.7190 0.0000 -21.1073 0.0000
# 2 11.8907 71.4010 -12.4093 0.0000 -8.9190 0.0000
# 3 33.7190 -12.4093 84.6530 0.0000 -16.1166 0.0000
# 4 0.0000 0.0000 0.0000 9.0477 0.0000 16.9108
# 5 -21.1073 -8.9190 -16.1166 0.0000 48.7880 0.0000
# 6 0.0000 0.0000 0.0000 16.9108 0.0000 -3.1104
#
#
#
# Elastic Compliance Matrix: (Units=1/GPa)
#
#
# Indices 1 2 3 4 5 6 
#
# 1 0.005959 -0.001178 -0.002237 0.000000 0.001624 0.000000
# 2 -0.001178 0.015203 0.003340 0.000000 0.003373 0.000000
# 3 -0.002237 0.003340 0.014007 0.000000 0.004270 0.000000
# 4 0.000000 0.000000 0.000000 0.009902 0.000000 0.053836
# 5 0.001624 0.003373 0.004270 0.000000 0.023226 0.000000
# 6 0.000000 0.000000 0.000000 0.053836 0.000000 -0.028804
#
#
# Mechanical properties :
#
#
# Convention : Reuss Voigt Hill
#
# Bulk Modulus (GPa) = 28.55657 45.67108 37.11382
# Shear Modulus (GPa) = 97.43447 31.70763 64.57105
#
# Velocity S-wave (km/s) = 6.50320 3.70982 5.29407
# Velocity P-wave (km/s) = 8.29360 6.17851 7.31293
#
# Compressibility (1/GPa) = 0.03501821
#
# Stress axis : x y z
#
# Youngs Moduli (GPa) = 167.82326 65.77443 71.39525
#
# Poissons Ratio (x) = 0.07750 0.15972
# Poissons Ratio (y) = 0.19775 -0.23847
# Poissons Ratio (z) = 0.37544 -0.21970
#
# Static dielectric constant tensor:
#      x y z
#    x 1.902320 0.000000 -0.039670 
#    y 0.000000 1.738670 0.000000 
#    z -0.039670 0.000000 1.817010 
# 
# From -- ./inp_files/250118.got.cif
#   From: 2010.05.17/outbox.cif.g08.bks.cpg/sg12_126_cif.got.tgz:250118.got - 2010.06.03 13:09:07.
