data_PCOD9195176
_publ_section_title
;
Structure prediction by ZEFSAII (Michael W. Deem and Ramdas Pophale) SiO2 
 PCOD9195176
Probable space group: C 2/M
;
_chemical_formula_sum "Si O2"
_cell_formula_units_Z 48
_cell_length_a 19.971408
_cell_length_b 7.623172
_cell_length_c 23.415176
_cell_angle_alpha 90.000000
_cell_angle_beta 139.016957
_cell_angle_gamma 90.000000
_cell_volume 2337.958743
_symmetry_space_group_name_H-M "C 2/M"
_symmetry_group_IT_number 12
_symmetry_cell_setting 'monoclinic'
loop_
_space_group_symop_operation_xyz
x,y,z
-x,y,-z
-x,-y,-z
x,-y,z
1/2+x,1/2+y,z
1/2-x,1/2+y,-z
1/2-x,1/2-y,-z
1/2+x,1/2-y,z
loop_
_atom_site_type_symbol
_atom_site_label
_atom_site_fract_x
_atom_site_fract_y
_atom_site_fract_z
Si Si1 0.543286 0.702686 0.585949
Si Si2 0.283295 0.211543 0.869360
Si Si3 0.777614 0.792175 0.738655
Si Si4 0.046324 0.784352 0.713208
Si Si5 0.356362 0.209507 0.036866
Si Si6 0.948079 0.204189 0.764067
O O1 0.500000 0.784260 0.500000
O O2 0.508531 0.500000 0.564390
O O3 0.666127 0.707503 0.663624
O O4 0.514476 0.776866 0.629560
O O5 0.319263 0.265933 0.829753
O O6 0.164583 0.267965 0.799011
O O7 0.283469 0.000000 0.870745
O O8 0.345792 0.272651 0.964678
O O9 0.855421 0.720854 0.741474
O O10 0.763553 0.000000 0.721514
O O11 0.977304 0.721362 0.721047
O O12 0.046341 0.000000 0.713230
O O13 0.450191 0.287319 0.132060
O O14 0.370165 0.000000 0.045245
O O15 0.250000 0.250000 0.000000
O O16 0.923195 0.000000 0.738589
#
# Coordination Sequence:
#
# PCOD9195176 Si02
#       6
#     8   8   8   8   8   8
#     4   9  18  35  59  80  99 130 172 214 256 315
#     4   9  18  34  53  71  99 141 180 214 253 303
#     4  10  21  34  52  77 107 137 167 217 268 305
#     4   8  14  30  53  72  96 133 172 205 248 307
#     4  11  21  33  52  77 104 138 180 222 256 297
#     4  10  20  35  51  73 107 142 174 212 263 308
#
# _framework density 20.530729000000001
#
# number of rings (size 3 to 8) (size 9 to 14) (size 15 to 20)
#    0.000    2.500    1.667    2.000    0.000    3.667 
#    0.000    4.167    0.000    0.000    0.000    0.000 
#    0.000    0.000    0.000    0.000    0.000    0.000 
#
# Total GULP energy -133895.271082 kJ/mol
# GULP energy per Si atom -5578.969628 kJ/mol
# Density = 2.048400 g / cm^3
# Si number density = 20.530729 Si / 1000 Ang^3
#
#
#
# Elastic Constant Matrix: (Units=GPa)
#
#
# Indices 1 2 3 4 5 6 
#
# 1 160.2439 -3.8321 54.3994 0.0000 -41.8742 0.0000
# 2 -3.8321 45.8682 -8.2761 0.0000 -5.8943 0.0000
# 3 54.3994 -8.2761 107.8053 0.0000 -46.1077 0.0000
# 4 0.0000 0.0000 0.0000 11.5729 0.0000 0.0657
# 5 -41.8742 -5.8943 -46.1077 0.0000 33.5831 0.0000
# 6 0.0000 0.0000 0.0000 0.0657 0.0000 14.7617
#
#
#
# Elastic Compliance Matrix: (Units=1/GPa)
#
#
# Indices 1 2 3 4 5 6 
#
# 1 0.009624 0.003055 0.001792 0.000000 0.014996 0.000000
# 2 0.003055 0.026734 0.010045 0.000000 0.022292 0.000000
# 3 0.001792 0.010045 0.026290 0.000000 0.040092 0.000000
# 4 0.000000 0.000000 0.000000 0.086411 0.000000 -0.000385
# 5 0.014996 0.022292 0.040092 0.000000 0.107433 0.000000
# 6 0.000000 0.000000 0.000000 -0.000385 0.000000 0.067745
#
#
# Mechanical properties :
#
#
# Convention : Reuss Voigt Hill
#
# Bulk Modulus (GPa) = 10.81876 44.27775 27.54826
# Shear Modulus (GPa) = 15.37215 30.09195 22.73205
#
# Velocity S-wave (km/s) = 2.73928 3.83260 3.33110
# Velocity P-wave (km/s) = 3.90971 6.41861 5.31434
#
# Compressibility (1/GPa) = 0.09243201
#
# Stress axis : x y z
#
# Youngs Moduli (GPa) = 103.90718 37.40558 38.03701
#
# Poissons Ratio (x) = -0.11426 -0.06816
# Poissons Ratio (y) = -0.31738 -0.38210
# Poissons Ratio (z) = -0.18621 -0.37575
#
# Static dielectric constant tensor:
#      x y z
#    x 1.743080 0.000000 -0.039360 
#    y 0.000000 1.801860 0.000000 
#    z -0.039360 0.000000 1.770420 
# 
# From -- ./inp_files/221655.got.cif
#   From: 2010.05.17/outbox.cif.g08.bks.cpg/sg12_111_cif.got.tgz:221655.got - 2010.06.03 13:09:07.
