data_PCOD9195161
_publ_section_title
;
Structure prediction by ZEFSAII (Michael W. Deem and Ramdas Pophale) SiO2 
 PCOD9195161
Probable space group: C 2/M
;
_chemical_formula_sum "Si O2"
_cell_formula_units_Z 64
_cell_length_a 23.537693
_cell_length_b 9.423251
_cell_length_c 22.138691
_cell_angle_alpha 90.000000
_cell_angle_beta 57.003460
_cell_angle_gamma 90.000000
_cell_volume 4118.366805
_symmetry_space_group_name_H-M "C 2/M"
_symmetry_group_IT_number 12
_symmetry_cell_setting 'monoclinic'
loop_
_space_group_symop_operation_xyz
x,y,z
-x,y,-z
-x,-y,-z
x,-y,z
1/2+x,1/2+y,z
1/2-x,1/2+y,-z
1/2-x,1/2-y,-z
1/2+x,1/2-y,z
loop_
_atom_site_type_symbol
_atom_site_label
_atom_site_fract_x
_atom_site_fract_y
_atom_site_fract_z
Si Si1 0.468350 0.834271 0.923168
Si Si2 0.824921 0.169301 0.223831
Si Si3 0.039320 0.170422 0.780895
Si Si4 0.390968 0.165441 0.082458
Si Si5 0.187656 0.331014 0.373498
Si Si6 0.457202 0.668684 0.360630
Si Si7 0.808502 0.169131 0.502266
Si Si8 0.962442 0.668521 0.583945
O O1 0.482958 0.743380 0.855471
O O2 0.538360 0.827340 0.921037
O O3 0.456961 0.000000 0.915373
O O4 0.410080 0.785907 0.003659
O O5 0.886854 0.206691 0.233462
O O6 0.838738 0.245768 0.152347
O O7 0.753454 0.204450 0.295689
O O8 0.827574 0.000000 0.213400
O O9 0.035549 0.213590 0.713263
O O10 0.032939 0.000000 0.787935
O O11 0.371583 0.000000 0.090951
O O12 0.191325 0.500000 0.386828
O O13 0.187096 0.238264 0.434199
O O14 0.117425 0.308214 0.378978
O O15 0.470373 0.500000 0.356302
O O16 0.380111 0.691055 0.427184
O O17 0.506158 0.749828 0.377949
O O18 0.750000 0.250000 0.500000
O O19 0.795713 0.000000 0.512529
O O20 0.974377 0.500000 0.584341
O O21 0.000000 0.712478 0.500000
#
# Coordination Sequence:
#
# PCOD9195161 Si02
#       8
#     8   8   8   8   8   8   8   8
#     4   8  14  25  41  63  92 126 155 185 225 270
#     4   9  17  29  46  67  96 128 155 188 232 279
#     4   9  17  29  44  66  95 125 155 189 229 279
#     4   8  14  25  41  63  94 125 155 187 222 271
#     4  10  20  35  51  69  96 125 158 201 242 281
#     4  10  21  35  50  69  95 125 159 199 243 284
#     4  11  22  34  50  71  96 127 159 192 235 287
#     4  10  20  35  54  72  90 119 161 206 245 283
#
# _framework density 15.540141
#
# number of rings (size 3 to 8) (size 9 to 14) (size 15 to 20)
#    0.000    2.625    1.250    1.875    0.000    4.750 
#    0.000    5.000    0.000    0.000    0.000    0.875 
#    0.000    0.000    0.000    0.000    0.000    0.000 
#
# Total GULP energy -178311.346046 kJ/mol
# GULP energy per Si atom -5572.229564 kJ/mol
# Density = 1.550477 g / cm^3
# Si number density = 15.540141 Si / 1000 Ang^3
#
#
#
# Elastic Constant Matrix: (Units=GPa)
#
#
# Indices 1 2 3 4 5 6 
#
# 1 76.2057 45.9462 62.4326 0.0000 10.6987 0.0013
# 2 45.9462 47.8478 67.1293 -0.0001 7.8344 0.0021
# 3 62.4326 67.1293 170.9486 0.0000 16.5232 0.0001
# 4 0.0000 -0.0001 0.0000 30.3898 0.0000 4.0615
# 5 10.6987 7.8344 16.5232 0.0000 3.9672 -0.0002
# 6 0.0013 0.0021 0.0001 4.0615 -0.0002 21.5421
#
#
#
# Elastic Compliance Matrix: (Units=1/GPa)
#
#
# Indices 1 2 3 4 5 6 
#
# 1 0.036759 -0.033315 0.004821 0.000000 -0.053419 0.000001
# 2 -0.033315 0.078450 -0.020670 0.000001 0.021011 -0.000005
# 3 0.004821 -0.020670 0.015930 0.000000 -0.038530 0.000001
# 4 0.000000 0.000001 0.000000 0.033756 0.000000 -0.006364
# 5 -0.053419 0.021011 -0.038530 0.000000 0.515105 0.000006
# 6 0.000001 -0.000005 0.000001 -0.006364 0.000006 0.047621
#
#
# Mechanical properties :
#
#
# Convention : Reuss Voigt Hill
#
# Bulk Modulus (GPa) = 30.47812 71.77980 51.12896
# Shear Modulus (GPa) = 5.97454 19.14609 12.56032
#
# Velocity S-wave (km/s) = 1.96289 3.51385 2.84606
# Velocity P-wave (km/s) = 4.97919 7.92168 6.61609
#
# Compressibility (1/GPa) = 0.03281043
#
# Stress axis : x y z
#
# Youngs Moduli (GPa) = 27.20452 12.74705 62.77426
#
# Poissons Ratio (x) = 0.42466 -0.30262
# Poissons Ratio (y) = 0.90631 1.29755
# Poissons Ratio (z) = -0.13115 0.26348
#
# Static dielectric constant tensor:
#      x y z
#    x 1.490920 0.000000 -0.003320 
#    y 0.000000 1.518420 0.000000 
#    z -0.003320 0.000000 1.520340 
# 
# From -- ./inp_files/319970.got.cif
#   From: 2010.05.17/outbox.cif.g08.bks.cpg/sg12_160_cif.got.tgz:319970.got - 2010.06.03 13:09:07.
