data_PCOD9195071
_publ_section_title
;
Structure prediction by ZEFSAII (Michael W. Deem and Ramdas Pophale) SiO2 
 PCOD9195071
Probable space group: C 2/M
;
_chemical_formula_sum "Si O2"
_cell_formula_units_Z 64
_cell_length_a 9.686626
_cell_length_b 19.522306
_cell_length_c 22.637046
_cell_angle_alpha 90.000000
_cell_angle_beta 46.708481
_cell_angle_gamma 90.000000
_cell_volume 3115.873129
_symmetry_space_group_name_H-M "C 2/M"
_symmetry_group_IT_number 12
_symmetry_cell_setting 'monoclinic'
loop_
_space_group_symop_operation_xyz
x,y,z
-x,y,-z
-x,-y,-z
x,-y,z
1/2+x,1/2+y,z
1/2-x,1/2+y,-z
1/2-x,1/2-y,-z
1/2+x,1/2-y,z
loop_
_atom_site_type_symbol
_atom_site_label
_atom_site_fract_x
_atom_site_fract_y
_atom_site_fract_z
Si Si1 0.801025 0.272057 0.584349
Si Si2 0.738957 0.926200 0.368741
Si Si3 0.056517 0.424871 0.164876
Si Si4 0.305714 0.681821 0.021137
Si Si5 0.170243 0.112112 0.221074
Si Si6 0.875862 0.077841 0.895557
Si Si7 0.116201 0.249287 0.309542
Si Si8 0.184533 0.600957 0.252924
O O1 0.805123 0.355277 0.585292
O O2 0.608699 0.247954 0.609829
O O3 0.000000 0.247352 0.500000
O O4 0.780605 0.246594 0.657877
O O5 0.641884 0.922434 0.332343
O O6 0.965920 0.922720 0.291019
O O7 0.695273 0.000000 0.409178
O O8 0.145025 0.500000 0.123653
O O9 0.161210 0.356727 0.108881
O O10 0.055504 0.420536 0.236283
O O11 0.846545 0.423512 0.200161
O O12 0.500000 0.694882 0.000000
O O13 0.250000 0.750000 0.000000
O O14 0.330692 0.623006 0.964896
O O15 0.200257 0.112497 0.142054
O O16 0.152219 0.185961 0.256479
O O17 0.103781 0.076568 0.823545
O O18 0.804939 0.000000 0.919871
O O19 0.183053 0.317348 0.257782
#
# Coordination Sequence:
#
# PCOD9195071 Si02
#       8
#     8   8   8   8   8   8   8   8
#     4  10  20  35  56  83 117 158 194 231 289 352
#     4   9  18  36  56  83 117 150 194 245 296 348
#     4  12  24  38  62  88 116 154 201 247 298 358
#     4  12  30  46  61  86 118 158 199 247 297 354
#     4  10  22  36  61  87 121 150 196 244 307 344
#     4  11  23  42  65  85 118 158 196 246 301 355
#     4  10  21  36  56  87 117 154 187 251 286 348
#     4  10  20  34  61  84 111 149 199 243 305 342
#
# _framework density 20.539988000000001
#
# number of rings (size 3 to 8) (size 9 to 14) (size 15 to 20)
#    0.000    1.500    1.250    5.250    5.250    0.750 
#    0.000    1.250    0.000    0.000    0.000    0.000 
#    0.000   23.000    0.000    0.000    0.000    0.000 
#
# Total GULP energy -178614.095496 kJ/mol
# GULP energy per Si atom -5581.690484 kJ/mol
# Density = 2.049324 g / cm^3
# Si number density = 20.539988 Si / 1000 Ang^3
#
#
#
# Elastic Constant Matrix: (Units=GPa)
#
#
# Indices 1 2 3 4 5 6 
#
# 1 118.6703 8.5199 7.1537 -0.0018 0.5503 -0.0076
# 2 8.5199 135.5257 12.0017 -0.0025 6.2432 -0.0098
# 3 7.1537 12.0017 27.8050 -0.0135 -4.7505 -0.0464
# 4 -0.0018 -0.0025 -0.0135 17.9243 0.0040 44.3345
# 5 0.5503 6.2432 -4.7505 0.0040 17.5095 0.0125
# 6 -0.0076 -0.0098 -0.0464 44.3345 0.0125 157.7258
#
#
#
# Elastic Compliance Matrix: (Units=1/GPa)
#
#
# Indices 1 2 3 4 5 6 
#
# 1 0.008585 -0.000310 -0.002205 -0.000001 -0.000758 0.000000
# 2 -0.000310 0.007933 -0.004012 0.000000 -0.003908 0.000000
# 3 -0.002205 -0.004012 0.040392 0.000003 0.012459 0.000010
# 4 -0.000001 0.000000 0.000003 0.183067 -0.000004 -0.051457
# 5 -0.000758 -0.003908 0.012459 -0.000004 0.061909 0.000000
# 6 0.000000 0.000000 0.000010 -0.051457 0.000000 0.020804
#
#
# Mechanical properties :
#
#
# Convention : Reuss Voigt Hill
#
# Bulk Modulus (GPa) = 22.80085 37.48353 30.14219
# Shear Modulus (GPa) = 14.27089 55.58697 34.92893
#
# Velocity S-wave (km/s) = 2.63874 5.20784 4.12823
# Velocity P-wave (km/s) = 4.51760 7.37907 6.11798
#
# Compressibility (1/GPa) = 0.04385802
#
# Stress axis : x y z
#
# Youngs Moduli (GPa) = 116.47752 126.04835 24.75716
#
# Poissons Ratio (x) = 0.03902 0.05458
# Poissons Ratio (y) = 0.03606 0.09933
# Poissons Ratio (z) = 0.25679 0.50575
#
# Static dielectric constant tensor:
#      x y z
#    x 1.709170 0.000000 -0.000260 
#    y 0.000000 1.761660 0.000000 
#    z -0.000260 0.000000 1.748050 
# 
# From -- ./inp_files/333715.got.cif
#   From: 2010.05.17/outbox.cif.g08.bks.cpg/sg12_167_cif.got.tgz:333715.got - 2010.06.03 13:09:07.
