data_PCOD9195126
_publ_section_title
;
Structure prediction by ZEFSAII (Michael W. Deem and Ramdas Pophale) SiO2 
 PCOD9195126
Probable space group: C 2/M
;
_chemical_formula_sum "Si O2"
_cell_formula_units_Z 60
_cell_length_a 24.837306
_cell_length_b 16.735264
_cell_length_c 14.453141
_cell_angle_alpha 90.000000
_cell_angle_beta 29.024400
_cell_angle_gamma 90.000000
_cell_volume 2914.768137
_symmetry_space_group_name_H-M "C 2/M"
_symmetry_group_IT_number 12
_symmetry_cell_setting 'monoclinic'
loop_
_space_group_symop_operation_xyz
x,y,z
-x,y,-z
-x,-y,-z
x,-y,z
1/2+x,1/2+y,z
1/2-x,1/2+y,-z
1/2-x,1/2-y,-z
1/2+x,1/2-y,z
loop_
_atom_site_type_symbol
_atom_site_label
_atom_site_fract_x
_atom_site_fract_y
_atom_site_fract_z
Si Si1 0.367974 0.412708 0.715907
Si Si2 0.293888 0.092330 0.607098
Si Si3 0.500000 0.202340 0.000000
Si Si4 0.155902 0.162926 0.433462
Si Si5 0.093999 0.768458 0.209570
Si Si6 0.846077 0.214720 0.091512
Si Si7 0.723933 0.841252 0.569635
Si Si8 0.027973 0.407034 0.349587
O O1 0.500000 0.416193 0.500000
O O2 0.333852 0.500000 0.805644
O O3 0.321396 0.399345 0.682969
O O4 0.350958 0.333183 0.803255
O O5 0.194739 0.129131 0.815535
O O6 0.280494 0.113104 0.519860
O O7 0.416701 0.113962 0.459225
O O8 0.288610 0.000000 0.628542
O O9 0.453366 0.255840 0.986108
O O10 0.395264 0.154921 0.199307
O O11 0.245254 0.231687 0.280963
O O12 0.182941 0.132971 0.495917
O O13 0.034062 0.200586 0.604652
O O14 0.099445 0.674717 0.229670
O O15 0.141073 0.776858 0.036259
O O16 0.750000 0.750000 0.500000
O O17 0.063176 0.500000 0.271573
O O18 0.000000 0.410125 0.500000
#
# Coordination Sequence:
#
# PCOD9195126 Si02
#       8
#     8   8   4   8   8   8   8   8
#     4   9  20  38  59  86 123 160 201 256 310 367
#     4  11  23  39  59  90 128 159 199 258 314 363
#     4  10  20  34  64  90 116 156 208 250 294 370
#     4  10  20  37  61  86 116 159 206 250 305 370
#     4  11  21  36  65  88 120 165 209 249 310 367
#     4  11  22  36  60  90 119 159 208 249 300 370
#     4  11  19  37  63  88 121 161 205 248 305 369
#     4  10  20  38  63  90 125 164 205 256 313 373
#
# _framework density 20.584828000000002
#
# number of rings (size 3 to 8) (size 9 to 14) (size 15 to 20)
#    0.000    1.600    4.000    2.800    0.000    1.600 
#    0.000    1.333    0.000    1.600    0.000    0.000 
#    0.000    0.000    0.000    0.000    0.000    0.000 
#
# Total GULP energy -167309.046387 kJ/mol
# GULP energy per Si atom -5576.968213 kJ/mol
# Density = 2.053798 g / cm^3
# Si number density = 20.584828 Si / 1000 Ang^3
#
#
#
# Elastic Constant Matrix: (Units=GPa)
#
#
# Indices 1 2 3 4 5 6 
#
# 1 125.1826 34.3781 14.5438 0.0000 14.1918 0.0000
# 2 34.3781 98.3682 12.3618 0.0000 8.2054 0.0000
# 3 14.5438 12.3618 64.3670 0.0000 8.1029 0.0000
# 4 0.0000 0.0000 0.0000 -8.0382 0.0000 11.7333
# 5 14.1918 8.2054 8.1029 0.0000 39.0642 0.0000
# 6 0.0000 0.0000 0.0000 11.7333 0.0000 78.2387
#
#
#
# Elastic Compliance Matrix: (Units=1/GPa)
#
#
# Indices 1 2 3 4 5 6 
#
# 1 0.009195 -0.002853 -0.001216 0.000000 -0.002489 0.000000
# 2 -0.002853 0.011430 -0.001416 0.000000 -0.001071 0.000000
# 3 -0.001216 -0.001416 0.016418 0.000000 -0.002666 0.000000
# 4 0.000000 0.000000 0.000000 -0.102064 0.000000 0.015306
# 5 -0.002489 -0.001071 -0.002666 0.000000 0.027281 0.000000
# 6 0.000000 0.000000 0.000000 0.015306 0.000000 0.010486
#
#
# Mechanical properties :
#
#
# Convention : Reuss Voigt Hill
#
# Bulk Modulus (GPa) = 38.35341 45.60946 41.98144
# Shear Modulus (GPa) = -658.67323 36.96188 -310.85567
#
# Velocity S-wave (km/s) = -17.90739 4.24204 -12.30203
# Velocity P-wave (km/s) = 20.22112 6.79692 13.46655
#
# Compressibility (1/GPa) = 0.02607330
#
# Stress axis : x y z
#
# Youngs Moduli (GPa) = 108.75037 87.48719 60.90762
#
# Poissons Ratio (x) = 0.24961 0.07409
# Poissons Ratio (y) = 0.31028 0.08623
# Poissons Ratio (z) = 0.13229 0.12386
#
# Static dielectric constant tensor:
#      x y z
#    x 1.749610 0.000000 -0.041840 
#    y 0.000000 1.770230 0.000000 
#    z -0.041840 0.000000 1.764520 
# 
# From -- ./inp_files/246710.got.cif
#   From: 2010.05.17/outbox.cif.g08.bks.cpg/sg12_124_cif.got.tgz:246710.got - 2010.06.03 13:09:07.
