data_PCOD9195496
_publ_section_title
;
Structure prediction by ZEFSAII (Michael W. Deem and Ramdas Pophale) SiO2 
 PCOD9195496
Probable space group: C 2/M
;
_chemical_formula_sum "Si O2"
_cell_formula_units_Z 56
_cell_length_a 15.467167
_cell_length_b 8.007141
_cell_length_c 24.980019
_cell_angle_alpha 90.000000
_cell_angle_beta 61.678678
_cell_angle_gamma 90.000000
_cell_volume 2723.404459
_symmetry_space_group_name_H-M "C 2/M"
_symmetry_group_IT_number 12
_symmetry_cell_setting 'monoclinic'
loop_
_space_group_symop_operation_xyz
x,y,z
-x,y,-z
-x,-y,-z
x,-y,z
1/2+x,1/2+y,z
1/2-x,1/2+y,-z
1/2-x,1/2-y,-z
1/2+x,1/2-y,z
loop_
_atom_site_type_symbol
_atom_site_label
_atom_site_fract_x
_atom_site_fract_y
_atom_site_fract_z
Si Si1 0.899677 0.700489 0.499567
Si Si2 0.673447 0.694354 0.802546
Si Si3 0.318237 0.202371 0.408580
Si Si4 0.024040 0.796763 0.933341
Si Si5 0.565728 0.805376 0.730317
Si Si6 0.653075 0.694999 0.191120
Si Si7 0.827640 0.799382 0.932372
O O1 0.909318 0.500000 0.494078
O O2 0.795502 0.740581 0.558657
O O3 0.875976 0.759813 0.445490
O O4 0.000000 0.761871 0.500000
O O5 0.647559 0.500000 0.803491
O O6 0.620154 0.756769 0.872758
O O7 0.632756 0.786613 0.762997
O O8 0.788183 0.714941 0.779285
O O9 0.375999 0.257359 0.338762
O O10 0.316479 0.000000 0.410204
O O11 0.933710 0.747425 0.922432
O O12 0.027661 0.000000 0.936108
O O13 0.000000 0.734307 0.000000
O O14 0.463217 0.713949 0.770196
O O15 0.542616 0.000000 0.728707
O O16 0.678459 0.500000 0.186373
O O17 0.686014 0.766066 0.123484
O O18 0.827801 0.000000 0.928909
O O19 0.750000 0.750000 0.000000
#
# Coordination Sequence:
#
# PCOD9195496 Si02
#       7
#     8   8   8   8   8   8   8
#     4   9  18  35  60  89 121 156 196 239 283 338
#     4  11  22  39  61  84 113 152 197 248 304 360
#     4   9  20  37  57  86 121 156 196 241 289 341
#     4   9  17  32  54  78 107 141 182 235 297 357
#     4  11  23  40  60  85 122 163 203 247 295 354
#     4  11  23  40  59  84 118 154 197 247 299 361
#     4  10  20  35  54  80 112 146 187 240 298 360
#
# _framework density 20.5625
#
# number of rings (size 3 to 8) (size 9 to 14) (size 15 to 20)
#    0.000    2.000    1.429    2.143    0.000    4.857 
#    0.000    1.429    0.000    3.000    0.000    0.000 
#    0.000    0.000    0.000    0.000    0.000    0.000 
#
# Total GULP energy -156260.213583 kJ/mol
# GULP energy per Si atom -5580.721914 kJ/mol
# Density = 2.051570 g / cm^3
# Si number density = 20.562500 Si / 1000 Ang^3
#
#
#
# Elastic Constant Matrix: (Units=GPa)
#
#
# Indices 1 2 3 4 5 6 
#
# 1 149.7396 -2.0050 49.1892 0.0000 1.3137 0.0000
# 2 -2.0050 19.8505 -0.6519 0.0000 1.2522 0.0001
# 3 49.1892 -0.6519 124.6856 0.0000 3.2371 0.0000
# 4 0.0000 0.0000 0.0000 23.0517 0.0000 -4.4599
# 5 1.3137 1.2522 3.2371 0.0000 16.6516 0.0000
# 6 0.0000 0.0001 0.0000 -4.4599 0.0000 21.7311
#
#
#
# Elastic Compliance Matrix: (Units=1/GPa)
#
#
# Indices 1 2 3 4 5 6 
#
# 1 0.007682 0.000681 -0.003025 0.000000 -0.000069 0.000000
# 2 0.000681 0.050694 0.000097 0.000000 -0.003885 0.000000
# 3 -0.003025 0.000097 0.009255 0.000000 -0.001568 0.000000
# 4 0.000000 0.000000 0.000000 0.045175 0.000000 0.009271
# 5 -0.000069 -0.003885 -0.001568 0.000000 0.060657 0.000000
# 6 0.000000 0.000000 0.000000 0.009271 0.000000 0.047920
#
#
# Mechanical properties :
#
#
# Convention : Reuss Voigt Hill
#
# Bulk Modulus (GPa) = 15.83874 43.03781 29.43828
# Shear Modulus (GPa) = 20.24943 28.80310 24.52627
#
# Velocity S-wave (km/s) = 3.14152 3.74673 3.45739
# Velocity P-wave (km/s) = 4.56928 6.30024 5.50324
#
# Compressibility (1/GPa) = 0.06313632
#
# Stress axis : x y z
#
# Youngs Moduli (GPa) = 130.17890 19.72632 108.05182
#
# Poissons Ratio (x) = -0.01343 0.32687
# Poissons Ratio (y) = -0.08864 -0.01051
# Poissons Ratio (z) = 0.39381 -0.00192
#
# Static dielectric constant tensor:
#      x y z
#    x 1.724980 0.000000 -0.003230 
#    y 0.000000 1.732930 0.000000 
#    z -0.003230 0.000000 1.754100 
# 
# From -- ./inp_files/338564.got.cif
#   From: 2010.05.17/outbox.cif.g08.bks.cpg/sg12_170_cif.got.tgz:338564.got - 2010.06.03 13:09:07.
