data_PCOD9195116
_publ_section_title
;
Structure prediction by ZEFSAII (Michael W. Deem and Ramdas Pophale) SiO2 
 PCOD9195116
Probable space group: C 2/M
;
_chemical_formula_sum "Si O2"
_cell_formula_units_Z 56
_cell_length_a 5.653274
_cell_length_b 24.925371
_cell_length_c 19.425183
_cell_angle_alpha 90.000000
_cell_angle_beta 60.809222
_cell_angle_gamma 90.000000
_cell_volume 2389.578610
_symmetry_space_group_name_H-M "C 2/M"
_symmetry_group_IT_number 12
_symmetry_cell_setting 'monoclinic'
loop_
_space_group_symop_operation_xyz
x,y,z
-x,y,-z
-x,-y,-z
x,-y,z
1/2+x,1/2+y,z
1/2-x,1/2+y,-z
1/2-x,1/2-y,-z
1/2+x,1/2-y,z
loop_
_atom_site_type_symbol
_atom_site_label
_atom_site_fract_x
_atom_site_fract_y
_atom_site_fract_z
Si Si1 0.789966 0.280313 0.750100
Si Si2 0.805231 0.061313 0.927243
Si Si3 0.432011 0.560650 0.429818
Si Si4 0.021876 0.557995 0.277211
Si Si5 0.703205 0.368926 0.664458
Si Si6 0.163579 0.378264 0.816971
Si Si7 0.359527 0.331887 0.085367
O O1 0.566702 0.243923 0.742536
O O2 0.877017 0.323544 0.678258
O O3 0.636301 0.304436 0.839696
O O4 0.774331 0.075708 0.850927
O O5 0.983746 0.110515 0.930567
O O6 0.900775 0.000000 0.925933
O O7 0.500000 0.064357 0.000000
O O8 0.500000 0.568775 0.500000
O O9 0.309947 0.500000 0.440456
O O10 0.289967 0.612645 0.415465
O O11 0.716793 0.558396 0.348876
O O12 0.093806 0.500000 0.241572
O O13 0.210124 0.575712 0.312028
O O14 0.034186 0.597543 0.212298
O O15 0.408660 0.355062 0.737608
O O16 0.961651 0.339297 0.885636
O O17 0.500000 0.303934 0.000000
#
# Coordination Sequence:
#
# PCOD9195116 Si02
#       7
#     8   8   8   8   8   8   8
#     4  12  28  48  73  98 127 170 235 305 360 406
#     4  11  23  36  57  88 127 174 215 261 332 414
#     4   9  20  38  64 105 150 181 211 255 317 401
#     4  10  20  34  62  95 130 175 217 258 315 398
#     4  11  22  39  66  92 131 173 224 272 337 395
#     4  11  20  38  57  87 127 172 218 273 321 398
#     4  12  25  43  66  89 129 170 222 288 357 415
#
# _framework density 23.435092999999998
#
# number of rings (size 3 to 8) (size 9 to 14) (size 15 to 20)
#    0.000    1.143    4.286    1.714    2.000    5.429 
#    0.000    2.143    0.000    0.857    0.000    0.000 
#    0.000    0.000    0.000    0.000    0.000    0.000 
#
# Total GULP energy -156201.990171 kJ/mol
# GULP energy per Si atom -5578.642506 kJ/mol
# Density = 2.338175 g / cm^3
# Si number density = 23.435093 Si / 1000 Ang^3
#
#
#
# Elastic Constant Matrix: (Units=GPa)
#
#
# Indices 1 2 3 4 5 6 
#
# 1 81.5597 27.6249 17.6991 0.0000 8.6401 0.0000
# 2 27.6249 62.0571 22.7655 0.0000 19.5136 0.0000
# 3 17.6991 22.7655 81.4605 0.0000 19.0586 0.0000
# 4 0.0000 0.0000 0.0000 15.3883 0.0000 1.3848
# 5 8.6401 19.5136 19.0586 0.0000 47.7578 0.0000
# 6 0.0000 0.0000 0.0000 1.3848 0.0000 32.5972
#
#
#
# Elastic Compliance Matrix: (Units=1/GPa)
#
#
# Indices 1 2 3 4 5 6 
#
# 1 0.014612 -0.006070 -0.001589 0.000000 0.000470 0.000000
# 2 -0.006070 0.022111 -0.003313 0.000000 -0.006614 0.000000
# 3 -0.001589 -0.003313 0.014519 0.000000 -0.004153 0.000000
# 4 0.000000 0.000000 0.000000 0.065234 0.000000 -0.002771
# 5 0.000470 -0.006614 -0.004153 0.000000 0.025214 0.000000
# 6 0.000000 0.000000 0.000000 -0.002771 0.000000 0.030795
#
#
# Mechanical properties :
#
#
# Convention : Reuss Voigt Hill
#
# Bulk Modulus (GPa) = 34.13084 40.13957 37.13521
# Shear Modulus (GPa) = 24.48664 29.61452 27.05058
#
# Velocity S-wave (km/s) = 3.23595 3.55869 3.40115
# Velocity P-wave (km/s) = 5.34392 5.83531 5.59501
#
# Compressibility (1/GPa) = 0.02929902
#
# Stress axis : x y z
#
# Youngs Moduli (GPa) = 68.43845 45.22561 68.87754
#
# Poissons Ratio (x) = 0.27450 0.10941
# Poissons Ratio (y) = 0.41540 0.22820
# Poissons Ratio (z) = 0.10872 0.14984
#
# Static dielectric constant tensor:
#      x y z
#    x 1.922180 0.000000 0.008340 
#    y 0.000000 1.969140 0.000000 
#    z 0.008340 0.000000 1.894760 
# 
# From -- ./inp_files/253646.got.cif
#   From: 2010.05.17/outbox.cif.g08.bks.cpg/sg12_127_cif.got.tgz:253646.got - 2010.06.03 13:09:07.
