data_PCOD9195375
_publ_section_title
;
Structure prediction by ZEFSAII (Michael W. Deem and Ramdas Pophale) SiO2 
 PCOD9195375
Probable space group: C 2/M
;
_chemical_formula_sum "Si O2"
_cell_formula_units_Z 40
_cell_length_a 20.565628
_cell_length_b 7.690445
_cell_length_c 13.169325
_cell_angle_alpha 90.000000
_cell_angle_beta 100.276565
_cell_angle_gamma 90.000000
_cell_volume 2049.432232
_symmetry_space_group_name_H-M "C 2/M"
_symmetry_group_IT_number 12
_symmetry_cell_setting 'monoclinic'
loop_
_space_group_symop_operation_xyz
x,y,z
-x,y,-z
-x,-y,-z
x,-y,z
1/2+x,1/2+y,z
1/2-x,1/2+y,-z
1/2-x,1/2-y,-z
1/2+x,1/2-y,z
loop_
_atom_site_type_symbol
_atom_site_label
_atom_site_fract_x
_atom_site_fract_y
_atom_site_fract_z
Si Si1 0.646874 0.285921 0.779511
Si Si2 0.064993 0.798079 0.569136
Si Si3 0.173694 0.793781 0.004310
Si Si4 0.823825 0.708023 0.557467
Si Si5 0.704174 0.205240 0.230246
O O1 0.647828 0.500000 0.778592
O O2 0.594144 0.224371 0.682188
O O3 0.720879 0.227251 0.766864
O O4 0.635471 0.230925 0.893122
O O5 0.123649 0.790333 0.503664
O O6 0.000000 0.717837 0.500000
O O7 0.049245 0.000000 0.587225
O O8 0.163185 0.728163 0.115290
O O9 0.166538 0.000000 0.006421
O O10 0.250000 0.750000 0.000000
O O11 0.833914 0.500000 0.556327
O O12 0.750000 0.750000 0.500000
O O13 0.827776 0.772493 0.675063
O O14 0.712467 0.000000 0.248576
#
# Coordination Sequence:
#
# PCOD9195375 Si02
#       5
#     8   8   8   8   8
#     4   8  14  28  46  68  99 129 160 204 249 289
#     4  10  20  35  54  75 103 139 174 206 253 313
#     4   9  16  26  43  68  99 128 161 204 250 301
#     4  11  21  34  53  76 105 135 169 215 260 305
#     4   9  17  30  47  69 100 129 160 208 255 297
#
# _framework density 19.517599000000001
#
# number of rings (size 3 to 8) (size 9 to 14) (size 15 to 20)
#    0.000    2.600    2.000    2.400    0.000    2.000 
#    0.000    1.000    0.000    1.200    0.000    8.400 
#    0.000    0.000    0.000    0.000    0.000    0.000 
#
# Total GULP energy -111425.542427 kJ/mol
# GULP energy per Si atom -5571.277121 kJ/mol
# Density = 1.947318 g / cm^3
# Si number density = 19.517599 Si / 1000 Ang^3
#
#
#
# Elastic Constant Matrix: (Units=GPa)
#
#
# Indices 1 2 3 4 5 6 
#
# 1 53.7198 -12.6882 38.7098 0.0000 20.2752 0.0000
# 2 -12.6882 30.9792 -12.5991 0.0000 3.7483 0.0000
# 3 38.7098 -12.5991 200.0052 0.0000 21.5066 0.0000
# 4 0.0000 0.0000 0.0000 21.2371 0.0000 -4.2807
# 5 20.2752 3.7483 21.5066 0.0000 24.2401 0.0000
# 6 0.0000 0.0000 0.0000 -4.2807 0.0000 9.5639
#
#
#
# Elastic Compliance Matrix: (Units=1/GPa)
#
#
# Indices 1 2 3 4 5 6 
#
# 1 0.036194 0.017473 -0.002607 0.000000 -0.030662 0.000000
# 2 0.017473 0.042921 0.001777 0.000000 -0.022829 0.000000
# 3 -0.002607 0.001777 0.005982 0.000000 -0.003402 0.000000
# 4 0.000000 0.000000 0.000000 0.051757 0.000000 0.023166
# 5 -0.030662 -0.022829 -0.003402 0.000000 0.073449 0.000000
# 6 0.000000 0.000000 0.000000 0.023166 0.000000 0.114929
#
#
# Mechanical properties :
#
#
# Convention : Reuss Voigt Hill
#
# Bulk Modulus (GPa) = 8.44719 34.61657 21.53188
# Shear Modulus (GPa) = 15.08721 29.09367 22.09044
#
# Velocity S-wave (km/s) = 2.78331 3.86507 3.36791
# Velocity P-wave (km/s) = 3.82969 6.13945 5.11661
#
# Compressibility (1/GPa) = 0.11838257
#
# Stress axis : x y z
#
# Youngs Moduli (GPa) = 27.62918 23.29862 167.16352
#
# Poissons Ratio (x) = -0.40711 0.43583
# Poissons Ratio (y) = -0.48278 -0.29699
# Poissons Ratio (z) = 0.07204 -0.04139
#
# Static dielectric constant tensor:
#      x y z
#    x 1.643640 0.000000 0.014600 
#    y 0.000000 1.895430 0.000000 
#    z 0.014600 0.000000 1.755820 
# 
# From -- ./inp_files/162527.got.cif
#   From: 2010.05.17/outbox.cif.g08.bks.cpg/sg12_82_cif.got.tgz:162527.got - 2010.06.03 13:09:07.
