data_PCOD9195643
_publ_section_title
;
Structure prediction by ZEFSAII (Michael W. Deem and Ramdas Pophale) SiO2 
 PCOD9195643
Probable space group: C 2/M
;
_chemical_formula_sum "Si O2"
_cell_formula_units_Z 56
_cell_length_a 17.875552
_cell_length_b 13.639426
_cell_length_c 13.442484
_cell_angle_alpha 90.000000
_cell_angle_beta 124.845078
_cell_angle_gamma 90.000000
_cell_volume 2689.796883
_symmetry_space_group_name_H-M "C 2/M"
_symmetry_group_IT_number 12
_symmetry_cell_setting 'monoclinic'
loop_
_space_group_symop_operation_xyz
x,y,z
-x,y,-z
-x,-y,-z
x,-y,z
1/2+x,1/2+y,z
1/2-x,1/2+y,-z
1/2-x,1/2-y,-z
1/2+x,1/2-y,z
loop_
_atom_site_type_symbol
_atom_site_label
_atom_site_fract_x
_atom_site_fract_y
_atom_site_fract_z
Si Si1 0.131201 0.799548 0.792426
Si Si2 0.056273 0.883629 0.328560
Si Si3 0.902759 0.248782 0.448848
Si Si4 0.348526 0.118492 0.699218
Si Si5 0.682856 0.116183 0.100527
Si Si6 0.444881 0.114813 0.175155
Si Si7 0.749024 0.883044 0.576799
O O1 0.121046 0.814404 0.666330
O O2 0.232278 0.835014 0.891556
O O3 0.114370 0.685497 0.801401
O O4 0.046304 0.854299 0.780471
O O5 0.077112 0.822731 0.444089
O O6 0.143943 0.861488 0.325682
O O7 0.058966 0.000000 0.349878
O O8 0.822290 0.323626 0.411647
O O9 0.000000 0.300387 0.500000
O O10 0.329019 0.154062 0.795895
O O11 0.449716 0.145913 0.740027
O O12 0.277326 0.142314 0.558277
O O13 0.350147 0.000000 0.707754
O O14 0.702052 0.000000 0.120454
O O15 0.592647 0.127704 0.965498
O O16 0.437273 0.000000 0.194763
O O17 0.735397 0.000000 0.577876
#
# Coordination Sequence:
#
# PCOD9195643 Si02
#       7
#     8   8   8   8   8   8   8
#     4  11  22  34  53  78 107 142 173 208 255 310
#     4  10  21  36  53  76 107 141 175 212 256 305
#     4  10  21  33  50  78 109 141 174 210 252 306
#     4   9  17  32  55  79 102 132 170 215 265 305
#     4  10  20  35  56  80 103 130 171 222 269 306
#     4  10  21  37  55  76 104 136 173 218 262 307
#     4  10  20  35  55  78 109 143 172 208 252 308
#
# _framework density 20.819414999999999
#
# number of rings (size 3 to 8) (size 9 to 14) (size 15 to 20)
#    0.000    2.000    0.000    4.286    0.000    8.000 
#    0.000    0.000    0.000    0.000    0.000    0.000 
#    0.000   16.000    0.000    0.000    0.000    0.000 
#
# Total GULP energy -156352.790781 kJ/mol
# GULP energy per Si atom -5584.028242 kJ/mol
# Density = 2.077203 g / cm^3
# Si number density = 20.819415 Si / 1000 Ang^3
#
#
#
# Elastic Constant Matrix: (Units=GPa)
#
#
# Indices 1 2 3 4 5 6 
#
# 1 79.1226 27.8423 6.7656 0.0000 16.8995 0.0000
# 2 27.8423 70.4319 4.9299 0.0000 8.3836 0.0000
# 3 6.7656 4.9299 33.4045 0.0000 14.7814 0.0000
# 4 0.0000 0.0000 0.0000 21.0430 0.0000 6.9303
# 5 16.8995 8.3836 14.7814 0.0000 23.4510 0.0000
# 6 0.0000 0.0000 0.0000 6.9303 0.0000 33.9095
#
#
#
# Elastic Compliance Matrix: (Units=1/GPa)
#
#
# Indices 1 2 3 4 5 6 
#
# 1 0.016862 -0.005437 0.002641 0.000000 -0.011872 0.000000
# 2 -0.005437 0.016584 -0.000633 0.000000 -0.001611 0.000000
# 3 0.002641 -0.000633 0.041932 0.000000 -0.028106 0.000000
# 4 0.000000 0.000000 0.000000 0.050951 0.000000 -0.010413
# 5 -0.011872 -0.001611 -0.028106 0.000000 0.069489 0.000000
# 6 0.000000 0.000000 0.000000 -0.010413 0.000000 0.031618
#
#
# Mechanical properties :
#
#
# Convention : Reuss Voigt Hill
#
# Bulk Modulus (GPa) = 14.59494 29.11493 21.85494
# Shear Modulus (GPa) = 19.44507 25.24213 22.34360
#
# Velocity S-wave (km/s) = 3.05944 3.48578 3.27954
# Velocity P-wave (km/s) = 4.41652 5.49688 4.98605
#
# Compressibility (1/GPa) = 0.06851689
#
# Stress axis : x y z
#
# Youngs Moduli (GPa) = 59.30568 60.30045 23.84833
#
# Poissons Ratio (x) = 0.32787 -0.06297
# Poissons Ratio (y) = 0.32246 0.01510
# Poissons Ratio (z) = -0.15660 0.03819
#
# Static dielectric constant tensor:
#      x y z
#    x 1.780060 0.000000 0.017410 
#    y 0.000000 1.754920 0.000000 
#    z 0.017410 0.000000 1.754920 
# 
# From -- ./inp_files/224675.got.cif
#   From: 2010.05.17/outbox.cif.g08.bks.cpg/sg12_113_cif.got.tgz:224675.got - 2010.06.03 13:09:07.
