data_PCOD9195807
_publ_section_title
;
Structure prediction by ZEFSAII (Michael W. Deem and Ramdas Pophale) SiO2 
 PCOD9195807
Probable space group: C 2/M
;
_chemical_formula_sum "Si O2"
_cell_formula_units_Z 56
_cell_length_a 8.292471
_cell_length_b 29.099840
_cell_length_c 14.212461
_cell_angle_alpha 90.000000
_cell_angle_beta 69.480906
_cell_angle_gamma 90.000000
_cell_volume 3212.013297
_symmetry_space_group_name_H-M "C 2/M"
_symmetry_group_IT_number 12
_symmetry_cell_setting 'monoclinic'
loop_
_space_group_symop_operation_xyz
x,y,z
-x,y,-z
-x,-y,-z
x,-y,z
1/2+x,1/2+y,z
1/2-x,1/2+y,-z
1/2-x,1/2-y,-z
1/2+x,1/2-y,z
loop_
_atom_site_type_symbol
_atom_site_label
_atom_site_fract_x
_atom_site_fract_y
_atom_site_fract_z
Si Si1 0.652039 0.279734 0.895953
Si Si2 0.663751 0.712862 0.397298
Si Si3 0.104500 0.372305 0.689841
Si Si4 0.838298 0.380631 0.590396
Si Si5 0.890071 0.799969 0.311689
Si Si6 0.483981 0.819848 0.105842
Si Si7 0.794135 0.946580 0.541068
O O1 0.621370 0.299300 0.797971
O O2 0.637682 0.224522 0.887015
O O3 0.835343 0.297436 0.896029
O O4 0.500000 0.292492 0.000000
O O5 0.500000 0.710628 0.500000
O O6 0.795750 0.670769 0.379450
O O7 0.766676 0.760224 0.378639
O O8 0.577924 0.709878 0.312099
O O9 0.077008 0.354684 0.801097
O O10 0.220086 0.416383 0.642136
O O11 0.923314 0.384161 0.676142
O O12 0.677402 0.347464 0.632662
O O13 0.783435 0.424289 0.539007
O O14 0.000000 0.359733 0.500000
O O15 0.500000 0.842351 0.000000
O O16 0.000000 0.942464 0.500000
O O17 0.747107 0.000000 0.557279
#
# Coordination Sequence:
#
# PCOD9195807 Si02
#       7
#     8   8   8   8   8   8   8
#     4  11  22  36  54  76 106 159 201 242 278 319
#     4  12  23  33  49  75 114 158 192 226 274 328
#     4  11  21  36  56  85 112 147 192 233 281 336
#     4  10  20  35  55  81 113 146 184 225 274 336
#     4  12  21  34  51  74 114 153 193 236 272 327
#     4  11  22  37  55  79 114 152 202 242 280 325
#     4  10  22  42  64  88 115 145 181 226 282 347
#
# _framework density 17.434546000000001
#
# number of rings (size 3 to 8) (size 9 to 14) (size 15 to 20)
#    0.000    1.000    2.857    7.286    2.000    2.571 
#    0.000    0.000    0.000    0.429    0.000    0.000 
#    0.000    3.429    0.000    0.000    0.000    0.000 
#
# Total GULP energy -156309.599343 kJ/mol
# GULP energy per Si atom -5582.485691 kJ/mol
# Density = 1.739486 g / cm^3
# Si number density = 17.434546 Si / 1000 Ang^3
#
#
#
# Elastic Constant Matrix: (Units=GPa)
#
#
# Indices 1 2 3 4 5 6 
#
# 1 85.4529 33.0995 27.8438 0.0000 13.5814 0.0000
# 2 33.0995 105.1698 54.9871 0.0000 -1.8150 0.0000
# 3 27.8438 54.9871 125.2536 0.0000 13.3569 0.0000
# 4 0.0000 0.0000 0.0000 12.4745 0.0000 -1.7301
# 5 13.5814 -1.8150 13.3569 0.0000 31.4608 0.0000
# 6 0.0000 0.0000 0.0000 -1.7301 0.0000 26.3892
#
#
#
# Elastic Compliance Matrix: (Units=1/GPa)
#
#
# Indices 1 2 3 4 5 6 
#
# 1 0.014604 -0.004357 -0.000665 0.000000 -0.006273 0.000000
# 2 -0.004357 0.013947 -0.005699 0.000000 0.005105 0.000000
# 3 -0.000665 -0.005699 0.011142 0.000000 -0.004772 0.000000
# 4 0.000000 0.000000 0.000000 0.080899 0.000000 0.005304
# 5 -0.006273 0.005105 -0.004772 0.000000 0.036814 0.000000
# 6 0.000000 0.000000 0.000000 0.005304 0.000000 0.038242
#
#
# Mechanical properties :
#
#
# Convention : Reuss Voigt Hill
#
# Bulk Modulus (GPa) = 54.78702 60.85964 57.82333
# Shear Modulus (GPa) = 22.40407 27.39463 24.89935
#
# Velocity S-wave (km/s) = 3.58863 3.96824 3.78320
# Velocity P-wave (km/s) = 6.97594 7.48193 7.23336
#
# Compressibility (1/GPa) = 0.01825250
#
# Stress axis : x y z
#
# Youngs Moduli (GPa) = 68.47632 71.69838 89.74807
#
# Poissons Ratio (x) = 0.31238 0.05966
# Poissons Ratio (y) = 0.29834 0.51146
# Poissons Ratio (z) = 0.04552 0.40860
#
# Static dielectric constant tensor:
#      x y z
#    x 1.633360 0.000000 0.023860 
#    y 0.000000 1.560720 0.000000 
#    z 0.023860 0.000000 1.649910 
# 
# From -- ./inp_files/200532.got.cif
#   From: 2010.05.17/outbox.cif.g08.bks.cpg/sg12_101_cif.got.tgz:200532.got - 2010.06.03 13:09:07.
