data_PCOD9195771
_publ_section_title
;
Structure prediction by ZEFSAII (Michael W. Deem and Ramdas Pophale) SiO2 
 PCOD9195771
Probable space group: C 2/M
;
_chemical_formula_sum "Si O2"
_cell_formula_units_Z 56
_cell_length_a 24.521665
_cell_length_b 8.039095
_cell_length_c 33.231835
_cell_angle_alpha 90.000000
_cell_angle_beta 155.062067
_cell_angle_gamma 90.000000
_cell_volume 2762.163393
_symmetry_space_group_name_H-M "C 2/M"
_symmetry_group_IT_number 12
_symmetry_cell_setting 'monoclinic'
loop_
_space_group_symop_operation_xyz
x,y,z
-x,y,-z
-x,-y,-z
x,-y,z
1/2+x,1/2+y,z
1/2-x,1/2+y,-z
1/2-x,1/2-y,-z
1/2+x,1/2-y,z
loop_
_atom_site_type_symbol
_atom_site_label
_atom_site_fract_x
_atom_site_fract_y
_atom_site_fract_z
Si Si1 0.857569 0.194445 0.720228
Si Si2 0.044664 0.700962 0.366968
Si Si3 0.732408 0.299372 0.423713
Si Si4 0.827072 0.694904 0.954160
Si Si5 0.390103 0.701762 0.829981
Si Si6 0.248908 0.298440 0.816396
Si Si7 0.642272 0.192031 0.895975
O O1 0.783290 0.267023 0.632002
O O2 0.840099 0.264812 0.753352
O O3 0.010197 0.207826 0.812507
O O4 0.822042 0.000000 0.698700
O O5 0.044018 0.500000 0.367182
O O6 0.143022 0.759662 0.467776
O O7 0.107602 0.755253 0.367042
O O8 0.898837 0.758343 0.276388
O O9 0.739455 0.500000 0.426555
O O10 0.806948 0.500000 0.946441
O O11 0.829033 0.738197 0.908473
O O12 0.709083 0.786808 0.897331
O O13 0.961636 0.746606 0.064413
O O14 0.387250 0.500000 0.827249
O O15 0.308567 0.757894 0.814040
O O16 0.250858 0.500000 0.817908
O O17 0.611249 0.000000 0.882524
O O18 0.750000 0.250000 0.000000
#
# Coordination Sequence:
#
# PCOD9195771 Si02
#       7
#     8   8   8   8   8   8   8
#     4  10  20  35  55  80 111 146 181 220 270 325
#     4   9  18  34  55  80 108 137 176 225 273 323
#     4   9  18  33  55  82 109 137 174 222 274 325
#     4  12  24  37  55  80 108 143 184 229 275 322
#     4  10  21  37  55  75 107 148 186 224 270 325
#     4  10  21  37  56  78 106 145 187 227 273 323
#     4  12  23  36  55  80 110 142 177 221 268 320
#
# _framework density 20.273962999999998
#
# number of rings (size 3 to 8) (size 9 to 14) (size 15 to 20)
#    0.000    1.714    1.429    3.857    0.000    5.714 
#    0.000    0.714    0.000    4.286    0.000    0.000 
#    0.000    8.000    0.000    0.000    0.000    0.000 
#
# Total GULP energy -156446.651835 kJ/mol
# GULP energy per Si atom -5587.380423 kJ/mol
# Density = 2.022782 g / cm^3
# Si number density = 20.273963 Si / 1000 Ang^3
#
#
#
# Elastic Constant Matrix: (Units=GPa)
#
#
# Indices 1 2 3 4 5 6 
#
# 1 118.1797 1.6928 29.2278 -0.0014 -37.0324 -0.0004
# 2 1.6928 25.2856 -0.5744 0.0011 -2.5157 0.0007
# 3 29.2278 -0.5744 52.8104 -0.0026 -26.0821 -0.0014
# 4 -0.0014 0.0011 -0.0026 13.8668 -0.0005 3.8496
# 5 -37.0324 -2.5157 -26.0821 -0.0005 37.9472 -0.0003
# 6 -0.0004 0.0007 -0.0014 3.8496 -0.0003 16.8921
#
#
#
# Elastic Compliance Matrix: (Units=1/GPa)
#
#
# Indices 1 2 3 4 5 6 
#
# 1 0.012252 0.000252 -0.001309 0.000001 0.011073 0.000000
# 2 0.000252 0.040058 0.002618 -0.000002 0.004701 -0.000001
# 3 -0.001309 0.002618 0.028981 0.000005 0.018816 0.000001
# 4 0.000001 -0.000002 0.000005 0.076985 0.000006 -0.017544
# 5 0.011073 0.004701 0.018816 0.000006 0.050403 0.000001
# 6 0.000000 -0.000001 0.000001 -0.017544 0.000001 0.063198
#
#
# Mechanical properties :
#
#
# Convention : Reuss Voigt Hill
#
# Bulk Modulus (GPa) = 11.84650 28.55199 20.19925
# Shear Modulus (GPa) = 16.84105 24.80318 20.82211
#
# Velocity S-wave (km/s) = 2.88527 3.50151 3.20822
# Velocity P-wave (km/s) = 4.11772 5.51916 4.86912
#
# Compressibility (1/GPa) = 0.08441308
#
# Stress axis : x y z
#
# Youngs Moduli (GPa) = 81.62096 24.96350 34.50487
#
# Poissons Ratio (x) = -0.00628 0.04517
# Poissons Ratio (y) = -0.02055 -0.09033
# Poissons Ratio (z) = 0.10684 -0.06535
#
# Static dielectric constant tensor:
#      x y z
#    x 1.734210 0.000000 -0.032730 
#    y 0.000000 1.724150 0.000000 
#    z -0.032730 0.000000 1.708630 
# 
# From -- ./inp_files/237480.got.cif
#   From: 2010.05.17/outbox.cif.g08.bks.cpg/sg12_119_cif.got.tgz:237480.got - 2010.06.03 13:09:07.
