data_PCOD9195939
_publ_section_title
;
Structure prediction by ZEFSAII (Michael W. Deem and Ramdas Pophale) SiO2 
 PCOD9195939
Probable space group: C 2/M
;
_chemical_formula_sum "Si O2"
_cell_formula_units_Z 64
_cell_length_a 25.835278
_cell_length_b 15.079273
_cell_length_c 21.148763
_cell_angle_alpha 90.000000
_cell_angle_beta 22.172834
_cell_angle_gamma 90.000000
_cell_volume 3109.441779
_symmetry_space_group_name_H-M "C 2/M"
_symmetry_group_IT_number 12
_symmetry_cell_setting 'monoclinic'
loop_
_space_group_symop_operation_xyz
x,y,z
-x,y,-z
-x,-y,-z
x,-y,z
1/2+x,1/2+y,z
1/2-x,1/2+y,-z
1/2-x,1/2-y,-z
1/2+x,1/2-y,z
loop_
_atom_site_type_symbol
_atom_site_label
_atom_site_fract_x
_atom_site_fract_y
_atom_site_fract_z
Si Si1 0.765714 0.852993 0.910999
Si Si2 0.803732 0.391558 0.538264
Si Si3 0.733731 0.146939 0.089622
Si Si4 0.036458 0.892896 0.769169
Si Si5 0.027809 0.398354 0.536844
Si Si6 0.972772 0.898356 0.462445
Si Si7 0.462855 0.892886 0.231807
Si Si8 0.804566 0.891557 0.537112
O O1 0.805499 0.750008 0.871188
O O2 0.884652 0.898656 0.737034
O O3 0.749839 0.889479 0.000176
O O4 0.616193 0.859968 0.049012
O O5 0.806644 0.500000 0.535759
O O6 0.651109 0.364915 0.690193
O O7 0.860998 0.359379 0.540351
O O8 0.904827 0.365055 0.366393
O O9 0.614487 0.101359 0.263777
O O10 0.883011 0.139769 0.952090
O O11 0.094375 0.864965 0.634712
O O12 0.033024 0.000000 0.773156
O O13 0.072542 0.500000 0.474271
O O14 0.000000 0.356449 0.500000
O O15 0.000000 0.856458 0.500000
O O16 0.861871 0.859389 0.539152
O O17 0.927940 0.000000 0.525047
O O18 0.348101 0.864993 0.310913
O O19 0.466626 0.000000 0.227403
O O20 0.807537 0.000000 0.534515
#
# Coordination Sequence:
#
# PCOD9195939 Si02
#       8
#     8   8   8   8   8   8   8   8
#     4  11  22  34  50  77 108 137 172 211 252 302
#     4   8  15  29  51  79 103 127 166 213 259 298
#     4  11  22  34  50  77 108 137 172 211 252 302
#     4   9  16  30  54  77 100 131 168 216 258 292
#     4  10  20  35  56  79 103 134 171 211 257 307
#     4  10  20  35  56  79 103 134 171 211 257 307
#     4   9  16  30  54  77 100 131 168 216 258 292
#     4   8  15  29  51  79 103 127 166 213 259 298
#
# _framework density 20.582473
#
# number of rings (size 3 to 8) (size 9 to 14) (size 15 to 20)
#    0.000    2.500    2.500    2.250    0.000    1.500 
#    0.000    5.000    0.000    7.500    0.000    0.000 
#    0.000    0.000    0.000    0.000    0.000    0.000 
#
# Total GULP energy -178569.663444 kJ/mol
# GULP energy per Si atom -5580.301983 kJ/mol
# Density = 2.053563 g / cm^3
# Si number density = 20.582473 Si / 1000 Ang^3
#
#
#
# Elastic Constant Matrix: (Units=GPa)
#
#
# Indices 1 2 3 4 5 6 
#
# 1 197.1844 3.5441 43.5387 0.0006 -9.9035 -0.0003
# 2 3.5441 55.5893 -9.6350 0.0005 4.2719 -0.0001
# 3 43.5387 -9.6350 50.0303 0.0018 -11.6421 -0.0007
# 4 0.0006 0.0005 0.0018 113.4902 -0.0011 -58.2723
# 5 -9.9035 4.2719 -11.6421 -0.0011 33.9791 0.0004
# 6 -0.0003 -0.0001 -0.0007 -58.2723 0.0004 31.7836
#
#
#
# Elastic Compliance Matrix: (Units=1/GPa)
#
#
# Indices 1 2 3 4 5 6 
#
# 1 0.006384 -0.001419 -0.005818 0.000000 0.000046 0.000001
# 2 -0.001419 0.018971 0.004604 -0.000001 -0.001221 -0.000002
# 3 -0.005818 0.004604 0.027610 -0.000002 0.007185 -0.000003
# 4 0.000000 -0.000001 -0.000002 0.150308 0.000001 0.275575
# 5 0.000046 -0.001221 0.007185 0.000001 0.032058 0.000001
# 6 0.000001 -0.000002 -0.000003 0.275575 0.000001 0.536706
#
#
# Mechanical properties :
#
#
# Convention : Reuss Voigt Hill
#
# Bulk Modulus (GPa) = 20.96467 41.96664 31.46565
# Shear Modulus (GPa) = 6.30356 53.54098 29.92227
#
# Velocity S-wave (km/s) = 1.75192 5.10582 3.81698
# Velocity P-wave (km/s) = 3.78155 7.42919 5.89462
#
# Compressibility (1/GPa) = 0.04769930
#
# Stress axis : x y z
#
# Youngs Moduli (GPa) = 156.64517 52.71094 36.21894
#
# Poissons Ratio (x) = 0.07479 0.21073
# Poissons Ratio (y) = 0.22227 -0.16676
# Poissons Ratio (z) = 0.91139 -0.24269
#
# Static dielectric constant tensor:
#      x y z
#    x 1.776010 0.000000 -0.016470 
#    y 0.000000 1.769410 0.000000 
#    z -0.016470 0.000000 1.681420 
# 
# From -- ./inp_files/89585.got.cif
#   From: 2010.05.17/outbox.cif.g08.bks.cpg/sg12_45_cif.got.tgz:89585.got - 2010.06.03 13:09:07.
