data_PCOD9196819
_publ_section_title
;
Structure prediction by ZEFSAII (Michael W. Deem and Ramdas Pophale) SiO2 
 PCOD9196819
Probable space group: C 2/M
;
_chemical_formula_sum "Si O2"
_cell_formula_units_Z 56
_cell_length_a 23.460913
_cell_length_b 8.644031
_cell_length_c 15.321021
_cell_angle_alpha 90.000000
_cell_angle_beta 114.165223
_cell_angle_gamma 90.000000
_cell_volume 2834.779864
_symmetry_space_group_name_H-M "C 2/M"
_symmetry_group_IT_number 12
_symmetry_cell_setting 'monoclinic'
loop_
_space_group_symop_operation_xyz
x,y,z
-x,y,-z
-x,-y,-z
x,-y,z
1/2+x,1/2+y,z
1/2-x,1/2+y,-z
1/2-x,1/2-y,-z
1/2+x,1/2-y,z
loop_
_atom_site_type_symbol
_atom_site_label
_atom_site_fract_x
_atom_site_fract_y
_atom_site_fract_z
Si Si1 0.988102 0.685201 0.592628
Si Si2 0.067344 0.185470 0.796110
Si Si3 0.181055 0.314082 0.970466
Si Si4 0.159048 0.685872 0.153478
Si Si5 0.971973 0.186246 0.888931
Si Si6 0.762003 0.313357 0.640639
Si Si7 0.351717 0.685469 0.546536
O O1 0.989503 0.500000 0.598698
O O2 0.920165 0.743629 0.580991
O O3 0.000000 0.732336 0.500000
O O4 0.041072 0.753700 0.688644
O O5 0.133364 0.251545 0.868543
O O6 0.017286 0.234074 0.839203
O O7 0.070340 0.000000 0.796755
O O8 0.181221 0.500000 0.969142
O O9 0.250000 0.250000 0.000000
O O10 0.160040 0.259727 0.054197
O O11 0.157364 0.500000 0.150404
O O12 0.096911 0.745972 0.161072
O O13 0.218439 0.732557 0.249396
O O14 0.968217 0.000000 0.886094
O O15 0.000000 0.235380 0.000000
O O16 0.766026 0.500000 0.636785
O O17 0.693291 0.270063 0.563300
O O18 0.812844 0.243110 0.606036
O O19 0.357218 0.500000 0.553631
#
# Coordination Sequence:
#
# PCOD9196819 Si02
#       7
#     8   8   8   8   8   8   8
#     4  11  25  43  62  86 119 158 202 250 300 354
#     4  11  23  41  65  91 120 157 198 246 303 358
#     4  11  24  41  60  85 119 159 203 247 296 353
#     4  10  21  36  57  86 117 154 198 241 290 349
#     4  10  20  35  57  87 122 154 191 240 295 351
#     4   9  19  36  58  85 119 155 192 241 297 354
#     4  10  20  36  59  88 119 154 197 244 297 352
#
# _framework density 19.754621
#
# number of rings (size 3 to 8) (size 9 to 14) (size 15 to 20)
#    0.000    1.714    1.429    2.571    0.000    7.714 
#    0.000    1.429    0.000    0.000    0.000    0.000 
#    0.000    0.000    0.000    0.000    0.000    0.000 
#
# Total GULP energy -156464.320317 kJ/mol
# GULP energy per Si atom -5588.011440 kJ/mol
# Density = 1.970966 g / cm^3
# Si number density = 19.754621 Si / 1000 Ang^3
#
#
#
# Elastic Constant Matrix: (Units=GPa)
#
#
# Indices 1 2 3 4 5 6 
#
# 1 88.4745 24.7889 50.3920 0.0000 22.0415 0.0000
# 2 24.7889 32.6661 41.4040 0.0000 5.2334 0.0000
# 3 50.3920 41.4040 172.6533 0.0000 23.4916 0.0000
# 4 0.0000 0.0000 0.0000 28.2528 0.0000 6.4940
# 5 22.0415 5.2334 23.4916 0.0000 30.1569 0.0000
# 6 0.0000 0.0000 0.0000 6.4940 0.0000 27.8769
#
#
#
# Elastic Compliance Matrix: (Units=1/GPa)
#
#
# Indices 1 2 3 4 5 6 
#
# 1 0.017283 -0.009831 -0.001343 0.000000 -0.009880 0.000000
# 2 -0.009831 0.049585 -0.009875 0.000000 0.006273 0.000000
# 3 -0.001343 -0.009875 0.009156 0.000000 -0.004437 0.000000
# 4 0.000000 0.000000 0.000000 0.037397 0.000000 -0.008712
# 5 -0.009880 0.006273 -0.004437 0.000000 0.042749 0.000000
# 6 0.000000 0.000000 0.000000 -0.008712 0.000000 0.037901
#
#
# Mechanical properties :
#
#
# Convention : Reuss Voigt Hill
#
# Bulk Modulus (GPa) = 29.47551 58.55154 44.01352
# Shear Modulus (GPa) = 20.20385 29.07125 24.63755
#
# Velocity S-wave (km/s) = 3.20150 3.84033 3.53537
# Velocity P-wave (km/s) = 5.34971 7.02623 6.24449
#
# Compressibility (1/GPa) = 0.03392647
#
# Stress axis : x y z
#
# Youngs Moduli (GPa) = 57.85932 20.16749 109.22210
#
# Poissons Ratio (x) = 0.19827 0.14663
# Poissons Ratio (y) = 0.56882 1.07858
# Poissons Ratio (z) = 0.07768 0.19916
#
# Static dielectric constant tensor:
#      x y z
#    x 1.661770 0.000000 -0.003280 
#    y 0.000000 1.663400 0.000000 
#    z -0.003280 0.000000 1.723260 
# 
# From -- ./inp_files/238955.got.cif
#   From: 2010.05.17/outbox.cif.g08.bks.cpg/sg12_120_cif.got.tgz:238955.got - 2010.06.03 13:09:07.
