data_PCOD9196051
_publ_section_title
;
Structure prediction by ZEFSAII (Michael W. Deem and Ramdas Pophale) SiO2 
 PCOD9196051
Probable space group: C 2/M
;
_chemical_formula_sum "Si O2"
_cell_formula_units_Z 48
_cell_length_a 25.341458
_cell_length_b 9.288612
_cell_length_c 17.773340
_cell_angle_alpha 90.000000
_cell_angle_beta 147.530139
_cell_angle_gamma 90.000000
_cell_volume 2245.997097
_symmetry_space_group_name_H-M "C 2/M"
_symmetry_group_IT_number 12
_symmetry_cell_setting 'monoclinic'
loop_
_space_group_symop_operation_xyz
x,y,z
-x,y,-z
-x,-y,-z
x,-y,z
1/2+x,1/2+y,z
1/2-x,1/2+y,-z
1/2-x,1/2-y,-z
1/2+x,1/2-y,z
loop_
_atom_site_type_symbol
_atom_site_label
_atom_site_fract_x
_atom_site_fract_y
_atom_site_fract_z
Si Si1 0.422797 0.829779 0.019850
Si Si2 0.168329 0.334486 0.499542
Si Si3 0.067020 0.330644 0.645839
Si Si4 0.259851 0.167833 0.256728
Si Si5 0.647271 0.173169 0.893556
Si Si6 0.894948 0.165263 0.719009
O O1 0.390288 0.800469 0.067535
O O2 0.527981 0.754339 0.138991
O O3 0.430294 0.000000 0.017562
O O4 0.337004 0.762393 0.866217
O O5 0.133677 0.500000 0.449201
O O6 0.169288 0.293172 0.588148
O O7 0.114063 0.235700 0.374390
O O8 0.284517 0.330284 0.618621
O O9 0.038624 0.500000 0.616803
O O10 0.176389 0.322266 0.742395
O O11 0.072546 0.277266 0.737667
O O12 0.000000 0.263331 0.500000
O O13 0.233279 0.000000 0.236179
O O14 0.659397 0.000000 0.900393
O O15 0.750000 0.250000 0.000000
O O16 0.926747 0.000000 0.753088
#
# Coordination Sequence:
#
# PCOD9196051 Si02
#       6
#     8   8   8   8   8   8
#     4  11  23  36  55  83 116 149 187 231 275 328
#     4   9  20  38  60  85 111 143 185 234 281 329
#     4   9  18  32  54  82 107 138 180 223 271 325
#     4  10  20  36  59  82 111 147 186 231 276 330
#     4  10  20  35  56  80 110 144 181 226 271 326
#     4  10  21  38  59  83 112 146 186 229 280 339
#
# _framework density 21.371354
#
# number of rings (size 3 to 8) (size 9 to 14) (size 15 to 20)
#    0.000    2.167    1.667    1.000    2.333    2.667 
#    0.000    3.333    0.000    1.000    0.000    0.000 
#    0.000    0.000    0.000    0.000    0.000    0.000 
#
# Total GULP energy -134074.670333 kJ/mol
# GULP energy per Si atom -5586.444597 kJ/mol
# Density = 2.132271 g / cm^3
# Si number density = 21.371354 Si / 1000 Ang^3
#
#
#
# Elastic Constant Matrix: (Units=GPa)
#
#
# Indices 1 2 3 4 5 6 
#
# 1 53.7691 10.2783 -8.5180 0.0000 -8.0036 0.0000
# 2 10.2783 55.1042 29.4287 0.0000 10.1864 0.0000
# 3 -8.5180 29.4287 85.7687 0.0000 0.9681 0.0000
# 4 0.0000 0.0000 0.0000 37.0340 0.0000 1.0760
# 5 -8.0036 10.1864 0.9681 0.0000 35.3019 0.0000
# 6 0.0000 0.0000 0.0000 1.0760 0.0000 17.7436
#
#
#
# Elastic Compliance Matrix: (Units=1/GPa)
#
#
# Indices 1 2 3 4 5 6 
#
# 1 0.021962 -0.008009 0.004848 0.000000 0.007157 0.000000
# 2 -0.008009 0.026586 -0.009814 0.000000 -0.009218 0.000000
# 3 0.004848 -0.009814 0.015468 0.000000 0.003507 0.000000
# 4 0.000000 0.000000 0.000000 0.027050 0.000000 -0.001640
# 5 0.007157 -0.009218 0.003507 0.000000 0.032514 0.000000
# 6 0.000000 0.000000 0.000000 -0.001640 0.000000 0.056458
#
#
# Mechanical properties :
#
#
# Convention : Reuss Voigt Hill
#
# Bulk Modulus (GPa) = 26.26812 28.55777 27.41294
# Shear Modulus (GPa) = 22.86480 28.91275 25.88878
#
# Velocity S-wave (km/s) = 3.27445 3.68213 3.48426
# Velocity P-wave (km/s) = 5.15888 5.60974 5.38902
#
# Compressibility (1/GPa) = 0.03806896
#
# Stress axis : x y z
#
# Youngs Moduli (GPa) = 45.53223 37.61318 64.64778
#
# Poissons Ratio (x) = 0.30124 -0.31344
# Poissons Ratio (y) = 0.36467 0.63443
# Poissons Ratio (z) = -0.22076 0.36912
#
# Static dielectric constant tensor:
#      x y z
#    x 1.832950 0.000000 0.001260 
#    y 0.000000 1.709420 0.000000 
#    z 0.001260 0.000000 1.790980 
# 
# From -- ./inp_files/244708.got.cif
#   From: 2010.05.17/outbox.cif.g08.bks.cpg/sg12_123_cif.got.tgz:244708.got - 2010.06.03 13:09:07.
