data_PCOD9196554
_publ_section_title
;
Structure prediction by ZEFSAII (Michael W. Deem and Ramdas Pophale) SiO2 
 PCOD9196554
Probable space group: C 2/M
;
_chemical_formula_sum "Si O2"
_cell_formula_units_Z 56
_cell_length_a 15.824314
_cell_length_b 7.865914
_cell_length_c 25.083131
_cell_angle_alpha 90.000000
_cell_angle_beta 118.016954
_cell_angle_gamma 90.000000
_cell_volume 2756.274106
_symmetry_space_group_name_H-M "C 2/M"
_symmetry_group_IT_number 12
_symmetry_cell_setting 'monoclinic'
loop_
_space_group_symop_operation_xyz
x,y,z
-x,y,-z
-x,-y,-z
x,-y,z
1/2+x,1/2+y,z
1/2-x,1/2+y,-z
1/2-x,1/2-y,-z
1/2+x,1/2-y,z
loop_
_atom_site_type_symbol
_atom_site_label
_atom_site_fract_x
_atom_site_fract_y
_atom_site_fract_z
Si Si1 0.901290 0.792742 0.500347
Si Si2 0.559305 0.704501 0.369099
Si Si3 0.343331 0.294886 0.289725
Si Si4 0.753273 0.295567 0.630124
Si Si5 0.762918 0.204989 0.850273
Si Si6 0.170450 0.702553 0.932534
Si Si7 0.477272 0.295928 0.933550
O O1 0.905705 0.732131 0.562478
O O2 0.812745 0.732139 0.438395
O O3 0.000000 0.747512 0.500000
O O4 0.897566 0.000000 0.500418
O O5 0.554457 0.500000 0.371220
O O6 0.452861 0.767081 0.324709
O O7 0.637733 0.750283 0.348779
O O8 0.346291 0.500000 0.293680
O O9 0.287707 0.232773 0.325844
O O10 0.290207 0.249149 0.219823
O O11 0.744929 0.500000 0.627902
O O12 0.705777 0.268833 0.885539
O O13 0.872985 0.267192 0.884419
O O14 0.765972 0.000000 0.854861
O O15 0.168086 0.500000 0.928617
O O16 0.066039 0.758958 0.921220
O O17 0.250000 0.750000 0.000000
O O18 0.470568 0.500000 0.935381
O O19 0.500000 0.231002 0.000000
#
# Coordination Sequence:
#
# PCOD9196554 Si02
#       7
#     8   8   8   8   8   8   8
#     4   9  15  30  57  82 107 144 188 233 281 332
#     4  10  20  35  57  83 111 147 190 234 281 335
#     4  10  22  39  57  79 111 152 195 230 271 338
#     4  10  20  35  57  83 111 146 188 236 284 331
#     4  10  23  41  60  83 117 153 185 230 287 336
#     4  11  22  38  61  90 118 148 186 230 282 338
#     4  10  20  39  62  86 117 149 183 230 284 336
#
# _framework density 20.317281999999999
#
# number of rings (size 3 to 8) (size 9 to 14) (size 15 to 20)
#    0.000    2.000    2.857    0.857    0.000    4.286 
#    0.000    5.714    0.000    0.857    0.000    0.000 
#    0.000    0.000    0.000    0.000    0.000    0.000 
#
# Total GULP energy -156391.375617 kJ/mol
# GULP energy per Si atom -5585.406272 kJ/mol
# Density = 2.027104 g / cm^3
# Si number density = 20.317282 Si / 1000 Ang^3
#
#
#
# Elastic Constant Matrix: (Units=GPa)
#
#
# Indices 1 2 3 4 5 6 
#
# 1 223.2433 6.4245 119.3810 0.0000 6.7352 0.0000
# 2 6.4245 20.5440 9.5841 0.0000 0.4985 0.0000
# 3 119.3810 9.5841 186.0964 0.0000 3.3749 0.0000
# 4 0.0000 0.0000 0.0000 18.9154 0.0000 0.4541
# 5 6.7352 0.4985 3.3749 0.0000 6.6435 0.0000
# 6 0.0000 0.0000 0.0000 0.4541 0.0000 26.1171
#
#
#
# Elastic Compliance Matrix: (Units=1/GPa)
#
#
# Indices 1 2 3 4 5 6 
#
# 1 0.006969 -0.000018 -0.004382 0.000000 -0.004838 0.000000
# 2 -0.000018 0.049914 -0.002515 0.000000 -0.002450 0.000000
# 3 -0.004382 -0.002515 0.008307 0.000000 0.000412 0.000000
# 4 0.000000 0.000000 0.000000 0.052889 0.000000 -0.000920
# 5 -0.004838 -0.002450 0.000412 0.000000 0.155402 0.000000
# 6 0.000000 0.000000 0.000000 -0.000920 0.000000 0.038305
#
#
# Mechanical properties :
#
#
# Convention : Reuss Voigt Hill
#
# Bulk Modulus (GPa) = 19.47008 77.85144 48.66076
# Shear Modulus (GPa) = 14.58849 29.96814 22.27832
#
# Velocity S-wave (km/s) = 2.68252 3.84475 3.31497
# Velocity P-wave (km/s) = 4.38160 7.62302 6.21727
#
# Compressibility (1/GPa) = 0.05136086
#
# Stress axis : x y z
#
# Youngs Moduli (GPa) = 143.48697 20.03439 120.38376
#
# Poissons Ratio (x) = 0.00035 0.52754
# Poissons Ratio (y) = 0.00254 0.30275
# Poissons Ratio (z) = 0.62878 0.05038
#
# Static dielectric constant tensor:
#      x y z
#    x 1.704390 0.000000 -0.004690 
#    y 0.000000 1.749920 0.000000 
#    z -0.004690 0.000000 1.693920 
# 
# From -- ./inp_files/339031.got.cif
#   From: 2010.05.17/outbox.cif.g08.bks.cpg/sg12_170_cif.got.tgz:339031.got - 2010.06.03 13:09:07.
