data_PCOD9196500
_publ_section_title
;
Structure prediction by ZEFSAII (Michael W. Deem and Ramdas Pophale) SiO2 
 PCOD9196500
Probable space group: C 2/M
;
_chemical_formula_sum "Si O2"
_cell_formula_units_Z 56
_cell_length_a 21.532416
_cell_length_b 14.745037
_cell_length_c 21.263980
_cell_angle_alpha 90.000000
_cell_angle_beta 19.940424
_cell_angle_gamma 90.000000
_cell_volume 2302.460330
_symmetry_space_group_name_H-M "C 2/M"
_symmetry_group_IT_number 12
_symmetry_cell_setting 'monoclinic'
loop_
_space_group_symop_operation_xyz
x,y,z
-x,y,-z
-x,-y,-z
x,-y,z
1/2+x,1/2+y,z
1/2-x,1/2+y,-z
1/2-x,1/2-y,-z
1/2+x,1/2-y,z
loop_
_atom_site_type_symbol
_atom_site_label
_atom_site_fract_x
_atom_site_fract_y
_atom_site_fract_z
Si Si1 0.444758 0.390974 0.959354
Si Si2 0.708083 0.888765 0.305701
Si Si3 0.369008 0.109887 0.215024
Si Si4 0.824213 0.391016 0.402798
Si Si5 0.770562 0.111061 0.780094
Si Si6 0.551856 0.397283 0.267602
Si Si7 0.793526 0.347762 0.933740
O O1 0.453697 0.500000 0.953790
O O2 0.653234 0.358835 0.770711
O O3 0.336430 0.368020 0.000202
O O4 0.318790 0.361946 0.137732
O O5 0.500000 0.857142 0.500000
O O6 0.700293 0.000000 0.315077
O O7 0.347285 0.138007 0.307689
O O8 0.230362 0.140686 0.291768
O O9 0.356971 0.000000 0.227339
O O10 0.570381 0.132333 0.998319
O O11 0.840108 0.500000 0.393748
O O12 0.616846 0.361416 0.613066
O O13 0.993341 0.356539 0.282063
O O14 0.905891 0.146680 0.705287
O O15 0.786090 0.000000 0.764354
O O16 0.495138 0.500000 0.337267
O O17 0.730475 0.404174 0.054790
O O18 0.750000 0.250000 0.000000
#
# Coordination Sequence:
#
# PCOD9196500 Si02
#       7
#     8   8   8   8   8   8   8
#     4   9  18  34  59  88 114 143 186 237 288 344
#     4   8  15  31  60  95 117 130 167 237 309 358
#     4   8  13  24  47  77 106 136 173 224 278 316
#     4  10  20  35  57  82 108 142 189 240 281 324
#     4   8  13  24  47  77 106 136 173 224 278 316
#     4  10  20  35  57  82 108 142 189 240 281 324
#     4  12  25  39  55  77 117 165 192 224 272 340
#
# _framework density 24.321808999999998
#
# number of rings (size 3 to 8) (size 9 to 14) (size 15 to 20)
#    0.000    2.714    1.429    3.000    0.000    2.286 
#    0.000    5.714    6.286    0.000    0.000    0.000 
#    0.000    0.000    0.000    0.000    0.000    0.000 
#
# Total GULP energy -156264.185249 kJ/mol
# GULP energy per Si atom -5580.863759 kJ/mol
# Density = 2.426645 g / cm^3
# Si number density = 24.321809 Si / 1000 Ang^3
#
#
#
# Elastic Constant Matrix: (Units=GPa)
#
#
# Indices 1 2 3 4 5 6 
#
# 1 142.8874 1.4579 45.7590 0.0064 -48.9482 0.0048
# 2 1.4579 36.9844 11.2849 -0.0117 -8.8909 0.0314
# 3 45.7590 11.2849 102.0407 0.0072 -46.7252 0.0183
# 4 0.0064 -0.0117 0.0072 9.0098 0.0058 2.5808
# 5 -48.9482 -8.8909 -46.7252 0.0058 47.8890 -0.0069
# 6 0.0048 0.0314 0.0183 2.5808 -0.0069 -30.8032
#
#
#
# Elastic Compliance Matrix: (Units=1/GPa)
#
#
# Indices 1 2 3 4 5 6 
#
# 1 0.010968 0.002348 0.000280 -0.000013 0.011920 0.000001
# 2 0.002348 0.028901 -0.001253 0.000024 0.006543 0.000030
# 3 0.000280 -0.001253 0.017782 -0.000028 0.017404 0.000003
# 4 -0.000013 0.000024 -0.000028 0.108389 -0.000048 0.009081
# 5 0.011920 0.006543 0.017404 -0.000048 0.051261 0.000003
# 6 0.000001 0.000030 0.000003 0.009081 0.000003 -0.031703
#
#
# Mechanical properties :
#
#
# Convention : Reuss Voigt Hill
#
# Bulk Modulus (GPa) = 16.55608 44.32401 30.44005
# Shear Modulus (GPa) = 24.63266 20.11317 22.37292
#
# Velocity S-wave (km/s) = 3.18587 2.87881 3.03623
# Velocity P-wave (km/s) = 4.51164 5.41420 4.98340
#
# Compressibility (1/GPa) = 0.06040076
#
# Stress axis : x y z
#
# Youngs Moduli (GPa) = 91.17246 34.60084 56.23560
#
# Poissons Ratio (x) = -0.08123 -0.01574
# Poissons Ratio (y) = -0.21405 0.07047
# Poissons Ratio (z) = -0.02553 0.04336
#
# Static dielectric constant tensor:
#      x y z
#    x 1.934150 0.000000 -0.042940 
#    y 0.000000 2.321720 0.000190 
#    z -0.042940 0.000190 1.973690 
# 
# From -- ./inp_files/322648.got.cif
#   From: 2010.05.17/outbox.cif.g08.bks.cpg/sg12_162_cif.got.tgz:322648.got - 2010.06.03 13:09:07.
