data_PCOD9196215
_publ_section_title
;
Structure prediction by ZEFSAII (Michael W. Deem and Ramdas Pophale) SiO2 
 PCOD9196215
Probable space group: C 2/M
;
_chemical_formula_sum "Si O2"
_cell_formula_units_Z 56
_cell_length_a 28.854982
_cell_length_b 9.179689
_cell_length_c 17.415989
_cell_angle_alpha 90.000000
_cell_angle_beta 39.185477
_cell_angle_gamma 90.000000
_cell_volume 2914.735308
_symmetry_space_group_name_H-M "C 2/M"
_symmetry_group_IT_number 12
_symmetry_cell_setting 'monoclinic'
loop_
_space_group_symop_operation_xyz
x,y,z
-x,y,-z
-x,-y,-z
x,-y,z
1/2+x,1/2+y,z
1/2-x,1/2+y,-z
1/2-x,1/2-y,-z
1/2+x,1/2-y,z
loop_
_atom_site_type_symbol
_atom_site_label
_atom_site_fract_x
_atom_site_fract_y
_atom_site_fract_z
Si Si1 0.860289 0.332145 0.303777
Si Si2 0.537493 0.831421 0.078351
Si Si3 0.138918 0.833045 0.545356
Si Si4 0.653613 0.672739 0.833822
Si Si5 0.927807 0.177344 0.639717
Si Si6 0.791312 0.173352 0.711218
Si Si7 0.037564 0.170694 0.233564
O O1 0.838823 0.500000 0.320698
O O2 0.837814 0.271898 0.415692
O O3 0.832792 0.236349 0.268503
O O4 0.949306 0.323312 0.187134
O O5 0.559753 0.767477 0.132661
O O6 0.558785 0.000000 0.041926
O O7 0.577203 0.736414 0.963113
O O8 0.174273 0.805147 0.417641
O O9 0.051014 0.821958 0.647697
O O10 0.154797 0.000000 0.547578
O O11 0.653287 0.500000 0.833483
O O12 0.716739 0.736680 0.807837
O O13 0.853234 0.219251 0.692540
O O14 0.931835 0.220267 0.723537
O O15 0.000000 0.226902 0.500000
O O16 0.930504 0.000000 0.635305
O O17 0.777126 0.000000 0.738521
O O18 0.056549 0.000000 0.196307
#
# Coordination Sequence:
#
# PCOD9196215 Si02
#       7
#     8   8   8   8   8   8   8
#     4  10  21  37  59  83 108 140 180 226 276 327
#     4  10  21  38  59  82 109 141 181 226 275 327
#     4   9  17  31  54  84 114 144 179 221 268 321
#     4  12  25  39  55  77 108 146 187 229 273 323
#     4   9  15  29  57  89 114 142 181 222 266 320
#     4  10  20  35  56  82 115 150 183 221 270 324
#     4   9  16  30  56  88 115 139 178 226 268 316
#
# _framework density 19.212723
#
# number of rings (size 3 to 8) (size 9 to 14) (size 15 to 20)
#    0.000    2.143    1.429    2.571    0.000    4.571 
#    0.000    1.429    0.000    0.857    0.000    0.000 
#    0.000    0.000    0.000    0.000    0.000    0.000 
#
# Total GULP energy -156399.337899 kJ/mol
# GULP energy per Si atom -5585.690639 kJ/mol
# Density = 1.916899 g / cm^3
# Si number density = 19.212723 Si / 1000 Ang^3
#
#
#
# Elastic Constant Matrix: (Units=GPa)
#
#
# Indices 1 2 3 4 5 6 
#
# 1 119.1534 50.1301 16.1669 0.0052 5.2561 -0.0023
# 2 50.1301 85.1242 22.9853 0.0047 1.0870 -0.0009
# 3 16.1669 22.9853 27.0587 0.0047 1.4219 -0.0006
# 4 0.0052 0.0047 0.0047 17.1031 -0.0023 1.7504
# 5 5.2561 1.0870 1.4219 -0.0023 22.5161 0.0004
# 6 -0.0023 -0.0009 -0.0006 1.7504 0.0004 19.7562
#
#
#
# Elastic Compliance Matrix: (Units=1/GPa)
#
#
# Indices 1 2 3 4 5 6 
#
# 1 0.011311 -0.006280 -0.001305 -0.000002 -0.002255 0.000001
# 2 -0.006280 0.018731 -0.012229 0.000000 0.001334 0.000000
# 3 -0.001305 -0.012229 0.048238 -0.000010 -0.002151 0.000002
# 4 -0.000002 0.000000 -0.000010 0.059004 0.000007 -0.005228
# 5 -0.002255 0.001334 -0.002151 0.000007 0.045010 -0.000002
# 6 0.000001 0.000000 0.000002 -0.005228 -0.000002 0.051080
#
#
# Mechanical properties :
#
#
# Convention : Reuss Voigt Hill
#
# Bulk Modulus (GPa) = 25.87227 45.54453 35.70840
# Shear Modulus (GPa) = 17.48945 21.34537 19.41741
#
# Velocity S-wave (km/s) = 3.02040 3.33679 3.18253
# Velocity P-wave (km/s) = 5.06549 6.21308 5.66840
#
# Compressibility (1/GPa) = 0.03865142
#
# Stress axis : x y z
#
# Youngs Moduli (GPa) = 88.40792 53.38741 20.73065
#
# Poissons Ratio (x) = 0.33528 0.02705
# Poissons Ratio (y) = 0.55521 0.25352
# Poissons Ratio (z) = 0.11537 0.65289
#
# Static dielectric constant tensor:
#      x y z
#    x 1.673050 0.000000 -0.017260 
#    y 0.000000 1.641210 0.000000 
#    z -0.017260 0.000000 1.680810 
# 
# From -- ./inp_files/280872.got.cif
#   From: 2010.05.17/outbox.cif.g08.bks.cpg/sg12_141_cif.got.tgz:280872.got - 2010.06.03 13:09:07.
