data_PCOD9196558
_publ_section_title
;
Structure prediction by ZEFSAII (Michael W. Deem and Ramdas Pophale) SiO2 
 PCOD9196558
Probable space group: C 2/M
;
_chemical_formula_sum "Si O2"
_cell_formula_units_Z 48
_cell_length_a 12.509205
_cell_length_b 13.258576
_cell_length_c 11.510638
_cell_angle_alpha 90.000000
_cell_angle_beta 106.254423
_cell_angle_gamma 90.000000
_cell_volume 1832.778582
_symmetry_space_group_name_H-M "C 2/M"
_symmetry_group_IT_number 12
_symmetry_cell_setting 'monoclinic'
loop_
_space_group_symop_operation_xyz
x,y,z
-x,y,-z
-x,-y,-z
x,-y,z
1/2+x,1/2+y,z
1/2-x,1/2+y,-z
1/2-x,1/2-y,-z
1/2+x,1/2-y,z
loop_
_atom_site_type_symbol
_atom_site_label
_atom_site_fract_x
_atom_site_fract_y
_atom_site_fract_z
Si Si1 0.877550 0.668189 0.977198
Si Si2 0.449501 0.829685 0.355585
Si Si3 0.904379 0.108075 0.373824
Si Si4 0.166435 0.329961 0.305330
Si Si5 0.657522 0.392007 0.026146
Si Si6 0.299736 0.392839 0.693432
O O1 0.826303 0.669837 0.832037
O O2 0.889942 0.783866 0.026276
O O3 0.788032 0.615347 0.031509
O O4 0.000000 0.624011 0.000000
O O5 0.500000 0.828843 0.500000
O O6 0.421958 0.713526 0.312691
O O7 0.547358 0.872599 0.305709
O O8 0.332841 0.885971 0.326624
O O9 0.778188 0.117792 0.383870
O O10 0.000000 0.106861 0.500000
O O11 0.909602 0.000000 0.312587
O O12 0.167987 0.214189 0.351267
O O13 0.614650 0.500000 0.969224
O O14 0.647272 0.392706 0.162112
O O15 0.327895 0.500000 0.645079
#
# Coordination Sequence:
#
# PCOD9196558 Si02
#       6
#     8   8   8   8   8   8
#     4  10  20  35  57  83 112 146 181 222 273 327
#     4  10  21  36  55  80 110 144 184 230 275 321
#     4   9  20  38  58  80 107 141 182 228 275 322
#     4  10  21  37  56  81 112 145 184 227 272 324
#     4   9  19  36  56  80 111 144 181 225 271 323
#     4   9  19  36  56  79 109 145 183 224 272 326
#
# _framework density 26.189743
#
# number of rings (size 3 to 8) (size 9 to 14) (size 15 to 20)
#    0.000    2.500    0.000    1.000    0.000   10.333 
#    0.000    3.333    0.000    0.000    0.000    0.000 
#    0.000    0.000    0.000    0.000    0.000    0.000 
#
# Total GULP energy -134229.374928 kJ/mol
# GULP energy per Si atom -5592.890622 kJ/mol
# Density = 2.613013 g / cm^3
# Si number density = 26.189743 Si / 1000 Ang^3
#
#
#
# Elastic Constant Matrix: (Units=GPa)
#
#
# Indices 1 2 3 4 5 6 
#
# 1 150.3228 -0.6570 -24.3477 0.0000 18.1892 0.0000
# 2 -0.6570 145.2120 2.5574 0.0000 0.6696 0.0000
# 3 -24.3477 2.5574 68.2706 0.0000 -5.7609 0.0000
# 4 0.0000 0.0000 0.0000 3.0282 0.0000 0.3357
# 5 18.1892 0.6696 -5.7609 0.0000 28.3779 0.0000
# 6 0.0000 0.0000 0.0000 0.3357 0.0000 -13.6402
#
#
#
# Elastic Compliance Matrix: (Units=1/GPa)
#
#
# Indices 1 2 3 4 5 6 
#
# 1 0.007558 0.000013 0.002326 0.000000 -0.004373 0.000000
# 2 0.000013 0.006892 -0.000273 0.000000 -0.000227 0.000000
# 3 0.002326 -0.000273 0.015630 0.000000 0.001688 0.000000
# 4 0.000000 0.000000 0.000000 0.329334 0.000000 0.008105
# 5 -0.004373 -0.000227 0.001688 0.000000 0.038390 0.000000
# 6 0.000000 0.000000 0.000000 0.008105 0.000000 -0.073113
#
#
# Mechanical properties :
#
#
# Convention : Reuss Voigt Hill
#
# Bulk Modulus (GPa) = 29.22751 35.43452 32.33101
# Shear Modulus (GPa) = 15.06200 29.30335 22.18268
#
# Velocity S-wave (km/s) = 2.40075 3.34860 2.91348
# Velocity P-wave (km/s) = 4.34384 5.33949 4.86719
#
# Compressibility (1/GPa) = 0.03421435
#
# Stress axis : x y z
#
# Youngs Moduli (GPa) = 132.30557 145.08754 63.98018
#
# Poissons Ratio (x) = -0.00194 -0.14882
# Poissons Ratio (y) = -0.00177 0.01744
# Poissons Ratio (z) = -0.30775 0.03954
#
# Static dielectric constant tensor:
#      x y z
#    x 1.739110 0.000000 -0.093810 
#    y 0.000000 2.072710 0.000000 
#    z -0.093810 0.000000 1.994940 
# 
# From -- ./inp_files/204569.got.cif
#   From: 2010.05.17/outbox.cif.g08.bks.cpg/sg12_103_cif.got.tgz:204569.got - 2010.06.03 13:09:07.
