data_PCOD9196140
_publ_section_title
;
Structure prediction by ZEFSAII (Michael W. Deem and Ramdas Pophale) SiO2 
 PCOD9196140
Probable space group: C 2/M
;
_chemical_formula_sum "Si O2"
_cell_formula_units_Z 56
_cell_length_a 20.037378
_cell_length_b 8.856082
_cell_length_c 21.809282
_cell_angle_alpha 90.000000
_cell_angle_beta 126.022790
_cell_angle_gamma 90.000000
_cell_volume 3130.083863
_symmetry_space_group_name_H-M "C 2/M"
_symmetry_group_IT_number 12
_symmetry_cell_setting 'monoclinic'
loop_
_space_group_symop_operation_xyz
x,y,z
-x,y,-z
-x,-y,-z
x,-y,z
1/2+x,1/2+y,z
1/2-x,1/2+y,-z
1/2-x,1/2-y,-z
1/2+x,1/2-y,z
loop_
_atom_site_type_symbol
_atom_site_label
_atom_site_fract_x
_atom_site_fract_y
_atom_site_fract_z
Si Si1 0.167775 0.682361 0.639355
Si Si2 0.992174 0.317272 0.371272
Si Si3 0.597834 0.326637 0.047317
Si Si4 0.659438 0.819830 0.956535
Si Si5 0.767841 0.320315 0.803121
Si Si6 0.878846 0.318525 0.198824
Si Si7 0.676970 0.817091 0.501799
O O1 0.171437 0.500000 0.646637
O O2 0.076568 0.728603 0.615209
O O3 0.234140 0.753557 0.721218
O O4 0.183318 0.722808 0.577286
O O5 0.995409 0.500000 0.376303
O O6 0.953611 0.276331 0.284439
O O7 0.085385 0.264637 0.431586
O O8 0.627193 0.500000 0.061824
O O9 0.644603 0.243320 0.127764
O O10 0.500000 0.324451 0.000000
O O11 0.619893 0.247085 0.995729
O O12 0.611575 0.783444 0.867485
O O13 0.665323 0.000000 0.964699
O O14 0.750000 0.750000 0.000000
O O15 0.768639 0.500000 0.801522
O O16 0.702039 0.262717 0.818334
O O17 0.866773 0.500000 0.198216
O O18 0.750000 0.750000 0.500000
O O19 0.679935 0.000000 0.498962
#
# Coordination Sequence:
#
# PCOD9196140 Si02
#       7
#     8   8   8   8   8   8   8
#     4   9  18  35  59  81 105 142 187 228 270 327
#     4   8  15  32  58  82 103 138 187 228 260 314
#     4  11  24  41  58  78 112 155 192 233 283 334
#     4  11  21  34  58  86 115 149 188 232 278 331
#     4  11  21  34  57  85 112 142 182 236 283 330
#     4   9  18  34  57  83 111 143 183 230 278 328
#     4  10  20  35  56  81 113 146 179 221 274 331
#
# _framework density 17.890893999999999
#
# number of rings (size 3 to 8) (size 9 to 14) (size 15 to 20)
#    0.000    2.143    1.429    3.429    0.000    4.000 
#    2.571    2.857    0.000    4.286    0.000    0.000 
#    0.000    0.000    0.000    0.000    0.000    0.000 
#
# Total GULP energy -156224.132735 kJ/mol
# GULP energy per Si atom -5579.433312 kJ/mol
# Density = 1.785017 g / cm^3
# Si number density = 17.890894 Si / 1000 Ang^3
#
#
#
# Elastic Constant Matrix: (Units=GPa)
#
#
# Indices 1 2 3 4 5 6 
#
# 1 100.5477 34.5171 82.1073 0.0000 -5.9169 0.0000
# 2 34.5171 51.6618 50.0051 0.0000 -2.1995 0.0000
# 3 82.1073 50.0051 147.8173 0.0000 -0.7996 0.0000
# 4 0.0000 0.0000 0.0000 22.7602 0.0000 -5.2250
# 5 -5.9169 -2.1995 -0.7996 0.0000 24.7527 0.0000
# 6 0.0000 0.0000 0.0000 -5.2250 0.0000 23.8179
#
#
#
# Elastic Compliance Matrix: (Units=1/GPa)
#
#
# Indices 1 2 3 4 5 6 
#
# 1 0.019020 -0.003472 -0.009369 0.000000 0.003935 0.000000
# 2 -0.003472 0.029539 -0.008056 0.000000 0.001535 0.000000
# 3 -0.009369 -0.008056 0.014681 0.000000 -0.002481 0.000000
# 4 0.000000 0.000000 0.000000 0.046266 0.000000 0.010150
# 5 0.003935 0.001535 -0.002481 0.000000 0.041396 0.000000
# 6 0.000000 0.000000 0.000000 0.010150 0.000000 0.044212
#
#
# Mechanical properties :
#
#
# Convention : Reuss Voigt Hill
#
# Bulk Modulus (GPa) = 46.62761 70.36508 58.49634
# Shear Modulus (GPa) = 20.48697 23.15932 21.82314
#
# Velocity S-wave (km/s) = 3.38761 3.60178 3.49634
# Velocity P-wave (km/s) = 6.43584 7.53078 7.00474
#
# Compressibility (1/GPa) = 0.02144652
#
# Stress axis : x y z
#
# Youngs Moduli (GPa) = 52.57724 33.85308 68.11423
#
# Poissons Ratio (x) = 0.11752 0.63817
# Poissons Ratio (y) = 0.18252 0.54875
# Poissons Ratio (z) = 0.49260 0.27273
#
# Static dielectric constant tensor:
#      x y z
#    x 1.585130 0.000000 0.001760 
#    y 0.000000 1.609700 0.000000 
#    z 0.001760 0.000000 1.627220 
# 
# From -- ./inp_files/314405.got.cif
#   From: 2010.05.17/outbox.cif.g08.bks.cpg/sg12_158_cif.got.tgz:314405.got - 2010.06.03 13:09:07.
