data_PCOD9196933
_publ_section_title
;
Structure prediction by ZEFSAII (Michael W. Deem and Ramdas Pophale) SiO2 
 PCOD9196933
Probable space group: C 2/M
;
_chemical_formula_sum "Si O2"
_cell_formula_units_Z 56
_cell_length_a 15.867169
_cell_length_b 7.658795
_cell_length_c 24.987641
_cell_angle_alpha 90.000000
_cell_angle_beta 118.492090
_cell_angle_gamma 90.000000
_cell_volume 2668.801075
_symmetry_space_group_name_H-M "C 2/M"
_symmetry_group_IT_number 12
_symmetry_cell_setting 'monoclinic'
loop_
_space_group_symop_operation_xyz
x,y,z
-x,y,-z
-x,-y,-z
x,-y,z
1/2+x,1/2+y,z
1/2-x,1/2+y,-z
1/2-x,1/2-y,-z
1/2+x,1/2-y,z
loop_
_atom_site_type_symbol
_atom_site_label
_atom_site_fract_x
_atom_site_fract_y
_atom_site_fract_z
Si Si1 0.902354 0.212868 0.501485
Si Si2 0.747435 0.209140 0.370252
Si Si3 0.840078 0.211479 0.287654
Si Si4 0.225671 0.793856 0.145924
Si Si5 0.009143 0.294499 0.062937
Si Si6 0.556845 0.709483 0.366935
Si Si7 0.673379 0.209776 0.930524
O O1 0.812319 0.275338 0.439372
O O2 0.908560 0.275412 0.564337
O O3 0.000000 0.259058 0.500000
O O4 0.898745 0.000000 0.501820
O O5 0.788317 0.273743 0.326244
O O6 0.637155 0.248527 0.347905
O O7 0.758754 0.000000 0.373127
O O8 0.783110 0.263655 0.217692
O O9 0.950266 0.273259 0.321425
O O10 0.841306 0.000000 0.289494
O O11 0.118120 0.721062 0.114891
O O12 0.285118 0.721818 0.113052
O O13 0.214029 0.000000 0.134317
O O14 0.986211 0.500000 0.051200
O O15 0.929396 0.222614 0.079633
O O16 0.000000 0.219185 0.000000
O O17 0.550621 0.500000 0.369300
O O18 0.665924 0.000000 0.922142
O O19 0.750000 0.250000 0.000000
#
# Coordination Sequence:
#
# PCOD9196933 Si02
#       7
#     8   8   8   8   8   8   8
#     4   9  15  30  57  84 110 145 190 235 281 338
#     4  10  20  35  58  84 111 148 191 236 285 337
#     4  10  22  40  58  77 109 156 198 227 272 344
#     4  11  24  39  58  86 118 148 185 237 285 325
#     4  10  20  37  62  88 115 149 184 220 272 340
#     4  10  20  35  58  85 113 147 190 238 285 337
#     4  10  21  37  59  87 115 144 180 224 276 330
#
# _framework density 20.983205000000002
#
# number of rings (size 3 to 8) (size 9 to 14) (size 15 to 20)
#    0.000    2.000    2.857    0.857    0.000    3.714 
#    0.000    4.286    0.000    0.857    0.000    0.000 
#    0.000    0.000    0.000    0.000    0.000    0.000 
#
# Total GULP energy -156409.019129 kJ/mol
# GULP energy per Si atom -5586.036397 kJ/mol
# Density = 2.093545 g / cm^3
# Si number density = 20.983205 Si / 1000 Ang^3
#
#
#
# Elastic Constant Matrix: (Units=GPa)
#
#
# Indices 1 2 3 4 5 6 
#
# 1 202.4675 -10.1759 77.4899 0.0000 13.7257 0.0000
# 2 -10.1759 29.9828 -19.6295 0.0000 -3.0348 0.0000
# 3 77.4899 -19.6295 131.8572 0.0000 9.0242 0.0000
# 4 0.0000 0.0000 0.0000 8.3454 0.0000 -7.2464
# 5 13.7257 -3.0348 9.0242 0.0000 10.8738 0.0000
# 6 0.0000 0.0000 0.0000 -7.2464 0.0000 9.8119
#
#
#
# Elastic Compliance Matrix: (Units=1/GPa)
#
#
# Indices 1 2 3 4 5 6 
#
# 1 0.006679 -0.000686 -0.003644 0.000000 -0.005598 0.000000
# 2 -0.000686 0.037409 0.005511 0.000000 0.006732 0.000000
# 3 -0.003644 0.005511 0.010736 0.000000 -0.002772 0.000000
# 4 0.000000 0.000000 0.000000 0.334036 0.000000 0.246696
# 5 -0.005598 0.006732 -0.002772 0.000000 0.103209 0.000000
# 6 0.000000 0.000000 0.000000 0.246696 0.000000 0.284109
#
#
# Mechanical properties :
#
#
# Convention : Reuss Voigt Hill
#
# Bulk Modulus (GPa) = 17.48639 51.07517 34.28078
# Shear Modulus (GPa) = 6.30615 26.91441 16.61028
#
# Velocity S-wave (km/s) = 1.73547 3.58532 2.81659
# Velocity P-wave (km/s) = 3.51673 6.44462 5.19137
#
# Compressibility (1/GPa) = 0.05718734
#
# Stress axis : x y z
#
# Youngs Moduli (GPa) = 149.72947 26.73121 93.14834
#
# Poissons Ratio (x) = 0.01833 0.33942
# Poissons Ratio (y) = 0.10264 -0.51336
# Poissons Ratio (z) = 0.54560 -0.14732
#
# Static dielectric constant tensor:
#      x y z
#    x 1.745530 0.000000 -0.013310 
#    y 0.000000 1.806890 0.000000 
#    z -0.013310 0.000000 1.707020 
# 
# From -- ./inp_files/309013.got.cif
#   From: 2010.05.17/outbox.cif.g08.bks.cpg/sg12_155_cif.got.tgz:309013.got - 2010.06.03 13:09:07.
