data_PCOD9196293
_publ_section_title
;
Structure prediction by ZEFSAII (Michael W. Deem and Ramdas Pophale) SiO2 
 PCOD9196293
Probable space group: C 2/M
;
_chemical_formula_sum "Si O2"
_cell_formula_units_Z 56
_cell_length_a 15.490881
_cell_length_b 17.417509
_cell_length_c 22.209049
_cell_angle_alpha 90.000000
_cell_angle_beta 152.009615
_cell_angle_gamma 90.000000
_cell_volume 2812.317302
_symmetry_space_group_name_H-M "C 2/M"
_symmetry_group_IT_number 12
_symmetry_cell_setting 'monoclinic'
loop_
_space_group_symop_operation_xyz
x,y,z
-x,y,-z
-x,-y,-z
x,-y,z
1/2+x,1/2+y,z
1/2-x,1/2+y,-z
1/2-x,1/2-y,-z
1/2+x,1/2-y,z
loop_
_atom_site_type_symbol
_atom_site_label
_atom_site_fract_x
_atom_site_fract_y
_atom_site_fract_z
Si Si1 0.297289 0.277518 0.247039
Si Si2 0.114805 0.413691 0.357252
Si Si3 0.538523 0.587491 0.591084
Si Si4 0.223464 0.411097 0.630273
Si Si5 0.495813 0.683078 0.125201
Si Si6 0.630495 0.212810 0.842323
Si Si7 0.860551 0.309379 0.524969
O O1 0.325965 0.365271 0.283089
O O2 0.108527 0.244047 0.154681
O O3 0.333925 0.253827 0.200383
O O4 0.462807 0.237648 0.387124
O O5 0.053461 0.500000 0.306880
O O6 0.335327 0.412858 0.494259
O O7 0.059966 0.381469 0.388559
O O8 0.033358 0.349167 0.263596
O O9 0.500000 0.618239 0.500000
O O10 0.604315 0.500000 0.624172
O O11 0.264431 0.500000 0.640259
O O12 0.358656 0.383152 0.767026
O O13 0.258816 0.348259 0.599794
O O14 0.000000 0.406978 0.500000
O O15 0.421431 0.725097 0.139437
O O16 0.312550 0.666002 0.974324
O O17 0.750000 0.250000 0.500000
#
# Coordination Sequence:
#
# PCOD9196293 Si02
#       7
#     8   8   8   8   8   8   8
#     4  11  21  37  65  84 121 158 198 249 309 353
#     4  10  20  35  56  83 118 150 185 241 300 352
#     4  10  21  34  55  93 125 151 192 246 309 369
#     4  11  23  38  59  90 124 155 196 254 318 374
#     4  11  23  41  61  84 119 159 210 254 300 355
#     4  10  24  40  59  88 114 160 216 250 287 368
#     4  11  20  35  56  90 116 152 194 243 298 369
#
# _framework density 19.912405
#
# number of rings (size 3 to 8) (size 9 to 14) (size 15 to 20)
#    0.000    1.429    2.857    3.429    2.000    0.571 
#    0.000    0.000    0.000    6.000    0.000    0.000 
#    0.000    0.000    0.000    0.000    0.000    0.000 
#
# Total GULP energy -156088.179481 kJ/mol
# GULP energy per Si atom -5574.577839 kJ/mol
# Density = 1.986708 g / cm^3
# Si number density = 19.912405 Si / 1000 Ang^3
#
#
#
# Elastic Constant Matrix: (Units=GPa)
#
#
# Indices 1 2 3 4 5 6 
#
# 1 61.1674 14.4557 -11.0584 0.0035 -3.4026 -0.0012
# 2 14.4557 68.8093 4.6320 -0.0004 -11.0034 -0.0007
# 3 -11.0584 4.6320 46.6785 0.0185 5.7327 0.0002
# 4 0.0035 -0.0004 0.0185 16.2385 0.0034 2.9254
# 5 -3.4026 -11.0034 5.7327 0.0034 28.0997 0.0005
# 6 -0.0012 -0.0007 0.0002 2.9254 0.0005 21.1847
#
#
#
# Elastic Compliance Matrix: (Units=1/GPa)
#
#
# Indices 1 2 3 4 5 6 
#
# 1 0.018184 -0.004209 0.004777 -0.000010 -0.000421 0.000002
# 2 -0.004209 0.016732 -0.003487 0.000004 0.006754 0.000000
# 3 0.004777 -0.003487 0.023589 -0.000028 -0.005599 0.000004
# 4 -0.000010 0.000004 -0.000028 0.063153 -0.000001 -0.008721
# 5 -0.000421 0.006754 -0.005599 -0.000001 0.039324 0.000000
# 6 0.000002 0.000000 0.000004 -0.008721 0.000000 0.048408
#
#
# Mechanical properties :
#
#
# Convention : Reuss Voigt Hill
#
# Bulk Modulus (GPa) = 18.98740 21.41266 20.20003
# Shear Modulus (GPa) = 21.47934 24.34629 22.91281
#
# Velocity S-wave (km/s) = 3.28791 3.50046 3.39585
# Velocity P-wave (km/s) = 4.89591 5.20715 5.05393
#
# Compressibility (1/GPa) = 0.05266651
#
# Stress axis : x y z
#
# Youngs Moduli (GPa) = 54.99480 59.76622 42.39342
#
# Poissons Ratio (x) = 0.25155 -0.20252
# Poissons Ratio (y) = 0.23147 0.14782
# Poissons Ratio (z) = -0.26272 0.20840
#
# Static dielectric constant tensor:
#      x y z
#    x 1.784510 0.000000 -0.005440 
#    y 0.000000 1.733710 0.000000 
#    z -0.005440 0.000000 1.732050 
# 
# From -- ./inp_files/311754.got.cif
#   From: 2010.05.17/outbox.cif.g08.bks.cpg/sg12_156_cif.got.tgz:311754.got - 2010.06.03 13:09:07.
