data_PCOD9196754
_publ_section_title
;
Structure prediction by ZEFSAII (Michael W. Deem and Ramdas Pophale) SiO2 
 PCOD9196754
Probable space group: C 2/M
;
_chemical_formula_sum "Si O2"
_cell_formula_units_Z 56
_cell_length_a 15.359029
_cell_length_b 13.888152
_cell_length_c 15.073413
_cell_angle_alpha 90.000000
_cell_angle_beta 38.677732
_cell_angle_gamma 90.000000
_cell_volume 2009.359540
_symmetry_space_group_name_H-M "C 2/M"
_symmetry_group_IT_number 12
_symmetry_cell_setting 'monoclinic'
loop_
_space_group_symop_operation_xyz
x,y,z
-x,y,-z
-x,-y,-z
x,-y,z
1/2+x,1/2+y,z
1/2-x,1/2+y,-z
1/2-x,1/2-y,-z
1/2+x,1/2-y,z
loop_
_atom_site_type_symbol
_atom_site_label
_atom_site_fract_x
_atom_site_fract_y
_atom_site_fract_z
Si Si1 0.078365 0.609019 0.754935
Si Si2 0.416536 0.887787 0.462057
Si Si3 0.889680 0.711938 0.025663
Si Si4 0.188392 0.893583 0.069942
Si Si5 0.728470 0.111779 0.195314
Si Si6 0.877460 0.115298 0.327032
Si Si7 0.607922 0.614475 0.485034
O O1 0.028014 0.500000 0.815899
O O2 0.232673 0.620598 0.672224
O O3 0.094909 0.613737 0.636071
O O4 0.979020 0.693463 0.865495
O O5 0.262774 0.846310 0.608703
O O6 0.417464 0.000000 0.487069
O O7 0.576611 0.857796 0.353327
O O8 0.742788 0.673579 0.105022
O O9 0.848137 0.808423 0.111388
O O10 0.000000 0.655852 0.000000
O O11 0.276752 0.890725 0.908961
O O12 0.029943 0.880284 0.164186
O O13 0.196177 0.000000 0.102420
O O14 0.760260 0.000000 0.196236
O O15 0.898382 0.155876 0.410274
O O16 0.850854 0.000000 0.357203
O O17 0.500000 0.654835 0.500000
O O18 0.576329 0.500000 0.519334
#
# Coordination Sequence:
#
# PCOD9196754 Si02
#       7
#     8   8   8   8   8   8   8
#     4   9  17  30  49  76 109 144 175 206 259 323
#     4   8  14  30  55  79 101 136 177 214 260 314
#     4  12  25  35  51  79 113 144 180 223 270 319
#     4  10  20  35  57  86 114 140 170 216 274 326
#     4  10  21  40  62  75  97 143 192 231 268 311
#     4   8  15  27  47  79 110 131 169 218 259 312
#     4   8  14  24  42  66 103 155 183 193 236 317
#
# _framework density 27.869577
#
# number of rings (size 3 to 8) (size 9 to 14) (size 15 to 20)
#    0.000    2.714    1.429    2.571    2.000    1.429 
#    0.000    0.714    0.000    0.000    0.000    0.000 
#    0.000    6.286    0.000    0.000    0.000    0.000 
#
# Total GULP energy -156374.489507 kJ/mol
# GULP energy per Si atom -5584.803197 kJ/mol
# Density = 2.780614 g / cm^3
# Si number density = 27.869577 Si / 1000 Ang^3
#
#
#
# Elastic Constant Matrix: (Units=GPa)
#
#
# Indices 1 2 3 4 5 6 
#
# 1 118.0097 19.7751 48.8952 0.0000 -38.8773 0.0000
# 2 19.7751 141.1477 28.1069 0.0000 3.6235 0.0000
# 3 48.8952 28.1069 156.1845 0.0001 -20.5571 0.0000
# 4 0.0000 0.0000 0.0001 14.8156 0.0000 2.2201
# 5 -38.8773 3.6235 -20.5571 0.0000 47.2967 0.0000
# 6 0.0000 0.0000 0.0000 2.2201 0.0000 10.4341
#
#
#
# Elastic Compliance Matrix: (Units=1/GPa)
#
#
# Indices 1 2 3 4 5 6 
#
# 1 0.012965 -0.001567 -0.002501 0.000000 0.009690 0.000000
# 2 -0.001567 0.007603 -0.001192 0.000000 -0.002389 0.000000
# 3 -0.002501 -0.001192 0.007575 0.000000 0.001328 0.000000
# 4 0.000000 0.000000 0.000000 0.069719 0.000000 -0.014834
# 5 0.009690 -0.002389 0.001328 0.000000 0.029868 0.000000
# 6 0.000000 0.000000 0.000000 -0.014834 0.000000 0.098996
#
#
# Mechanical properties :
#
#
# Convention : Reuss Voigt Hill
#
# Bulk Modulus (GPa) = 56.74701 67.65516 62.20108
# Shear Modulus (GPa) = 20.56581 35.74692 28.15636
#
# Velocity S-wave (km/s) = 2.71943 3.58530 3.18195
# Velocity P-wave (km/s) = 5.50148 6.43952 5.98890
#
# Compressibility (1/GPa) = 0.01762207
#
# Stress axis : x y z
#
# Youngs Moduli (GPa) = 77.12933 131.52655 132.01223
#
# Poissons Ratio (x) = 0.20612 0.33022
# Poissons Ratio (y) = 0.12087 0.15736
# Poissons Ratio (z) = 0.19294 0.15679
#
# Static dielectric constant tensor:
#      x y z
#    x 2.201070 0.000000 0.041360 
#    y 0.000000 2.205180 0.000000 
#    z 0.041360 0.000000 2.234730 
# 
# From -- ./inp_files/316679.got.cif
#   From: 2010.05.17/outbox.cif.g08.bks.cpg/sg12_159_cif.got.tgz:316679.got - 2010.06.03 13:09:07.
