data_PCOD9196894
_publ_section_title
;
Structure prediction by ZEFSAII (Michael W. Deem and Ramdas Pophale) SiO2 
 PCOD9196894
Probable space group: C 2/M
;
_chemical_formula_sum "Si O2"
_cell_formula_units_Z 56
_cell_length_a 27.936281
_cell_length_b 7.538490
_cell_length_c 18.991747
_cell_angle_alpha 90.000000
_cell_angle_beta 37.870886
_cell_angle_gamma 90.000000
_cell_volume 2455.298490
_symmetry_space_group_name_H-M "C 2/M"
_symmetry_group_IT_number 12
_symmetry_cell_setting 'monoclinic'
loop_
_space_group_symop_operation_xyz
x,y,z
-x,y,-z
-x,-y,-z
x,-y,z
1/2+x,1/2+y,z
1/2-x,1/2+y,-z
1/2-x,1/2-y,-z
1/2+x,1/2-y,z
loop_
_atom_site_type_symbol
_atom_site_label
_atom_site_fract_x
_atom_site_fract_y
_atom_site_fract_z
Si Si1 0.874776 0.283496 0.956415
Si Si2 0.513058 0.206769 0.699464
Si Si3 0.537861 0.706199 0.386063
Si Si4 0.318975 0.289663 0.474272
Si Si5 0.208684 0.215852 0.188604
Si Si6 0.081650 0.284068 0.935197
Si Si7 0.249497 0.284025 0.700306
O O1 0.875181 0.500000 0.952920
O O2 0.938138 0.218009 0.827179
O O3 0.784809 0.222909 0.057116
O O4 0.904374 0.234526 0.000041
O O5 0.518162 0.286884 0.615754
O O6 0.594566 0.225563 0.645455
O O7 0.499290 0.000000 0.704672
O O8 0.500000 0.786601 0.500000
O O9 0.552941 0.500000 0.385543
O O10 0.623038 0.778944 0.266292
O O11 0.324949 0.500000 0.472693
O O12 0.250000 0.250000 0.500000
O O13 0.295321 0.218412 0.579014
O O14 0.219141 0.265956 0.258907
O O15 0.212134 0.000000 0.180997
O O16 0.080115 0.500000 0.935259
O O17 0.158738 0.229778 0.803164
O O18 0.000000 0.219488 0.000000
O O19 0.251720 0.500000 0.696558
#
# Coordination Sequence:
#
# PCOD9196894 Si02
#       7
#     8   8   8   8   8   8   8
#     4   8  16  29  46  74 111 142 175 222 273 323
#     4  11  23  37  54  80 114 145 179 225 276 332
#     4  10  20  35  58  83 109 144 187 232 276 323
#     4  11  23  38  56  79 109 145 184 224 273 327
#     4   8  14  29  52  78 106 139 179 226 274 320
#     4   8  13  22  43  72 100 131 170 220 267 310
#     4   8  15  28  48  75 103 131 172 223 269 314
#
# _framework density 22.807815999999999
#
# number of rings (size 3 to 8) (size 9 to 14) (size 15 to 20)
#    0.000    2.857    0.000    3.429    2.000    3.143 
#    0.000    0.000    0.000    0.857    0.000   16.000 
#    0.000    0.000    0.000    0.000    0.000    0.000 
#
# Total GULP energy -156294.638954 kJ/mol
# GULP energy per Si atom -5581.951391 kJ/mol
# Density = 2.275590 g / cm^3
# Si number density = 22.807816 Si / 1000 Ang^3
#
#
#
# Elastic Constant Matrix: (Units=GPa)
#
#
# Indices 1 2 3 4 5 6 
#
# 1 83.7891 -8.0189 45.6740 -0.0012 -30.1563 -0.0051
# 2 -8.0189 57.2942 6.9293 -0.0276 -0.4960 0.0300
# 3 45.6740 6.9293 137.8439 -0.0239 -11.6544 0.0201
# 4 -0.0012 -0.0276 -0.0239 1.2549 0.0155 -2.0080
# 5 -30.1563 -0.4960 -11.6544 0.0155 34.2719 -0.0069
# 6 -0.0051 0.0300 0.0201 -2.0080 -0.0069 10.6008
#
#
#
# Elastic Compliance Matrix: (Units=1/GPa)
#
#
# Indices 1 2 3 4 5 6 
#
# 1 0.021720 0.003907 -0.005943 -0.000264 0.017147 -0.000028
# 2 0.003907 0.018264 -0.001956 0.000372 0.003037 0.000026
# 3 -0.005943 -0.001956 0.009141 0.000182 -0.002150 0.000018
# 4 -0.000264 0.000372 0.000182 1.143430 -0.000639 0.216583
# 5 0.017147 0.003037 -0.002150 -0.000639 0.043580 -0.000089
# 6 -0.000028 0.000026 0.000018 0.216583 -0.000089 0.135357
#
#
# Mechanical properties :
#
#
# Convention : Reuss Voigt Hill
#
# Bulk Modulus (GPa) = 24.30754 40.89954 32.60354
# Shear Modulus (GPa) = 3.58889 24.84837 14.21863
#
# Velocity S-wave (km/s) = 1.25577 3.30429 2.49953
# Velocity P-wave (km/s) = 3.57537 5.70341 4.75984
#
# Compressibility (1/GPa) = 0.04113950
#
# Stress axis : x y z
#
# Youngs Moduli (GPa) = 46.04072 54.75364 109.40295
#
# Poissons Ratio (x) = -0.21393 0.65024
# Poissons Ratio (y) = -0.17989 0.21398
# Poissons Ratio (z) = 0.27364 0.10709
#
# Static dielectric constant tensor:
#      x y z
#    x 1.829840 0.000030 -0.033840 
#    y 0.000030 1.884900 -0.000010 
#    z -0.033840 -0.000010 1.884780 
# 
# From -- ./inp_files/292397.got.cif
#   From: 2010.05.17/outbox.cif.g08.bks.cpg/sg12_147_cif.got.tgz:292397.got - 2010.06.03 13:09:07.
