data_PCOD9196012
_publ_section_title
;
Structure prediction by ZEFSAII (Michael W. Deem and Ramdas Pophale) SiO2 
 PCOD9196012
Probable space group: C 2/M
;
_chemical_formula_sum "Si O2"
_cell_formula_units_Z 56
_cell_length_a 32.256675
_cell_length_b 7.574670
_cell_length_c 20.277033
_cell_angle_alpha 90.000000
_cell_angle_beta 149.004899
_cell_angle_gamma 90.000000
_cell_volume 2551.321874
_symmetry_space_group_name_H-M "C 2/M"
_symmetry_group_IT_number 12
_symmetry_cell_setting 'monoclinic'
loop_
_space_group_symop_operation_xyz
x,y,z
-x,y,-z
-x,-y,-z
x,-y,z
1/2+x,1/2+y,z
1/2-x,1/2+y,-z
1/2-x,1/2-y,-z
1/2+x,1/2-y,z
loop_
_atom_site_type_symbol
_atom_site_label
_atom_site_fract_x
_atom_site_fract_y
_atom_site_fract_z
Si Si1 0.269461 0.209756 0.689218
Si Si2 0.194472 0.711594 0.861304
Si Si3 0.592618 0.291255 0.430393
Si Si4 0.021032 0.206851 0.837377
Si Si5 0.198609 0.785916 0.114605
Si Si6 0.564040 0.214197 0.143028
Si Si7 0.014907 0.713635 0.595264
O O1 0.182685 0.283452 0.550223
O O2 0.281389 0.233594 0.783696
O O3 0.347650 0.278795 0.757493
O O4 0.268131 0.000000 0.675184
O O5 0.189746 0.500000 0.849751
O O6 0.237730 0.775274 0.853427
O O7 0.102533 0.776153 0.740044
O O8 0.250000 0.750000 0.000000
O O9 0.599172 0.500000 0.424822
O O10 0.528629 0.214899 0.291228
O O11 0.555368 0.271753 0.451898
O O12 0.967166 0.223385 0.829132
O O13 0.034474 0.000000 0.841106
O O14 0.109641 0.280142 0.973210
O O15 0.198227 0.000000 0.113289
O O16 0.564386 0.000000 0.144448
O O17 0.500000 0.269427 0.000000
O O18 0.014687 0.500000 0.595164
O O19 0.000000 0.771422 0.500000
#
# Coordination Sequence:
#
# PCOD9196012 Si02
#       7
#     8   8   8   8   8   8   8
#     4  10  21  37  57  81 109 142 182 225 270 325
#     4  10  21  36  55  81 111 144 182 227 274 323
#     4  10  22  39  57  81 113 146 183 227 276 328
#     4  10  21  36  56  82 112 145 181 225 273 324
#     4  10  20  35  56  80 107 141 182 225 270 320
#     4  10  20  36  57  82 112 144 180 224 274 327
#     4  10  21  38  59  82 111 147 188 230 273 325
#
# _framework density 21.949406
#
# number of rings (size 3 to 8) (size 9 to 14) (size 15 to 20)
#    0.000    2.000    1.429    1.714    0.000    6.286 
#    0.000    0.000    0.000    0.000    0.000    0.000 
#    0.000    0.000    0.000    0.000    0.000    0.000 
#
# Total GULP energy -156498.541524 kJ/mol
# GULP energy per Si atom -5589.233626 kJ/mol
# Density = 2.189945 g / cm^3
# Si number density = 21.949406 Si / 1000 Ang^3
#
#
#
# Elastic Constant Matrix: (Units=GPa)
#
#
# Indices 1 2 3 4 5 6 
#
# 1 29.8842 -14.6910 -13.6573 0.0000 14.9342 0.0000
# 2 -14.6910 49.1202 3.2751 0.0000 3.5568 0.0000
# 3 -13.6573 3.2751 99.5019 0.0000 14.6856 0.0000
# 4 0.0000 0.0000 0.0000 38.8312 0.0000 34.9704
# 5 14.9342 3.5568 14.6856 0.0000 44.1151 0.0000
# 6 0.0000 0.0000 0.0000 34.9704 0.0000 54.6889
#
#
#
# Elastic Compliance Matrix: (Units=1/GPa)
#
#
# Indices 1 2 3 4 5 6 
#
# 1 0.061550 0.019534 0.011687 0.000000 -0.026302 0.000000
# 2 0.019534 0.026697 0.003256 0.000000 -0.009849 0.000000
# 3 0.011687 0.003256 0.012799 0.000000 -0.008479 0.000000
# 4 0.000000 0.000000 0.000000 0.060718 0.000000 -0.038825
# 5 -0.026302 -0.009849 -0.008479 0.000000 0.035189 0.000000
# 6 0.000000 0.000000 0.000000 -0.038825 0.000000 0.043112
#
#
# Mechanical properties :
#
#
# Convention : Reuss Voigt Hill
#
# Bulk Modulus (GPa) = 5.88236 14.26223 10.07230
# Shear Modulus (GPa) = 21.95138 41.09901 31.52520
#
# Velocity S-wave (km/s) = 3.16585 4.33187 3.79392
# Velocity P-wave (km/s) = 4.00615 5.61534 4.87756
#
# Compressibility (1/GPa) = 0.16999967
#
# Stress axis : x y z
#
# Youngs Moduli (GPa) = 16.24686 37.45808 78.13401
#
# Poissons Ratio (x) = -0.73170 -0.91317
# Poissons Ratio (y) = -0.31736 -0.25441
# Poissons Ratio (z) = -0.18988 -0.12197
#
# Static dielectric constant tensor:
#      x y z
#    x 1.741020 0.000000 0.014970 
#    y 0.000000 1.771580 0.000000 
#    z 0.014970 0.000000 1.814770 
# 
# From -- ./inp_files/275629.got.cif
#   From: 2010.05.17/outbox.cif.g08.bks.cpg/sg12_138_cif.got.tgz:275629.got - 2010.06.03 13:09:07.
