data_PCOD9196590
_publ_section_title
;
Structure prediction by ZEFSAII (Michael W. Deem and Ramdas Pophale) SiO2 
 PCOD9196590
Probable space group: C 2/M
;
_chemical_formula_sum "Si O2"
_cell_formula_units_Z 64
_cell_length_a 15.545092
_cell_length_b 8.843812
_cell_length_c 29.497007
_cell_angle_alpha 90.000000
_cell_angle_beta 58.212956
_cell_angle_gamma 90.000000
_cell_volume 3446.955838
_symmetry_space_group_name_H-M "C 2/M"
_symmetry_group_IT_number 12
_symmetry_cell_setting 'monoclinic'
loop_
_space_group_symop_operation_xyz
x,y,z
-x,y,-z
-x,-y,-z
x,-y,z
1/2+x,1/2+y,z
1/2-x,1/2+y,-z
1/2-x,1/2-y,-z
1/2+x,1/2-y,z
loop_
_atom_site_type_symbol
_atom_site_label
_atom_site_fract_x
_atom_site_fract_y
_atom_site_fract_z
Si Si1 0.603507 0.826710 0.443851
Si Si2 0.618680 0.682214 0.255825
Si Si3 0.255445 0.317253 0.866593
Si Si4 0.334018 0.682519 0.943235
Si Si5 0.389894 0.317839 0.333411
Si Si6 0.534715 0.317868 0.939393
Si Si7 0.721770 0.825685 0.555222
Si Si8 0.195612 0.678126 0.326609
O O1 0.500000 0.819568 0.500000
O O2 0.677481 0.702100 0.443424
O O3 0.606349 0.805156 0.389016
O O4 0.644442 0.000000 0.439497
O O5 0.617877 0.500000 0.255275
O O6 0.681237 0.734551 0.194645
O O7 0.501363 0.732547 0.287575
O O8 0.670161 0.735506 0.288021
O O9 0.251723 0.500000 0.867006
O O10 0.309084 0.271573 0.898813
O O11 0.141900 0.254760 0.898239
O O12 0.328504 0.500000 0.947422
O O13 0.444947 0.727150 0.930152
O O14 0.250000 0.750000 0.000000
O O15 0.388498 0.500000 0.336170
O O16 0.363219 0.253558 0.390447
O O17 0.299590 0.274728 0.323538
O O18 0.544835 0.500000 0.935410
O O19 0.500000 0.275930 0.000000
O O20 0.750000 0.750000 0.500000
O O21 0.696950 0.000000 0.555351
O O22 0.204780 0.500000 0.313798
#
# Coordination Sequence:
#
# PCOD9196590 Si02
#       8
#     8   8   8   8   8   8   8   8
#     4   9  19  36  56  81 113 144 179 231 290 350
#     4  10  22  39  59  82 113 150 194 237 277 333
#     4  10  22  38  56  84 116 152 192 231 279 339
#     4  10  20  35  57  83 115 151 187 229 282 334
#     4   9  20  40  60  80 110 151 191 235 289 346
#     4  10  20  35  57  86 117 148 185 234 284 332
#     4  11  22  35  54  82 114 146 186 234 286 345
#     4   9  19  36  58  83 111 147 189 230 287 344
#
# _framework density 18.567108000000001
#
# number of rings (size 3 to 8) (size 9 to 14) (size 15 to 20)
#    0.000    2.250    1.250    1.875    1.750    5.000 
#    0.000    2.500    0.000    0.000    0.000    0.000 
#    0.000    0.000    0.000    0.000    0.000    0.000 
#
# Total GULP energy -178502.450795 kJ/mol
# GULP energy per Si atom -5578.201587 kJ/mol
# Density = 1.852485 g / cm^3
# Si number density = 18.567108 Si / 1000 Ang^3
#
#
#
# Elastic Constant Matrix: (Units=GPa)
#
#
# Indices 1 2 3 4 5 6 
#
# 1 130.8158 25.3848 95.6799 0.0000 -2.5402 0.0000
# 2 25.3848 16.9566 35.0255 0.0000 0.1164 0.0000
# 3 95.6799 35.0255 191.0382 0.0000 -5.3225 0.0000
# 4 0.0000 0.0000 0.0000 26.5506 0.0000 1.0921
# 5 -2.5402 0.1164 -5.3225 0.0000 33.1742 0.0000
# 6 0.0000 0.0000 0.0000 1.0921 0.0000 28.0959
#
#
#
# Elastic Compliance Matrix: (Units=1/GPa)
#
#
# Indices 1 2 3 4 5 6 
#
# 1 0.012980 -0.009691 -0.004717 0.000000 0.000271 0.000000
# 2 -0.009691 0.102485 -0.014030 0.000000 -0.003353 0.000000
# 3 -0.004717 -0.014030 0.010206 0.000000 0.001326 0.000000
# 4 0.000000 0.000000 0.000000 0.037724 0.000000 -0.001466
# 5 0.000271 -0.003353 0.001326 0.000000 0.030389 0.000000
# 6 0.000000 0.000000 0.000000 -0.001466 0.000000 0.035649
#
#
# Mechanical properties :
#
#
# Convention : Reuss Voigt Hill
#
# Bulk Modulus (GPa) = 14.53564 72.33231 43.43398
# Shear Modulus (GPa) = 16.16871 29.74551 22.95711
#
# Velocity S-wave (km/s) = 2.95418 4.00691 3.52012
# Velocity P-wave (km/s) = 4.41383 7.77489 6.32182
#
# Compressibility (1/GPa) = 0.06879640
#
# Stress axis : x y z
#
# Youngs Moduli (GPa) = 77.04273 9.75756 97.98172
#
# Poissons Ratio (x) = 0.09456 0.46214
# Poissons Ratio (y) = 0.74660 1.37466
# Poissons Ratio (z) = 0.36338 0.13690
#
# Static dielectric constant tensor:
#      x y z
#    x 1.648720 0.000000 0.001110 
#    y 0.000000 1.637270 0.000000 
#    z 0.001110 0.000000 1.635000 
# 
# From -- ./inp_files/375022.got.cif
#   From: 2010.05.17/outbox.cif.g08.bks.cpg/sg12_188_cif.got.tgz:375022.got - 2010.06.03 13:09:07.
