data_PCOD9196081
_publ_section_title
;
Structure prediction by ZEFSAII (Michael W. Deem and Ramdas Pophale) SiO2 
 PCOD9196081
Probable space group: C 2/M
;
_chemical_formula_sum "Si O2"
_cell_formula_units_Z 40
_cell_length_a 27.049076
_cell_length_b 9.843972
_cell_length_c 18.025493
_cell_angle_alpha 90.000000
_cell_angle_beta 153.753223
_cell_angle_gamma 90.000000
_cell_volume 2122.590651
_symmetry_space_group_name_H-M "C 2/M"
_symmetry_group_IT_number 12
_symmetry_cell_setting 'monoclinic'
loop_
_space_group_symop_operation_xyz
x,y,z
-x,y,-z
-x,-y,-z
x,-y,z
1/2+x,1/2+y,z
1/2-x,1/2+y,-z
1/2-x,1/2-y,-z
1/2+x,1/2-y,z
loop_
_atom_site_type_symbol
_atom_site_label
_atom_site_fract_x
_atom_site_fract_y
_atom_site_fract_z
Si Si1 0.451277 0.155932 0.015481
Si Si2 0.480100 0.154566 0.616199
Si Si3 0.542312 0.654263 0.839714
Si Si4 0.287987 0.783131 0.134114
Si Si5 0.810972 0.148006 0.311249
O O1 0.488276 0.264630 0.126728
O O2 0.482421 0.000000 0.078397
O O3 0.500000 0.184020 0.000000
O O4 0.316240 0.158411 0.832057
O O5 0.505374 0.250754 0.721160
O O6 0.592068 0.149635 0.716558
O O7 0.383906 0.229719 0.440829
O O8 0.452301 0.000000 0.600293
O O9 0.498911 0.500000 0.777142
O O10 0.678243 0.646144 0.020005
O O11 0.307228 0.660101 0.216919
O O12 0.250000 0.750000 0.000000
O O13 0.857119 0.000000 0.394764
#
# Coordination Sequence:
#
# PCOD9196081 Si02
#       5
#     8   8   8   8   8
#     4   9  19  38  61  81 104 136 174 219 271 322
#     4  11  22  35  52  77 112 148 179 214 260 313
#     4  10  20  35  56  81 108 139 180 223 261 309
#     4   9  20  34  53  78 108 144 180 215 257 310
#     4  10  21  36  55  80 108 139 177 220 266 315
#
# _framework density 18.844895999999999
#
# number of rings (size 3 to 8) (size 9 to 14) (size 15 to 20)
#    0.000    2.200    0.000    2.400    0.000   14.800 
#    0.000    1.000    0.000    0.000    0.000    0.000 
#    0.000    0.000    0.000    0.000    0.000    0.000 
#
# Total GULP energy -111420.715400 kJ/mol
# GULP energy per Si atom -5571.035770 kJ/mol
# Density = 1.880200 g / cm^3
# Si number density = 18.844896 Si / 1000 Ang^3
#
#
#
# Elastic Constant Matrix: (Units=GPa)
#
#
# Indices 1 2 3 4 5 6 
#
# 1 123.7237 62.7798 25.2906 0.0000 -12.5824 0.0000
# 2 62.7798 168.6609 43.3277 0.0000 -17.6007 0.0000
# 3 25.2906 43.3277 54.9716 0.0000 -11.0156 0.0000
# 4 0.0000 0.0000 0.0000 10.8550 0.0000 -16.5610
# 5 -12.5824 -17.6007 -11.0156 0.0000 13.6990 0.0000
# 6 0.0000 0.0000 0.0000 -16.5610 0.0000 8.3966
#
#
#
# Elastic Compliance Matrix: (Units=1/GPa)
#
#
# Indices 1 2 3 4 5 6 
#
# 1 0.010370 -0.003008 -0.001509 0.000000 0.004446 0.000000
# 2 -0.003008 0.008710 -0.004521 0.000000 0.004793 0.000000
# 3 -0.001509 -0.004521 0.025042 0.000000 0.012943 0.000000
# 4 0.000000 0.000000 0.000000 -0.045853 0.000000 -0.090437
# 5 0.004446 0.004793 0.012943 0.000000 0.093647 0.000000
# 6 0.000000 0.000000 0.000000 -0.090437 0.000000 -0.059277
#
#
# Mechanical properties :
#
#
# Convention : Reuss Voigt Hill
#
# Bulk Modulus (GPa) = 38.39317 67.79470 53.09393
# Shear Modulus (GPa) = 84.17961 20.98732 52.58347
#
# Velocity S-wave (km/s) = 6.69079 3.34082 5.28809
# Velocity P-wave (km/s) = 8.95022 7.13685 8.09447
#
# Compressibility (1/GPa) = 0.02604630
#
# Stress axis : x y z
#
# Youngs Moduli (GPa) = 96.43658 114.80589 39.93261
#
# Poissons Ratio (x) = 0.34536 0.06025
# Poissons Ratio (y) = 0.29011 0.18053
# Poissons Ratio (z) = 0.14549 0.51903
#
# Static dielectric constant tensor:
#      x y z
#    x 1.638100 0.000000 -0.011450 
#    y 0.000000 1.628960 0.000000 
#    z -0.011450 0.000000 1.673460 
# 
# From -- ./inp_files/151960.got.cif
#   From: 2010.05.17/outbox.cif.g08.bks.cpg/sg12_76_cif.got.tgz:151960.got - 2010.06.03 13:09:07.
