data_PCOD9196875
_publ_section_title
;
Structure prediction by ZEFSAII (Michael W. Deem and Ramdas Pophale) SiO2 
 PCOD9196875
Probable space group: C 2/M
;
_chemical_formula_sum "Si O2"
_cell_formula_units_Z 56
_cell_length_a 12.213142
_cell_length_b 13.055249
_cell_length_c 19.776766
_cell_angle_alpha 90.000000
_cell_angle_beta 120.138093
_cell_angle_gamma 90.000000
_cell_volume 2727.045985
_symmetry_space_group_name_H-M "C 2/M"
_symmetry_group_IT_number 12
_symmetry_cell_setting 'monoclinic'
loop_
_space_group_symop_operation_xyz
x,y,z
-x,y,-z
-x,-y,-z
x,-y,z
1/2+x,1/2+y,z
1/2-x,1/2+y,-z
1/2-x,1/2-y,-z
1/2+x,1/2-y,z
loop_
_atom_site_type_symbol
_atom_site_label
_atom_site_fract_x
_atom_site_fract_y
_atom_site_fract_z
Si Si1 0.475283 0.685466 0.208201
Si Si2 0.567451 0.335144 0.450620
Si Si3 0.056489 0.123470 0.089095
Si Si4 0.737028 0.825737 0.673954
Si Si5 0.159009 0.888422 0.708461
Si Si6 0.653823 0.884412 0.496933
Si Si7 0.347212 0.115445 0.209559
O O1 0.479940 0.665512 0.129792
O O2 0.614168 0.649451 0.275845
O O3 0.366824 0.632118 0.220176
O O4 0.450336 0.804549 0.216169
O O5 0.500000 0.355892 0.500000
O O6 0.481450 0.383698 0.366914
O O7 0.576037 0.211691 0.443797
O O8 0.708768 0.377068 0.494867
O O9 0.205803 0.148895 0.141848
O O10 0.049436 0.000000 0.090731
O O11 0.000000 0.157051 0.000000
O O12 0.725791 0.705371 0.690423
O O13 0.682026 0.855670 0.584210
O O14 0.664701 0.880470 0.712845
O O15 0.216039 0.000000 0.714783
O O16 0.604064 0.000000 0.475155
O O17 0.371096 0.000000 0.194469
#
# Coordination Sequence:
#
# PCOD9196875 Si02
#       7
#     8   8   8   8   8   8   8
#     4  10  20  35  58  80 110 143 181 221 262 325
#     4  11  23  40  53  80 106 134 183 228 271 334
#     4   9  18  34  57  85 113 142 179 220 261 310
#     4  10  20  37  53  80 106 134 186 226 265 327
#     4  11  22  37  57  78 106 143 180 227 278 322
#     4  11  23  39  58  76 104 142 180 229 279 325
#     4   9  19  34  55  81 110 144 177 218 267 313
#
# _framework density 20.535041
#
# number of rings (size 3 to 8) (size 9 to 14) (size 15 to 20)
#    0.000    1.857    2.857    1.286    0.000    3.714 
#    0.000    0.714    0.000    0.429    0.000    0.000 
#    0.000    0.000    0.000    0.000    0.000    0.000 
#
# Total GULP energy -156402.304927 kJ/mol
# GULP energy per Si atom -5585.796605 kJ/mol
# Density = 2.048830 g / cm^3
# Si number density = 20.535041 Si / 1000 Ang^3
#
#
#
# Elastic Constant Matrix: (Units=GPa)
#
#
# Indices 1 2 3 4 5 6 
#
# 1 66.7673 -1.5668 8.4648 0.0000 -17.3257 0.0000
# 2 -1.5668 104.7041 9.4055 0.0000 -9.0777 0.0000
# 3 8.4648 9.4055 51.5127 0.0000 -10.0646 0.0000
# 4 0.0000 0.0000 0.0000 11.8670 0.0000 6.1761
# 5 -17.3257 -9.0777 -10.0646 0.0000 22.3050 0.0000
# 6 0.0000 0.0000 0.0000 6.1761 0.0000 3.1700
#
#
#
# Elastic Compliance Matrix: (Units=1/GPa)
#
#
# Indices 1 2 3 4 5 6 
#
# 1 0.019030 0.001647 -0.000448 0.000000 0.015250 0.000000
# 2 0.001647 0.010102 -0.001165 0.000000 0.004865 0.000000
# 3 -0.000448 -0.001165 0.021427 0.000000 0.008846 0.000000
# 4 0.000000 0.000000 0.000000 -6.028651 0.000000 11.745683
# 5 0.015250 0.004865 0.008846 0.000000 0.062650 0.000000
# 6 0.000000 0.000000 0.000000 11.745683 0.000000-22.568772
#
#
# Mechanical properties :
#
#
# Convention : Reuss Voigt Hill
#
# Bulk Modulus (GPa) = 19.75191 28.39902 24.07547
# Shear Modulus (GPa) = -0.17564 21.24710 10.53573
#
# Velocity S-wave (km/s) = -0.29278 3.22013 2.26754
# Velocity P-wave (km/s) = 3.08630 5.26167 4.31338
#
# Compressibility (1/GPa) = 0.05062801
#
# Stress axis : x y z
#
# Youngs Moduli (GPa) = 52.54812 98.99231 46.66923
#
# Poissons Ratio (x) = -0.16306 0.02092
# Poissons Ratio (y) = -0.08656 0.05435
# Poissons Ratio (z) = 0.02356 0.11528
#
# Static dielectric constant tensor:
#      x y z
#    x 1.737870 0.000000 -0.001090 
#    y 0.000000 1.769990 0.000000 
#    z -0.001090 0.000000 1.738780 
# 
# From -- ./inp_files/304773.got.cif
#   From: 2010.05.17/outbox.cif.g08.bks.cpg/sg12_153_cif.got.tgz:304773.got - 2010.06.03 13:09:07.
