data_PCOD9196644
_publ_section_title
;
Structure prediction by ZEFSAII (Michael W. Deem and Ramdas Pophale) SiO2 
 PCOD9196644
Probable space group: C 2/M
;
_chemical_formula_sum "Si O2"
_cell_formula_units_Z 40
_cell_length_a 12.267294
_cell_length_b 25.005830
_cell_length_c 15.472269
_cell_angle_alpha 90.000000
_cell_angle_beta 152.910721
_cell_angle_gamma 90.000000
_cell_volume 2161.306758
_symmetry_space_group_name_H-M "C 2/M"
_symmetry_group_IT_number 12
_symmetry_cell_setting 'monoclinic'
loop_
_space_group_symop_operation_xyz
x,y,z
-x,y,-z
-x,-y,-z
x,-y,z
1/2+x,1/2+y,z
1/2-x,1/2+y,-z
1/2-x,1/2-y,-z
1/2+x,1/2-y,z
loop_
_atom_site_type_symbol
_atom_site_label
_atom_site_fract_x
_atom_site_fract_y
_atom_site_fract_z
Si Si1 0.500000 0.272413 0.000000
Si Si2 0.278093 0.183610 0.719706
Si Si3 0.137807 0.355444 0.828478
Si Si4 0.913195 0.561181 0.537259
Si Si5 0.641255 0.559380 0.888400
Si Si6 0.500000 0.903381 0.000000
O O1 0.382436 0.234972 0.843489
O O2 0.298252 0.309865 0.899117
O O3 0.433465 0.170662 0.744272
O O4 0.000000 0.188955 0.500000
O O5 0.329261 0.134558 0.821576
O O6 0.026709 0.394568 0.678545
O O7 0.298495 0.393558 0.002828
O O8 0.976400 0.500000 0.607686
O O9 0.626373 0.565839 0.335826
O O10 0.000000 0.568325 0.500000
O O11 0.656099 0.500000 0.938799
O O12 0.833673 0.563909 0.947463
#
# Coordination Sequence:
#
# PCOD9196644 Si02
#       6
#     4   8   8   8   8   4
#     4  11  24  38  56  82 108 142 188 231 274 320
#     4  10  22  39  58  81 109 142 183 230 275 322
#     4  11  22  38  59  81 110 146 182 224 274 324
#     4  10  21  36  56  84 114 144 180 220 266 324
#     4  10  20  35  57  84 114 146 179 218 266 324
#     4   9  19  36  57  84 113 142 179 221 270 324
#
# _framework density 18.507321999999998
#
# number of rings (size 3 to 8) (size 9 to 14) (size 15 to 20)
#    0.000    1.800    0.000    3.900    0.000    3.200 
#    0.000    4.000    0.000    9.600    0.000    0.000 
#    0.000    0.000    0.000    0.000    0.000    0.000 
#
# Total GULP energy -111723.295109 kJ/mol
# GULP energy per Si atom -5586.164755 kJ/mol
# Density = 1.846520 g / cm^3
# Si number density = 18.507322 Si / 1000 Ang^3
#
#
#
# Elastic Constant Matrix: (Units=GPa)
#
#
# Indices 1 2 3 4 5 6 
#
# 1 68.5885 56.9521 43.4306 0.0014 -7.3562 0.0021
# 2 56.9521 129.9703 69.9483 0.0007 -1.5384 0.0008
# 3 43.4306 69.9483 122.9190 -0.0003 1.7636 0.0016
# 4 0.0014 0.0007 -0.0003 37.5551 -0.0001 19.4673
# 5 -7.3562 -1.5384 1.7636 -0.0001 20.4212 0.0011
# 6 0.0021 0.0008 0.0016 19.4673 0.0011 48.3120
#
#
#
# Elastic Compliance Matrix: (Units=1/GPa)
#
#
# Indices 1 2 3 4 5 6 
#
# 1 0.025473 -0.008858 -0.004087 0.000000 0.008862 -0.000001
# 2 -0.008858 0.014210 -0.004932 0.000000 -0.001694 0.000000
# 3 -0.004087 -0.004932 0.012428 0.000000 -0.002917 0.000000
# 4 0.000000 0.000000 0.000000 0.033658 0.000001 -0.013562
# 5 0.008862 -0.001694 -0.002917 0.000001 0.052285 -0.000002
# 6 -0.000001 0.000000 0.000000 -0.013562 -0.000002 0.026164
#
#
# Mechanical properties :
#
#
# Convention : Reuss Voigt Hill
#
# Bulk Modulus (GPa) = 61.13529 73.57110 67.35319
# Shear Modulus (GPa) = 24.33994 31.33411 27.83702
#
# Velocity S-wave (km/s) = 3.63044 4.11915 3.88249
# Velocity P-wave (km/s) = 7.11886 7.90329 7.52131
#
# Compressibility (1/GPa) = 0.01635717
#
# Stress axis : x y z
#
# Youngs Moduli (GPa) = 39.25747 70.37347 80.46303
#
# Poissons Ratio (x) = 0.62334 0.32884
# Poissons Ratio (y) = 0.34773 0.39687
# Poissons Ratio (z) = 0.16044 0.34711
#
# Static dielectric constant tensor:
#      x y z
#    x 1.620650 0.000000 -0.004870 
#    y 0.000000 1.618710 0.000000 
#    z -0.004870 0.000000 1.604620 
# 
# From -- ./inp_files/208724.got.cif
#   From: 2010.05.17/outbox.cif.g08.bks.cpg/sg12_105_cif.got.tgz:208724.got - 2010.06.03 13:09:07.
