data_PCOD9196014
_publ_section_title
;
Structure prediction by ZEFSAII (Michael W. Deem and Ramdas Pophale) SiO2 
 PCOD9196014
Probable space group: C 2/M
;
_chemical_formula_sum "Si O2"
_cell_formula_units_Z 56
_cell_length_a 19.968731
_cell_length_b 7.979554
_cell_length_c 25.168878
_cell_angle_alpha 90.000000
_cell_angle_beta 136.924211
_cell_angle_gamma 90.000000
_cell_volume 2738.996636
_symmetry_space_group_name_H-M "C 2/M"
_symmetry_group_IT_number 12
_symmetry_cell_setting 'monoclinic'
loop_
_space_group_symop_operation_xyz
x,y,z
-x,y,-z
-x,-y,-z
x,-y,z
1/2+x,1/2+y,z
1/2-x,1/2+y,-z
1/2-x,1/2-y,-z
1/2+x,1/2-y,z
loop_
_atom_site_type_symbol
_atom_site_label
_atom_site_fract_x
_atom_site_fract_y
_atom_site_fract_z
Si Si1 0.981460 0.795263 0.927870
Si Si2 0.689732 0.298455 0.016563
Si Si3 0.848308 0.201800 0.525115
Si Si4 0.447425 0.300494 0.684947
Si Si5 0.229972 0.200527 0.234296
Si Si6 0.164249 0.297615 0.807416
Si Si7 0.253573 0.801744 0.635748
O O1 0.878352 0.735115 0.844744
O O2 0.978254 0.000000 0.924679
O O3 0.077702 0.738190 0.951916
O O4 0.000000 0.749337 0.000000
O O5 0.685609 0.500000 0.017265
O O6 0.749927 0.240651 0.103138
O O7 0.750000 0.250000 0.000000
O O8 0.750000 0.250000 0.500000
O O9 0.931182 0.261292 0.614371
O O10 0.827162 0.265975 0.453406
O O11 0.856222 0.000000 0.526152
O O12 0.434588 0.500000 0.678012
O O13 0.557725 0.259281 0.764701
O O14 0.361082 0.231443 0.672415
O O15 0.307802 0.262217 0.235612
O O16 0.253193 0.235719 0.308738
O O17 0.226476 0.000000 0.226295
O O18 0.163384 0.500000 0.807340
O O19 0.240745 0.000000 0.631132
#
# Coordination Sequence:
#
# PCOD9196014 Si02
#       7
#     8   8   8   8   8   8   8
#     4   9  16  33  58  77  97 136 182 217 255 308
#     4  10  21  36  55  79 107 138 176 220 266 316
#     4   8  16  32  53  77 104 137 174 216 264 316
#     4  10  20  35  57  81 106 140 183 221 261 319
#     4  10  20  35  56  80 107 141 183 221 260 317
#     4  10  21  37  54  77 112 146 177 220 271 316
#     4  10  20  35  56  82 111 138 172 221 274 319
#
# _framework density 20.445443999999998
#
# number of rings (size 3 to 8) (size 9 to 14) (size 15 to 20)
#    0.000    2.429    1.429    0.857    2.000    2.286 
#    0.000    0.714    0.000    5.143    0.000    0.000 
#    0.000    0.000    0.000    0.000    0.000    0.000 
#
# Total GULP energy -156123.132048 kJ/mol
# GULP energy per Si atom -5575.826145 kJ/mol
# Density = 2.039891 g / cm^3
# Si number density = 20.445444 Si / 1000 Ang^3
#
#
#
# Elastic Constant Matrix: (Units=GPa)
#
#
# Indices 1 2 3 4 5 6 
#
# 1 64.2642 -4.9357 -9.9005 0.0000 -17.3329 0.0000
# 2 -4.9357 8.4360 -1.1059 0.0000 -0.3487 -0.0001
# 3 -9.9005 -1.1059 27.0480 0.0000 -17.6853 0.0000
# 4 0.0000 0.0000 0.0000 17.3312 0.0000 -6.7346
# 5 -17.3329 -0.3487 -17.6853 0.0000 37.0527 0.0000
# 6 0.0000 -0.0001 0.0000 -6.7346 0.0000 16.8323
#
#
#
# Elastic Compliance Matrix: (Units=1/GPa)
#
#
# Indices 1 2 3 4 5 6 
#
# 1 0.029773 0.022624 0.030627 0.000000 0.028759 0.000000
# 2 0.022624 0.137013 0.031466 0.000000 0.026892 0.000001
# 3 0.030627 0.031466 0.085809 0.000000 0.055580 0.000000
# 4 0.000000 0.000000 0.000000 0.068322 0.000000 0.027336
# 5 0.028759 0.026892 0.055580 0.000000 0.067223 0.000000
# 6 0.000000 0.000001 0.000000 0.027336 0.000000 0.070347
#
#
# Mechanical properties :
#
#
# Convention : Reuss Voigt Hill
#
# Bulk Modulus (GPa) = 2.36950 7.54044 4.95497
# Shear Modulus (GPa) = 11.63520 21.95592 16.79556
#
# Velocity S-wave (km/s) = 2.38814 3.28056 2.86926
# Velocity P-wave (km/s) = 2.96070 4.24801 3.66137
#
# Compressibility (1/GPa) = 0.42203007
#
# Stress axis : x y z
#
# Youngs Moduli (GPa) = 33.58694 7.29858 11.65373
#
# Poissons Ratio (x) = -0.16512 -0.35692
# Poissons Ratio (y) = -0.75986 -0.36670
# Poissons Ratio (z) = -1.02867 -0.22966
#
# Static dielectric constant tensor:
#      x y z
#    x 1.704840 0.000000 -0.012940 
#    y 0.000000 1.754500 0.000000 
#    z -0.012940 0.000000 1.765610 
# 
# From -- ./inp_files/342540.got.cif
#   From: 2010.05.17/outbox.cif.g08.bks.cpg/sg12_172_cif.got.tgz:342540.got - 2010.06.03 13:09:07.
