data_PCOD9196685
_publ_section_title
;
Structure prediction by ZEFSAII (Michael W. Deem and Ramdas Pophale) SiO2 
 PCOD9196685
Probable space group: C 2/M
;
_chemical_formula_sum "Si O2"
_cell_formula_units_Z 56
_cell_length_a 12.947760
_cell_length_b 22.443301
_cell_length_c 9.459962
_cell_angle_alpha 90.000000
_cell_angle_beta 93.454881
_cell_angle_gamma 90.000000
_cell_volume 2743.978762
_symmetry_space_group_name_H-M "C 2/M"
_symmetry_group_IT_number 12
_symmetry_cell_setting 'monoclinic'
loop_
_space_group_symop_operation_xyz
x,y,z
-x,y,-z
-x,-y,-z
x,-y,z
1/2+x,1/2+y,z
1/2-x,1/2+y,-z
1/2-x,1/2-y,-z
1/2+x,1/2-y,z
loop_
_atom_site_type_symbol
_atom_site_label
_atom_site_fract_x
_atom_site_fract_y
_atom_site_fract_z
Si Si1 0.131413 0.148453 0.312362
Si Si2 0.947422 0.069386 0.338857
Si Si3 0.911156 0.663236 0.589042
Si Si4 0.169213 0.566916 0.624466
Si Si5 0.456961 0.878088 0.147829
Si Si6 0.178003 0.180620 0.615338
Si Si7 0.713956 0.776184 0.850046
O O1 0.030879 0.110454 0.262019
O O2 0.222912 0.100455 0.342940
O O3 0.116404 0.181387 0.462029
O O4 0.183331 0.195159 0.211604
O O5 0.000000 0.066193 0.500000
O O6 0.846794 0.112489 0.335384
O O7 0.932476 0.000000 0.293340
O O8 0.889068 0.601997 0.503251
O O9 0.797839 0.690701 0.584411
O O10 0.000000 0.693188 0.500000
O O11 0.953269 0.650388 0.747632
O O12 0.189274 0.500000 0.586383
O O13 0.099008 0.572897 0.758834
O O14 0.369666 0.827374 0.127262
O O15 0.500000 0.896933 0.000000
O O16 0.161937 0.228540 0.737766
O O17 0.750000 0.750000 0.000000
#
# Coordination Sequence:
#
# PCOD9196685 Si02
#       7
#     8   8   8   8   8   8   8
#     4   9  19  36  58  84 113 145 185 236 285 333
#     4   9  18  34  59  90 118 146 186 238 292 341
#     4   9  19  34  53  78 109 141 175 221 272 325
#     4   9  18  34  57  82 108 142 182 224 275 336
#     4  10  21  36  53  78 110 145 182 228 279 329
#     4  10  20  35  57  85 112 145 188 232 278 337
#     4  11  23  38  57  80 110 148 192 235 284 342
#
# _framework density 20.408321000000001
#
# number of rings (size 3 to 8) (size 9 to 14) (size 15 to 20)
#    0.000    2.429    0.000    2.571    0.000    8.571 
#    0.000    8.571    0.000    8.571    0.000    0.000 
#    0.000    0.000    0.000    0.000    0.000    0.000 
#
# Total GULP energy -156118.219707 kJ/mol
# GULP energy per Si atom -5575.650704 kJ/mol
# Density = 2.036187 g / cm^3
# Si number density = 20.408321 Si / 1000 Ang^3
#
#
#
# Elastic Constant Matrix: (Units=GPa)
#
#
# Indices 1 2 3 4 5 6 
#
# 1 79.8130 20.5521 13.0965 0.0000 -11.4911 0.0000
# 2 20.5521 119.4285 21.6370 0.0000 -7.4284 0.0000
# 3 13.0965 21.6370 87.0564 0.0000 -11.0800 0.0000
# 4 0.0000 0.0000 0.0000 9.3392 0.0000 -1.9283
# 5 -11.4911 -7.4284 -11.0800 0.0000 17.4834 0.0000
# 6 0.0000 0.0000 0.0000 -1.9283 0.0000 14.7599
#
#
#
# Elastic Compliance Matrix: (Units=1/GPa)
#
#
# Indices 1 2 3 4 5 6 
#
# 1 0.014288 -0.001831 -0.000651 0.000000 0.008201 0.000000
# 2 -0.001831 0.009108 -0.001794 0.000000 0.001530 0.000000
# 3 -0.000651 -0.001794 0.012921 0.000000 0.006999 0.000000
# 4 0.000000 0.000000 0.000000 0.110044 0.000000 0.014377
# 5 0.008201 0.001530 0.006999 0.000000 0.067673 0.000000
# 6 0.000000 0.000000 0.000000 0.014377 0.000000 0.069629
#
#
# Mechanical properties :
#
#
# Convention : Reuss Voigt Hill
#
# Bulk Modulus (GPa) = 36.01333 44.09658 40.05495
# Shear Modulus (GPa) = 16.58539 23.71732 20.15135
#
# Velocity S-wave (km/s) = 2.85384 3.41272 3.14572
# Velocity P-wave (km/s) = 5.34265 6.09778 5.73266
#
# Compressibility (1/GPa) = 0.02776750
#
# Stress axis : x y z
#
# Youngs Moduli (GPa) = 69.98777 109.78884 77.39165
#
# Poissons Ratio (x) = 0.20101 0.05036
# Poissons Ratio (y) = 0.12814 0.13881
# Poissons Ratio (z) = 0.04554 0.19692
#
# Static dielectric constant tensor:
#      x y z
#    x 1.772420 0.000000 -0.043000 
#    y 0.000000 1.748030 0.000000 
#    z -0.043000 0.000000 1.714340 
# 
# From -- ./inp_files/64071.got.cif
#   From: 2010.05.17/outbox.cif.g08.bks.cpg/sg12_33_cif.got.tgz:64071.got - 2010.06.03 13:09:07.
