data_PCOD9196918
_publ_section_title
;
Structure prediction by ZEFSAII (Michael W. Deem and Ramdas Pophale) SiO2 
 PCOD9196918
Probable space group: C 2/M
;
_chemical_formula_sum "Si O2"
_cell_formula_units_Z 64
_cell_length_a 17.336341
_cell_length_b 13.498953
_cell_length_c 19.985804
_cell_angle_alpha 90.000000
_cell_angle_beta 46.127266
_cell_angle_gamma 90.000000
_cell_volume 3371.651925
_symmetry_space_group_name_H-M "C 2/M"
_symmetry_group_IT_number 12
_symmetry_cell_setting 'monoclinic'
loop_
_space_group_symop_operation_xyz
x,y,z
-x,y,-z
-x,-y,-z
x,-y,z
1/2+x,1/2+y,z
1/2-x,1/2+y,-z
1/2-x,1/2-y,-z
1/2+x,1/2-y,z
loop_
_atom_site_type_symbol
_atom_site_label
_atom_site_fract_x
_atom_site_fract_y
_atom_site_fract_z
Si Si1 0.377183 0.883852 0.414875
Si Si2 0.382183 0.815228 0.162275
Si Si3 0.375614 0.185043 0.563630
Si Si4 0.264533 0.386275 0.629475
Si Si5 0.606314 0.118248 0.070572
Si Si6 0.901883 0.305644 0.773360
Si Si7 0.766486 0.888023 0.229753
Si Si8 0.773057 0.885788 0.860263
O O1 0.345083 0.845776 0.507028
O O2 0.285183 0.875401 0.414577
O O3 0.481744 0.825951 0.326676
O O4 0.406280 0.000000 0.401954
O O5 0.329697 0.860439 0.261292
O O6 0.507242 0.836200 0.089274
O O7 0.354660 0.698621 0.176100
O O8 0.318576 0.866867 0.140142
O O9 0.500000 0.162230 0.500000
O O10 0.352975 0.302019 0.587004
O O11 0.303335 0.128856 0.661236
O O12 0.298846 0.500000 0.618806
O O13 0.603233 0.160112 0.147022
O O14 0.590843 0.000000 0.082193
O O15 0.716431 0.137062 0.965116
O O16 0.814676 0.365666 0.782388
O O17 0.867122 0.191255 0.789752
O O18 0.806971 0.000000 0.202216
O O19 0.806169 0.000000 0.838456
#
# Coordination Sequence:
#
# PCOD9196918 Si02
#       8
#     8   8   8   8   8   8   8   8
#     4  11  21  36  58  79 106 144 187 228 264 316
#     4  10  20  35  58  84 109 141 186 227 268 322
#     4  11  22  35  55  85 111 140 180 227 270 320
#     4  10  21  37  56  79 111 147 181 221 270 321
#     4  11  20  35  60  84 107 141 185 228 270 321
#     4  11  21  35  57  83 109 142 184 229 266 320
#     4  10  21  37  56  80 112 146 181 224 273 322
#     4  10  22  37  55  82 114 144 177 224 279 327
#
# _framework density 18.981793
#
# number of rings (size 3 to 8) (size 9 to 14) (size 15 to 20)
#    0.000    1.500    2.500    3.750    0.000    1.750 
#    0.000    1.250    0.000    7.500    0.000    0.000 
#    0.000    0.000    0.000    0.000    0.000    0.000 
#
# Total GULP energy -178813.100657 kJ/mol
# GULP energy per Si atom -5587.909396 kJ/mol
# Density = 1.893859 g / cm^3
# Si number density = 18.981793 Si / 1000 Ang^3
#
#
#
# Elastic Constant Matrix: (Units=GPa)
#
#
# Indices 1 2 3 4 5 6 
#
# 1 28.1214 11.3147 1.2729 0.0000 10.3161 0.0000
# 2 11.3147 98.2069 19.0272 0.0000 -4.1530 0.0000
# 3 1.2729 19.0272 29.6618 0.0000 2.5663 0.0000
# 4 0.0000 0.0000 0.0000 62.2786 0.0000 16.5141
# 5 10.3161 -4.1530 2.5663 0.0000 22.6630 0.0000
# 6 0.0000 0.0000 0.0000 16.5141 0.0000 21.8905
#
#
#
# Elastic Compliance Matrix: (Units=1/GPa)
#
#
# Indices 1 2 3 4 5 6 
#
# 1 0.046765 -0.007269 0.004659 0.000000 -0.023147 0.000000
# 2 -0.007269 0.012964 -0.008580 0.000000 0.006656 0.000000
# 3 0.004659 -0.008580 0.039726 0.000000 -0.008192 0.000000
# 4 0.000000 0.000000 0.000000 0.020072 0.000000 -0.015142
# 5 -0.023147 0.006656 -0.008192 0.000000 0.056809 0.000000
# 6 0.000000 0.000000 0.000000 -0.015142 0.000000 0.057105
#
#
# Mechanical properties :
#
#
# Convention : Reuss Voigt Hill
#
# Bulk Modulus (GPa) = 12.97447 24.35774 18.66611
# Shear Modulus (GPa) = 17.76114 29.65811 23.70962
#
# Velocity S-wave (km/s) = 3.06223 3.95707 3.53806
# Velocity P-wave (km/s) = 4.39921 5.80843 5.15223
#
# Compressibility (1/GPa) = 0.07707443
#
# Stress axis : x y z
#
# Youngs Moduli (GPa) = 21.38333 77.13712 25.17242
#
# Poissons Ratio (x) = 0.56075 -0.11728
# Poissons Ratio (y) = 0.15545 0.21598
# Poissons Ratio (z) = -0.09962 0.66183
#
# Static dielectric constant tensor:
#      x y z
#    x 1.645570 0.000000 0.015970 
#    y 0.000000 1.653540 0.000000 
#    z 0.015970 0.000000 1.647490 
# 
# From -- ./inp_files/315701.got.cif
#   From: 2010.05.17/outbox.cif.g08.bks.cpg/sg12_158_cif.got.tgz:315701.got - 2010.06.03 13:09:07.
