data_PCOD9196244
_publ_section_title
;
Structure prediction by ZEFSAII (Michael W. Deem and Ramdas Pophale) SiO2 
 PCOD9196244
Probable space group: C 2/M
;
_chemical_formula_sum "Si O2"
_cell_formula_units_Z 56
_cell_length_a 19.102663
_cell_length_b 9.828374
_cell_length_c 18.967485
_cell_angle_alpha 90.000000
_cell_angle_beta 121.049617
_cell_angle_gamma 90.000000
_cell_volume 3050.877243
_symmetry_space_group_name_H-M "C 2/M"
_symmetry_group_IT_number 12
_symmetry_cell_setting 'monoclinic'
loop_
_space_group_symop_operation_xyz
x,y,z
-x,y,-z
-x,-y,-z
x,-y,z
1/2+x,1/2+y,z
1/2-x,1/2+y,-z
1/2-x,1/2-y,-z
1/2+x,1/2-y,z
loop_
_atom_site_type_symbol
_atom_site_label
_atom_site_fract_x
_atom_site_fract_y
_atom_site_fract_z
Si Si1 0.192511 0.342769 0.187401
Si Si2 0.240819 0.841221 0.925981
Si Si3 0.445209 0.342840 0.173067
Si Si4 0.590609 0.337149 0.356758
Si Si5 0.497821 0.843382 0.918401
Si Si6 0.248255 0.839347 0.342481
Si Si7 0.578202 0.838682 0.491493
O O1 0.220617 0.500000 0.206974
O O2 0.203963 0.300753 0.111857
O O3 0.096433 0.339922 0.154051
O O4 0.237409 0.248112 0.266439
O O5 0.147650 0.831976 0.849625
O O6 0.256853 0.000000 0.951727
O O7 0.250000 0.750000 0.000000
O O8 0.460331 0.500000 0.160955
O O9 0.513655 0.306623 0.265919
O O10 0.452857 0.248707 0.109077
O O11 0.590594 0.500000 0.370922
O O12 0.674869 0.304847 0.358974
O O13 0.581403 0.251627 0.423037
O O14 0.526837 0.000000 0.932618
O O15 0.500000 0.795830 0.000000
O O16 0.336764 0.817172 0.422847
O O17 0.239697 0.000000 0.321977
O O18 0.500000 0.806278 0.500000
O O19 0.573177 0.000000 0.471175
#
# Coordination Sequence:
#
# PCOD9196244 Si02
#       7
#     8   8   8   8   8   8   8
#     4  10  21  36  57  84 113 147 190 235 278 332
#     4  10  22  39  57  81 114 152 193 237 283 333
#     4  10  21  37  57  83 115 148 187 233 279 332
#     4  10  21  38  60  86 114 148 188 229 278 336
#     4  10  20  35  56  83 113 146 187 233 278 329
#     4  10  21  39  60  83 115 150 186 230 280 335
#     4  10  23  40  59  87 118 147 184 230 278 334
#
# _framework density 18.355377000000001
#
# number of rings (size 3 to 8) (size 9 to 14) (size 15 to 20)
#    0.000    2.000    1.429    1.286    2.000    4.571 
#    0.000    0.000    0.000    0.000    0.000    0.000 
#    0.000    0.000    0.000    0.000    0.000    0.000 
#
# Total GULP energy -156307.152735 kJ/mol
# GULP energy per Si atom -5582.398312 kJ/mol
# Density = 1.831360 g / cm^3
# Si number density = 18.355377 Si / 1000 Ang^3
#
#
#
# Elastic Constant Matrix: (Units=GPa)
#
#
# Indices 1 2 3 4 5 6 
#
# 1 86.5457 26.0146 29.3229 0.0000 1.8070 0.0000
# 2 26.0146 44.8444 49.9045 0.0000 -13.1907 0.0000
# 3 29.3229 49.9045 90.9905 0.0000 -6.9153 0.0000
# 4 0.0000 0.0000 0.0000 36.3238 0.0000 -10.6213
# 5 1.8070 -13.1907 -6.9153 0.0000 32.7506 0.0000
# 6 0.0000 0.0000 0.0000 -10.6213 0.0000 23.5324
#
#
#
# Elastic Compliance Matrix: (Units=1/GPa)
#
#
# Indices 1 2 3 4 5 6 
#
# 1 0.014660 -0.011054 0.000954 0.000000 -0.005060 0.000000
# 2 -0.011054 0.076210 -0.036441 0.000000 0.023609 0.000000
# 3 0.000954 -0.036441 0.030032 0.000000 -0.008388 0.000000
# 4 0.000000 0.000000 0.000000 0.031716 0.000000 0.014315
# 5 -0.005060 0.023609 -0.008388 0.000000 0.038551 0.000000
# 6 0.000000 0.000000 0.000000 0.014315 0.000000 0.048956
#
#
# Mechanical properties :
#
#
# Convention : Reuss Voigt Hill
#
# Bulk Modulus (GPa) = 35.94736 48.09609 42.02173
# Shear Modulus (GPa) = 14.59944 26.33061 20.46503
#
# Velocity S-wave (km/s) = 2.82330 3.79158 3.34268
# Velocity P-wave (km/s) = 5.50042 6.74000 6.15152
#
# Compressibility (1/GPa) = 0.02781845
#
# Stress axis : x y z
#
# Youngs Moduli (GPa) = 68.21405 13.12171 33.29808
#
# Poissons Ratio (x) = 0.14505 -0.03176
# Poissons Ratio (y) = 0.75403 1.21342
# Poissons Ratio (z) = -0.06506 0.47817
#
# Static dielectric constant tensor:
#      x y z
#    x 1.635320 0.000000 0.025710 
#    y 0.000000 1.615720 0.000000 
#    z 0.025710 0.000000 1.603670 
# 
# From -- ./inp_files/275653.got.cif
#   From: 2010.05.17/outbox.cif.g08.bks.cpg/sg12_138_cif.got.tgz:275653.got - 2010.06.03 13:09:07.
