data_PCOD9196853
_publ_section_title
;
Structure prediction by ZEFSAII (Michael W. Deem and Ramdas Pophale) SiO2 
 PCOD9196853
Probable space group: C 2/M
;
_chemical_formula_sum "Si O2"
_cell_formula_units_Z 56
_cell_length_a 20.424434
_cell_length_b 20.462354
_cell_length_c 16.602719
_cell_angle_alpha 90.000000
_cell_angle_beta 159.552246
_cell_angle_gamma 90.000000
_cell_volume 2424.094044
_symmetry_space_group_name_H-M "C 2/M"
_symmetry_group_IT_number 12
_symmetry_cell_setting 'monoclinic'
loop_
_space_group_symop_operation_xyz
x,y,z
-x,y,-z
-x,-y,-z
x,-y,z
1/2+x,1/2+y,z
1/2-x,1/2+y,-z
1/2-x,1/2-y,-z
1/2+x,1/2-y,z
loop_
_atom_site_type_symbol
_atom_site_label
_atom_site_fract_x
_atom_site_fract_y
_atom_site_fract_z
Si Si1 0.823426 0.331387 0.510825
Si Si2 0.095565 0.929122 0.727151
Si Si3 0.112744 0.652947 0.714042
Si Si4 0.691121 0.929929 0.269835
Si Si5 0.308595 0.705049 0.229426
Si Si6 0.404405 0.790791 0.778968
Si Si7 0.483767 0.424591 0.172406
O O1 0.719724 0.271979 0.344888
O O2 0.917749 0.296081 0.696631
O O3 0.663283 0.381803 0.354305
O O4 0.975034 0.364955 0.628362
O O5 0.205194 0.864538 0.830307
O O6 0.047590 0.924394 0.767016
O O7 0.886846 0.929564 0.447258
O O8 0.186578 0.000000 0.816944
O O9 0.173226 0.728281 0.799821
O O10 0.000000 0.650624 0.500000
O O11 0.297076 0.608984 0.922192
O O12 0.686391 0.859839 0.305100
O O13 0.694197 0.000000 0.319833
O O14 0.500000 0.931827 0.000000
O O15 0.500000 0.702558 0.500000
O O16 0.115284 0.712709 0.055163
O O17 0.502252 0.500000 0.168285
#
# Coordination Sequence:
#
# PCOD9196853 Si02
#       7
#     8   8   8   8   8   8   8
#     4  11  24  42  69 100 129 174 227 276 338 396
#     4  10  21  38  61  91 133 176 221 272 322 390
#     4  11  26  46  67 100 135 171 222 284 342 405
#     4  10  20  35  57  89 131 176 216 261 318 384
#     4  11  23  39  61  96 139 182 222 272 323 394
#     4  11  22  38  64  98 131 179 225 276 318 396
#     4  11  24  46  71  99 132 171 224 283 345 400
#
# _framework density 23.101413999999998
#
# number of rings (size 3 to 8) (size 9 to 14) (size 15 to 20)
#    0.000    1.286    2.857    2.571    2.000    4.571 
#    0.000    0.714    0.000    0.000    0.000    0.000 
#    0.000    0.000    0.000    0.000    0.000    0.000 
#
# Total GULP energy -156553.980539 kJ/mol
# GULP energy per Si atom -5591.213591 kJ/mol
# Density = 2.304883 g / cm^3
# Si number density = 23.101414 Si / 1000 Ang^3
#
#
#
# Elastic Constant Matrix: (Units=GPa)
#
#
# Indices 1 2 3 4 5 6 
#
# 1 45.8930 13.6359 8.6031 0.0000 8.0418 0.0000
# 2 13.6359 168.3056 41.6713 0.0000 0.6514 0.0000
# 3 8.6031 41.6713 108.1331 -0.0001 10.9411 0.0000
# 4 0.0000 0.0000 -0.0001 20.7414 0.0000 7.0835
# 5 8.0418 0.6514 10.9411 0.0000 29.7988 0.0000
# 6 0.0000 0.0000 0.0000 7.0835 0.0000 34.0085
#
#
#
# Elastic Compliance Matrix: (Units=1/GPa)
#
#
# Indices 1 2 3 4 5 6 
#
# 1 0.023481 -0.001734 -0.000584 0.000000 -0.006084 0.000000
# 2 -0.001734 0.006716 -0.002578 0.000000 0.001268 0.000000
# 3 -0.000584 -0.002578 0.010662 0.000000 -0.003701 0.000000
# 4 0.000000 0.000000 0.000000 0.051905 0.000000 -0.010811
# 5 -0.006084 0.001268 -0.003701 0.000000 0.036532 0.000000
# 6 0.000000 0.000000 0.000000 -0.010811 0.000000 0.031656
#
#
# Mechanical properties :
#
#
# Convention : Reuss Voigt Hill
#
# Bulk Modulus (GPa) = 32.19025 50.01695 41.10360
# Shear Modulus (GPa) = 27.60907 34.13782 30.87345
#
# Velocity S-wave (km/s) = 3.46081 3.84831 3.65969
# Velocity P-wave (km/s) = 5.47121 6.43770 5.97403
#
# Compressibility (1/GPa) = 0.03106531
#
# Stress axis : x y z
#
# Youngs Moduli (GPa) = 42.58810 148.90850 93.78758
#
# Poissons Ratio (x) = 0.25824 0.05479
# Poissons Ratio (y) = 0.07386 0.24181
# Poissons Ratio (z) = 0.02488 0.38393
#
# Static dielectric constant tensor:
#      x y z
#    x 1.961700 0.000000 -0.057610 
#    y 0.000000 1.848050 0.000000 
#    z -0.057610 0.000000 1.897990 
# 
# From -- ./inp_files/285997.got.cif
#   From: 2010.05.17/outbox.cif.g08.bks.cpg/sg12_143_cif.got.tgz:285997.got - 2010.06.03 13:09:07.
