data_PCOD9196620
_publ_section_title
;
Structure prediction by ZEFSAII (Michael W. Deem and Ramdas Pophale) SiO2 
 PCOD9196620
Probable space group: C 2/M
;
_chemical_formula_sum "Si O2"
_cell_formula_units_Z 56
_cell_length_a 15.907764
_cell_length_b 33.254921
_cell_length_c 9.085659
_cell_angle_alpha 90.000000
_cell_angle_beta 36.715569
_cell_angle_gamma 90.000000
_cell_volume 2873.483021
_symmetry_space_group_name_H-M "C 2/M"
_symmetry_group_IT_number 12
_symmetry_cell_setting 'monoclinic'
loop_
_space_group_symop_operation_xyz
x,y,z
-x,y,-z
-x,-y,-z
x,-y,z
1/2+x,1/2+y,z
1/2-x,1/2+y,-z
1/2-x,1/2-y,-z
1/2+x,1/2-y,z
loop_
_atom_site_type_symbol
_atom_site_label
_atom_site_fract_x
_atom_site_fract_y
_atom_site_fract_z
Si Si1 0.718262 0.543605 0.198044
Si Si2 0.903431 0.162687 0.881892
Si Si3 0.495257 0.918546 0.184171
Si Si4 0.000000 0.111175 0.500000
Si Si5 0.579080 0.838614 0.233306
Si Si6 0.198568 0.045423 0.579894
Si Si7 0.500000 0.609804 0.000000
Si Si8 0.579819 0.250824 0.229620
O O1 0.672334 0.500000 0.204971
O O2 0.624385 0.580884 0.282181
O O3 0.706558 0.543178 0.391705
O O4 0.879366 0.552738 0.937722
O O5 0.014224 0.140431 0.618724
O O6 0.906063 0.138808 0.030470
O O7 0.948185 0.209334 0.826267
O O8 0.747597 0.160001 0.027657
O O9 0.526920 0.874694 0.204525
O O10 0.347159 0.938363 0.431043
O O11 0.500000 0.916424 0.000000
O O12 0.500000 0.842787 0.500000
O O13 0.541880 0.793836 0.227203
O O14 0.087983 0.079254 0.776937
O O15 0.168732 0.000000 0.675007
O O16 0.500000 0.255659 0.500000
O O17 0.750000 0.250000 0.000000
#
# Coordination Sequence:
#
# PCOD9196620 Si02
#       8
#     8   8   8   4   8   8   4   8
#     4  10  20  35  57  84 111 146 193 242 284 335
#     4  11  22  37  61  85 116 152 188 235 291 343
#     4  10  20  36  59  84 111 148 195 239 283 338
#     4  12  19  36  60  84 112 148 190 242 287 340
#     4  10  20  38  61  82 116 151 189 228 287 349
#     4  10  21  37  56  80 115 154 188 233 292 346
#     4  12  23  38  58  86 118 150 192 234 289 350
#     4   9  19  36  61  87 114 152 192 233 287 354
#
# _framework density 19.488544000000001
#
# number of rings (size 3 to 8) (size 9 to 14) (size 15 to 20)
#    0.000    1.714    3.571    1.714    0.000    1.714 
#    1.286    0.000    0.000    5.143    0.000    0.000 
#    0.000    0.000    0.000    0.000    0.000    0.000 
#
# Total GULP energy -156088.865165 kJ/mol
# GULP energy per Si atom -5574.602327 kJ/mol
# Density = 1.944419 g / cm^3
# Si number density = 19.488544 Si / 1000 Ang^3
#
#
#
# Elastic Constant Matrix: (Units=GPa)
#
#
# Indices 1 2 3 4 5 6 
#
# 1 27.0160 28.2745 -12.2510 0.0000 -5.9575 0.0000
# 2 28.2745 174.9733 12.8040 0.0000 4.3619 0.0000
# 3 -12.2510 12.8040 42.8321 0.0000 -11.5704 0.0000
# 4 0.0000 0.0000 0.0000 22.5363 0.0000 -3.0920
# 5 -5.9575 4.3619 -11.5704 0.0000 17.4996 0.0000
# 6 0.0000 0.0000 0.0000 -3.0920 0.0000 18.9538
#
#
#
# Elastic Compliance Matrix: (Units=1/GPa)
#
#
# Indices 1 2 3 4 5 6 
#
# 1 0.107022 -0.023713 0.059824 0.000000 0.081900 0.000000
# 2 -0.023713 0.011246 -0.015927 0.000000 -0.021407 0.000000
# 3 0.059824 -0.015927 0.063055 0.000000 0.066028 0.000000
# 4 0.000000 0.000000 0.000000 0.045389 0.000000 0.007404
# 5 0.081900 -0.021407 0.066028 0.000000 0.134018 0.000000
# 6 0.000000 0.000000 0.000000 0.007404 0.000000 0.053968
#
#
# Mechanical properties :
#
#
# Convention : Reuss Voigt Hill
#
# Bulk Modulus (GPa) = 4.51081 33.60849 19.05965
# Shear Modulus (GPa) = 11.15500 26.19753 18.67627
#
# Velocity S-wave (km/s) = 2.39506 3.67038 3.09903
# Velocity P-wave (km/s) = 3.15722 5.93675 4.75463
#
# Compressibility (1/GPa) = 0.22168946
#
# Stress axis : x y z
#
# Youngs Moduli (GPa) = 9.34387 88.91852 15.85905
#
# Poissons Ratio (x) = 2.10856 -0.94874
# Poissons Ratio (y) = 0.22158 0.25259
# Poissons Ratio (z) = -0.55898 1.41623
#
# Static dielectric constant tensor:
#      x y z
#    x 1.640950 0.000000 0.034870 
#    y 0.000000 1.693630 0.000000 
#    z 0.034870 0.000000 1.606070 
# 
# From -- ./inp_files/80033.got.cif
#   From: 2010.05.17/outbox.cif.g08.bks.cpg/sg12_41_cif.got.tgz:80033.got - 2010.06.03 13:09:07.
