data_PCOD9196840
_publ_section_title
;
Structure prediction by ZEFSAII (Michael W. Deem and Ramdas Pophale) SiO2 
 PCOD9196840
Probable space group: C 2/M
;
_chemical_formula_sum "Si O2"
_cell_formula_units_Z 64
_cell_length_a 17.214838
_cell_length_b 25.580632
_cell_length_c 14.536023
_cell_angle_alpha 90.000000
_cell_angle_beta 149.091588
_cell_angle_gamma 90.000000
_cell_volume 3288.074642
_symmetry_space_group_name_H-M "C 2/M"
_symmetry_group_IT_number 12
_symmetry_cell_setting 'monoclinic'
loop_
_space_group_symop_operation_xyz
x,y,z
-x,y,-z
-x,-y,-z
x,-y,z
1/2+x,1/2+y,z
1/2-x,1/2+y,-z
1/2-x,1/2-y,-z
1/2+x,1/2-y,z
loop_
_atom_site_type_symbol
_atom_site_label
_atom_site_fract_x
_atom_site_fract_y
_atom_site_fract_z
Si Si1 0.850338 0.355851 0.732278
Si Si2 0.169286 0.057652 0.212422
Si Si3 0.800468 0.941491 0.538689
Si Si4 0.075321 0.060028 0.675297
Si Si5 0.693383 0.855626 0.105452
Si Si6 0.177575 0.747683 0.825241
Si Si7 0.816630 0.828447 0.818718
Si Si8 0.316905 0.249586 0.466222
O O1 0.804362 0.396207 0.607315
O O2 0.831210 0.377022 0.816122
O O3 0.741106 0.306031 0.625333
O O4 0.026511 0.342694 0.898580
O O5 0.164055 0.064510 0.317613
O O6 0.236364 0.111243 0.240231
O O7 0.238864 0.000000 0.264187
O O8 0.000000 0.055536 0.000000
O O9 0.948904 0.938404 0.625811
O O10 0.735771 0.000000 0.459924
O O11 0.208343 0.098854 0.839687
O O12 0.000000 0.075645 0.500000
O O13 0.126947 0.000000 0.716725
O O14 0.784159 0.801766 0.188155
O O15 0.253223 0.701092 0.843772
O O16 0.996902 0.743294 0.647461
O O17 0.250000 0.750000 0.000000
O O18 0.755183 0.795449 0.669787
O O19 0.000000 0.826995 0.000000
O O20 0.250000 0.250000 0.500000
#
# Coordination Sequence:
#
# PCOD9196840 Si02
#       8
#     8   8   8   8   8   8   8   8
#     4  11  22  37  58  87 125 167 212 261 320 380
#     4   9  20  39  64  93 123 160 210 263 312 369
#     4  10  20  36  61  91 125 170 220 266 322 388
#     4  10  20  35  57  88 126 169 219 266 318 385
#     4  11  23  37  58  86 128 168 211 262 314 385
#     4  12  26  42  63  92 127 168 211 262 321 384
#     4  11  22  39  64  95 127 163 210 264 314 380
#     4  12  24  40  63  89 125 166 211 263 319 383
#
# _framework density 19.464276999999999
#
# number of rings (size 3 to 8) (size 9 to 14) (size 15 to 20)
#    0.000    1.250    2.500    4.125    0.000    3.500 
#    0.000    1.250    0.000    1.500    0.000    5.250 
#    0.000    0.000    0.000    0.000    0.000    0.000 
#
# Total GULP energy -178576.653358 kJ/mol
# GULP energy per Si atom -5580.520417 kJ/mol
# Density = 1.941998 g / cm^3
# Si number density = 19.464277 Si / 1000 Ang^3
#
#
#
# Elastic Constant Matrix: (Units=GPa)
#
#
# Indices 1 2 3 4 5 6 
#
# 1 89.2703 45.4290 40.4201 0.0000 -0.8499 0.0000
# 2 45.4290 136.8744 49.1225 0.0000 0.2631 0.0000
# 3 40.4201 49.1225 105.0914 0.0000 4.9958 0.0000
# 4 0.0000 0.0000 0.0000 29.8471 0.0000 2.5154
# 5 -0.8499 0.2631 4.9958 0.0000 37.9163 0.0000
# 6 0.0000 0.0000 0.0000 2.5154 0.0000 26.6287
#
#
#
# Elastic Compliance Matrix: (Units=1/GPa)
#
#
# Indices 1 2 3 4 5 6 
#
# 1 0.014836 -0.003440 -0.004141 0.000000 0.000902 0.000000
# 2 -0.003440 0.009585 -0.003170 0.000000 0.000274 0.000000
# 3 -0.004141 -0.003170 0.012673 0.000000 -0.001741 0.000000
# 4 0.000000 0.000000 0.000000 0.033773 0.000000 -0.003190
# 5 0.000902 0.000274 -0.001741 0.000000 0.026622 0.000000
# 6 0.000000 0.000000 0.000000 -0.003190 0.000000 0.037855
#
#
# Mechanical properties :
#
#
# Convention : Reuss Voigt Hill
#
# Bulk Modulus (GPa) = 64.13797 66.79770 65.46783
# Shear Modulus (GPa) = 30.85604 31.96271 31.40938
#
# Velocity S-wave (km/s) = 3.98586 4.05671 4.02144
# Velocity P-wave (km/s) = 7.36247 7.50567 7.43441
#
# Compressibility (1/GPa) = 0.01559139
#
# Stress axis : x y z
#
# Youngs Moduli (GPa) = 67.40349 104.33150 78.90792
#
# Poissons Ratio (x) = 0.35886 0.32679
# Poissons Ratio (y) = 0.23184 0.25016
# Poissons Ratio (z) = 0.27914 0.33076
#
# Static dielectric constant tensor:
#      x y z
#    x 1.634950 0.000000 -0.003880 
#    y 0.000000 1.738500 0.000000 
#    z -0.003880 0.000000 1.687860 
# 
# From -- ./inp_files/228161.got.cif
#   From: 2010.05.17/outbox.cif.g08.bks.cpg/sg12_115_cif.got.tgz:228161.got - 2010.06.03 13:09:07.
