data_PCOD9196103
_publ_section_title
;
Structure prediction by ZEFSAII (Michael W. Deem and Ramdas Pophale) SiO2 
 PCOD9196103
Probable space group: C 2/M
;
_chemical_formula_sum "Si O2"
_cell_formula_units_Z 64
_cell_length_a 14.339221
_cell_length_b 9.249527
_cell_length_c 31.857054
_cell_angle_alpha 90.000000
_cell_angle_beta 49.090081
_cell_angle_gamma 90.000000
_cell_volume 3193.178281
_symmetry_space_group_name_H-M "C 2/M"
_symmetry_group_IT_number 12
_symmetry_cell_setting 'monoclinic'
loop_
_space_group_symop_operation_xyz
x,y,z
-x,y,-z
-x,-y,-z
x,-y,z
1/2+x,1/2+y,z
1/2-x,1/2+y,-z
1/2-x,1/2-y,-z
1/2+x,1/2-y,z
loop_
_atom_site_type_symbol
_atom_site_label
_atom_site_fract_x
_atom_site_fract_y
_atom_site_fract_z
Si Si1 0.627842 0.170055 0.051532
Si Si2 0.869272 0.671785 0.558017
Si Si3 0.374062 0.167354 0.847689
Si Si4 0.117483 0.828114 0.877088
Si Si5 0.371642 0.830128 0.656760
Si Si6 0.003371 0.164115 0.739638
Si Si7 0.373336 0.828873 0.370719
Si Si8 0.742454 0.164971 0.765982
O O1 0.622365 0.183485 0.103680
O O2 0.504821 0.248018 0.071203
O O3 0.629900 0.000000 0.040372
O O4 0.750000 0.250000 0.000000
O O5 0.853665 0.500000 0.555222
O O6 0.871577 0.696116 0.607381
O O7 0.751332 0.757016 0.575820
O O8 0.000000 0.715900 0.500000
O O9 0.235553 0.199013 0.872048
O O10 0.469417 0.265312 0.793961
O O11 0.398807 0.000000 0.829219
O O12 0.155101 0.761250 0.820953
O O13 0.097822 0.000000 0.879898
O O14 0.508809 0.800986 0.634331
O O15 0.275801 0.735821 0.711760
O O16 0.346589 0.000000 0.672031
O O17 0.872950 0.161263 0.752766
O O18 0.092402 0.257088 0.684036
O O19 0.048619 0.000000 0.730281
O O20 0.358690 0.000000 0.370428
O O21 0.696874 0.000000 0.775906
#
# Coordination Sequence:
#
# PCOD9196103 Si02
#       8
#     8   8   8   8   8   8   8   8
#     4  11  24  41  58  80 110 145 187 230 269 317
#     4  10  22  39  56  76 105 142 185 228 269 318
#     4   9  20  38  59  82 112 147 180 219 271 325
#     4  10  20  37  60  84 111 145 181 221 271 324
#     4   9  19  36  56  79 109 144 178 217 270 326
#     4   9  17  31  55  85 113 140 176 220 267 322
#     4  10  20  35  56  81 110 142 177 220 270 323
#     4   9  17  31  54  85 114 140 175 220 268 321
#
# _framework density 20.042728
#
# number of rings (size 3 to 8) (size 9 to 14) (size 15 to 20)
#    0.000    2.375    0.000    1.875    0.000    7.750 
#    0.000    2.500    0.000    0.000    0.000    0.000 
#    0.000    0.000    0.000    0.000    0.000    0.000 
#
# Total GULP energy -178854.426496 kJ/mol
# GULP energy per Si atom -5589.200828 kJ/mol
# Density = 1.999711 g / cm^3
# Si number density = 20.042728 Si / 1000 Ang^3
#
#
#
# Elastic Constant Matrix: (Units=GPa)
#
#
# Indices 1 2 3 4 5 6 
#
# 1 77.4810 35.0002 19.5789 0.0000 -22.3912 0.0000
# 2 35.0002 76.3367 26.9468 0.0000 -17.9525 0.0001
# 3 19.5789 26.9468 43.3660 0.0000 -31.7541 0.0000
# 4 0.0000 0.0000 0.0000 35.9249 0.0000 -7.4481
# 5 -22.3912 -17.9525 -31.7541 0.0000 35.6098 0.0000
# 6 0.0000 0.0001 0.0000 -7.4481 0.0000 20.6603
#
#
#
# Elastic Compliance Matrix: (Units=1/GPa)
#
#
# Indices 1 2 3 4 5 6 
#
# 1 0.018626 -0.007532 0.005954 0.000000 0.013224 0.000000
# 2 -0.007532 0.019899 -0.014656 0.000000 -0.007773 0.000000
# 3 0.005954 -0.014656 0.077250 0.000000 0.065241 0.000000
# 4 0.000000 0.000000 0.000000 0.030084 0.000000 0.010845
# 5 0.013224 -0.007773 0.065241 0.000000 0.090656 0.000000
# 6 0.000000 0.000000 0.000000 0.010845 0.000000 0.052312
#
#
# Mechanical properties :
#
#
# Convention : Reuss Voigt Hill
#
# Bulk Modulus (GPa) = 12.00377 40.02616 26.01496
# Shear Modulus (GPa) = 14.32405 26.14952 20.23678
#
# Velocity S-wave (km/s) = 2.67624 3.61597 3.18100
# Velocity P-wave (km/s) = 3.94358 6.11943 5.14777
#
# Compressibility (1/GPa) = 0.08330714
#
# Stress axis : x y z
#
# Youngs Moduli (GPa) = 53.68914 50.25468 12.94492
#
# Poissons Ratio (x) = 0.37850 -0.07707
# Poissons Ratio (y) = 0.40437 0.18972
# Poissons Ratio (z) = -0.31967 0.73654
#
# Static dielectric constant tensor:
#      x y z
#    x 1.757750 0.000000 -0.014770 
#    y 0.000000 1.680030 0.000000 
#    z -0.014770 0.000000 1.666080 
# 
# From -- ./inp_files/359940.got.cif
#   From: 2010.05.17/outbox.cif.g08.bks.cpg/sg12_180_cif.got.tgz:359940.got - 2010.06.03 13:09:07.
