data_PCOD9196479
_publ_section_title
;
Structure prediction by ZEFSAII (Michael W. Deem and Ramdas Pophale) SiO2 
 PCOD9196479
Probable space group: C 2/M
;
_chemical_formula_sum "Si O2"
_cell_formula_units_Z 52
_cell_length_a 8.603559
_cell_length_b 26.429939
_cell_length_c 26.275618
_cell_angle_alpha 90.000000
_cell_angle_beta 31.127910
_cell_angle_gamma 90.000000
_cell_volume 3088.702609
_symmetry_space_group_name_H-M "C 2/M"
_symmetry_group_IT_number 12
_symmetry_cell_setting 'monoclinic'
loop_
_space_group_symop_operation_xyz
x,y,z
-x,y,-z
-x,-y,-z
x,-y,z
1/2+x,1/2+y,z
1/2-x,1/2+y,-z
1/2-x,1/2-y,-z
1/2+x,1/2-y,z
loop_
_atom_site_type_symbol
_atom_site_label
_atom_site_fract_x
_atom_site_fract_y
_atom_site_fract_z
Si Si1 0.534839 0.199596 0.622426
Si Si2 0.754438 0.500000 0.309091
Si Si3 0.864648 0.905393 0.394354
Si Si4 0.914790 0.804892 0.612157
Si Si5 0.361486 0.000000 0.904189
Si Si6 0.638419 0.000000 0.608245
Si Si7 0.269135 0.406381 0.307686
Si Si8 0.824569 0.442593 0.097261
O O1 0.633263 0.191742 0.653156
O O2 0.392749 0.254503 0.652304
O O3 0.352207 0.150222 0.658365
O O4 0.815131 0.199923 0.504639
O O5 0.533446 0.451653 0.373512
O O6 0.935681 0.500000 0.310859
O O7 0.961436 0.500000 0.199842
O O8 0.500000 0.904944 0.500000
O O9 0.923314 0.914468 0.318690
O O10 0.001757 0.853571 0.377751
O O11 0.472218 0.953075 0.909279
O O12 0.000000 0.000000 0.000000
O O13 0.486696 0.949346 0.627617
O O14 0.000000 0.000000 0.500000
O O15 0.524681 0.413291 0.194389
O O16 0.730177 0.500000 0.108857
O O17 0.000000 0.421010 0.000000
#
# Coordination Sequence:
#
# PCOD9196479 Si02
#       8
#     8   4   8   8   4   4   8   8
#     4  10  21  35  55  77 110 144 192 229 267 329
#     4  12  24  36  52  82 118 145 190 230 276 343
#     4  12  21  36  54  78 112 156 183 225 271 332
#     4  10  21  36  52  80 108 149 188 230 270 311
#     4  10  20  35  57  82 104 142 185 239 283 327
#     4  12  26  35  47  79 120 160 185 220 268 345
#     4  12  21  37  56  79 110 153 191 224 283 333
#     4   9  19  38  56  78 107 145 187 236 283 341
#
# _framework density 16.835547999999999
#
# number of rings (size 3 to 8) (size 9 to 14) (size 15 to 20)
#    0.462    0.769    3.846    3.462    6.462    0.000 
#    0.000    0.000    0.000    0.000    0.000    5.385 
#    0.000    0.000    0.000    0.000    0.000    0.000 
#
# Total GULP energy -144867.399439 kJ/mol
# GULP energy per Si atom -5571.823055 kJ/mol
# Density = 1.679723 g / cm^3
# Si number density = 16.835548 Si / 1000 Ang^3
#
#
#
# Elastic Constant Matrix: (Units=GPa)
#
#
# Indices 1 2 3 4 5 6 
#
# 1 83.4074 28.5224 11.0312 0.0007 6.3435 0.0002
# 2 28.5224 106.0718 10.0761 0.0001 -8.3791 0.0000
# 3 11.0312 10.0761 69.2934 0.0013 6.1485 -0.0001
# 4 0.0007 0.0001 0.0013 10.1241 -0.0001 8.6897
# 5 6.3435 -8.3791 6.1485 -0.0001 26.8049 0.0003
# 6 0.0002 0.0000 -0.0001 8.6897 0.0003 10.1741
#
#
#
# Elastic Compliance Matrix: (Units=1/GPa)
#
#
# Indices 1 2 3 4 5 6 
#
# 1 0.013819 -0.003929 -0.001255 -0.000002 -0.004211 0.000002
# 2 -0.003929 0.010986 -0.001387 0.000001 0.004682 -0.000001
# 3 -0.001255 -0.001387 0.015153 -0.000008 -0.003613 0.000007
# 4 -0.000002 0.000001 -0.000008 0.370070 0.000008 -0.316077
# 5 -0.004211 0.004682 -0.003613 0.000008 0.040596 -0.000008
# 6 0.000002 -0.000001 0.000007 -0.316077 -0.000008 0.368249
#
#
# Mechanical properties :
#
#
# Convention : Reuss Voigt Hill
#
# Bulk Modulus (GPa) = 37.29239 39.78133 38.53686
# Shear Modulus (GPa) = 5.94562 23.36347 14.65455
#
# Velocity S-wave (km/s) = 1.88129 3.72929 2.95354
# Velocity P-wave (km/s) = 5.18826 6.49801 5.87972
#
# Compressibility (1/GPa) = 0.02681512
#
# Stress axis : x y z
#
# Youngs Moduli (GPa) = 72.36266 91.02627 65.99147
#
# Poissons Ratio (x) = 0.35768 0.08282
# Poissons Ratio (y) = 0.28434 0.09156
# Poissons Ratio (z) = 0.09081 0.12629
#
# Static dielectric constant tensor:
#      x y z
#    x 1.599280 0.000000 0.023300 
#    y 0.000000 1.581990 0.000000 
#    z 0.023300 0.000000 1.579380 
# 
# From -- ./inp_files/357052.got.cif
#   From: 2010.05.17/outbox.cif.g08.bks.cpg/sg12_179_cif.got.tgz:357052.got - 2010.06.03 13:09:07.
