data_PCOD9196003
_publ_section_title
;
Structure prediction by ZEFSAII (Michael W. Deem and Ramdas Pophale) SiO2 
 PCOD9196003
Probable space group: C 2/M
;
_chemical_formula_sum "Si O2"
_cell_formula_units_Z 58
_cell_length_a 30.163077
_cell_length_b 10.380429
_cell_length_c 11.752472
_cell_angle_alpha 90.000000
_cell_angle_beta 71.838670
_cell_angle_gamma 90.000000
_cell_volume 3496.449499
_symmetry_space_group_name_H-M "C 2/M"
_symmetry_group_IT_number 12
_symmetry_cell_setting 'monoclinic'
loop_
_space_group_symop_operation_xyz
x,y,z
-x,y,-z
-x,-y,-z
x,-y,z
1/2+x,1/2+y,z
1/2-x,1/2+y,-z
1/2-x,1/2-y,-z
1/2+x,1/2-y,z
loop_
_atom_site_type_symbol
_atom_site_label
_atom_site_fract_x
_atom_site_fract_y
_atom_site_fract_z
Si Si1 0.500000 0.500000 0.500000
Si Si2 0.883376 0.347723 0.154560
Si Si3 0.077254 0.654326 0.633043
Si Si4 0.785672 0.351405 0.112718
Si Si5 0.296683 0.152137 0.835207
Si Si6 0.607250 0.154207 0.361309
Si Si7 0.949922 0.854031 0.978842
Si Si8 0.476611 0.280426 0.704929
O O1 0.488406 0.389194 0.604653
O O2 0.895324 0.500000 0.128771
O O3 0.893029 0.313763 0.278559
O O4 0.830048 0.332335 0.158253
O O5 0.915540 0.254548 0.053913
O O6 0.075510 0.500000 0.627131
O O7 0.098801 0.703520 0.496722
O O8 0.024742 0.704829 0.688263
O O9 0.769003 0.500000 0.139192
O O10 0.745647 0.246060 0.164046
O O11 0.801980 0.338051 0.967914
O O12 0.343955 0.194422 0.734262
O O13 0.287637 0.000000 0.817528
O O14 0.563753 0.194539 0.318932
O O15 0.608746 0.000000 0.364696
O O16 0.958178 0.835419 0.838555
O O17 0.932836 0.000000 0.015397
O O18 0.000000 0.840147 0.000000
#
# Coordination Sequence:
#
# PCOD9196003 Si02
#       8
#     2   8   8   8   8   8   8   8
#     4  12  24  36  52  76 112 156 184 220 268 320
#     4  10  21  37  57  81 111 144 183 225 271 323
#     4  10  20  35  56  80 106 144 183 225 268 319
#     4   9  18  35  55  79 105 136 172 223 277 323
#     4   9  18  34  56  78 104 134 176 224 273 324
#     4  10  20  35  56  81 105 138 182 230 270 317
#     4  11  23  36  52  78 111 145 182 221 267 319
#     4  12  21  37  54  77 110 148 183 223 266 323
#
# _framework density 16.588256000000001
#
# number of rings (size 3 to 8) (size 9 to 14) (size 15 to 20)
#    0.000    1.793    3.448    1.241    0.000    4.138 
#    1.241    2.069    0.000    0.000    0.000    0.000 
#    0.000    0.000    0.000    0.000    0.000    0.000 
#
# Total GULP energy -161458.264607 kJ/mol
# GULP energy per Si atom -5567.526366 kJ/mol
# Density = 1.655050 g / cm^3
# Si number density = 16.588256 Si / 1000 Ang^3
#
#
#
# Elastic Constant Matrix: (Units=GPa)
#
#
# Indices 1 2 3 4 5 6 
#
# 1 120.4591 58.1102 59.6542 0.0000 4.9122 0.0000
# 2 58.1102 51.8736 43.0718 0.0000 0.5382 0.0000
# 3 59.6542 43.0718 86.8986 0.0000 8.0766 0.0000
# 4 0.0000 0.0000 0.0000 18.0905 0.0000 -6.1041
# 5 4.9122 0.5382 8.0766 0.0000 17.6069 0.0000
# 6 0.0000 0.0000 0.0000 -6.1041 0.0000 116.8457
#
#
#
# Elastic Compliance Matrix: (Units=1/GPa)
#
#
# Indices 1 2 3 4 5 6 
#
# 1 0.019082 -0.018185 -0.003805 0.000000 -0.003022 0.000000
# 2 -0.018185 0.050874 -0.013641 0.000000 0.009776 0.000000
# 3 -0.003805 -0.013641 0.021667 0.000000 -0.008461 0.000000
# 4 0.000000 0.000000 0.000000 0.056269 0.000000 0.002940
# 5 -0.003022 0.009776 -0.008461 0.000000 0.061221 0.000000
# 6 0.000000 0.000000 0.000000 0.002940 0.000000 0.008712
#
#
# Mechanical properties :
#
#
# Convention : Reuss Voigt Hill
#
# Bulk Modulus (GPa) = 49.11277 64.54487 56.82882
# Shear Modulus (GPa) = 16.89910 37.06830 26.98370
#
# Velocity S-wave (km/s) = 3.19523 4.73230 4.03758
# Velocity P-wave (km/s) = 6.57905 8.29783 7.48792
#
# Compressibility (1/GPa) = 0.02036130
#
# Stress axis : x y z
#
# Youngs Moduli (GPa) = 52.40618 19.65637 46.15345
#
# Poissons Ratio (x) = 0.35746 0.17560
# Poissons Ratio (y) = 0.95303 0.62956
# Poissons Ratio (z) = 0.19938 0.26813
#
# Static dielectric constant tensor:
#      x y z
#    x 1.532280 0.000000 0.006160 
#    y 0.000000 1.554370 0.000000 
#    z 0.006160 0.000000 1.562730 
# 
# From -- ./inp_files/186578.got.cif
#   From: 2010.05.17/outbox.cif.g08.bks.cpg/sg12_94_cif.got.tgz:186578.got - 2010.06.03 13:09:07.
