data_PCOD9196008
_publ_section_title
;
Structure prediction by ZEFSAII (Michael W. Deem and Ramdas Pophale) SiO2 
 PCOD9196008
Probable space group: C 2/M
;
_chemical_formula_sum "Si O2"
_cell_formula_units_Z 64
_cell_length_a 20.383164
_cell_length_b 7.579761
_cell_length_c 19.526881
_cell_angle_alpha 90.000000
_cell_angle_beta 118.179463
_cell_angle_gamma 90.000000
_cell_volume 2659.309555
_symmetry_space_group_name_H-M "C 2/M"
_symmetry_group_IT_number 12
_symmetry_cell_setting 'monoclinic'
loop_
_space_group_symop_operation_xyz
x,y,z
-x,y,-z
-x,-y,-z
x,-y,z
1/2+x,1/2+y,z
1/2-x,1/2+y,-z
1/2-x,1/2-y,-z
1/2+x,1/2-y,z
loop_
_atom_site_type_symbol
_atom_site_label
_atom_site_fract_x
_atom_site_fract_y
_atom_site_fract_z
Si Si1 0.419679 0.791697 0.620949
Si Si2 0.060012 0.285306 0.935160
Si Si3 0.737163 0.699843 0.785410
Si Si4 0.693564 0.789587 0.911424
Si Si5 0.579256 0.299392 0.676230
Si Si6 0.603083 0.784104 0.110660
Si Si7 0.110249 0.296294 0.545663
Si Si8 0.731557 0.209176 0.411154
O O1 0.506630 0.772302 0.678145
O O2 0.406915 0.718153 0.537783
O O3 0.353808 0.726461 0.638132
O O4 0.404590 0.000000 0.608149
O O5 0.060864 0.500000 0.936170
O O6 0.112798 0.230127 0.899082
O O7 0.973779 0.230945 0.890860
O O8 0.093593 0.231262 0.025944
O O9 0.738865 0.500000 0.756689
O O10 0.724910 0.693782 0.860846
O O11 0.659586 0.789452 0.725975
O O12 0.819603 0.777859 0.817925
O O13 0.691426 0.000000 0.897098
O O14 0.750000 0.750000 0.000000
O O15 0.586358 0.500000 0.702731
O O16 0.570630 0.291938 0.590067
O O17 0.606232 0.000000 0.112674
O O18 0.087191 0.500000 0.534807
O O19 0.200094 0.288290 0.596844
O O20 0.750000 0.250000 0.500000
O O21 0.735578 0.000000 0.401317
#
# Coordination Sequence:
#
# PCOD9196008 Si02
#       8
#     8   8   8   8   8   8   8   8
#     4   9  19  35  55  79 107 140 178 223 269 317
#     4   8  14  25  49  79  97 122 166 208 246 293
#     4  10  21  37  53  73 105 139 172 216 267 314
#     4  11  20  32  53  80 105 132 169 211 258 313
#     4  11  23  35  51  76 107 145 183 222 273 327
#     4   8  13  27  50  73  98 126 163 209 248 294
#     4  10  20  35  56  80 107 140 180 227 274 320
#     4   9  17  31  53  81 109 136 172 219 270 319
#
# _framework density 24.066396000000001
#
# number of rings (size 3 to 8) (size 9 to 14) (size 15 to 20)
#    0.000    2.500    1.250    3.375    0.000    5.500 
#    0.000    1.250    0.000    5.250    0.000    0.000 
#    0.000    0.000    0.000    0.000    0.000    0.000 
#
# Total GULP energy -178571.944789 kJ/mol
# GULP energy per Si atom -5580.373275 kJ/mol
# Density = 2.401162 g / cm^3
# Si number density = 24.066396 Si / 1000 Ang^3
#
#
#
# Elastic Constant Matrix: (Units=GPa)
#
#
# Indices 1 2 3 4 5 6 
#
# 1 185.5512 4.9554 22.5604 0.0000 45.5476 0.0000
# 2 4.9554 66.9112 -2.0992 0.0000 1.6218 0.0000
# 3 22.5604 -2.0992 37.4767 0.0000 22.5777 0.0000
# 4 0.0000 0.0000 0.0000 3.2773 0.0000 6.8262
# 5 45.5476 1.6218 22.5777 0.0000 45.4829 0.0000
# 6 0.0000 0.0000 0.0000 6.8262 0.0000 12.9760
#
#
#
# Elastic Compliance Matrix: (Units=1/GPa)
#
#
# Indices 1 2 3 4 5 6 
#
# 1 0.007154 -0.000358 -0.000026 0.000000 -0.007139 0.000000
# 2 -0.000358 0.015048 0.001663 0.000001 -0.001004 -0.000001
# 3 -0.000026 0.001663 0.038251 0.000000 -0.019021 0.000000
# 4 0.000000 0.000001 0.000000 -3.187792 0.000000 1.676965
# 5 -0.007139 -0.001004 -0.019021 0.000000 0.038613 0.000000
# 6 0.000000 -0.000001 0.000000 1.676965 0.000000 -0.805116
#
#
# Mechanical properties :
#
#
# Convention : Reuss Voigt Hill
#
# Bulk Modulus (GPa) = 15.86982 37.86358 26.86670
# Shear Modulus (GPa) = -1.29019 29.98208 14.34594
#
# Velocity S-wave (km/s) = -0.73298 3.53343 2.44416
# Velocity P-wave (km/s) = 2.42738 5.69332 4.37642
#
# Compressibility (1/GPa) = 0.06301269
#
# Stress axis : x y z
#
# Youngs Moduli (GPa) = 139.77238 66.45326 26.14285
#
# Poissons Ratio (x) = 0.02377 0.00068
# Poissons Ratio (y) = 0.04999 -0.04348
# Poissons Ratio (z) = 0.00364 -0.11051
#
# Static dielectric constant tensor:
#      x y z
#    x 1.939680 0.000000 0.065590 
#    y 0.000000 1.855930 0.000000 
#    z 0.065590 0.000000 1.948730 
# 
# From -- ./inp_files/320113.got.cif
#   From: 2010.05.17/outbox.cif.g08.bks.cpg/sg12_161_cif.got.tgz:320113.got - 2010.06.03 13:09:07.
