data_PCOD9196801
_publ_section_title
;
Structure prediction by ZEFSAII (Michael W. Deem and Ramdas Pophale) SiO2 
 PCOD9196801
Probable space group: C 2/M
;
_chemical_formula_sum "Si O2"
_cell_formula_units_Z 48
_cell_length_a 20.382388
_cell_length_b 7.827145
_cell_length_c 14.427927
_cell_angle_alpha 90.000000
_cell_angle_beta 65.543303
_cell_angle_gamma 90.000000
_cell_volume 2095.244564
_symmetry_space_group_name_H-M "C 2/M"
_symmetry_group_IT_number 12
_symmetry_cell_setting 'monoclinic'
loop_
_space_group_symop_operation_xyz
x,y,z
-x,y,-z
-x,-y,-z
x,-y,z
1/2+x,1/2+y,z
1/2-x,1/2+y,-z
1/2-x,1/2-y,-z
1/2+x,1/2-y,z
loop_
_atom_site_type_symbol
_atom_site_label
_atom_site_fract_x
_atom_site_fract_y
_atom_site_fract_z
Si Si1 0.993582 0.707500 0.349650
Si Si2 0.611851 0.792516 0.431635
Si Si3 0.234819 0.794050 0.614916
Si Si4 0.377319 0.699644 0.179189
Si Si5 0.529257 0.696900 0.123176
Si Si6 0.184432 0.695079 0.972175
O O1 0.992849 0.500000 0.339431
O O2 0.923165 0.760299 0.449649
O O3 0.059583 0.755624 0.378853
O O4 0.005315 0.791441 0.244247
O O5 0.693285 0.734256 0.374075
O O6 0.611211 0.000000 0.433792
O O7 0.250000 0.750000 0.500000
O O8 0.164297 0.724904 0.707834
O O9 0.231484 0.000000 0.623136
O O10 0.390509 0.500000 0.190176
O O11 0.457540 0.770779 0.115127
O O12 0.326540 0.711048 0.119329
O O13 0.541692 0.500000 0.086615
O O14 0.606181 0.786040 0.066466
O O15 0.197043 0.500000 0.940820
O O16 0.250000 0.750000 0.000000
#
# Coordination Sequence:
#
# PCOD9196801 Si02
#       6
#     8   8   8   8   8   8
#     4   9  17  32  56  85 116 160 212 261 311 366
#     4   8  16  31  52  81 118 158 209 261 308 362
#     4  10  20  35  57  86 123 167 209 252 306 365
#     4  10  23  42  64  92 131 172 211 259 315 368
#     4  11  23  40  62  91 128 165 207 259 315 370
#     4  12  27  46  69  95 123 158 207 262 320 384
#
# _framework density 22.909019000000001
#
# number of rings (size 3 to 8) (size 9 to 14) (size 15 to 20)
#    0.000    2.000    0.000    4.500    2.333    4.000 
#    0.000    2.500    0.000    0.000    0.000    0.000 
#    0.000    0.000    0.000    0.000    0.000    0.000 
#
# Total GULP energy -134065.807942 kJ/mol
# GULP energy per Si atom -5586.075331 kJ/mol
# Density = 2.285688 g / cm^3
# Si number density = 22.909019 Si / 1000 Ang^3
#
#
#
# Elastic Constant Matrix: (Units=GPa)
#
#
# Indices 1 2 3 4 5 6 
#
# 1 149.8144 4.0979 48.9063 0.0000 -16.4296 0.0000
# 2 4.0979 38.9401 -6.7987 0.0000 -6.3062 0.0000
# 3 48.9063 -6.7987 108.9601 0.0000 -8.2262 0.0000
# 4 0.0000 0.0000 0.0000 27.8048 0.0000 5.8569
# 5 -16.4296 -6.3062 -8.2262 0.0000 36.9995 0.0000
# 6 0.0000 0.0000 0.0000 5.8569 0.0000 12.7604
#
#
#
# Elastic Compliance Matrix: (Units=1/GPa)
#
#
# Indices 1 2 3 4 5 6 
#
# 1 0.008144 -0.001041 -0.003520 0.000000 0.002656 0.000000
# 2 -0.001041 0.026988 0.002506 0.000000 0.004695 0.000000
# 3 -0.003520 0.002506 0.011013 0.000000 0.001313 0.000000
# 4 0.000000 0.000000 0.000000 0.039814 0.000000 -0.018274
# 5 0.002656 0.004695 0.001313 0.000000 0.029299 0.000000
# 6 0.000000 0.000000 0.000000 -0.018274 0.000000 0.086755
#
#
# Mechanical properties :
#
#
# Convention : Reuss Voigt Hill
#
# Bulk Modulus (GPa) = 23.79038 43.34731 33.56884
# Shear Modulus (GPa) = 22.71338 32.28021 27.49679
#
# Velocity S-wave (km/s) = 3.15216 3.75782 3.46824
# Velocity P-wave (km/s) = 4.86369 6.14743 5.54285
#
# Compressibility (1/GPa) = 0.04203379
#
# Stress axis : x y z
#
# Youngs Moduli (GPa) = 122.79435 37.05380 90.80230
#
# Poissons Ratio (x) = 0.03859 0.31960
# Poissons Ratio (y) = 0.12787 -0.22753
# Poissons Ratio (z) = 0.43220 -0.09285
#
# Static dielectric constant tensor:
#      x y z
#    x 1.965990 0.000000 -0.001750 
#    y 0.000000 1.840280 0.000000 
#    z -0.001750 0.000000 1.861230 
# 
# From -- ./inp_files/229867.got.cif
#   From: 2010.05.17/outbox.cif.g08.bks.cpg/sg12_115_cif.got.tgz:229867.got - 2010.06.03 13:09:07.
