data_PCOD9196687
_publ_section_title
;
Structure prediction by ZEFSAII (Michael W. Deem and Ramdas Pophale) SiO2 
 PCOD9196687
Probable space group: C 2/M
;
_chemical_formula_sum "Si O2"
_cell_formula_units_Z 48
_cell_length_a 14.274350
_cell_length_b 29.075400
_cell_length_c 8.257757
_cell_angle_alpha 90.000000
_cell_angle_beta 135.667460
_cell_angle_gamma 90.000000
_cell_volume 2395.027371
_symmetry_space_group_name_H-M "C 2/M"
_symmetry_group_IT_number 12
_symmetry_cell_setting 'monoclinic'
loop_
_space_group_symop_operation_xyz
x,y,z
-x,y,-z
-x,-y,-z
x,-y,z
1/2+x,1/2+y,z
1/2-x,1/2+y,-z
1/2-x,1/2-y,-z
1/2+x,1/2-y,z
loop_
_atom_site_type_symbol
_atom_site_label
_atom_site_fract_x
_atom_site_fract_y
_atom_site_fract_z
Si Si1 0.214932 0.798881 0.038016
Si Si2 0.043795 0.642628 0.742379
Si Si3 0.714396 0.802558 0.495899
Si Si4 0.615371 0.949063 0.009865
Si Si5 0.543732 0.648585 0.365830
Si Si6 0.098218 0.949241 0.468454
O O1 0.311550 0.834029 0.064890
O O2 0.252059 0.803342 0.271766
O O3 0.250000 0.750000 0.000000
O O4 0.062942 0.815780 0.838657
O O5 0.065726 0.591294 0.832607
O O6 0.000000 0.641556 0.500000
O O7 0.933845 0.674732 0.697287
O O8 0.750000 0.750000 0.500000
O O9 0.811529 0.832067 0.501442
O O10 0.631590 0.000000 0.953174
O O11 0.500000 0.952180 0.000000
O O12 0.755073 0.938880 0.275101
O O13 0.500000 0.647264 0.500000
O O14 0.545527 0.595518 0.307994
O O15 0.000000 0.953097 0.500000
O O16 0.102572 0.000000 0.393950
#
# Coordination Sequence:
#
# PCOD9196687 Si02
#       6
#     8   8   8   8   8   8
#     4  11  23  39  58  83 113 148 194 239 284 341
#     4  10  22  38  56  81 114 148 186 234 285 338
#     4  11  23  39  58  82 113 150 192 238 287 339
#     4  10  20  35  57  85 113 145 188 233 278 335
#     4  11  21  36  59  85 114 150 189 232 286 339
#     4   9  18  33  55  83 112 144 186 232 277 331
#
# _framework density 20.041523999999999
#
# number of rings (size 3 to 8) (size 9 to 14) (size 15 to 20)
#    0.000    1.667    0.000    5.500    0.000    3.000 
#    0.000    0.000    0.000    4.000    0.000    0.000 
#    0.000    0.000    0.000    0.000    0.000    0.000 
#
# Total GULP energy -133758.027227 kJ/mol
# GULP energy per Si atom -5573.251134 kJ/mol
# Density = 1.999591 g / cm^3
# Si number density = 20.041524 Si / 1000 Ang^3
#
#
#
# Elastic Constant Matrix: (Units=GPa)
#
#
# Indices 1 2 3 4 5 6 
#
# 1 97.3208 24.0338 14.7294 0.0000 22.0841 0.0000
# 2 24.0338 151.7672 -1.0769 0.0000 -5.9184 0.0000
# 3 14.7294 -1.0769 27.4826 0.0000 12.3610 0.0000
# 4 0.0000 0.0000 0.0000 31.2356 0.0000 1.6577
# 5 22.0841 -5.9184 12.3610 0.0000 30.2622 0.0000
# 6 0.0000 0.0000 0.0000 1.6577 0.0000 31.9469
#
#
#
# Elastic Compliance Matrix: (Units=1/GPa)
#
#
# Indices 1 2 3 4 5 6 
#
# 1 0.013416 -0.002496 -0.003265 0.000000 -0.008945 0.000000
# 2 -0.002496 0.007108 0.000211 0.000000 0.003126 0.000000
# 3 -0.003265 0.000211 0.045394 0.000000 -0.016118 0.000000
# 4 0.000000 0.000000 0.000000 0.032103 0.000000 -0.001666
# 5 -0.008945 0.003126 -0.016118 0.000000 0.046767 0.000000
# 6 0.000000 0.000000 0.000000 -0.001666 0.000000 0.031388
#
#
# Mechanical properties :
#
#
# Convention : Reuss Voigt Hill
#
# Bulk Modulus (GPa) = 18.24279 39.10479 28.67379
# Shear Modulus (GPa) = 24.32500 34.61457 29.46979
#
# Velocity S-wave (km/s) = 3.48764 4.16040 3.83879
# Velocity P-wave (km/s) = 5.03393 6.52938 5.82981
#
# Compressibility (1/GPa) = 0.05481617
#
# Stress axis : x y z
#
# Youngs Moduli (GPa) = 74.53942 140.69096 22.02924
#
# Poissons Ratio (x) = 0.35123 0.07192
# Poissons Ratio (y) = 0.18609 -0.00464
# Poissons Ratio (z) = 0.24336 -0.02963
#
# Static dielectric constant tensor:
#      x y z
#    x 1.653750 0.000000 0.061040 
#    y 0.000000 1.793250 0.000000 
#    z 0.061040 0.000000 1.582890 
# 
# From -- ./inp_files/67337.got.cif
#   From: 2010.05.17/outbox.cif.g08.bks.cpg/sg12_34_cif.got.tgz:67337.got - 2010.06.03 13:09:07.
