data_PCOD9196957
_publ_section_title
;
Structure prediction by ZEFSAII (Michael W. Deem and Ramdas Pophale) SiO2 
 PCOD9196957
Probable space group: C 2/M
;
_chemical_formula_sum "Si O2"
_cell_formula_units_Z 56
_cell_length_a 30.474391
_cell_length_b 8.645750
_cell_length_c 19.568379
_cell_angle_alpha 90.000000
_cell_angle_beta 37.780890
_cell_angle_gamma 90.000000
_cell_volume 3158.641768
_symmetry_space_group_name_H-M "C 2/M"
_symmetry_group_IT_number 12
_symmetry_cell_setting 'monoclinic'
loop_
_space_group_symop_operation_xyz
x,y,z
-x,y,-z
-x,-y,-z
x,-y,z
1/2+x,1/2+y,z
1/2-x,1/2+y,-z
1/2-x,1/2-y,-z
1/2+x,1/2-y,z
loop_
_atom_site_type_symbol
_atom_site_label
_atom_site_fract_x
_atom_site_fract_y
_atom_site_fract_z
Si Si1 0.201758 0.684778 0.914066
Si Si2 0.406698 0.816667 0.562104
Si Si3 0.864612 0.813773 0.751851
Si Si4 0.913810 0.815598 0.840985
Si Si5 0.058589 0.686165 0.627105
Si Si6 0.746730 0.315095 0.292369
Si Si7 0.278412 0.814157 0.536250
O O1 0.197230 0.500000 0.928854
O O2 0.281742 0.732506 0.840032
O O3 0.198522 0.716680 0.836762
O O4 0.140855 0.761728 0.033938
O O5 0.413192 0.745925 0.629341
O O6 0.449002 0.759427 0.442874
O O7 0.325280 0.775614 0.640283
O O8 0.416604 0.000000 0.555375
O O9 0.886930 0.759073 0.799389
O O10 0.866956 0.000000 0.746925
O O11 0.993953 0.752700 0.750315
O O12 0.915223 0.000000 0.837431
O O13 0.055020 0.500000 0.631003
O O14 0.137663 0.728971 0.556296
O O15 0.732354 0.500000 0.309590
O O16 0.763635 0.258750 0.347530
O O17 0.250000 0.750000 0.500000
O O18 0.273328 0.000000 0.544898
#
# Coordination Sequence:
#
# PCOD9196957 Si02
#       7
#     8   8   8   8   8   8   8
#     4   9  18  33  51  69  97 136 173 209 250 293
#     4   9  17  30  49  71  95 129 170 211 252 297
#     4   9  19  33  47  69  98 131 173 217 258 296
#     4  11  22  32  47  71  99 134 175 215 252 290
#     4   9  20  36  50  70 102 134 164 197 247 308
#     4   9  17  31  52  77 103 131 162 201 249 297
#     4  10  20  35  58  85 107 129 158 197 244 298
#
# _framework density 17.729140000000001
#
# number of rings (size 3 to 8) (size 9 to 14) (size 15 to 20)
#    0.000    2.571    0.000    3.857    0.000    8.000 
#    0.000    2.857    0.000    0.857    0.000    6.000 
#    0.000    0.000    0.000    0.000    0.000    0.000 
#
# Total GULP energy -156116.491690 kJ/mol
# GULP energy per Si atom -5575.588989 kJ/mol
# Density = 1.768879 g / cm^3
# Si number density = 17.729140 Si / 1000 Ang^3
#
#
#
# Elastic Constant Matrix: (Units=GPa)
#
#
# Indices 1 2 3 4 5 6 
#
# 1 93.0419 22.7389 52.0251 0.0001 20.3576 -0.0002
# 2 22.7389 18.5886 23.9342 0.0061 0.8433 -0.0006
# 3 52.0251 23.9342 121.8821 -0.0019 6.4549 0.0017
# 4 0.0001 0.0061 -0.0019 28.4004 -0.0030 8.6724
# 5 20.3576 0.8433 6.4549 -0.0030 22.6144 0.0007
# 6 -0.0002 -0.0006 0.0017 8.6724 0.0007 20.8704
#
#
#
# Elastic Compliance Matrix: (Units=1/GPa)
#
#
# Indices 1 2 3 4 5 6 
#
# 1 0.022216 -0.020579 -0.004491 0.000002 -0.017950 0.000000
# 2 -0.020579 0.091107 -0.010060 -0.000022 0.018000 0.000012
# 3 -0.004491 -0.010060 0.012045 0.000004 0.000980 -0.000003
# 4 0.000002 -0.000022 0.000004 0.040328 0.000003 -0.016758
# 5 -0.017950 0.018000 0.000980 0.000003 0.059427 -0.000003
# 6 0.000000 0.000012 -0.000003 -0.016758 -0.000003 0.054878
#
#
# Mechanical properties :
#
#
# Convention : Reuss Voigt Hill
#
# Bulk Modulus (GPa) = 18.14635 47.87878 33.01257
# Shear Modulus (GPa) = 13.56373 23.36467 18.46420
#
# Velocity S-wave (km/s) = 2.76896 3.63418 3.23067
# Velocity P-wave (km/s) = 4.52553 6.68386 5.70765
#
# Compressibility (1/GPa) = 0.05510749
#
# Stress axis : x y z
#
# Youngs Moduli (GPa) = 45.01290 10.97615 83.02070
#
# Poissons Ratio (x) = 0.22588 0.37284
# Poissons Ratio (y) = 0.92633 0.83517
# Poissons Ratio (z) = 0.20215 0.11042
#
# Static dielectric constant tensor:
#      x y z
#    x 1.619260 0.000000 0.015520 
#    y 0.000000 1.597220 0.000000 
#    z 0.015520 0.000000 1.610520 
# 
# From -- ./inp_files/288376.got.cif
#   From: 2010.05.17/outbox.cif.g08.bks.cpg/sg12_145_cif.got.tgz:288376.got - 2010.06.03 13:09:07.
