data_PCOD9196025
_publ_section_title
;
Structure prediction by ZEFSAII (Michael W. Deem and Ramdas Pophale) SiO2 
 PCOD9196025
Probable space group: C 2/M
;
_chemical_formula_sum "Si O2"
_cell_formula_units_Z 64
_cell_length_a 16.174504
_cell_length_b 8.972246
_cell_length_c 20.676969
_cell_angle_alpha 90.000000
_cell_angle_beta 66.329183
_cell_angle_gamma 90.000000
_cell_volume 2748.220202
_symmetry_space_group_name_H-M "C 2/M"
_symmetry_group_IT_number 12
_symmetry_cell_setting 'monoclinic'
loop_
_space_group_symop_operation_xyz
x,y,z
-x,y,-z
-x,-y,-z
x,-y,z
1/2+x,1/2+y,z
1/2-x,1/2+y,-z
1/2-x,1/2-y,-z
1/2+x,1/2-y,z
loop_
_atom_site_type_symbol
_atom_site_label
_atom_site_fract_x
_atom_site_fract_y
_atom_site_fract_z
Si Si1 0.291336 0.330127 0.782282
Si Si2 0.936037 0.674415 0.661824
Si Si3 0.382991 0.172200 0.088198
Si Si4 0.155398 0.673368 0.045450
Si Si5 0.151404 0.328327 0.706847
Si Si6 0.630882 0.321870 0.587340
Si Si7 0.004014 0.824681 0.838680
Si Si8 0.608393 0.329180 0.451852
O O1 0.325521 0.500000 0.776564
O O2 0.372337 0.220399 0.741159
O O3 0.222818 0.300623 0.862389
O O4 0.224822 0.322458 0.740776
O O5 0.955110 0.500000 0.654998
O O6 0.885214 0.723237 0.611703
O O7 0.028158 0.767761 0.632290
O O8 0.439088 0.284183 0.114405
O O9 0.401865 0.000000 0.103642
O O10 0.396351 0.180057 0.007675
O O11 0.167830 0.500000 0.058007
O O12 0.093862 0.755241 0.117290
O O13 0.250000 0.750000 0.000000
O O14 0.130751 0.500000 0.700035
O O15 0.182705 0.251901 0.630776
O O16 0.062748 0.249024 0.763600
O O17 0.636546 0.500000 0.588379
O O18 0.650295 0.277694 0.506954
O O19 0.998220 0.000000 0.831088
O O20 0.500000 0.337044 0.500000
O O21 0.637625 0.500000 0.427438
#
# Coordination Sequence:
#
# PCOD9196025 Si02
#       8
#     8   8   8   8   8   8   8   8
#     4   9  19  37  57  77 106 142 180 224 275 325
#     4  11  21  32  52  81 110 142 183 227 269 320
#     4   9  20  39  61  81 105 144 186 225 270 320
#     4  11  23  39  58  83 116 147 182 229 277 322
#     4  10  21  38  59  82 109 142 181 225 271 320
#     4  10  20  35  56  80 108 142 180 224 275 328
#     4  11  22  37  59  84 111 145 183 221 267 327
#     4   8  16  32  52  74 103 141 181 222 271 324
#
# _framework density 23.287799
#
# number of rings (size 3 to 8) (size 9 to 14) (size 15 to 20)
#    0.000    2.125    0.000    5.250    0.000    8.750 
#    0.000    4.375    0.000    0.000    0.000    0.000 
#    0.000    0.000    0.000    0.000    0.000    0.000 
#
# Total GULP energy -179082.259767 kJ/mol
# GULP energy per Si atom -5596.320618 kJ/mol
# Density = 2.323480 g / cm^3
# Si number density = 23.287799 Si / 1000 Ang^3
#
#
#
# Elastic Constant Matrix: (Units=GPa)
#
#
# Indices 1 2 3 4 5 6 
#
# 1 64.5823 14.2105 10.4238 0.0000 1.2204 0.0000
# 2 14.2105 96.4715 37.1843 0.0000 -11.0190 0.0000
# 3 10.4238 37.1843 117.4036 0.0000 -6.6187 0.0000
# 4 0.0000 0.0000 0.0000 30.4051 0.0000 -1.6040
# 5 1.2204 -11.0190 -6.6187 0.0000 42.9437 0.0000
# 6 0.0000 0.0000 0.0000 -1.6040 0.0000 19.7597
#
#
#
# Elastic Compliance Matrix: (Units=1/GPa)
#
#
# Indices 1 2 3 4 5 6 
#
# 1 0.016118 -0.002197 -0.000800 0.000000 -0.001145 0.000000
# 2 -0.002197 0.012373 -0.003572 0.000000 0.002687 0.000000
# 3 -0.000800 -0.003572 0.009754 0.000000 0.000610 0.000000
# 4 0.000000 0.000000 0.000000 0.033031 0.000000 0.002681
# 5 -0.001145 0.002687 0.000610 0.000000 0.024102 0.000000
# 6 0.000000 0.000000 0.000000 0.002681 0.000000 0.050826
#
#
# Mechanical properties :
#
#
# Convention : Reuss Voigt Hill
#
# Bulk Modulus (GPa) = 39.82809 44.67718 42.25263
# Shear Modulus (GPa) = 29.81309 33.06428 31.43869
#
# Velocity S-wave (km/s) = 3.58187 3.77213 3.67823
# Velocity P-wave (km/s) = 5.85202 6.18048 6.01849
#
# Compressibility (1/GPa) = 0.02510791
#
# Stress axis : x y z
#
# Youngs Moduli (GPa) = 62.04163 80.82013 102.51736
#
# Poissons Ratio (x) = 0.17754 0.08200
# Poissons Ratio (y) = 0.13629 0.36623
# Poissons Ratio (z) = 0.04963 0.28872
#
# Static dielectric constant tensor:
#      x y z
#    x 1.979080 0.000000 0.024720 
#    y 0.000000 1.779130 0.000000 
#    z 0.024720 0.000000 1.877250 
# 
# From -- ./inp_files/319860.got.cif
#   From: 2010.05.17/outbox.cif.g08.bks.cpg/sg12_160_cif.got.tgz:319860.got - 2010.06.03 13:09:07.
