data_PCOD9196397
_publ_section_title
;
Structure prediction by ZEFSAII (Michael W. Deem and Ramdas Pophale) SiO2 
 PCOD9196397
Probable space group: C 2/M
;
_chemical_formula_sum "Si O2"
_cell_formula_units_Z 40
_cell_length_a 7.178425
_cell_length_b 13.187768
_cell_length_c 20.461388
_cell_angle_alpha 90.000000
_cell_angle_beta 122.462067
_cell_angle_gamma 90.000000
_cell_volume 1634.360244
_symmetry_space_group_name_H-M "C 2/M"
_symmetry_group_IT_number 12
_symmetry_cell_setting 'monoclinic'
loop_
_space_group_symop_operation_xyz
x,y,z
-x,y,-z
-x,-y,-z
x,-y,z
1/2+x,1/2+y,z
1/2-x,1/2+y,-z
1/2-x,1/2-y,-z
1/2+x,1/2-y,z
loop_
_atom_site_type_symbol
_atom_site_label
_atom_site_fract_x
_atom_site_fract_y
_atom_site_fract_z
Si Si1 0.051235 0.607782 0.653971
Si Si2 0.655790 0.658596 0.679129
Si Si3 0.276716 0.309040 0.937356
Si Si4 0.187810 0.387819 0.149871
Si Si5 0.197337 0.132756 0.486659
O O1 0.168460 0.500000 0.689390
O O2 0.855003 0.619059 0.671125
O O3 0.925392 0.596553 0.560662
O O4 0.165033 0.717972 0.677216
O O5 0.685235 0.624084 0.758361
O O6 0.423795 0.618854 0.605195
O O7 0.275688 0.215099 0.885432
O O8 0.072964 0.380235 0.883698
O O9 0.500000 0.366776 0.000000
O O10 0.250000 0.250000 0.000000
O O11 0.234277 0.500000 0.129236
O O12 0.250000 0.250000 0.500000
O O13 0.000000 0.108453 0.500000
#
# Coordination Sequence:
#
# PCOD9196397 Si02
#       5
#     8   8   8   8   8
#     4  10  20  36  57  79 114 163 204 242 288 334
#     4  10  20  35  56  86 120 150 195 248 288 340
#     4   9  21  41  62  87 116 144 184 231 275 347
#     4  11  22  38  62  89 119 153 186 233 294 343
#     4   8  16  30  51  76 108 153 197 239 282 326
#
# _framework density 24.474409999999999
#
# number of rings (size 3 to 8) (size 9 to 14) (size 15 to 20)
#    0.000    2.400    0.000    1.800    0.000    8.400 
#    0.000    8.000    0.000   54.000    0.000    0.000 
#    0.000    0.000    0.000    0.000    0.000    0.000 
#
# Total GULP energy -111476.009009 kJ/mol
# GULP energy per Si atom -5573.800450 kJ/mol
# Density = 2.441871 g / cm^3
# Si number density = 24.474410 Si / 1000 Ang^3
#
#
#
# Elastic Constant Matrix: (Units=GPa)
#
#
# Indices 1 2 3 4 5 6 
#
# 1 41.6501 7.5583 24.3605 0.0000 1.0427 0.0000
# 2 7.5583 190.4140 7.4484 0.0000 -2.1046 0.0000
# 3 24.3605 7.4484 146.7420 0.0000 -5.1457 0.0000
# 4 0.0000 0.0000 0.0000 -11.9522 0.0000 -20.8868
# 5 1.0427 -2.1046 -5.1457 0.0000 30.4692 0.0000
# 6 0.0000 0.0000 0.0000 -20.8868 0.0000 -72.4270
#
#
#
# Elastic Compliance Matrix: (Units=1/GPa)
#
#
# Indices 1 2 3 4 5 6 
#
# 1 0.026832 -0.000909 -0.004469 0.000000 -0.001736 0.000000
# 2 -0.000909 0.005296 -0.000105 0.000000 0.000379 0.000000
# 3 -0.004469 -0.000105 0.007612 0.000000 0.001431 0.000000
# 4 0.000000 0.000000 0.000000 -0.168668 0.000000 0.048641
# 5 -0.001736 0.000379 0.001431 0.000000 0.033147 0.000000
# 6 0.000000 0.000000 0.000000 0.048641 0.000000 -0.027834
#
#
# Mechanical properties :
#
#
# Convention : Reuss Voigt Hill
#
# Bulk Modulus (GPa) = 34.75357 50.83783 42.79570
# Shear Modulus (GPa) = -48.51657 11.84725 -18.33466
#
# Velocity S-wave (km/s) = -4.45718 2.20254 -2.74000
# Velocity P-wave (km/s) = 3.50111 5.22352 2.74111
#
# Compressibility (1/GPa) = 0.02877402
#
# Stress axis : x y z
#
# Youngs Moduli (GPa) = 37.26907 188.81835 131.37022
#
# Poissons Ratio (x) = 0.17172 0.58710
# Poissons Ratio (y) = 0.03389 0.01373
# Poissons Ratio (z) = 0.16656 0.01974
#
# Static dielectric constant tensor:
#      x y z
#    x 2.638510 0.000000 0.472220 
#    y 0.000000 2.086850 0.000000 
#    z 0.472220 0.000000 2.263620 
# 
# From -- ./inp_files/299963.got.cif
#   From: 2010.05.17/outbox.cif.g08.bks.cpg/sg12_150_cif.got.tgz:299963.got - 2010.06.03 13:09:07.
