data_PCOD9196555
_publ_section_title
;
Structure prediction by ZEFSAII (Michael W. Deem and Ramdas Pophale) SiO2 
 PCOD9196555
Probable space group: C 2/M
;
_chemical_formula_sum "Si O2"
_cell_formula_units_Z 56
_cell_length_a 18.675283
_cell_length_b 8.841532
_cell_length_c 29.679878
_cell_angle_alpha 90.000000
_cell_angle_beta 141.885006
_cell_angle_gamma 90.000000
_cell_volume 3024.907849
_symmetry_space_group_name_H-M "C 2/M"
_symmetry_group_IT_number 12
_symmetry_cell_setting 'monoclinic'
loop_
_space_group_symop_operation_xyz
x,y,z
-x,y,-z
-x,-y,-z
x,-y,z
1/2+x,1/2+y,z
1/2-x,1/2+y,-z
1/2-x,1/2-y,-z
1/2+x,1/2-y,z
loop_
_atom_site_type_symbol
_atom_site_label
_atom_site_fract_x
_atom_site_fract_y
_atom_site_fract_z
Si Si1 0.706043 0.680038 0.297615
Si Si2 0.959783 0.819560 0.429184
Si Si3 0.841165 0.320666 0.141669
Si Si4 0.878135 0.680485 0.567238
Si Si5 0.989637 0.680429 0.858084
Si Si6 0.589256 0.181649 0.004189
Si Si7 0.463139 0.319624 0.702298
O O1 0.722817 0.500000 0.303768
O O2 0.828649 0.762896 0.357996
O O3 0.623551 0.734958 0.216254
O O4 0.634951 0.714945 0.308435
O O5 0.000000 0.785064 0.500000
O O6 0.043660 0.739181 0.435160
O O7 0.966052 0.000000 0.425737
O O8 0.843036 0.500000 0.150988
O O9 0.711500 0.260585 0.073349
O O10 0.909023 0.292280 0.128302
O O11 0.915871 0.236593 0.216797
O O12 0.871227 0.500000 0.563036
O O13 0.750000 0.750000 0.500000
O O14 0.933309 0.737088 0.641327
O O15 0.966306 0.500000 0.847202
O O16 0.033484 0.727557 0.928855
O O17 0.607629 0.000000 0.011710
O O18 0.500000 0.214851 0.000000
O O19 0.465271 0.500000 0.696632
#
# Coordination Sequence:
#
# PCOD9196555 Si02
#       7
#     8   8   8   8   8   8   8
#     4  10  21  37  60  88 116 149 190 239 290 341
#     4  11  24  41  62  87 117 155 195 236 284 338
#     4  10  20  35  57  83 111 146 189 236 284 339
#     4  12  25  41  62  88 119 153 192 237 286 341
#     4   9  19  36  57  80 109 148 191 234 284 343
#     4  10  21  36  54  78 110 148 188 234 288 343
#     4  10  21  39  62  87 117 152 191 236 288 345
#
# _framework density 18.512961000000001
#
# number of rings (size 3 to 8) (size 9 to 14) (size 15 to 20)
#    0.000    1.714    0.000    4.286    0.000    7.714 
#    0.000    4.286    0.000    0.000    0.000    0.000 
#    0.000    0.000    0.000    0.000    0.000    0.000 
#
# Total GULP energy -156533.604009 kJ/mol
# GULP energy per Si atom -5590.485857 kJ/mol
# Density = 1.847083 g / cm^3
# Si number density = 18.512961 Si / 1000 Ang^3
#
#
#
# Elastic Constant Matrix: (Units=GPa)
#
#
# Indices 1 2 3 4 5 6 
#
# 1 107.7419 79.8961 102.1222 0.0000 1.4567 0.0000
# 2 79.8961 93.3601 85.2888 0.0000 -1.2603 0.0000
# 3 102.1222 85.2888 168.0816 0.0000 -1.0354 0.0000
# 4 0.0000 0.0000 0.0000 33.5137 0.0000 4.7159
# 5 1.4567 -1.2603 -1.0354 0.0000 34.8950 0.0000
# 6 0.0000 0.0000 0.0000 4.7159 0.0000 28.7319
#
#
#
# Elastic Compliance Matrix: (Units=1/GPa)
#
#
# Indices 1 2 3 4 5 6 
#
# 1 0.033584 -0.018863 -0.010848 0.000000 -0.002405 0.000000
# 2 -0.018863 0.030568 -0.004039 0.000000 0.001772 0.000000
# 3 -0.010848 -0.004039 0.014595 0.000000 0.000740 0.000000
# 4 0.000000 0.000000 0.000000 0.030544 0.000000 -0.005013
# 5 -0.002405 0.001772 0.000740 0.000000 0.028844 0.000000
# 6 0.000000 0.000000 0.000000 -0.005013 0.000000 0.035627
#
#
# Mechanical properties :
#
#
# Convention : Reuss Voigt Hill
#
# Bulk Modulus (GPa) = 88.92132 100.42199 94.67166
# Shear Modulus (GPa) = 20.40724 26.21991 23.31357
#
# Velocity S-wave (km/s) = 3.32373 3.76746 3.55253
# Velocity P-wave (km/s) = 7.92879 8.56078 8.25084
#
# Compressibility (1/GPa) = 0.01124590
#
# Stress axis : x y z
#
# Youngs Moduli (GPa) = 29.77603 32.71417 68.51763
#
# Poissons Ratio (x) = 0.61708 0.74329
# Poissons Ratio (y) = 0.56166 0.27677
# Poissons Ratio (z) = 0.32302 0.13214
#
# Static dielectric constant tensor:
#      x y z
#    x 1.613350 0.000000 -0.011070 
#    y 0.000000 1.617990 0.000000 
#    z -0.011070 0.000000 1.603520 
# 
# From -- ./inp_files/275518.got.cif
#   From: 2010.05.17/outbox.cif.g08.bks.cpg/sg12_138_cif.got.tgz:275518.got - 2010.06.03 13:09:07.
