data_PCOD9196998
_publ_section_title
;
Structure prediction by ZEFSAII (Michael W. Deem and Ramdas Pophale) SiO2 
 PCOD9196998
Probable space group: C 2/M
;
_chemical_formula_sum "Si O2"
_cell_formula_units_Z 32
_cell_length_a 11.736211
_cell_length_b 15.232245
_cell_length_c 10.748483
_cell_angle_alpha 90.000000
_cell_angle_beta 125.624641
_cell_angle_gamma 90.000000
_cell_volume 1561.886920
_symmetry_space_group_name_H-M "C 2/M"
_symmetry_group_IT_number 12
_symmetry_cell_setting 'monoclinic'
loop_
_space_group_symop_operation_xyz
x,y,z
-x,y,-z
-x,-y,-z
x,-y,z
1/2+x,1/2+y,z
1/2-x,1/2+y,-z
1/2-x,1/2-y,-z
1/2+x,1/2-y,z
loop_
_atom_site_type_symbol
_atom_site_label
_atom_site_fract_x
_atom_site_fract_y
_atom_site_fract_z
Si Si1 0.115384 0.894094 0.232452
Si Si2 0.895044 0.392841 0.544010
Si Si3 0.482387 0.901011 0.122750
Si Si4 0.810645 0.156521 0.999732
O O1 0.235973 0.870953 0.407341
O O2 0.957498 0.864307 0.159397
O O3 0.114449 0.000000 0.217193
O O4 0.160376 0.854251 0.128269
O O5 0.906262 0.500000 0.554651
O O6 0.000000 0.364363 0.500000
O O7 0.943763 0.359552 0.709937
O O8 0.541369 0.000000 0.147954
O O9 0.500000 0.855779 0.000000
O O10 0.318225 0.905802 0.047616
O O11 0.750000 0.250000 0.000000
#
# Coordination Sequence:
#
# PCOD9196998 Si02
#       4
#     8   8   8   8
#     4  10  20  38  65  87 109 152 212 248 275 342
#     4   9  16  32  60  89 109 141 200 252 280 335
#     4  10  20  35  58  85 116 150 188 240 302 352
#     4  11  22  34  55  83 121 152 188 242 296 344
#
# _framework density 20.488040000000002
#
# number of rings (size 3 to 8) (size 9 to 14) (size 15 to 20)
#    0.000    2.000    2.500    3.000    3.500    0.000 
#    0.000    2.500    5.500    6.000    0.000    0.000 
#    0.000    0.000    0.000    0.000    0.000    0.000 
#
# Total GULP energy -89282.602825 kJ/mol
# GULP energy per Si atom -5580.162677 kJ/mol
# Density = 2.044141 g / cm^3
# Si number density = 20.488040 Si / 1000 Ang^3
#
#
#
# Elastic Constant Matrix: (Units=GPa)
#
#
# Indices 1 2 3 4 5 6 
#
# 1 99.0068 11.7856 99.1722 0.0000 12.9660 0.0000
# 2 11.7856 70.7911 22.2656 0.0000 4.3210 0.0000
# 3 99.1722 22.2656 216.5657 0.0000 12.0807 0.0000
# 4 0.0000 0.0000 0.0000 13.7241 0.0000 8.5556
# 5 12.9660 4.3210 12.0807 0.0000 39.0453 0.0000
# 6 0.0000 0.0000 0.0000 8.5556 0.0000 29.5774
#
#
#
# Elastic Compliance Matrix: (Units=1/GPa)
#
#
# Indices 1 2 3 4 5 6 
#
# 1 0.019180 -0.000279 -0.008548 0.000000 -0.003693 0.000000
# 2 -0.000279 0.014655 -0.001316 0.000000 -0.001122 0.000000
# 3 -0.008548 -0.001316 0.008650 0.000000 0.000308 0.000000
# 4 0.000000 0.000000 0.000000 0.088894 0.000000 -0.025714
# 5 -0.003693 -0.001122 0.000308 0.000000 0.026867 0.000000
# 6 0.000000 0.000000 0.000000 -0.025714 0.000000 0.041248
#
#
# Mechanical properties :
#
#
# Convention : Reuss Voigt Hill
#
# Bulk Modulus (GPa) = 45.04980 72.53450 58.79215
# Shear Modulus (GPa) = 22.00896 33.34538 27.67717
#
# Velocity S-wave (km/s) = 3.28111 4.03867 3.67944
# Velocity P-wave (km/s) = 6.03244 7.56492 6.84172
#
# Compressibility (1/GPa) = 0.02219766
#
# Stress axis : x y z
#
# Youngs Moduli (GPa) = 52.13812 68.23597 115.60377
#
# Poissons Ratio (x) = 0.01904 0.98822
# Poissons Ratio (y) = 0.01455 0.15218
# Poissons Ratio (z) = 0.44569 0.08982
#
# Static dielectric constant tensor:
#      x y z
#    x 1.701300 0.000000 -0.006470 
#    y 0.000000 1.796140 0.000000 
#    z -0.006470 0.000000 1.756480 
# 
# From -- ./inp_files/46717.got.cif
#   From: 2010.05.17/outbox.cif.g08.bks.cpg/sg12_24_cif.got.tgz:46717.got - 2010.06.03 13:09:07.
