data_PCOD9196946
_publ_section_title
;
Structure prediction by ZEFSAII (Michael W. Deem and Ramdas Pophale) SiO2 
 PCOD9196946
Probable space group: C 2/M
;
_chemical_formula_sum "Si O2"
_cell_formula_units_Z 56
_cell_length_a 21.520441
_cell_length_b 8.651396
_cell_length_c 31.892991
_cell_angle_alpha 90.000000
_cell_angle_beta 151.429121
_cell_angle_gamma 90.000000
_cell_volume 2839.772509
_symmetry_space_group_name_H-M "C 2/M"
_symmetry_group_IT_number 12
_symmetry_cell_setting 'monoclinic'
loop_
_space_group_symop_operation_xyz
x,y,z
-x,y,-z
-x,-y,-z
x,-y,z
1/2+x,1/2+y,z
1/2-x,1/2+y,-z
1/2-x,1/2-y,-z
1/2+x,1/2-y,z
loop_
_atom_site_type_symbol
_atom_site_label
_atom_site_fract_x
_atom_site_fract_y
_atom_site_fract_z
Si Si1 0.378355 0.685047 0.955512
Si Si2 0.768294 0.818222 0.576138
Si Si3 0.727890 0.680667 0.795148
Si Si4 0.375440 0.313991 0.050344
Si Si5 0.151925 0.685508 0.219801
Si Si6 0.459068 0.822044 0.625942
Si Si7 0.649985 0.186132 0.595621
O O1 0.388806 0.500000 0.963457
O O2 0.256094 0.731942 0.854956
O O3 0.500000 0.745374 0.000000
O O4 0.372167 0.739955 0.999633
O O5 0.641197 0.799639 0.471603
O O6 0.880049 0.717322 0.621276
O O7 0.729070 0.779477 0.599994
O O8 0.804859 0.000000 0.595693
O O9 0.751868 0.500000 0.815562
O O10 0.817140 0.737595 0.809576
O O11 0.581045 0.711373 0.694520
O O12 0.373415 0.500000 0.050271
O O13 0.512830 0.255139 0.150113
O O14 0.250000 0.250000 0.000000
O O15 0.145415 0.500000 0.216543
O O16 0.270657 0.740160 0.319256
O O17 0.502399 0.000000 0.651254
O O18 0.500000 0.235785 0.500000
O O19 0.647480 0.000000 0.600046
#
# Coordination Sequence:
#
# PCOD9196946 Si02
#       7
#     8   8   8   8   8   8   8
#     4  10  21  40  65  90 116 151 197 246 295 351
#     4   9  19  36  56  81 115 152 194 244 296 349
#     4  11  23  37  59  89 120 153 194 245 298 355
#     4  11  24  43  67  93 125 163 203 253 309 367
#     4  11  24  40  60  89 123 159 201 249 303 364
#     4  10  20  35  58  84 113 152 195 243 295 352
#     4  10  21  38  61  87 118 159 203 247 299 359
#
# _framework density 19.719889999999999
#
# number of rings (size 3 to 8) (size 9 to 14) (size 15 to 20)
#    0.000    1.714    1.429    2.571    0.000    6.857 
#    0.000    0.000    0.000    0.000    0.000    0.000 
#    0.000    0.000    0.000    0.000    0.000    0.000 
#
# Total GULP energy -156393.769950 kJ/mol
# GULP energy per Si atom -5585.491784 kJ/mol
# Density = 1.967501 g / cm^3
# Si number density = 19.719890 Si / 1000 Ang^3
#
#
#
# Elastic Constant Matrix: (Units=GPa)
#
#
# Indices 1 2 3 4 5 6 
#
# 1 94.0367 24.1440 44.8235 0.0001 -5.2645 0.0001
# 2 24.1440 16.2371 21.5767 0.0000 -2.2271 0.0006
# 3 44.8235 21.5767 85.3649 -0.0001 -0.0868 0.0000
# 4 0.0001 0.0000 -0.0001 16.8721 0.0000 0.9475
# 5 -5.2645 -2.2271 -0.0868 0.0000 29.7205 0.0000
# 6 0.0001 0.0006 0.0000 0.9475 0.0000 24.6384
#
#
#
# Elastic Compliance Matrix: (Units=1/GPa)
#
#
# Indices 1 2 3 4 5 6 
#
# 1 0.018168 -0.021260 -0.004164 0.000000 0.001613 0.000000
# 2 -0.021260 0.119042 -0.018920 0.000000 0.005099 -0.000003
# 3 -0.004164 -0.018920 0.018681 0.000000 -0.002101 0.000000
# 4 0.000000 0.000000 0.000000 0.059398 0.000000 -0.002284
# 5 0.001613 0.005099 -0.002101 0.000000 0.034308 0.000000
# 6 0.000000 -0.000003 0.000000 -0.002284 0.000000 0.040675
#
#
# Mechanical properties :
#
#
# Convention : Reuss Voigt Hill
#
# Bulk Modulus (GPa) = 14.88063 41.85855 28.36959
# Shear Modulus (GPa) = 12.45757 21.25250 16.85504
#
# Velocity S-wave (km/s) = 2.51614 3.28642 2.92674
# Velocity P-wave (km/s) = 4.00046 5.97272 5.08316
#
# Compressibility (1/GPa) = 0.06720146
#
# Stress axis : x y z
#
# Youngs Moduli (GPa) = 55.04202 8.40041 53.52973
#
# Poissons Ratio (x) = 0.17859 0.22292
# Poissons Ratio (y) = 1.17019 1.01281
# Poissons Ratio (z) = 0.22921 0.15894
#
# Static dielectric constant tensor:
#      x y z
#    x 1.693320 0.000000 -0.000310 
#    y 0.000000 1.671150 0.000000 
#    z -0.000310 0.000000 1.696930 
# 
# From -- ./inp_files/380805.got.cif
#   From: 2010.05.17/outbox.cif.g08.bks.cpg/sg12_191_cif.got.tgz:380805.got - 2010.06.03 13:09:07.
