data_PCOD9196340
_publ_section_title
;
Structure prediction by ZEFSAII (Michael W. Deem and Ramdas Pophale) SiO2 
 PCOD9196340
Probable space group: C 2/M
;
_chemical_formula_sum "Si O2"
_cell_formula_units_Z 64
_cell_length_a 28.113909
_cell_length_b 23.881536
_cell_length_c 8.090564
_cell_angle_alpha 90.000000
_cell_angle_beta 31.685298
_cell_angle_gamma 90.000000
_cell_volume 2853.192622
_symmetry_space_group_name_H-M "C 2/M"
_symmetry_group_IT_number 12
_symmetry_cell_setting 'monoclinic'
loop_
_space_group_symop_operation_xyz
x,y,z
-x,y,-z
-x,-y,-z
x,-y,z
1/2+x,1/2+y,z
1/2-x,1/2+y,-z
1/2-x,1/2-y,-z
1/2+x,1/2-y,z
loop_
_atom_site_type_symbol
_atom_site_label
_atom_site_fract_x
_atom_site_fract_y
_atom_site_fract_z
Si Si1 0.910270 0.166799 0.662142
Si Si2 0.381907 0.780233 0.203259
Si Si3 0.054543 0.392270 0.092456
Si Si4 0.189907 0.826431 0.706656
Si Si5 0.762641 0.562273 0.557486
Si Si6 0.687665 0.438430 0.154593
Si Si7 0.350909 0.225206 0.680215
Si Si8 0.369546 0.102775 0.763902
O O1 0.916145 0.225263 0.549771
O O2 0.000000 0.153032 0.500000
O O3 0.834732 0.176928 0.027143
O O4 0.879040 0.114835 0.642198
O O5 0.289861 0.801450 0.385749
O O6 0.381797 0.713732 0.170347
O O7 0.370719 0.787530 0.430988
O O8 0.452324 0.825651 0.926473
O O9 0.095964 0.402434 0.151686
O O10 0.953157 0.415795 0.398708
O O11 0.132726 0.417447 0.745586
O O12 0.203299 0.892069 0.632612
O O13 0.758548 0.500000 0.499853
O O14 0.723444 0.561412 0.858798
O O15 0.648086 0.500000 0.305270
O O16 0.776445 0.428006 0.001758
O O17 0.354684 0.168485 0.772586
O O18 0.250000 0.250000 0.000000
#
# Coordination Sequence:
#
# PCOD9196340 Si02
#       8
#     8   8   8   8   8   8   8   8
#     4  11  23  38  58  88 120 157 203 256 307 355
#     4  10  20  35  56  84 118 160 198 234 298 363
#     4  10  23  37  59  87 127 159 193 241 298 370
#     4   9  18  34  56  81 114 153 195 245 292 357
#     4   9  19  36  58  83 111 152 200 245 293 348
#     4  10  22  42  64  85 115 160 210 256 301 356
#     4  12  22  36  59  85 120 154 195 245 301 362
#     4  11  23  39  57  90 124 161 196 242 304 370
#
# _framework density 22.431011999999999
#
# number of rings (size 3 to 8) (size 9 to 14) (size 15 to 20)
#    0.000    1.750    2.500    2.250    7.000    3.250 
#    0.000    2.500    0.000    0.000    0.000    0.000 
#    0.000   13.000    0.000    0.000    0.000    0.000 
#
# Total GULP energy -178710.199900 kJ/mol
# GULP energy per Si atom -5584.693747 kJ/mol
# Density = 2.237996 g / cm^3
# Si number density = 22.431012 Si / 1000 Ang^3
#
#
#
# Elastic Constant Matrix: (Units=GPa)
#
#
# Indices 1 2 3 4 5 6 
#
# 1 48.6875 11.4160 -9.8472 0.0000 -10.5952 0.0000
# 2 11.4160 119.3711 -5.1963 0.0000 -4.9338 0.0000
# 3 -9.8472 -5.1963 28.5534 0.0000 -6.4417 0.0000
# 4 0.0000 0.0000 0.0000 15.9703 0.0000 4.0585
# 5 -10.5952 -4.9338 -6.4417 0.0000 25.3506 0.0000
# 6 0.0000 0.0000 0.0000 4.0585 0.0000 20.5043
#
#
#
# Elastic Compliance Matrix: (Units=1/GPa)
#
#
# Indices 1 2 3 4 5 6 
#
# 1 0.026266 -0.001427 0.011894 0.000000 0.013722 0.000000
# 2 -0.001427 0.008634 0.001404 0.000000 0.001441 0.000000
# 3 0.011894 0.001404 0.043029 0.000000 0.016178 0.000000
# 4 0.000000 0.000000 0.000000 0.065933 0.000000 -0.013050
# 5 0.013722 0.001441 0.016178 0.000000 0.049573 0.000000
# 6 0.000000 0.000000 0.000000 -0.013050 0.000000 0.051353
#
#
# Mechanical properties :
#
#
# Convention : Reuss Voigt Hill
#
# Bulk Modulus (GPa) = 9.83550 21.03969 15.43759
# Shear Modulus (GPa) = 19.61274 25.71435 22.66354
#
# Velocity S-wave (km/s) = 2.96016 3.38949 3.18207
# Velocity P-wave (km/s) = 4.00970 4.97175 4.51641
#
# Compressibility (1/GPa) = 0.10167253
#
# Stress axis : x y z
#
# Youngs Moduli (GPa) = 38.07263 115.81596 23.23991
#
# Poissons Ratio (x) = 0.16527 -0.27642
# Poissons Ratio (y) = 0.05433 -0.03264
# Poissons Ratio (z) = -0.45285 -0.16264
#
# Static dielectric constant tensor:
#      x y z
#    x 1.830890 0.000000 -0.020510 
#    y 0.000000 1.878500 0.000000 
#    z -0.020510 0.000000 1.898370 
# 
# From -- ./inp_files/113618.got.cif
#   From: 2010.05.17/outbox.cif.g08.bks.cpg/sg12_57_cif.got.tgz:113618.got - 2010.06.03 13:09:07.
