data_PCOD9196951
_publ_section_title
;
Structure prediction by ZEFSAII (Michael W. Deem and Ramdas Pophale) SiO2 
 PCOD9196951
Probable space group: C 2/M
;
_chemical_formula_sum "Si O2"
_cell_formula_units_Z 64
_cell_length_a 30.781047
_cell_length_b 9.183346
_cell_length_c 11.336998
_cell_angle_alpha 90.000000
_cell_angle_beta 94.550126
_cell_angle_gamma 90.000000
_cell_volume 3194.563189
_symmetry_space_group_name_H-M "C 2/M"
_symmetry_group_IT_number 12
_symmetry_cell_setting 'monoclinic'
loop_
_space_group_symop_operation_xyz
x,y,z
-x,y,-z
-x,-y,-z
x,-y,z
1/2+x,1/2+y,z
1/2-x,1/2+y,-z
1/2-x,1/2-y,-z
1/2+x,1/2-y,z
loop_
_atom_site_type_symbol
_atom_site_label
_atom_site_fract_x
_atom_site_fract_y
_atom_site_fract_z
Si Si1 0.385890 0.168506 0.139132
Si Si2 0.179844 0.837982 0.731845
Si Si3 0.619325 0.323551 0.339846
Si Si4 0.355698 0.669144 0.903994
Si Si5 0.794583 0.835881 0.528825
Si Si6 0.524780 0.676697 0.382672
Si Si7 0.989456 0.672175 0.134142
Si Si8 0.754611 0.168842 0.877476
O O1 0.364411 0.262837 0.237213
O O2 0.437387 0.184410 0.137424
O O3 0.375281 0.000000 0.154764
O O4 0.363975 0.228077 0.015424
O O5 0.183331 0.849236 0.593804
O O6 0.221079 0.745174 0.783281
O O7 0.182763 0.000000 0.785751
O O8 0.623313 0.500000 0.350306
O O9 0.614316 0.290852 0.200310
O O10 0.666347 0.264025 0.388793
O O11 0.576115 0.281978 0.400864
O O12 0.363934 0.500000 0.938056
O O13 0.305282 0.678359 0.854324
O O14 0.750000 0.750000 0.500000
O O15 0.784337 0.000000 0.571689
O O16 0.500000 0.718136 0.500000
O O17 0.521642 0.500000 0.372045
O O18 0.508415 0.745289 0.254253
O O19 0.001833 0.500000 0.143363
O O20 0.000000 0.720898 0.000000
O O21 0.743312 0.000000 0.887513
O O22 0.750000 0.250000 0.000000
#
# Coordination Sequence:
#
# PCOD9196951 Si02
#       8
#     8   8   8   8   8   8   8   8
#     4  11  23  37  58  86 117 155 194 244 302 359
#     4  11  23  37  57  85 117 156 199 243 298 357
#     4   9  19  38  61  87 119 155 196 244 298 349
#     4  10  20  35  58  84 114 153 196 244 297 354
#     4  10  22  40  62  86 118 158 199 247 296 352
#     4  10  22  39  65  96 124 161 208 254 307 372
#     4  10  23  43  64  89 124 162 203 254 316 374
#     4  11  21  34  54  81 115 156 197 243 296 353
#
# _framework density 20.034036
#
# number of rings (size 3 to 8) (size 9 to 14) (size 15 to 20)
#    0.000    1.750    1.250    2.625    1.750    4.000 
#    0.000    1.250    0.000    0.000    0.000    0.000 
#    0.000    0.000    0.000    0.000    0.000    0.000 
#
# Total GULP energy -178532.564890 kJ/mol
# GULP energy per Si atom -5579.142653 kJ/mol
# Density = 1.998844 g / cm^3
# Si number density = 20.034036 Si / 1000 Ang^3
#
#
#
# Elastic Constant Matrix: (Units=GPa)
#
#
# Indices 1 2 3 4 5 6 
#
# 1 91.8541 37.7030 30.7446 0.0000 -15.8482 0.0000
# 2 37.7030 80.6489 29.5990 0.0000 -4.2324 0.0000
# 3 30.7446 29.5990 97.9168 0.0000 -12.0421 0.0000
# 4 0.0000 0.0000 0.0000 23.3150 0.0000 2.1167
# 5 -15.8482 -4.2324 -12.0421 0.0000 35.0282 0.0000
# 6 0.0000 0.0000 0.0000 2.1167 0.0000 21.0707
#
#
#
# Elastic Compliance Matrix: (Units=1/GPa)
#
#
# Indices 1 2 3 4 5 6 
#
# 1 0.014977 -0.005890 -0.002272 0.000000 0.005283 0.000000
# 2 -0.005890 0.016265 -0.003293 0.000000 -0.001832 0.000000
# 3 -0.002272 -0.003293 0.012265 0.000000 0.002791 0.000000
# 4 0.000000 0.000000 0.000000 0.043286 0.000000 -0.004348
# 5 0.005283 -0.001832 0.002791 0.000000 0.031677 0.000000
# 6 0.000000 0.000000 0.000000 -0.004348 0.000000 0.047896
#
#
# Mechanical properties :
#
#
# Convention : Reuss Voigt Hill
#
# Bulk Modulus (GPa) = 48.55181 51.83480 50.19330
# Shear Modulus (GPa) = 25.49183 27.37431 26.43307
#
# Velocity S-wave (km/s) = 3.57098 3.70048 3.63631
# Velocity P-wave (km/s) = 6.42571 6.64738 6.53748
#
# Compressibility (1/GPa) = 0.02059655
#
# Stress axis : x y z
#
# Youngs Moduli (GPa) = 66.77043 61.47998 81.53495
#
# Poissons Ratio (x) = 0.36214 0.18526
# Poissons Ratio (y) = 0.39330 0.26846
# Poissons Ratio (z) = 0.15171 0.20243
#
# Static dielectric constant tensor:
#      x y z
#    x 1.720280 0.000000 0.000870 
#    y 0.000000 1.685730 0.000000 
#    z 0.000870 0.000000 1.739870 
# 
# From -- ./inp_files/187470.got.cif
#   From: 2010.05.17/outbox.cif.g08.bks.cpg/sg12_94_cif.got.tgz:187470.got - 2010.06.03 13:09:07.
