data_PCOD9196618
_publ_section_title
;
Structure prediction by ZEFSAII (Michael W. Deem and Ramdas Pophale) SiO2 
 PCOD9196618
Probable space group: C 2/M
;
_chemical_formula_sum "Si O2"
_cell_formula_units_Z 64
_cell_length_a 32.773213
_cell_length_b 13.811174
_cell_length_c 8.842482
_cell_angle_alpha 90.000000
_cell_angle_beta 121.384862
_cell_angle_gamma 90.000000
_cell_volume 3416.828598
_symmetry_space_group_name_H-M "C 2/M"
_symmetry_group_IT_number 12
_symmetry_cell_setting 'monoclinic'
loop_
_space_group_symop_operation_xyz
x,y,z
-x,y,-z
-x,-y,-z
x,-y,z
1/2+x,1/2+y,z
1/2-x,1/2+y,-z
1/2-x,1/2-y,-z
1/2+x,1/2-y,z
loop_
_atom_site_type_symbol
_atom_site_label
_atom_site_fract_x
_atom_site_fract_y
_atom_site_fract_z
Si Si1 0.589045 0.799570 0.852470
Si Si2 0.128682 0.107383 0.591979
Si Si3 0.000534 0.612231 0.827172
Si Si4 0.408717 0.194721 0.506866
Si Si5 0.181412 0.386973 0.175036
Si Si6 0.183622 0.391337 0.540917
Si Si7 0.771466 0.788888 0.197318
Si Si8 0.452300 0.607366 0.308835
O O1 0.551980 0.875292 0.851030
O O2 0.594635 0.808839 0.681851
O O3 0.563555 0.695173 0.828618
O O4 0.639765 0.819392 0.026929
O O5 0.106067 0.198667 0.460753
O O6 0.181255 0.145777 0.736518
O O7 0.092668 0.099838 0.663944
O O8 0.131130 0.000000 0.526901
O O9 0.986414 0.500000 0.799026
O O10 0.961744 0.670177 0.657388
O O11 0.000000 0.645237 0.000000
O O12 0.370272 0.121663 0.502021
O O13 0.172512 0.500000 0.117773
O O14 0.182907 0.380046 0.359106
O O15 0.231533 0.351379 0.204792
O O16 0.201031 0.500000 0.611333
O O17 0.213281 0.305170 0.675612
O O18 0.750000 0.750000 0.000000
O O19 0.500000 0.630492 0.500000
O O20 0.460153 0.500000 0.256683
#
# Coordination Sequence:
#
# PCOD9196618 Si02
#       8
#     8   8   8   8   8   8   8   8
#     4  11  21  35  57  85 111 143 189 234 275 327
#     4   9  18  33  54  81 110 141 177 222 276 326
#     4  11  23  37  54  78 111 150 184 222 282 345
#     4  10  20  35  57  84 111 141 184 235 276 326
#     4  11  23  39  57  79 113 154 188 227 285 344
#     4  10  22  39  58  81 113 151 186 226 284 347
#     4  11  22  37  59  86 112 142 189 241 283 327
#     4   9  17  32  55  82 113 144 177 224 279 329
#
# _framework density 18.730819
#
# number of rings (size 3 to 8) (size 9 to 14) (size 15 to 20)
#    0.000    1.750    0.000    6.375    0.000    6.500 
#    0.000    0.625    0.000    8.250    0.000    0.000 
#    0.000    0.000    0.000    0.000    0.000    0.000 
#
# Total GULP energy -178465.337731 kJ/mol
# GULP energy per Si atom -5577.041804 kJ/mol
# Density = 1.868819 g / cm^3
# Si number density = 18.730819 Si / 1000 Ang^3
#
#
#
# Elastic Constant Matrix: (Units=GPa)
#
#
# Indices 1 2 3 4 5 6 
#
# 1 94.7459 17.4554 37.2296 0.0000 10.2012 0.0000
# 2 17.4554 105.3628 39.4444 0.0000 2.5084 0.0000
# 3 37.2296 39.4444 66.9784 0.0000 14.2661 0.0000
# 4 0.0000 0.0000 0.0000 19.5987 0.0000 4.6148
# 5 10.2012 2.5084 14.2661 0.0000 34.0270 0.0000
# 6 0.0000 0.0000 0.0000 4.6148 0.0000 26.8217
#
#
#
# Elastic Compliance Matrix: (Units=1/GPa)
#
#
# Indices 1 2 3 4 5 6 
#
# 1 0.013571 0.000676 -0.007757 0.000000 -0.000866 0.000000
# 2 0.000676 0.012377 -0.008156 0.000000 0.002304 0.000000
# 3 -0.007757 -0.008156 0.025718 0.000000 -0.007856 0.000000
# 4 0.000000 0.000000 0.000000 0.053178 0.000000 -0.009150
# 5 -0.000866 0.002304 -0.007856 0.000000 0.032772 0.000000
# 6 0.000000 0.000000 0.000000 -0.009150 0.000000 0.038858
#
#
# Mechanical properties :
#
#
# Convention : Reuss Voigt Hill
#
# Bulk Modulus (GPa) = 47.18472 50.59397 48.88934
# Shear Modulus (GPa) = 23.36302 27.61998 25.49150
#
# Velocity S-wave (km/s) = 3.53555 3.84418 3.69309
# Velocity P-wave (km/s) = 6.47398 6.83911 6.65905
#
# Compressibility (1/GPa) = 0.02119330
#
# Stress axis : x y z
#
# Youngs Moduli (GPa) = 73.68437 80.79217 38.88254
#
# Poissons Ratio (x) = -0.05465 0.30163
# Poissons Ratio (y) = -0.04984 0.31712
# Poissons Ratio (z) = 0.57160 0.65894
#
# Static dielectric constant tensor:
#      x y z
#    x 1.630940 0.000000 0.005630 
#    y 0.000000 1.712950 0.000000 
#    z 0.005630 0.000000 1.613340 
# 
# From -- ./inp_files/112048.got.cif
#   From: 2010.05.17/outbox.cif.g08.bks.cpg/sg12_57_cif.got.tgz:112048.got - 2010.06.03 13:09:07.
