data_PCOD9196592
_publ_section_title
;
Structure prediction by ZEFSAII (Michael W. Deem and Ramdas Pophale) SiO2 
 PCOD9196592
Probable space group: C 2/M
;
_chemical_formula_sum "Si O2"
_cell_formula_units_Z 40
_cell_length_a 9.347780
_cell_length_b 19.147213
_cell_length_c 11.674539
_cell_angle_alpha 90.000000
_cell_angle_beta 104.091449
_cell_angle_gamma 90.000000
_cell_volume 2026.676797
_symmetry_space_group_name_H-M "C 2/M"
_symmetry_group_IT_number 12
_symmetry_cell_setting 'monoclinic'
loop_
_space_group_symop_operation_xyz
x,y,z
-x,y,-z
-x,-y,-z
x,-y,z
1/2+x,1/2+y,z
1/2-x,1/2+y,-z
1/2-x,1/2-y,-z
1/2+x,1/2-y,z
loop_
_atom_site_type_symbol
_atom_site_label
_atom_site_fract_x
_atom_site_fract_y
_atom_site_fract_z
Si Si1 0.483540 0.179595 0.726538
Si Si2 0.155336 0.681358 0.981387
Si Si3 0.249679 0.788986 0.377482
Si Si4 0.261520 0.082670 0.794749
Si Si5 0.948342 0.080640 0.621150
O O1 0.610936 0.161684 0.844242
O O2 0.585503 0.202851 0.640129
O O3 0.365760 0.243113 0.721248
O O4 0.371739 0.114348 0.719512
O O5 0.250000 0.750000 0.000000
O O6 0.209688 0.621728 0.078963
O O7 0.000000 0.704635 0.000000
O O8 0.250000 0.750000 0.500000
O O9 0.179519 0.865099 0.378027
O O10 0.093848 0.096048 0.724195
O O11 0.284352 0.000000 0.809659
O O12 0.000000 0.088107 0.500000
O O13 0.904873 0.000000 0.631126
#
# Coordination Sequence:
#
# PCOD9196592 Si02
#       5
#     8   8   8   8   8
#     4  11  22  35  58  85 116 156 197 246 298 361
#     4  10  20  35  57  83 115 154 197 246 294 355
#     4  12  23  38  60  90 122 155 201 254 307 363
#     4  10  22  40  61  88 122 161 203 250 307 364
#     4  10  21  39  61  83 116 159 200 247 305 366
#
# _framework density 19.736744999999999
#
# number of rings (size 3 to 8) (size 9 to 14) (size 15 to 20)
#    0.000    1.400    0.000    7.800    0.000    4.400 
#    0.000    0.000    0.000    9.000    0.000    0.000 
#    0.000    0.000    0.000    0.000    0.000    0.000 
#
# Total GULP energy -111498.001308 kJ/mol
# GULP energy per Si atom -5574.900065 kJ/mol
# Density = 1.969182 g / cm^3
# Si number density = 19.736745 Si / 1000 Ang^3
#
#
#
# Elastic Constant Matrix: (Units=GPa)
#
#
# Indices 1 2 3 4 5 6 
#
# 1 64.7236 57.9579 24.4390 0.0000 -1.0546 0.0000
# 2 57.9579 99.3313 20.2463 0.0000 2.2267 0.0000
# 3 24.4390 20.2463 80.2542 0.0000 4.2517 0.0000
# 4 0.0000 0.0000 0.0000 34.5221 0.0000 -2.7336
# 5 -1.0546 2.2267 4.2517 0.0000 30.1041 0.0000
# 6 0.0000 0.0000 0.0000 -2.7336 0.0000 41.0146
#
#
#
# Elastic Compliance Matrix: (Units=1/GPa)
#
#
# Indices 1 2 3 4 5 6 
#
# 1 0.035070 -0.019320 -0.005991 0.000000 0.003504 0.000000
# 2 -0.019320 0.021262 0.000644 0.000000 -0.002340 0.000000
# 3 -0.005991 0.000644 0.014243 0.000000 -0.002269 0.000000
# 4 0.000000 0.000000 0.000000 0.029121 0.000000 0.001941
# 5 0.003504 -0.002340 -0.002269 0.000000 0.033834 0.000000
# 6 0.000000 0.000000 0.000000 0.001941 0.000000 0.024511
#
#
# Mechanical properties :
#
#
# Convention : Reuss Voigt Hill
#
# Bulk Modulus (GPa) = 47.08344 49.95507 48.51926
# Shear Modulus (GPa) = 23.31483 30.57256 26.94370
#
# Velocity S-wave (km/s) = 3.44072 3.94003 3.69881
# Velocity P-wave (km/s) = 6.30018 6.78705 6.54814
#
# Compressibility (1/GPa) = 0.02123889
#
# Stress axis : x y z
#
# Youngs Moduli (GPa) = 28.51417 47.03316 70.21148
#
# Poissons Ratio (x) = 0.90869 0.42065
# Poissons Ratio (y) = 0.55090 -0.04519
# Poissons Ratio (z) = 0.17083 -0.03027
#
# Static dielectric constant tensor:
#      x y z
#    x 1.691030 0.000000 -0.005470 
#    y 0.000000 1.670930 0.000000 
#    z -0.005470 0.000000 1.894360 
# 
# From -- ./inp_files/118887.got.cif
#   From: 2010.05.17/outbox.cif.g08.bks.cpg/sg12_60_cif.got.tgz:118887.got - 2010.06.03 13:09:07.
