data_PCOD9196972
_publ_section_title
;
Structure prediction by ZEFSAII (Michael W. Deem and Ramdas Pophale) SiO2 
 PCOD9196972
Probable space group: C 2/M
;
_chemical_formula_sum "Si O2"
_cell_formula_units_Z 48
_cell_length_a 15.204794
_cell_length_b 10.028492
_cell_length_c 29.682384
_cell_angle_alpha 90.000000
_cell_angle_beta 31.554949
_cell_angle_gamma 90.000000
_cell_volume 2368.530598
_symmetry_space_group_name_H-M "C 2/M"
_symmetry_group_IT_number 12
_symmetry_cell_setting 'monoclinic'
loop_
_space_group_symop_operation_xyz
x,y,z
-x,y,-z
-x,-y,-z
x,-y,z
1/2+x,1/2+y,z
1/2-x,1/2+y,-z
1/2-x,1/2-y,-z
1/2+x,1/2-y,z
loop_
_atom_site_type_symbol
_atom_site_label
_atom_site_fract_x
_atom_site_fract_y
_atom_site_fract_z
Si Si1 0.419195 0.350124 0.688677
Si Si2 0.108810 0.000000 0.767946
Si Si3 0.215221 0.654906 0.436758
Si Si4 0.244524 0.500000 0.890752
Si Si5 0.144288 0.728079 0.372428
Si Si6 0.871395 0.275854 0.126803
Si Si7 0.528630 0.500000 0.069331
Si Si8 0.891399 0.500000 0.947869
O O1 0.388730 0.500000 0.719273
O O2 0.614836 0.319387 0.610490
O O3 0.372507 0.343170 0.656748
O O4 0.299652 0.256290 0.770289
O O5 0.224778 0.874278 0.706423
O O6 0.042961 0.000000 0.847932
O O7 0.945655 0.000000 0.806975
O O8 0.219850 0.500000 0.418727
O O9 0.203709 0.748080 0.397746
O O10 0.044426 0.670644 0.539242
O O11 0.177467 0.369467 0.893996
O O12 0.177789 0.500000 0.970732
O O13 0.959846 0.136365 0.077782
O O14 0.994352 0.367435 0.104269
O O15 0.730965 0.500000 0.985392
#
# Coordination Sequence:
#
# PCOD9196972 Si02
#       8
#     8   4   8   4   8   8   4   4
#     4  11  22  36  59  84 119 159 199 241 301 358
#     4  11  19  35  60  86 108 155 196 239 286 348
#     4  10  20  35  58  85 112 159 202 246 291 357
#     4  10  22  39  65  85 116 156 199 231 292 365
#     4  11  19  35  59  86 117 146 208 249 285 338
#     4  11  20  38  61  89 117 150 194 242 291 351
#     4  11  23  36  61  91 120 144 190 250 297 338
#     4  10  22  41  63  86 116 159 195 230 290 372
#
# _framework density 20.265727999999999
#
# number of rings (size 3 to 8) (size 9 to 14) (size 15 to 20)
#    0.000    1.333    5.000    3.500    0.000    0.000 
#    0.000    3.333    9.167    4.000    0.000    0.000 
#    0.000    0.000    0.000    0.000    0.000    0.000 
#
# Total GULP energy -133970.504525 kJ/mol
# GULP energy per Si atom -5582.104355 kJ/mol
# Density = 2.021960 g / cm^3
# Si number density = 20.265728 Si / 1000 Ang^3
#
#
#
# Elastic Constant Matrix: (Units=GPa)
#
#
# Indices 1 2 3 4 5 6 
#
# 1 90.1492 38.7079 24.0197 0.0000 -17.4442 0.0000
# 2 38.7079 83.0687 9.5003 0.0000 -23.2694 0.0001
# 3 24.0197 9.5003 85.2732 0.0003 -28.1192 -0.0001
# 4 0.0000 0.0000 0.0003 12.4392 0.0000 3.4447
# 5 -17.4442 -23.2694 -28.1192 0.0000 37.6517 0.0000
# 6 0.0000 0.0001 -0.0001 3.4447 0.0000 20.6446
#
#
#
# Elastic Compliance Matrix: (Units=1/GPa)
#
#
# Indices 1 2 3 4 5 6 
#
# 1 0.014808 -0.006401 -0.003317 0.000000 0.000427 0.000000
# 2 -0.006401 0.017533 0.003244 0.000000 0.010293 0.000000
# 3 -0.003317 0.003244 0.016523 0.000000 0.012808 0.000000
# 4 0.000000 0.000000 0.000000 0.084285 0.000000 -0.014063
# 5 0.000427 0.010293 0.012808 0.000000 0.042684 0.000000
# 6 0.000000 0.000000 0.000000 -0.014063 0.000000 0.050785
#
#
# Mechanical properties :
#
#
# Convention : Reuss Voigt Hill
#
# Bulk Modulus (GPa) = 27.84286 44.77189 36.30737
# Shear Modulus (GPa) = 19.87767 26.56465 23.22116
#
# Velocity S-wave (km/s) = 3.13525 3.62445 3.38869
# Velocity P-wave (km/s) = 5.18412 6.29729 5.76762
#
# Compressibility (1/GPa) = 0.03591586
#
# Stress axis : x y z
#
# Youngs Moduli (GPa) = 67.53291 57.03487 60.52011
#
# Poissons Ratio (x) = 0.36507 0.20074
# Poissons Ratio (y) = 0.43227 -0.19631
# Poissons Ratio (z) = 0.22400 -0.18500
#
# Static dielectric constant tensor:
#      x y z
#    x 1.732780 0.000000 0.010240 
#    y 0.000000 1.697710 0.000000 
#    z 0.010240 0.000000 1.735970 
# 
# From -- ./inp_files/376064.got.cif
#   From: 2010.05.17/outbox.cif.g08.bks.cpg/sg12_189_cif.got.tgz:376064.got - 2010.06.03 13:09:07.
