data_PCOD9196254
_publ_section_title
;
Structure prediction by ZEFSAII (Michael W. Deem and Ramdas Pophale) SiO2 
 PCOD9196254
Probable space group: C 2/M
;
_chemical_formula_sum "Si O2"
_cell_formula_units_Z 56
_cell_length_a 15.676338
_cell_length_b 7.992773
_cell_length_c 25.090404
_cell_angle_alpha 90.000000
_cell_angle_beta 60.327940
_cell_angle_gamma 90.000000
_cell_volume 2731.530558
_symmetry_space_group_name_H-M "C 2/M"
_symmetry_group_IT_number 12
_symmetry_cell_setting 'monoclinic'
loop_
_space_group_symop_operation_xyz
x,y,z
-x,y,-z
-x,-y,-z
x,-y,z
1/2+x,1/2+y,z
1/2-x,1/2+y,-z
1/2-x,1/2-y,-z
1/2+x,1/2-y,z
loop_
_atom_site_type_symbol
_atom_site_label
_atom_site_fract_x
_atom_site_fract_y
_atom_site_fract_z
Si Si1 0.904367 0.302929 0.792453
Si Si2 0.583154 0.702271 0.432157
Si Si3 0.314099 0.296215 0.116612
Si Si4 0.022531 0.193395 0.855620
Si Si5 0.857906 0.304238 0.985891
Si Si6 0.997816 0.298324 0.345209
Si Si7 0.223201 0.297987 0.568579
O O1 0.887963 0.500000 0.789000
O O2 0.798131 0.236231 0.843417
O O3 0.981772 0.282286 0.816022
O O4 0.946406 0.232587 0.724304
O O5 0.500000 0.759166 0.500000
O O6 0.583094 0.500000 0.433086
O O7 0.553862 0.757422 0.382319
O O8 0.689497 0.760905 0.419699
O O9 0.316634 0.500000 0.112666
O O10 0.378052 0.243191 0.147721
O O11 0.361542 0.229827 0.047603
O O12 0.036589 0.000000 0.837216
O O13 0.939463 0.208327 0.926915
O O14 0.871106 0.500000 0.970656
O O15 0.750000 0.250000 0.000000
O O16 0.992522 0.500000 0.342360
O O17 0.885613 0.235507 0.383722
O O18 0.221549 0.500000 0.571822
O O19 0.250000 0.250000 0.500000
#
# Coordination Sequence:
#
# PCOD9196254 Si02
#       7
#     8   8   8   8   8   8   8
#     4  10  22  41  60  81 116 159 195 237 293 349
#     4  10  20  35  56  83 114 148 184 231 291 344
#     4  10  22  40  61  85 119 157 195 242 294 348
#     4  11  23  39  61  89 118 154 199 243 292 347
#     4  12  23  37  61  91 120 153 196 246 298 347
#     4  10  22  38  58  85 115 150 195 240 287 344
#     4  10  20  35  56  83 114 146 186 234 287 344
#
# _framework density 20.501327
#
# number of rings (size 3 to 8) (size 9 to 14) (size 15 to 20)
#    0.000    1.571    2.857    2.143    0.000    5.429 
#    0.000    0.000    0.000    0.000    0.000    0.000 
#    0.000    0.000    0.000    0.000    0.000    0.000 
#
# Total GULP energy -156477.695928 kJ/mol
# GULP energy per Si atom -5588.489140 kJ/mol
# Density = 2.045467 g / cm^3
# Si number density = 20.501327 Si / 1000 Ang^3
#
#
#
# Elastic Constant Matrix: (Units=GPa)
#
#
# Indices 1 2 3 4 5 6 
#
# 1 121.7443 -3.8476 28.1207 0.0000 18.1178 0.0000
# 2 -3.8476 16.0866 -7.1485 0.0000 -4.3532 -0.0001
# 3 28.1207 -7.1485 107.8552 0.0000 22.8882 0.0000
# 4 0.0000 0.0000 0.0000 20.3754 0.0000 9.6676
# 5 18.1178 -4.3532 22.8882 0.0000 20.6281 0.0000
# 6 0.0000 -0.0001 0.0000 9.6676 0.0000 25.6607
#
#
#
# Elastic Compliance Matrix: (Units=1/GPa)
#
#
# Indices 1 2 3 4 5 6 
#
# 1 0.009519 -0.000127 -0.000929 0.000000 -0.007357 0.000000
# 2 -0.000127 0.066215 0.001874 0.000000 0.012006 0.000000
# 3 -0.000929 0.001874 0.012270 0.000000 -0.012403 0.000000
# 4 0.000000 0.000000 0.000000 0.059762 0.000000 -0.022515
# 5 -0.007357 0.012006 -0.012403 0.000000 0.071235 0.000000
# 6 0.000000 0.000000 0.000000 -0.022515 0.000000 0.047453
#
#
# Mechanical properties :
#
#
# Convention : Reuss Voigt Hill
#
# Bulk Modulus (GPa) = 11.15572 31.10393 21.12983
# Shear Modulus (GPa) = 16.96655 28.57026 22.76841
#
# Velocity S-wave (km/s) = 2.87990 3.73712 3.33616
# Velocity P-wave (km/s) = 4.06346 5.81601 5.01686
#
# Compressibility (1/GPa) = 0.08964009
#
# Stress axis : x y z
#
# Youngs Moduli (GPa) = 105.04894 15.10237 81.49803
#
# Poissons Ratio (x) = 0.00192 0.07573
# Poissons Ratio (y) = 0.01333 -0.15272
# Poissons Ratio (z) = 0.09761 -0.02830
#
# Static dielectric constant tensor:
#      x y z
#    x 1.732400 0.000000 -0.009440 
#    y 0.000000 1.738320 0.000000 
#    z -0.009440 0.000000 1.727170 
# 
# From -- ./inp_files/338430.got.cif
#   From: 2010.05.17/outbox.cif.g08.bks.cpg/sg12_170_cif.got.tgz:338430.got - 2010.06.03 13:09:07.
