data_PCOD9196338
_publ_section_title
;
Structure prediction by ZEFSAII (Michael W. Deem and Ramdas Pophale) SiO2 
 PCOD9196338
Probable space group: C 2/M
;
_chemical_formula_sum "Si O2"
_cell_formula_units_Z 64
_cell_length_a 30.357784
_cell_length_b 7.802994
_cell_length_c 12.257078
_cell_angle_alpha 90.000000
_cell_angle_beta 80.116266
_cell_angle_gamma 90.000000
_cell_volume 2860.383210
_symmetry_space_group_name_H-M "C 2/M"
_symmetry_group_IT_number 12
_symmetry_cell_setting 'monoclinic'
loop_
_space_group_symop_operation_xyz
x,y,z
-x,y,-z
-x,-y,-z
x,-y,z
1/2+x,1/2+y,z
1/2-x,1/2+y,-z
1/2-x,1/2-y,-z
1/2+x,1/2-y,z
loop_
_atom_site_type_symbol
_atom_site_label
_atom_site_fract_x
_atom_site_fract_y
_atom_site_fract_z
Si Si1 0.411505 0.793472 0.905168
Si Si2 0.812329 0.291930 0.944088
Si Si3 0.459840 0.795440 0.672801
Si Si4 0.556823 0.199916 0.656750
Si Si5 0.222519 0.792316 0.403865
Si Si6 0.379594 0.302087 0.546607
Si Si7 0.541035 0.300932 0.909618
Si Si8 0.268161 0.804323 0.171811
O O1 0.361964 0.754605 0.885126
O O2 0.445683 0.730346 0.798723
O O3 0.415171 0.000000 0.912990
O O4 0.419242 0.716681 0.020469
O O5 0.805410 0.500000 0.942919
O O6 0.776194 0.202230 0.884183
O O7 0.804912 0.234193 0.072538
O O8 0.509837 0.730733 0.626884
O O9 0.418861 0.768773 0.608001
O O10 0.465172 0.000000 0.680218
O O11 0.599631 0.286224 0.583575
O O12 0.551807 0.217315 0.789262
O O13 0.561079 0.000000 0.626751
O O14 0.250000 0.750000 0.500000
O O15 0.170835 0.728823 0.424476
O O16 0.252008 0.722633 0.290589
O O17 0.220284 0.000000 0.394898
O O18 0.375973 0.500000 0.577944
O O19 0.531326 0.500000 0.892060
O O20 0.500000 0.226521 0.000000
O O21 0.281621 0.000000 0.189765
#
# Coordination Sequence:
#
# PCOD9196338 Si02
#       8
#     8   8   8   8   8   8   8   8
#     4  10  20  35  56  84 118 154 194 237 281 339
#     4   9  18  32  55  86 113 143 186 232 279 334
#     4  10  21  37  59  86 117 155 199 242 289 350
#     4  11  23  40  62  85 116 158 201 244 290 346
#     4  10  23  41  60  83 115 154 194 239 292 350
#     4  11  24  40  59  87 119 151 195 250 302 350
#     4  11  23  38  57  83 116 152 191 234 284 341
#     4   9  18  35  56  80 113 146 181 229 286 341
#
# _framework density 22.374624000000001
#
# number of rings (size 3 to 8) (size 9 to 14) (size 15 to 20)
#    0.000    1.875    1.250    2.250    0.000    6.500 
#    0.000    1.250    0.000    0.000    0.000    0.000 
#    0.000    0.000    0.000    0.000    0.000    0.000 
#
# Total GULP energy -178602.817717 kJ/mol
# GULP energy per Si atom -5581.338054 kJ/mol
# Density = 2.232370 g / cm^3
# Si number density = 22.374624 Si / 1000 Ang^3
#
#
#
# Elastic Constant Matrix: (Units=GPa)
#
#
# Indices 1 2 3 4 5 6 
#
# 1 28.8357 -1.5338 -9.6444 0.0000 -4.0992 0.0000
# 2 -1.5338 33.4199 -12.1682 0.0000 -3.9689 0.0000
# 3 -9.6444 -12.1682 106.8362 0.0000 -5.0869 0.0000
# 4 0.0000 0.0000 0.0000 -92.7949 0.0000 -59.9061
# 5 -4.0992 -3.9689 -5.0869 0.0000 27.9341 0.0000
# 6 0.0000 0.0000 0.0000 -59.9061 0.0000 -21.6726
#
#
#
# Elastic Compliance Matrix: (Units=1/GPa)
#
#
# Indices 1 2 3 4 5 6 
#
# 1 0.037245 0.004025 0.004144 0.000000 0.006792 0.000000
# 2 0.004025 0.032397 0.004338 0.000000 0.005984 0.000000
# 3 0.004144 0.004338 0.010377 0.000000 0.003114 0.000000
# 4 0.000000 0.000000 0.000000 0.013737 0.000000 -0.037972
# 5 0.006792 0.005984 0.003114 0.000000 0.038212 0.000000
# 6 0.000000 0.000000 0.000000 -0.037972 0.000000 0.058819
#
#
# Mechanical properties :
#
#
# Convention : Reuss Voigt Hill
#
# Bulk Modulus (GPa) = 9.52087 13.59988 11.56037
# Shear Modulus (GPa) = 24.90232 -4.47747 10.21242
#
# Velocity S-wave (km/s) = 3.33974 -1.41615 2.13874
# Velocity P-wave (km/s) = 4.37450 1.84864 3.35811
#
# Compressibility (1/GPa) = 0.10503246
#
# Stress axis : x y z
#
# Youngs Moduli (GPa) = 26.84934 30.86693 96.37082
#
# Poissons Ratio (x) = -0.12423 -0.39936
# Poissons Ratio (y) = -0.10806 -0.41807
# Poissons Ratio (z) = -0.11126 -0.13390
#
# Static dielectric constant tensor:
#      x y z
#    x 1.851740 0.000000 -0.031610 
#    y 0.000000 1.816600 0.000000 
#    z -0.031610 0.000000 1.861500 
# 
# From -- ./inp_files/187574.got.cif
#   From: 2010.05.17/outbox.cif.g08.bks.cpg/sg12_94_cif.got.tgz:187574.got - 2010.06.03 13:09:07.
