data_PCOD9196465
_publ_section_title
;
Structure prediction by ZEFSAII (Michael W. Deem and Ramdas Pophale) SiO2 
 PCOD9196465
Probable space group: C 2/M
;
_chemical_formula_sum "Si O2"
_cell_formula_units_Z 56
_cell_length_a 16.636417
_cell_length_b 7.913041
_cell_length_c 24.205321
_cell_angle_alpha 90.000000
_cell_angle_beta 58.277180
_cell_angle_gamma 90.000000
_cell_volume 2710.443348
_symmetry_space_group_name_H-M "C 2/M"
_symmetry_group_IT_number 12
_symmetry_cell_setting 'monoclinic'
loop_
_space_group_symop_operation_xyz
x,y,z
-x,y,-z
-x,-y,-z
x,-y,z
1/2+x,1/2+y,z
1/2-x,1/2+y,-z
1/2-x,1/2-y,-z
1/2+x,1/2-y,z
loop_
_atom_site_type_symbol
_atom_site_label
_atom_site_fract_x
_atom_site_fract_y
_atom_site_fract_z
Si Si1 0.563224 0.206847 0.924970
Si Si2 0.470208 0.202051 0.843559
Si Si3 0.775673 0.809602 0.429650
Si Si4 0.948805 0.305878 0.299574
Si Si5 0.218913 0.204511 0.154571
Si Si6 0.905843 0.206093 0.567768
Si Si7 0.376581 0.690620 0.702160
O O1 0.512180 0.266067 0.886594
O O2 0.672834 0.259506 0.894073
O O3 0.564861 0.000000 0.922494
O O4 0.500000 0.257334 0.000000
O O5 0.544111 0.242635 0.767326
O O6 0.365338 0.251894 0.858545
O O7 0.466526 0.000000 0.850297
O O8 0.750000 0.750000 0.500000
O O9 0.850792 0.706335 0.366679
O O10 0.679116 0.794207 0.432133
O O11 0.811996 0.000000 0.419955
O O12 0.982546 0.500000 0.290842
O O13 0.022476 0.190091 0.304717
O O14 0.189109 0.269455 0.226602
O O15 0.218522 0.000000 0.156842
O O16 0.897303 0.262874 0.634423
O O17 0.000000 0.248282 0.500000
O O18 0.897408 0.000000 0.568819
O O19 0.340407 0.500000 0.705990
#
# Coordination Sequence:
#
# PCOD9196465 Si02
#       7
#     8   8   8   8   8   8   8
#     4   9  18  33  55  83 114 152 197 238 280 342
#     4   9  19  35  57  83 114 150 190 237 288 341
#     4  12  25  39  56  79 109 144 183 228 276 329
#     4  10  20  35  57  81 109 142 182 230 280 335
#     4   9  18  33  55  81 111 150 193 236 284 341
#     4  10  21  36  55  79 107 142 181 224 275 332
#     4   9  18  33  55  79 108 142 181 228 279 337
#
# _framework density 20.660826
#
# number of rings (size 3 to 8) (size 9 to 14) (size 15 to 20)
#    0.000    2.286    0.000    2.571    2.000    3.143 
#    0.000    0.714    0.000    0.857    0.000    0.000 
#    0.000    0.000    0.000    0.000    0.000    0.000 
#
# Total GULP energy -156030.282085 kJ/mol
# GULP energy per Si atom -5572.510074 kJ/mol
# Density = 2.061380 g / cm^3
# Si number density = 20.660826 Si / 1000 Ang^3
#
#
#
# Elastic Constant Matrix: (Units=GPa)
#
#
# Indices 1 2 3 4 5 6 
#
# 1 94.1507 6.5230 97.5586 -0.0001 5.0125 0.0000
# 2 6.5230 26.9209 17.5040 -0.0001 1.3469 -0.0001
# 3 97.5586 17.5040 180.8986 0.0000 2.1115 0.0001
# 4 -0.0001 -0.0001 0.0000 13.5453 0.0000 -4.4202
# 5 5.0125 1.3469 2.1115 0.0000 46.0107 0.0000
# 6 0.0000 -0.0001 0.0001 -4.4202 0.0000 25.5256
#
#
#
# Elastic Compliance Matrix: (Units=1/GPa)
#
#
# Indices 1 2 3 4 5 6 
#
# 1 0.024479 0.002927 -0.013460 0.000000 -0.002135 0.000000
# 2 0.002927 0.040034 -0.005438 0.000000 -0.001241 0.000000
# 3 -0.013460 -0.005438 0.013301 0.000000 0.001015 0.000000
# 4 0.000000 0.000000 0.000000 0.078248 0.000000 0.013550
# 5 -0.002135 -0.001241 0.001015 0.000000 0.021956 0.000000
# 6 0.000000 0.000000 0.000000 0.013550 0.000000 0.041523
#
#
# Mechanical properties :
#
#
# Convention : Reuss Voigt Hill
#
# Bulk Modulus (GPa) = 21.79910 60.57126 41.18518
# Shear Modulus (GPa) = 18.74240 29.04197 23.89218
#
# Velocity S-wave (km/s) = 3.01516 3.75327 3.40428
# Velocity P-wave (km/s) = 4.76397 6.93998 5.95226
#
# Compressibility (1/GPa) = 0.04587346
#
# Stress axis : x y z
#
# Youngs Moduli (GPa) = 40.85076 24.97853 75.18071
#
# Poissons Ratio (x) = -0.07312 1.01193
# Poissons Ratio (y) = -0.11958 0.40883
# Poissons Ratio (z) = 0.54985 0.13583
#
# Static dielectric constant tensor:
#      x y z
#    x 1.778600 0.000000 0.049960 
#    y 0.000000 1.761700 0.000000 
#    z 0.049960 0.000000 1.742170 
# 
# From -- ./inp_files/338452.got.cif
#   From: 2010.05.17/outbox.cif.g08.bks.cpg/sg12_170_cif.got.tgz:338452.got - 2010.06.03 13:09:07.
