data_PCOD9196196
_publ_section_title
;
Structure prediction by ZEFSAII (Michael W. Deem and Ramdas Pophale) SiO2 
 PCOD9196196
Probable space group: C 2/M
;
_chemical_formula_sum "Si O2"
_cell_formula_units_Z 56
_cell_length_a 5.133932
_cell_length_b 19.521226
_cell_length_c 30.167982
_cell_angle_alpha 90.000000
_cell_angle_beta 66.313387
_cell_angle_gamma 90.000000
_cell_volume 2768.748213
_symmetry_space_group_name_H-M "C 2/M"
_symmetry_group_IT_number 12
_symmetry_cell_setting 'monoclinic'
loop_
_space_group_symop_operation_xyz
x,y,z
-x,y,-z
-x,-y,-z
x,-y,z
1/2+x,1/2+y,z
1/2-x,1/2+y,-z
1/2-x,1/2-y,-z
1/2+x,1/2-y,z
loop_
_atom_site_type_symbol
_atom_site_label
_atom_site_fract_x
_atom_site_fract_y
_atom_site_fract_z
Si Si1 0.401913 0.847742 0.821563
Si Si2 0.653662 0.209201 0.715834
Si Si3 0.831583 0.078243 0.465587
Si Si4 0.840542 0.076678 0.847334
Si Si5 0.421033 0.078491 0.954456
Si Si6 0.819555 0.791313 0.073533
Si Si7 0.991746 0.799294 0.389015
O O1 0.586550 0.820692 0.768444
O O2 0.582138 0.908111 0.832008
O O3 0.332089 0.798367 0.867826
O O4 0.098468 0.871776 0.824264
O O5 0.352626 0.225266 0.713390
O O6 0.851328 0.172261 0.666091
O O7 0.500000 0.084537 0.500000
O O8 0.920788 0.137970 0.425948
O O9 0.000000 0.086099 0.500000
O O10 0.882092 0.000000 0.445557
O O11 0.706895 0.084672 0.905341
O O12 0.946364 0.000000 0.834719
O O13 0.215122 0.135758 0.948049
O O14 0.316331 0.000000 0.955450
O O15 0.500000 0.088675 0.000000
O O16 0.634312 0.736239 0.059198
O O17 0.713274 0.755375 0.394984
#
# Coordination Sequence:
#
# PCOD9196196 Si02
#       7
#     8   8   8   8   8   8   8
#     4  11  20  36  59  81 112 150 184 226 284 341
#     4  10  20  35  56  82 113 147 186 234 284 337
#     4  10  21  37  57  82 116 157 197 239 290 344
#     4  10  21  37  57  82 110 142 189 238 275 329
#     4   9  20  40  62  83 112 152 189 225 281 347
#     4  11  22  37  58  86 113 140 181 230 275 324
#     4  10  21  36  57  86 117 150 194 243 287 334
#
# _framework density 20.225747999999999
#
# number of rings (size 3 to 8) (size 9 to 14) (size 15 to 20)
#    0.000    1.857    0.000    4.714    0.000    2.857 
#    0.000    7.857    0.000   21.429    0.000    0.000 
#    0.000    0.000    0.000    0.000    0.000    0.000 
#
# Total GULP energy -156446.149219 kJ/mol
# GULP energy per Si atom -5587.362472 kJ/mol
# Density = 2.017971 g / cm^3
# Si number density = 20.225748 Si / 1000 Ang^3
#
#
#
# Elastic Constant Matrix: (Units=GPa)
#
#
# Indices 1 2 3 4 5 6 
#
# 1 76.7454 5.2852 2.6664 0.0000 0.7254 0.0000
# 2 5.2852 67.5899 36.8748 0.0000 0.8408 0.0000
# 3 2.6664 36.8748 123.7403 0.0000 -0.9052 0.0000
# 4 0.0000 0.0000 0.0000 17.0968 0.0000 0.1538
# 5 0.7254 0.8408 -0.9052 0.0000 21.9433 0.0000
# 6 0.0000 0.0000 0.0000 0.1538 0.0000 13.8868
#
#
#
# Elastic Compliance Matrix: (Units=1/GPa)
#
#
# Indices 1 2 3 4 5 6 
#
# 1 0.013104 -0.001032 0.000022 0.000000 -0.000393 0.000000
# 2 -0.001032 0.017766 -0.005278 0.000000 -0.000864 0.000000
# 3 0.000022 -0.005278 0.009658 0.000000 0.000600 0.000000
# 4 0.000000 0.000000 0.000000 0.058496 0.000000 -0.000648
# 5 -0.000393 -0.000864 0.000600 0.000000 0.045643 0.000000
# 6 0.000000 0.000000 0.000000 -0.000648 0.000000 0.072018
#
#
# Mechanical properties :
#
#
# Convention : Reuss Voigt Hill
#
# Bulk Modulus (GPa) = 35.77503 39.74761 37.76132
# Shear Modulus (GPa) = 20.95735 25.46866 23.21300
#
# Velocity S-wave (km/s) = 3.22245 3.55240 3.39144
# Velocity P-wave (km/s) = 5.61889 6.04324 5.83492
#
# Compressibility (1/GPa) = 0.02795246
#
# Stress axis : x y z
#
# Youngs Moduli (GPa) = 76.31202 56.28629 103.53740
#
# Poissons Ratio (x) = 0.05808 -0.00231
# Poissons Ratio (y) = 0.07875 0.54652
# Poissons Ratio (z) = -0.00170 0.29711
#
# Static dielectric constant tensor:
#      x y z
#    x 1.706160 0.000000 0.006400 
#    y 0.000000 1.721130 0.000000 
#    z 0.006400 0.000000 1.728210 
# 
# From -- ./inp_files/371587.got.cif
#   From: 2010.05.17/outbox.cif.g08.bks.cpg/sg12_186_cif.got.tgz:371587.got - 2010.06.03 13:09:07.
