data_PCOD9196761
_publ_section_title
;
Structure prediction by ZEFSAII (Michael W. Deem and Ramdas Pophale) SiO2 
 PCOD9196761
Probable space group: C 2/M
;
_chemical_formula_sum "Si O2"
_cell_formula_units_Z 56
_cell_length_a 19.753533
_cell_length_b 9.008343
_cell_length_c 27.803510
_cell_angle_alpha 90.000000
_cell_angle_beta 38.483541
_cell_angle_gamma 90.000000
_cell_volume 3078.803715
_symmetry_space_group_name_H-M "C 2/M"
_symmetry_group_IT_number 12
_symmetry_cell_setting 'monoclinic'
loop_
_space_group_symop_operation_xyz
x,y,z
-x,y,-z
-x,-y,-z
x,-y,z
1/2+x,1/2+y,z
1/2-x,1/2+y,-z
1/2-x,1/2-y,-z
1/2+x,1/2-y,z
loop_
_atom_site_type_symbol
_atom_site_label
_atom_site_fract_x
_atom_site_fract_y
_atom_site_fract_z
Si Si1 0.518811 0.824287 0.191914
Si Si2 0.139253 0.171124 0.046304
Si Si3 0.082152 0.678408 0.498154
Si Si4 0.683722 0.822442 0.627482
Si Si5 0.838983 0.824922 0.804862
Si Si6 0.120112 0.826988 0.942426
Si Si7 0.540918 0.323130 0.623488
O O1 0.540133 0.749950 0.128854
O O2 0.402791 0.796562 0.281447
O O3 0.607596 0.756625 0.179093
O O4 0.535582 0.000000 0.179208
O O5 0.142023 0.000000 0.059793
O O6 0.250000 0.250000 0.000000
O O7 0.133329 0.178001 0.992434
O O8 0.089865 0.500000 0.497676
O O9 0.201514 0.748301 0.424388
O O10 0.042796 0.747121 0.570591
O O11 0.000000 0.713626 0.500000
O O12 0.630339 0.750216 0.609329
O O13 0.694916 0.000000 0.614370
O O14 0.719665 0.759456 0.863258
O O15 0.924240 0.801399 0.714172
O O16 0.832998 0.000000 0.817743
O O17 0.123366 0.000000 0.925153
O O18 0.000000 0.766096 0.000000
O O19 0.561518 0.500000 0.608259
#
# Coordination Sequence:
#
# PCOD9196761 Si02
#       7
#     8   8   8   8   8   8   8
#     4  10  20  35  57  86 115 147 187 234 285 334
#     4  11  21  34  57  84 113 149 191 236 283 333
#     4  11  24  41  60  85 117 153 191 231 282 342
#     4  10  21  38  62  88 116 151 191 236 283 336
#     4  10  20  35  58  86 113 146 188 236 283 332
#     4  10  22  39  56  78 112 154 194 232 280 338
#     4  10  21  38  62  89 116 148 189 236 286 340
#
# _framework density 18.188883000000001
#
# number of rings (size 3 to 8) (size 9 to 14) (size 15 to 20)
#    0.000    1.714    1.429    3.000    0.000    5.429 
#    2.571    0.000    0.000    0.000    0.000    0.000 
#    0.000    0.000    0.000    0.000    0.000    0.000 
#
# Total GULP energy -156382.000982 kJ/mol
# GULP energy per Si atom -5585.071464 kJ/mol
# Density = 1.814748 g / cm^3
# Si number density = 18.188883 Si / 1000 Ang^3
#
#
#
# Elastic Constant Matrix: (Units=GPa)
#
#
# Indices 1 2 3 4 5 6 
#
# 1 85.9603 54.8710 60.0769 0.0001 -21.8595 -0.0003
# 2 54.8710 109.4743 75.6095 0.0002 -8.7325 -0.0006
# 3 60.0769 75.6095 118.8203 0.0000 -16.0665 -0.0001
# 4 0.0001 0.0002 0.0000 36.0975 0.0000 -1.3707
# 5 -21.8595 -8.7325 -16.0665 0.0000 30.5391 0.0001
# 6 -0.0003 -0.0006 -0.0001 -1.3707 0.0001 25.0726
#
#
#
# Elastic Compliance Matrix: (Units=1/GPa)
#
#
# Indices 1 2 3 4 5 6 
#
# 1 0.022720 -0.006438 -0.005858 0.000000 0.011340 0.000000
# 2 -0.006438 0.018142 -0.008840 0.000000 -0.004071 0.000000
# 3 -0.005858 -0.008840 0.017327 0.000000 0.002395 0.000000
# 4 0.000000 0.000000 0.000000 0.027760 0.000000 0.001518
# 5 0.011340 -0.004071 0.002395 0.000000 0.040958 0.000000
# 6 0.000000 0.000000 0.000000 0.001518 0.000000 0.039967
#
#
# Mechanical properties :
#
#
# Convention : Reuss Voigt Hill
#
# Bulk Modulus (GPa) = 62.81997 77.26332 70.04164
# Shear Modulus (GPa) = 23.31533 26.58834 24.95183
#
# Velocity S-wave (km/s) = 3.58417 3.82749 3.70782
# Velocity P-wave (km/s) = 7.19312 7.88057 7.54468
#
# Compressibility (1/GPa) = 0.01591851
#
# Stress axis : x y z
#
# Youngs Moduli (GPa) = 44.01322 55.12123 57.71424
#
# Poissons Ratio (x) = 0.35485 0.33808
# Poissons Ratio (y) = 0.28334 0.51018
# Poissons Ratio (z) = 0.25782 0.48726
#
# Static dielectric constant tensor:
#      x y z
#    x 1.595480 0.000000 0.000010 
#    y 0.000000 1.613840 0.000000 
#    z 0.000010 0.000000 1.639600 
# 
# From -- ./inp_files/363033.got.cif
#   From: 2010.05.17/outbox.cif.g08.bks.cpg/sg12_182_cif.got.tgz:363033.got - 2010.06.03 13:09:07.
