data_PCOD9196790
_publ_section_title
;
Structure prediction by ZEFSAII (Michael W. Deem and Ramdas Pophale) SiO2 
 PCOD9196790
Probable space group: C 2/M
;
_chemical_formula_sum "Si O2"
_cell_formula_units_Z 64
_cell_length_a 17.341456
_cell_length_b 25.668406
_cell_length_c 14.090460
_cell_angle_alpha 90.000000
_cell_angle_beta 29.648123
_cell_angle_gamma 90.000000
_cell_volume 3102.608267
_symmetry_space_group_name_H-M "C 2/M"
_symmetry_group_IT_number 12
_symmetry_cell_setting 'monoclinic'
loop_
_space_group_symop_operation_xyz
x,y,z
-x,y,-z
-x,-y,-z
x,-y,z
1/2+x,1/2+y,z
1/2-x,1/2+y,-z
1/2-x,1/2-y,-z
1/2+x,1/2-y,z
loop_
_atom_site_type_symbol
_atom_site_label
_atom_site_fract_x
_atom_site_fract_y
_atom_site_fract_z
Si Si1 0.700254 0.355492 0.707103
Si Si2 0.857411 0.148957 0.012964
Si Si3 0.676406 0.056747 0.853232
Si Si4 0.187825 0.330417 0.805025
Si Si5 0.635125 0.750644 0.269665
Si Si6 0.731529 0.057915 0.019324
Si Si7 0.069944 0.558802 0.526415
Si Si8 0.161605 0.751771 0.497749
O O1 0.669508 0.370594 0.849717
O O2 0.801551 0.404017 0.565191
O O3 0.801344 0.303202 0.593098
O O4 0.542913 0.341984 0.819273
O O5 0.742175 0.198957 0.135807
O O6 0.821765 0.106260 0.970514
O O7 0.745947 0.110354 0.740512
O O8 0.746111 0.000000 0.754603
O O9 0.500000 0.055747 0.000000
O O10 0.687455 0.062955 0.955555
O O11 0.253607 0.297669 0.823901
O O12 0.259857 0.298661 0.642211
O O13 0.000000 0.328858 0.000000
O O14 0.500000 0.753095 0.500000
O O15 0.523383 0.741364 0.299875
O O16 0.572758 0.056880 0.248978
O O17 0.806395 0.000000 0.951253
O O18 0.128873 0.500000 0.446051
O O19 0.000000 0.578428 0.500000
O O20 0.250000 0.750000 0.500000
#
# Coordination Sequence:
#
# PCOD9196790 Si02
#       8
#     8   8   8   8   8   8   8   8
#     4  11  22  35  56  83 124 160 198 249 302 362
#     4  11  21  35  58  84 119 161 201 247 304 363
#     4   9  20  39  62  89 119 153 198 254 303 350
#     4  10  20  37  62  87 119 154 198 249 299 362
#     4  10  20  36  58  80 116 157 191 243 301 360
#     4  10  21  36  58  88 119 157 208 253 302 368
#     4  10  20  35  57  86 120 161 206 247 299 366
#     4  11  24  39  59  88 120 158 204 252 303 363
#
# _framework density 20.627807000000001
#
# number of rings (size 3 to 8) (size 9 to 14) (size 15 to 20)
#    0.000    1.750    3.750    1.500    0.000    5.500 
#    0.000    3.125    0.000    3.375    0.000    5.250 
#    0.000    0.000    0.000    0.000    0.000    0.000 
#
# Total GULP energy -178305.472236 kJ/mol
# GULP energy per Si atom -5572.046007 kJ/mol
# Density = 2.058086 g / cm^3
# Si number density = 20.627807 Si / 1000 Ang^3
#
#
#
# Elastic Constant Matrix: (Units=GPa)
#
#
# Indices 1 2 3 4 5 6 
#
# 1 107.4666 44.7766 12.6589 0.0151 -23.0020 0.0017
# 2 44.7766 155.8656 28.1410 -0.0142 -18.6049 0.0044
# 3 12.6589 28.1410 35.6265 0.0356 -24.7154 -0.0160
# 4 0.0151 -0.0142 0.0356 36.4332 -0.0311 1.7247
# 5 -23.0020 -18.6049 -24.7154 -0.0311 33.1857 -0.0010
# 6 0.0017 0.0044 -0.0160 1.7247 -0.0010 34.3468
#
#
#
# Elastic Compliance Matrix: (Units=1/GPa)
#
#
# Indices 1 2 3 4 5 6 
#
# 1 0.012364 -0.003294 0.005944 -0.000003 0.011150 0.000003
# 2 -0.003294 0.008364 -0.007794 0.000010 -0.003399 -0.000005
# 3 0.005944 -0.007794 0.066083 -0.000030 0.048966 0.000034
# 4 -0.000003 0.000010 -0.000030 0.027513 0.000007 -0.001382
# 5 0.011150 -0.003399 0.048966 0.000007 0.072425 0.000024
# 6 0.000003 -0.000005 0.000034 -0.001382 0.000024 0.029184
#
#
# Mechanical properties :
#
#
# Convention : Reuss Voigt Hill
#
# Bulk Modulus (GPa) = 13.06804 52.23465 32.65135
# Shear Modulus (GPa) = 19.86272 35.01863 27.44068
#
# Velocity S-wave (km/s) = 3.10645 4.12472 3.65125
# Velocity P-wave (km/s) = 4.38356 6.93266 5.79989
#
# Compressibility (1/GPa) = 0.07652256
#
# Stress axis : x y z
#
# Youngs Moduli (GPa) = 80.87940 119.56651 15.13248
#
# Poissons Ratio (x) = 0.39387 -0.08994
# Poissons Ratio (y) = 0.26643 0.11794
# Poissons Ratio (z) = -0.48073 0.93187
#
# Static dielectric constant tensor:
#      x y z
#    x 1.822120 0.000000 0.013750 
#    y 0.000000 1.788690 0.000020 
#    z 0.013750 0.000020 1.755100 
# 
# From -- ./inp_files/228127.got.cif
#   From: 2010.05.17/outbox.cif.g08.bks.cpg/sg12_115_cif.got.tgz:228127.got - 2010.06.03 13:09:07.
