data_PCOD9196350
_publ_section_title
;
Structure prediction by ZEFSAII (Michael W. Deem and Ramdas Pophale) SiO2 
 PCOD9196350
Probable space group: C 2/M
;
_chemical_formula_sum "Si O2"
_cell_formula_units_Z 58
_cell_length_a 20.656642
_cell_length_b 7.488161
_cell_length_c 19.113650
_cell_angle_alpha 90.000000
_cell_angle_beta 60.422847
_cell_angle_gamma 90.000000
_cell_volume 2571.247674
_symmetry_space_group_name_H-M "C 2/M"
_symmetry_group_IT_number 12
_symmetry_cell_setting 'monoclinic'
loop_
_space_group_symop_operation_xyz
x,y,z
-x,y,-z
-x,-y,-z
x,-y,z
1/2+x,1/2+y,z
1/2-x,1/2+y,-z
1/2-x,1/2-y,-z
1/2+x,1/2-y,z
loop_
_atom_site_type_symbol
_atom_site_label
_atom_site_fract_x
_atom_site_fract_y
_atom_site_fract_z
Si Si1 0.808960 0.714978 0.407312
Si Si2 0.105854 0.208173 0.977273
Si Si3 0.084903 0.786575 0.145823
Si Si4 0.000000 0.500000 0.000000
Si Si5 0.975904 0.712642 0.323206
Si Si6 0.229370 0.206133 0.313493
Si Si7 0.270962 0.283184 0.844908
Si Si8 0.437492 0.783954 0.589187
O O1 0.813514 0.500000 0.399349
O O2 0.750000 0.750000 0.500000
O O3 0.892364 0.781936 0.377293
O O4 0.779003 0.785296 0.348868
O O5 0.062216 0.341555 0.950374
O O6 0.194374 0.226364 0.921589
O O7 0.915254 0.278088 0.933633
O O8 0.086230 0.000000 0.979238
O O9 0.156421 0.719842 0.151414
O O10 0.011052 0.745503 0.228811
O O11 0.092325 0.000000 0.136964
O O12 0.972576 0.500000 0.335982
O O13 0.033548 0.780495 0.350795
O O14 0.230238 0.282967 0.234731
O O15 0.143858 0.212906 0.383678
O O16 0.252305 0.000000 0.293559
O O17 0.274364 0.500000 0.842346
O O18 0.500000 0.733910 0.500000
O O19 0.431601 0.000000 0.592026
#
# Coordination Sequence:
#
# PCOD9196350 Si02
#       8
#     8   8   8   2   8   8   8   8
#     4  10  22  40  59  86 119 162 212 262 322 397
#     4  11  25  44  69 102 135 180 228 271 326 404
#     4  10  22  40  65  97 133 167 219 274 327 396
#     4  12  26  48  68  94 140 180 218 274 336 390
#     4  10  21  36  58  89 122 166 216 267 324 391
#     4  10  21  37  60  89 123 161 211 264 320 392
#     4  10  20  40  65  96 135 173 215 276 339 387
#     4  10  20  35  56  84 121 161 211 268 325 381
#
# _framework density 22.557143
#
# number of rings (size 3 to 8) (size 9 to 14) (size 15 to 20)
#    0.000    1.793    2.069    1.448    0.966    4.690 
#    2.483    0.000    0.000    0.000    0.000    0.000 
#    0.000    0.000    0.000    0.000    0.000    0.000 
#
# Total GULP energy -161851.627902 kJ/mol
# GULP energy per Si atom -5581.090617 kJ/mol
# Density = 2.250580 g / cm^3
# Si number density = 22.557143 Si / 1000 Ang^3
#
#
#
# Elastic Constant Matrix: (Units=GPa)
#
#
# Indices 1 2 3 4 5 6 
#
# 1 74.3075 5.4158 -2.2336 0.0003 -11.1336 0.0011
# 2 5.4158 91.8791 -7.0866 0.0004 4.2374 0.0026
# 3 -2.2336 -7.0866 71.9810 0.0003 -9.4172 -0.0003
# 4 0.0003 0.0004 0.0003 14.0022 -0.0002 -1.9641
# 5 -11.1336 4.2374 -9.4172 -0.0002 39.6989 0.0000
# 6 0.0011 0.0026 -0.0003 -1.9641 0.0000 -14.6365
#
#
#
# Elastic Compliance Matrix: (Units=1/GPa)
#
#
# Indices 1 2 3 4 5 6 
#
# 1 0.014200 -0.000965 0.000908 0.000000 0.004301 0.000001
# 2 -0.000965 0.011067 0.000898 0.000000 -0.001239 0.000002
# 3 0.000908 0.000898 0.014479 0.000000 0.003594 0.000000
# 4 0.000000 0.000000 0.000000 0.070098 0.000000 -0.009407
# 5 0.004301 -0.001239 0.003594 0.000000 0.027381 0.000000
# 6 0.000001 0.000002 0.000000 -0.009407 0.000000 -0.067060
#
#
# Mechanical properties :
#
#
# Convention : Reuss Voigt Hill
#
# Bulk Modulus (GPa) = 24.13887 25.59543 24.86715
# Shear Modulus (GPa) = 60.75905 23.95105 42.35505
#
# Velocity S-wave (km/s) = 5.19558 3.26205 4.33792
# Velocity P-wave (km/s) = 6.83495 5.05565 6.01149
#
# Compressibility (1/GPa) = 0.04142697
#
# Stress axis : x y z
#
# Youngs Moduli (GPa) = 70.42430 90.35763 69.06435
#
# Poissons Ratio (x) = 0.08722 -0.06273
# Poissons Ratio (y) = 0.06798 -0.06199
# Poissons Ratio (z) = -0.06396 -0.08110
#
# Static dielectric constant tensor:
#      x y z
#    x 1.869820 0.000000 0.047980 
#    y 0.000000 1.856350 0.000000 
#    z 0.047980 0.000000 1.827200 
# 
# From -- ./inp_files/314777.got.cif
#   From: 2010.05.17/outbox.cif.g08.bks.cpg/sg12_158_cif.got.tgz:314777.got - 2010.06.03 13:09:07.
