data_PCOD9196287
_publ_section_title
;
Structure prediction by ZEFSAII (Michael W. Deem and Ramdas Pophale) SiO2 
 PCOD9196287
Probable space group: C 2/M
;
_chemical_formula_sum "Si O2"
_cell_formula_units_Z 48
_cell_length_a 15.734047
_cell_length_b 28.843869
_cell_length_c 10.310390
_cell_angle_alpha 90.000000
_cell_angle_beta 148.209121
_cell_angle_gamma 90.000000
_cell_volume 2465.083935
_symmetry_space_group_name_H-M "C 2/M"
_symmetry_group_IT_number 12
_symmetry_cell_setting 'monoclinic'
loop_
_space_group_symop_operation_xyz
x,y,z
-x,y,-z
-x,-y,-z
x,-y,z
1/2+x,1/2+y,z
1/2-x,1/2+y,-z
1/2-x,1/2-y,-z
1/2+x,1/2-y,z
loop_
_atom_site_type_symbol
_atom_site_label
_atom_site_fract_x
_atom_site_fract_y
_atom_site_fract_z
Si Si1 0.296461 0.356780 0.583846
Si Si2 0.362981 0.944366 0.217131
Si Si3 0.000894 0.051414 0.847092
Si Si4 0.181584 0.765960 0.268815
Si Si5 0.554915 0.887105 0.931222
Si Si6 0.340384 0.683739 0.371019
O O1 0.372250 0.407585 0.666707
O O2 0.320177 0.321932 0.734981
O O3 0.372017 0.330302 0.560093
O O4 0.105399 0.360916 0.322071
O O5 0.500000 0.929440 0.500000
O O6 0.394219 0.921577 0.117688
O O7 0.376871 0.000000 0.224042
O O8 0.180334 0.935039 0.030684
O O9 0.961044 0.000000 0.739355
O O10 0.000000 0.046056 0.000000
O O11 0.250000 0.750000 0.500000
O O12 0.288857 0.737504 0.306077
O O13 0.000000 0.750192 0.000000
O O14 0.500000 0.908161 0.000000
O O15 0.696393 0.850007 0.139027
O O16 0.500000 0.675216 0.500000
#
# Coordination Sequence:
#
# PCOD9196287 Si02
#       6
#     8   8   8   8   8   8
#     4  10  20  36  58  83 112 153 199 244 299 366
#     4  10  21  37  58  88 124 160 203 253 302 362
#     4  10  20  35  56  83 116 154 196 243 296 354
#     4  10  20  37  58  81 113 153 196 246 305 367
#     4  10  21  38  61  87 120 160 203 250 308 369
#     4  10  20  37  58  81 114 152 192 245 306 363
#
# _framework density 19.471955000000001
#
# number of rings (size 3 to 8) (size 9 to 14) (size 15 to 20)
#    0.000    2.000    0.000    5.000    0.000    2.333 
#    0.000   14.167    0.000    9.000    0.000    0.000 
#    0.000    0.000    0.000    0.000    0.000    0.000 
#
# Total GULP energy -133601.701992 kJ/mol
# GULP energy per Si atom -5566.737583 kJ/mol
# Density = 1.942764 g / cm^3
# Si number density = 19.471955 Si / 1000 Ang^3
#
#
#
# Elastic Constant Matrix: (Units=GPa)
#
#
# Indices 1 2 3 4 5 6 
#
# 1 117.3896 37.2775 37.0802 0.0000 23.3471 0.0000
# 2 37.2775 90.0329 31.0625 0.0000 6.9092 0.0000
# 3 37.0802 31.0625 82.0198 0.0000 11.8304 0.0000
# 4 0.0000 0.0000 0.0000 15.8460 0.0000 -3.7382
# 5 23.3471 6.9092 11.8304 0.0000 31.0543 0.0000
# 6 0.0000 0.0000 0.0000 -3.7382 0.0000 34.4835
#
#
#
# Elastic Compliance Matrix: (Units=1/GPa)
#
#
# Indices 1 2 3 4 5 6 
#
# 1 0.011972 -0.003335 -0.003130 0.000000 -0.007066 0.000000
# 2 -0.003335 0.013738 -0.003826 0.000000 0.000908 0.000000
# 3 -0.003130 -0.003826 0.015443 0.000000 -0.002678 0.000000
# 4 0.000000 0.000000 0.000000 0.064763 0.000000 0.007021
# 5 -0.007066 0.000908 -0.002678 0.000000 0.038332 0.000000
# 6 0.000000 0.000000 0.000000 0.007021 0.000000 0.029760
#
#
# Mechanical properties :
#
#
# Convention : Reuss Voigt Hill
#
# Bulk Modulus (GPa) = 48.61373 55.58698 52.10035
# Shear Modulus (GPa) = 24.82032 28.54491 26.68262
#
# Velocity S-wave (km/s) = 3.57413 3.83293 3.70579
# Velocity P-wave (km/s) = 6.48481 6.94245 6.71753
#
# Compressibility (1/GPa) = 0.02057032
#
# Stress axis : x y z
#
# Youngs Moduli (GPa) = 83.53086 72.78989 64.75534
#
# Poissons Ratio (x) = 0.24272 0.20269
# Poissons Ratio (y) = 0.27854 0.24778
# Poissons Ratio (z) = 0.26146 0.27852
#
# Static dielectric constant tensor:
#      x y z
#    x 1.682320 0.000000 -0.026570 
#    y 0.000000 1.808340 0.000000 
#    z -0.026570 0.000000 1.725930 
# 
# From -- ./inp_files/52401.got.cif
#   From: 2010.05.17/outbox.cif.g08.bks.cpg/sg12_27_cif.got.tgz:52401.got - 2010.06.03 13:09:07.
