data_PCOD9196162
_publ_section_title
;
Structure prediction by ZEFSAII (Michael W. Deem and Ramdas Pophale) SiO2 
 PCOD9196162
Probable space group: C 2/M
;
_chemical_formula_sum "Si O2"
_cell_formula_units_Z 64
_cell_length_a 25.737009
_cell_length_b 7.825676
_cell_length_c 15.203942
_cell_angle_alpha 90.000000
_cell_angle_beta 69.848230
_cell_angle_gamma 90.000000
_cell_volume 2874.759524
_symmetry_space_group_name_H-M "C 2/M"
_symmetry_group_IT_number 12
_symmetry_cell_setting 'monoclinic'
loop_
_space_group_symop_operation_xyz
x,y,z
-x,y,-z
-x,-y,-z
x,-y,z
1/2+x,1/2+y,z
1/2-x,1/2+y,-z
1/2-x,1/2-y,-z
1/2+x,1/2-y,z
loop_
_atom_site_type_symbol
_atom_site_label
_atom_site_fract_x
_atom_site_fract_y
_atom_site_fract_z
Si Si1 0.012522 0.202272 0.179066
Si Si2 0.463531 0.205823 0.649124
Si Si3 0.774485 0.790852 0.260290
Si Si4 0.207726 0.203956 0.948504
Si Si5 0.297837 0.794673 0.540357
Si Si6 0.894976 0.806036 0.222449
Si Si7 0.910976 0.692012 0.021490
Si Si8 0.418176 0.791403 0.492022
O O1 0.047968 0.234922 0.245722
O O2 0.950407 0.275549 0.229416
O O3 0.007206 0.000000 0.169596
O O4 0.040530 0.273515 0.075284
O O5 0.525373 0.267499 0.586869
O O6 0.423829 0.256541 0.591897
O O7 0.463949 0.000000 0.649807
O O8 0.771320 0.739644 0.160439
O O9 0.724758 0.736183 0.351484
O O10 0.833714 0.728665 0.264567
O O11 0.776410 0.000000 0.260203
O O12 0.147100 0.283910 0.994964
O O13 0.200822 0.000000 0.950383
O O14 0.250000 0.250000 0.000000
O O15 0.250000 0.750000 0.500000
O O16 0.359977 0.730798 0.486728
O O17 0.301374 0.000000 0.540565
O O18 0.907498 0.808037 0.110003
O O19 0.890733 0.000000 0.258341
O O20 0.915354 0.500000 0.052860
O O21 0.419415 0.000000 0.487503
#
# Coordination Sequence:
#
# PCOD9196162 Si02
#       8
#     8   8   8   8   8   8   8   8
#     4  11  22  34  53  81 111 143 180 227 283 337
#     4   9  18  35  56  77 105 146 190 229 275 335
#     4   8  17  34  54  76 107 147 185 220 273 339
#     4  10  20  37  59  83 113 150 188 230 279 335
#     4  10  20  35  56  82 110 143 186 231 278 333
#     4   9  19  36  54  73 107 149 181 220 280 341
#     4  11  22  36  54  79 109 143 185 230 276 329
#     4   8  17  35  56  77 108 146 182 228 284 333
#
# _framework density 22.262733000000001
#
# number of rings (size 3 to 8) (size 9 to 14) (size 15 to 20)
#    0.000    2.500    0.000    3.750    1.750    3.500 
#    0.000    7.500    0.000    0.000    0.000    0.000 
#    0.000    0.000    0.000    0.000    0.000    0.000 
#
# Total GULP energy -178652.561979 kJ/mol
# GULP energy per Si atom -5582.892562 kJ/mol
# Density = 2.221206 g / cm^3
# Si number density = 22.262733 Si / 1000 Ang^3
#
#
#
# Elastic Constant Matrix: (Units=GPa)
#
#
# Indices 1 2 3 4 5 6 
#
# 1 95.7766 -0.5008 7.7928 0.0000 8.8730 0.0000
# 2 -0.5008 47.5935 -1.1194 0.0000 -3.9675 0.0000
# 3 7.7928 -1.1194 36.6334 0.0000 2.7568 0.0000
# 4 0.0000 0.0000 0.0000 8.5502 0.0000 8.8501
# 5 8.8730 -3.9675 2.7568 0.0000 28.9211 0.0000
# 6 0.0000 0.0000 0.0000 8.8501 0.0000 18.7651
#
#
#
# Elastic Compliance Matrix: (Units=1/GPa)
#
#
# Indices 1 2 3 4 5 6 
#
# 1 0.010904 -0.000199 -0.002087 0.000000 -0.003174 0.000000
# 2 -0.000199 0.021265 0.000471 0.000000 0.002933 0.000000
# 3 -0.002087 0.000471 0.027903 0.000000 -0.001955 0.000000
# 4 0.000000 0.000000 0.000000 0.228501 0.000000 -0.107766
# 5 -0.003174 0.002933 -0.001955 0.000000 0.036139 0.000000
# 6 0.000000 0.000000 0.000000 -0.107766 0.000000 0.104115
#
#
# Mechanical properties :
#
#
# Convention : Reuss Voigt Hill
#
# Bulk Modulus (GPa) = 17.71703 21.37207 19.54455
# Shear Modulus (GPa) = 11.07986 22.83604 16.95795
#
# Velocity S-wave (km/s) = 2.23331 3.20621 2.76292
# Velocity P-wave (km/s) = 3.82435 4.82982 4.35619
#
# Compressibility (1/GPa) = 0.05644286
#
# Stress axis : x y z
#
# Youngs Moduli (GPa) = 91.71178 47.02609 35.83862
#
# Poissons Ratio (x) = 0.00935 0.07479
# Poissons Ratio (y) = 0.01824 -0.01689
# Poissons Ratio (z) = 0.19138 -0.02217
#
# Static dielectric constant tensor:
#      x y z
#    x 1.852730 0.000000 -0.004770 
#    y 0.000000 1.826830 0.000000 
#    z -0.004770 0.000000 1.806140 
# 
# From -- ./inp_files/243760.got.cif
#   From: 2010.05.17/outbox.cif.g08.bks.cpg/sg12_122_cif.got.tgz:243760.got - 2010.06.03 13:09:07.
