data_PCOD9196495
_publ_section_title
;
Structure prediction by ZEFSAII (Michael W. Deem and Ramdas Pophale) SiO2 
 PCOD9196495
Probable space group: C 2/M
;
_chemical_formula_sum "Si O2"
_cell_formula_units_Z 42
_cell_length_a 12.738436
_cell_length_b 27.995179
_cell_length_c 9.304311
_cell_angle_alpha 90.000000
_cell_angle_beta 147.618694
_cell_angle_gamma 90.000000
_cell_volume 1776.988606
_symmetry_space_group_name_H-M "C 2/M"
_symmetry_group_IT_number 12
_symmetry_cell_setting 'monoclinic'
loop_
_space_group_symop_operation_xyz
x,y,z
-x,y,-z
-x,-y,-z
x,-y,z
1/2+x,1/2+y,z
1/2-x,1/2+y,-z
1/2-x,1/2-y,-z
1/2+x,1/2-y,z
loop_
_atom_site_type_symbol
_atom_site_label
_atom_site_fract_x
_atom_site_fract_y
_atom_site_fract_z
Si Si1 0.500000 0.000000 0.000000
Si Si2 0.002120 0.215126 0.330756
Si Si3 0.103675 0.587058 0.335104
Si Si4 0.948215 0.305871 0.777506
Si Si5 0.785430 0.944634 0.829924
Si Si6 0.537271 0.391477 0.712780
O O1 0.480055 0.957345 0.851934
O O2 0.949181 0.265900 0.200757
O O3 0.214331 0.202666 0.504931
O O4 0.903419 0.163691 0.194497
O O5 0.000000 0.221689 0.500000
O O6 0.005876 0.638759 0.197667
O O7 0.137495 0.577092 0.542309
O O8 0.323808 0.595471 0.528071
O O9 0.000000 0.294876 0.000000
O O10 0.741631 0.000000 0.795870
O O11 0.000000 0.940588 0.000000
O O12 0.812139 0.922204 0.018677
O O13 0.500000 0.399849 0.500000
#
# Coordination Sequence:
#
# PCOD9196495 Si02
#       6
#     2   8   8   8   8   8
#     4  12  20  36  60  74 106 160 190 220 256 350
#     4   9  20  37  56  83 113 146 188 233 289 335
#     4  10  20  35  57  82 107 147 188 222 273 333
#     4  10  20  35  57  84 114 147 190 234 278 342
#     4   9  17  31  53  80 106 136 181 228 271 321
#     4   9  19  35  57  85 110 137 179 233 285 328
#
# _framework density 23.635491999999999
#
# number of rings (size 3 to 8) (size 9 to 14) (size 15 to 20)
#    0.000    2.476    1.905    0.000    1.333    6.476 
#    0.000    3.810    0.000    1.143    0.000    0.000 
#    0.000    0.000    0.000    0.000    0.000    0.000 
#
# Total GULP energy -117046.747173 kJ/mol
# GULP energy per Si atom -5573.654627 kJ/mol
# Density = 2.358170 g / cm^3
# Si number density = 23.635492 Si / 1000 Ang^3
#
#
#
# Elastic Constant Matrix: (Units=GPa)
#
#
# Indices 1 2 3 4 5 6 
#
# 1 112.1793 68.4057 40.4000 0.0000 -15.7879 0.0000
# 2 68.4057 178.0599 50.5358 0.0000 -34.0384 0.0000
# 3 40.4000 50.5358 79.4214 0.0000 -20.3683 0.0000
# 4 0.0000 0.0000 0.0000 48.4285 0.0000 -14.9887
# 5 -15.7879 -34.0384 -20.3683 0.0000 40.2337 0.0000
# 6 0.0000 0.0000 0.0000 -14.9887 0.0000 7.4411
#
#
#
# Elastic Compliance Matrix: (Units=1/GPa)
#
#
# Indices 1 2 3 4 5 6 
#
# 1 0.012640 -0.003741 -0.004124 0.000000 -0.000293 0.000000
# 2 -0.003741 0.008614 -0.002397 0.000000 0.004606 0.000000
# 3 -0.004124 -0.002397 0.017559 0.000000 0.005243 0.000000
# 4 0.000000 0.000000 0.000000 0.054835 0.000000 0.110454
# 5 -0.000293 0.004606 0.005243 0.000000 0.031291 0.000000
# 6 0.000000 0.000000 0.000000 0.110454 0.000000 0.356876
#
#
# Mechanical properties :
#
#
# Convention : Reuss Voigt Hill
#
# Bulk Modulus (GPa) = 54.68057 76.48261 65.58159
# Shear Modulus (GPa) = 9.83410 33.24196 21.53803
#
# Velocity S-wave (km/s) = 2.04200 3.75432 3.02198
# Velocity P-wave (km/s) = 5.36142 7.15701 6.32327
#
# Compressibility (1/GPa) = 0.01828803
#
# Stress axis : x y z
#
# Youngs Moduli (GPa) = 79.11551 116.08733 56.95228
#
# Poissons Ratio (x) = 0.43433 0.23488
# Poissons Ratio (y) = 0.29600 0.13650
# Poissons Ratio (z) = 0.32628 0.27823
#
# Static dielectric constant tensor:
#      x y z
#    x 2.135350 0.000000 0.143070 
#    y 0.000000 1.850410 0.000000 
#    z 0.143070 0.000000 1.906100 
# 
# From -- ./inp_files/66745.got.cif
#   From: 2010.05.17/outbox.cif.g08.bks.cpg/sg12_34_cif.got.tgz:66745.got - 2010.06.03 13:09:07.
