data_PCOD9196090
_publ_section_title
;
Structure prediction by ZEFSAII (Michael W. Deem and Ramdas Pophale) SiO2 
 PCOD9196090
Probable space group: C 2/M
;
_chemical_formula_sum "Si O2"
_cell_formula_units_Z 32
_cell_length_a 24.393408
_cell_length_b 9.354457
_cell_length_c 14.054045
_cell_angle_alpha 90.000000
_cell_angle_beta 149.346131
_cell_angle_gamma 90.000000
_cell_volume 1635.065715
_symmetry_space_group_name_H-M "C 2/M"
_symmetry_group_IT_number 12
_symmetry_cell_setting 'monoclinic'
loop_
_space_group_symop_operation_xyz
x,y,z
-x,y,-z
-x,-y,-z
x,-y,z
1/2+x,1/2+y,z
1/2-x,1/2+y,-z
1/2-x,1/2-y,-z
1/2+x,1/2-y,z
loop_
_atom_site_type_symbol
_atom_site_label
_atom_site_fract_x
_atom_site_fract_y
_atom_site_fract_z
Si Si1 0.100579 0.169535 0.084136
Si Si2 0.453335 0.667246 0.216638
Si Si3 0.876754 0.336939 0.277056
Si Si4 0.305309 0.669050 0.351166
O O1 0.207770 0.259496 0.262236
O O2 0.121803 0.000000 0.128428
O O3 0.069496 0.193663 0.927609
O O4 0.000000 0.208274 0.000000
O O5 0.432834 0.500000 0.207115
O O6 0.384742 0.762595 0.186746
O O7 0.579496 0.692510 0.426779
O O8 0.837521 0.500000 0.213876
O O9 0.813486 0.246081 0.260903
O O10 0.000000 0.339842 0.500000
O O11 0.289350 0.500000 0.315993
#
# Coordination Sequence:
#
# PCOD9196090 Si02
#       4
#     8   8   8   8
#     4  10  22  39  56  76 105 142 183 222 261 311
#     4   9  19  36  56  79 109 142 174 214 266 317
#     4   9  17  31  54  83 110 137 173 215 261 317
#     4  10  20  35  56  81 109 140 174 217 267 315
#
# _framework density 19.571078
#
# number of rings (size 3 to 8) (size 9 to 14) (size 15 to 20)
#    0.000    2.500    0.000    1.500    0.000    7.500 
#    0.000    0.000    0.000    0.000    0.000    0.000 
#    0.000    0.000    0.000    0.000    0.000    0.000 
#
# Total GULP energy -89404.016048 kJ/mol
# GULP energy per Si atom -5587.751003 kJ/mol
# Density = 1.952653 g / cm^3
# Si number density = 19.571078 Si / 1000 Ang^3
#
#
#
# Elastic Constant Matrix: (Units=GPa)
#
#
# Indices 1 2 3 4 5 6 
#
# 1 65.2004 33.4115 28.4164 0.0000 30.7735 0.0000
# 2 33.4115 64.3460 36.2662 0.0000 17.3031 0.0000
# 3 28.4164 36.2662 75.4483 0.0000 18.4857 0.0000
# 4 0.0000 0.0000 0.0000 18.9538 0.0000 8.0761
# 5 30.7735 17.3031 18.4857 0.0000 33.6999 0.0000
# 6 0.0000 0.0000 0.0000 8.0761 0.0000 33.4678
#
#
#
# Elastic Compliance Matrix: (Units=1/GPa)
#
#
# Indices 1 2 3 4 5 6 
#
# 1 0.031917 -0.009242 -0.001849 0.000000 -0.023386 0.000000
# 2 -0.009242 0.025156 -0.008681 0.000000 0.000285 0.000000
# 3 -0.001849 -0.008681 0.019197 0.000000 -0.004385 0.000000
# 4 0.000000 0.000000 0.000000 0.058806 0.000000 -0.014191
# 5 -0.023386 0.000285 -0.004385 0.000000 0.053288 0.000000
# 6 0.000000 0.000000 0.000000 -0.014191 0.000000 0.033304
#
#
# Mechanical properties :
#
#
# Convention : Reuss Voigt Hill
#
# Bulk Modulus (GPa) = 27.22796 44.57585 35.90191
# Shear Modulus (GPa) = 18.28463 24.35101 21.31782
#
# Velocity S-wave (km/s) = 3.05990 3.53120 3.30396
# Velocity P-wave (km/s) = 5.14067 6.28105 5.73926
#
# Compressibility (1/GPa) = 0.03672695
#
# Stress axis : x y z
#
# Youngs Moduli (GPa) = 31.33143 39.75212 52.09019
#
# Poissons Ratio (x) = 0.36740 0.09630
# Poissons Ratio (y) = 0.28957 0.45218
# Poissons Ratio (z) = 0.05792 0.34508
#
# Static dielectric constant tensor:
#      x y z
#    x 1.645600 0.000000 0.012850 
#    y 0.000000 1.661170 0.000000 
#    z 0.012850 0.000000 1.730560 
# 
# From -- ./inp_files/138619.got.cif
#   From: 2010.05.17/outbox.cif.g08.bks.cpg/sg12_70_cif.got.tgz:138619.got - 2010.06.03 13:09:07.
