data_PCOD9196770
_publ_section_title
;
Structure prediction by ZEFSAII (Michael W. Deem and Ramdas Pophale) SiO2 
 PCOD9196770
Probable space group: C 2/M
;
_chemical_formula_sum "Si O2"
_cell_formula_units_Z 40
_cell_length_a 9.371740
_cell_length_b 18.228650
_cell_length_c 9.377278
_cell_angle_alpha 90.000000
_cell_angle_beta 81.046800
_cell_angle_gamma 90.000000
_cell_volume 1582.440876
_symmetry_space_group_name_H-M "C 2/M"
_symmetry_group_IT_number 12
_symmetry_cell_setting 'monoclinic'
loop_
_space_group_symop_operation_xyz
x,y,z
-x,y,-z
-x,-y,-z
x,-y,z
1/2+x,1/2+y,z
1/2-x,1/2+y,-z
1/2-x,1/2-y,-z
1/2+x,1/2-y,z
loop_
_atom_site_type_symbol
_atom_site_label
_atom_site_fract_x
_atom_site_fract_y
_atom_site_fract_z
Si Si1 0.246501 0.361445 0.222153
Si Si2 0.895723 0.774765 0.633897
Si Si3 0.222811 0.921319 0.485841
Si Si4 0.186156 0.174439 0.075372
Si Si5 0.569586 0.084658 0.787721
O O1 0.230175 0.282974 0.307094
O O2 0.277000 0.416681 0.344946
O O3 0.084994 0.377212 0.186951
O O4 0.344325 0.367494 0.066935
O O5 0.852790 0.849461 0.562501
O O6 0.933816 0.802628 0.788290
O O7 0.000000 0.738444 0.500000
O O8 0.377546 0.917199 0.384511
O O9 0.161697 0.000000 0.447092
O O10 0.309640 0.129762 0.143058
O O11 0.250000 0.250000 0.000000
O O12 0.562494 0.000000 0.837051
#
# Coordination Sequence:
#
# PCOD9196770 Si02
#       5
#     8   8   8   8   8
#     4  11  20  34  58  87 113 139 178 232 288 331
#     4  10  21  38  58  77 105 151 193 224 267 328
#     4  10  21  36  55  81 113 147 185 228 273 329
#     4   9  21  37  54  81 115 146 180 224 271 330
#     4  10  20  35  57  86 117 146 177 221 284 343
#
# _framework density 25.277407
#
# number of rings (size 3 to 8) (size 9 to 14) (size 15 to 20)
#    0.000    2.000    0.000    3.600    0.000    7.600 
#    0.000    3.000    0.000    1.200    0.000    0.000 
#    0.000    0.000    0.000    0.000    0.000    0.000 
#
# Total GULP energy -111637.469904 kJ/mol
# GULP energy per Si atom -5581.873495 kJ/mol
# Density = 2.521987 g / cm^3
# Si number density = 25.277407 Si / 1000 Ang^3
#
#
#
# Elastic Constant Matrix: (Units=GPa)
#
#
# Indices 1 2 3 4 5 6 
#
# 1 70.1008 25.4564 43.2628 0.0000 -14.0407 0.0000
# 2 25.4564 161.1161 19.9112 0.0000 16.0597 0.0000
# 3 43.2628 19.9112 255.9393 0.0000 -32.6083 0.0000
# 4 0.0000 0.0000 0.0000 17.7203 0.0000 1.2184
# 5 -14.0407 16.0597 -32.6083 0.0000 42.8983 0.0000
# 6 0.0000 0.0000 0.0000 1.2184 0.0000 15.5384
#
#
#
# Elastic Compliance Matrix: (Units=1/GPa)
#
#
# Indices 1 2 3 4 5 6 
#
# 1 0.017743 -0.003084 -0.002073 0.000000 0.005386 0.000000
# 2 -0.003084 0.007174 -0.000562 0.000000 -0.004123 0.000000
# 3 -0.002073 -0.000562 0.004697 0.000000 0.003102 0.000000
# 4 0.000000 0.000000 0.000000 0.056738 0.000000 -0.004449
# 5 0.005386 -0.004123 0.003102 0.000000 0.028975 0.000000
# 6 0.000000 0.000000 0.000000 -0.004449 0.000000 0.064705
#
#
# Mechanical properties :
#
#
# Convention : Reuss Voigt Hill
#
# Bulk Modulus (GPa) = 55.01843 73.82412 64.42128
# Shear Modulus (GPa) = 25.31258 41.79979 33.55618
#
# Velocity S-wave (km/s) = 3.16791 4.07091 3.64746
# Velocity P-wave (km/s) = 5.93245 7.16697 6.57873
#
# Compressibility (1/GPa) = 0.01817573
#
# Stress axis : x y z
#
# Youngs Moduli (GPa) = 56.35908 139.38478 212.92344
#
# Poissons Ratio (x) = 0.42988 0.44141
# Poissons Ratio (y) = 0.17382 0.11967
# Poissons Ratio (z) = 0.11684 0.07834
#
# Static dielectric constant tensor:
#      x y z
#    x 2.147550 0.000000 -0.035900 
#    y 0.000000 2.003690 0.000000 
#    z -0.035900 0.000000 2.090250 
# 
# From -- ./inp_files/46910.got.cif
#   From: 2010.05.17/outbox.cif.g08.bks.cpg/sg12_24_cif.got.tgz:46910.got - 2010.06.03 13:09:07.
