data_PCOD9196606
_publ_section_title
;
Structure prediction by ZEFSAII (Michael W. Deem and Ramdas Pophale) SiO2 
 PCOD9196606
Probable space group: C 2/M
;
_chemical_formula_sum "Si O2"
_cell_formula_units_Z 48
_cell_length_a 17.848605
_cell_length_b 15.944762
_cell_length_c 20.617694
_cell_angle_alpha 90.000000
_cell_angle_beta 158.662279
_cell_angle_gamma 90.000000
_cell_volume 2135.020937
_symmetry_space_group_name_H-M "C 2/M"
_symmetry_group_IT_number 12
_symmetry_cell_setting 'monoclinic'
loop_
_space_group_symop_operation_xyz
x,y,z
-x,y,-z
-x,-y,-z
x,-y,z
1/2+x,1/2+y,z
1/2-x,1/2+y,-z
1/2-x,1/2-y,-z
1/2+x,1/2-y,z
loop_
_atom_site_type_symbol
_atom_site_label
_atom_site_fract_x
_atom_site_fract_y
_atom_site_fract_z
Si Si1 0.772120 0.095197 0.442720
Si Si2 0.471674 0.402211 0.049764
Si Si3 0.839443 0.597860 0.790380
Si Si4 0.160734 0.598144 0.570188
Si Si5 0.546604 0.170345 0.722592
Si Si6 0.788220 0.849696 0.175388
O O1 0.777343 0.114406 0.370487
O O2 0.616769 0.157514 0.352617
O O3 0.998528 0.100050 0.655786
O O4 0.693528 0.000000 0.385964
O O5 0.532949 0.500000 0.094155
O O6 0.626615 0.367472 0.228508
O O7 0.500000 0.365580 0.000000
O O8 0.236172 0.394018 0.879563
O O9 0.805504 0.500000 0.781291
O O10 0.767519 0.653001 0.792919
O O11 0.084406 0.611744 0.978894
O O12 0.181696 0.500000 0.565905
O O13 0.000000 0.599308 0.500000
O O14 0.073366 0.651307 0.440731
O O15 0.656332 0.259649 0.808125
#
# Coordination Sequence:
#
# PCOD9196606 Si02
#       6
#     8   8   8   8   8   8
#     4  11  24  44  67  92 131 174 217 266 319 389
#     4  10  20  36  58  84 124 175 226 263 302 374
#     4  10  23  45  72  96 120 168 228 272 315 377
#     4  10  20  35  57  83 120 173 224 261 299 371
#     4  12  25  38  61  98 136 165 205 264 341 390
#     4  11  24  41  67  97 129 163 212 274 329 384
#
# _framework density 22.482216999999999
#
# number of rings (size 3 to 8) (size 9 to 14) (size 15 to 20)
#    0.000    1.333    1.667    4.500    2.333    6.000 
#    0.000    1.667    0.000    0.000    0.000    0.000 
#    0.000    0.000    0.000    0.000    0.000    0.000 
#
# Total GULP energy -134255.728667 kJ/mol
# GULP energy per Si atom -5593.988694 kJ/mol
# Density = 2.243105 g / cm^3
# Si number density = 22.482217 Si / 1000 Ang^3
#
#
#
# Elastic Constant Matrix: (Units=GPa)
#
#
# Indices 1 2 3 4 5 6 
#
# 1 31.7783 10.5162 -5.6052 0.0198 16.7840 0.0025
# 2 10.5162 39.3119 -17.7858 -0.0048 4.1769 0.0049
# 3 -5.6052 -17.7858 112.8625 0.0127 4.2475 0.0103
# 4 0.0198 -0.0048 0.0127 9.4714 0.0018 8.2195
# 5 16.7840 4.1769 4.2475 0.0018 34.4605 0.0049
# 6 0.0025 0.0049 0.0103 8.2195 0.0049 25.7198
#
#
#
# Elastic Compliance Matrix: (Units=1/GPa)
#
#
# Indices 1 2 3 4 5 6 
#
# 1 0.046254 -0.009337 0.001639 -0.000138 -0.021598 0.000045
# 2 -0.009337 0.029799 0.004217 0.000048 0.000416 -0.000022
# 3 0.001639 0.004217 0.009700 -0.000014 -0.002505 0.000000
# 4 -0.000138 0.000048 -0.000014 0.146101 0.000062 -0.046691
# 5 -0.021598 0.000416 -0.002505 0.000062 0.039797 -0.000024
# 6 0.000045 -0.000022 0.000000 -0.046691 -0.000024 0.053802
#
#
# Mechanical properties :
#
#
# Convention : Reuss Voigt Hill
#
# Bulk Modulus (GPa) = 12.69201 17.57812 15.13506
# Shear Modulus (GPa) = 13.93996 27.05218 20.49607
#
# Velocity S-wave (km/s) = 2.49277 3.47258 3.02264
# Velocity P-wave (km/s) = 3.73401 4.89020 4.35068
#
# Compressibility (1/GPa) = 0.07878973
#
# Stress axis : x y z
#
# Youngs Moduli (GPa) = 21.61954 33.55836 103.08785
#
# Poissons Ratio (x) = 0.31334 -0.16892
# Poissons Ratio (y) = 0.20187 -0.43468
# Poissons Ratio (z) = -0.03543 -0.14150
#
# Static dielectric constant tensor:
#      x y z
#    x 1.810220 -0.000010 0.005880 
#    y -0.000010 1.843470 -0.000030 
#    z 0.005880 -0.000030 1.820220 
# 
# From -- ./inp_files/317552.got.cif
#   From: 2010.05.17/outbox.cif.g08.bks.cpg/sg12_159_cif.got.tgz:317552.got - 2010.06.03 13:09:07.
