data_PCOD9196723
_publ_section_title
;
Structure prediction by ZEFSAII (Michael W. Deem and Ramdas Pophale) SiO2 
 PCOD9196723
Probable space group: C 2/M
;
_chemical_formula_sum "Si O2"
_cell_formula_units_Z 56
_cell_length_a 21.655184
_cell_length_b 13.892318
_cell_length_c 10.354194
_cell_angle_alpha 90.000000
_cell_angle_beta 114.416682
_cell_angle_gamma 90.000000
_cell_volume 2836.371124
_symmetry_space_group_name_H-M "C 2/M"
_symmetry_group_IT_number 12
_symmetry_cell_setting 'monoclinic'
loop_
_space_group_symop_operation_xyz
x,y,z
-x,y,-z
-x,-y,-z
x,-y,z
1/2+x,1/2+y,z
1/2-x,1/2+y,-z
1/2-x,1/2-y,-z
1/2+x,1/2-y,z
loop_
_atom_site_type_symbol
_atom_site_label
_atom_site_fract_x
_atom_site_fract_y
_atom_site_fract_z
Si Si1 0.908864 0.892968 0.350585
Si Si2 0.447258 0.196452 0.294903
Si Si3 0.154777 0.697836 0.022125
Si Si4 0.210025 0.892755 0.963813
Si Si5 0.822326 0.707294 0.674435
Si Si6 0.093695 0.386233 0.480696
Si Si7 0.683032 0.386359 0.489155
O O1 0.955939 0.808613 0.338500
O O2 0.841725 0.889259 0.202068
O O3 0.881649 0.878028 0.472073
O O4 0.937565 0.000000 0.361663
O O5 0.399734 0.156271 0.369448
O O6 0.518046 0.141947 0.368195
O O7 0.409586 0.187576 0.126644
O O8 0.214643 0.629444 0.021548
O O9 0.141194 0.682028 0.160782
O O10 0.185637 0.805701 0.033145
O O11 0.206397 0.000000 0.017207
O O12 0.855287 0.658355 0.577751
O O13 0.746551 0.664489 0.615712
O O14 0.824195 0.821063 0.644497
O O15 0.100927 0.500000 0.492309
O O16 0.695534 0.500000 0.478864
#
# Coordination Sequence:
#
# PCOD9196723 Si02
#       7
#     8   8   8   8   8   8   8
#     4   9  16  33  59  85 109 142 186 235 282 333
#     4  10  21  40  58  80 112 152 197 237 276 330
#     4  10  21  34  56  86 114 147 188 235 282 333
#     4   9  18  32  53  81 117 149 180 225 284 342
#     4  11  22  37  58  87 121 150 187 234 286 337
#     4  11  24  42  59  79 113 156 195 234 279 335
#     4  10  20  35  57  85 117 151 183 227 287 347
#
# _framework density 19.743537
#
# number of rings (size 3 to 8) (size 9 to 14) (size 15 to 20)
#    0.000    2.000    2.857    1.286    0.000    2.857 
#    0.000    2.857    0.000    0.000    0.000    5.000 
#    0.000    0.000    0.000    0.000    0.000    0.000 
#
# Total GULP energy -156324.545784 kJ/mol
# GULP energy per Si atom -5583.019492 kJ/mol
# Density = 1.969860 g / cm^3
# Si number density = 19.743537 Si / 1000 Ang^3
#
#
#
# Elastic Constant Matrix: (Units=GPa)
#
#
# Indices 1 2 3 4 5 6 
#
# 1 21.4797 3.0501 6.6193 0.0000 -3.8374 0.0000
# 2 3.0501 110.2580 2.2035 0.0000 -4.2157 0.0000
# 3 6.6193 2.2035 95.1181 0.0000 2.8951 0.0000
# 4 0.0000 0.0000 0.0000 14.5118 0.0000 4.9992
# 5 -3.8374 -4.2157 2.8951 0.0000 23.1584 0.0000
# 6 0.0000 0.0000 0.0000 4.9992 0.0000 20.3646
#
#
#
# Elastic Compliance Matrix: (Units=1/GPa)
#
#
# Indices 1 2 3 4 5 6 
#
# 1 0.049334 -0.000968 -0.003668 0.000000 0.008457 0.000000
# 2 -0.000968 0.009159 -0.000191 0.000000 0.001531 0.000000
# 3 -0.003668 -0.000191 0.010834 0.000000 -0.001997 0.000000
# 4 0.000000 0.000000 0.000000 0.075275 0.000000 -0.018479
# 5 0.008457 0.001531 -0.001997 0.000000 0.045111 0.000000
# 6 0.000000 0.000000 0.000000 -0.018479 0.000000 0.053641
#
#
# Mechanical properties :
#
#
# Convention : Reuss Voigt Hill
#
# Bulk Modulus (GPa) = 16.75839 27.84461 22.30150
# Shear Modulus (GPa) = 18.32175 25.93916 22.13045
#
# Velocity S-wave (km/s) = 3.04959 3.62858 3.35161
# Velocity P-wave (km/s) = 4.57236 5.62932 5.12814
#
# Compressibility (1/GPa) = 0.05967162
#
# Stress axis : x y z
#
# Youngs Moduli (GPa) = 20.26985 109.18496 92.30433
#
# Poissons Ratio (x) = 0.10570 0.33859
# Poissons Ratio (y) = 0.01962 0.01767
# Poissons Ratio (z) = 0.07435 0.02090
#
# Static dielectric constant tensor:
#      x y z
#    x 1.689180 0.000000 0.006690 
#    y 0.000000 1.715620 0.000000 
#    z 0.006690 0.000000 1.680610 
# 
# From -- ./inp_files/96454.got.cif
#   From: 2010.05.17/outbox.cif.g08.bks.cpg/sg12_49_cif.got.tgz:96454.got - 2010.06.03 13:09:07.
