data_PCOD9196876
_publ_section_title
;
Structure prediction by ZEFSAII (Michael W. Deem and Ramdas Pophale) SiO2 
 PCOD9196876
Probable space group: C 2/M
;
_chemical_formula_sum "Si O2"
_cell_formula_units_Z 56
_cell_length_a 29.393986
_cell_length_b 7.678148
_cell_length_c 21.141067
_cell_angle_alpha 90.000000
_cell_angle_beta 148.467000
_cell_angle_gamma 90.000000
_cell_volume 2495.369641
_symmetry_space_group_name_H-M "C 2/M"
_symmetry_group_IT_number 12
_symmetry_cell_setting 'monoclinic'
loop_
_space_group_symop_operation_xyz
x,y,z
-x,y,-z
-x,-y,-z
x,-y,z
1/2+x,1/2+y,z
1/2-x,1/2+y,-z
1/2-x,1/2-y,-z
1/2+x,1/2-y,z
loop_
_atom_site_type_symbol
_atom_site_label
_atom_site_fract_x
_atom_site_fract_y
_atom_site_fract_z
Si Si1 0.425835 0.292737 0.750897
Si Si2 0.115172 0.788732 0.929478
Si Si3 0.129062 0.290532 0.450154
Si Si4 0.939166 0.704431 0.269861
Si Si5 0.308816 0.714685 0.725963
Si Si6 0.218102 0.201313 0.169316
Si Si7 0.406725 0.300651 0.369516
O O1 0.433822 0.500000 0.767853
O O2 0.522102 0.228740 0.847689
O O3 0.368254 0.258595 0.620446
O O4 0.380661 0.226065 0.760762
O O5 0.118120 0.725244 0.861046
O O6 0.116306 0.000000 0.926541
O O7 0.186151 0.726562 0.064274
O O8 0.126804 0.500000 0.450738
O O9 0.214009 0.230805 0.587991
O O10 0.036456 0.228088 0.368248
O O11 0.945115 0.500000 0.291742
O O12 0.903404 0.794168 0.289762
O O13 0.309061 0.500000 0.726751
O O14 0.320349 0.776272 0.811500
O O15 0.322084 0.209050 0.296463
O O16 0.190330 0.000000 0.135251
O O17 0.500000 0.224730 0.500000
O O18 0.404071 0.500000 0.388777
#
# Coordination Sequence:
#
# PCOD9196876 Si02
#       7
#     8   8   8   8   8   8   8
#     4   9  17  30  50  76 106 139 174 215 261 306
#     4   9  19  35  54  79 109 140 178 221 261 304
#     4   9  17  30  49  76 106 135 173 217 260 311
#     4  10  20  35  58  81 105 142 179 215 261 313
#     4   9  17  30  50  76 105 138 177 219 259 303
#     4  10  21  37  56  77 105 142 181 219 259 310
#     4  11  24  40  58  82 109 134 166 214 269 320
#
# _framework density 22.441566000000002
#
# number of rings (size 3 to 8) (size 9 to 14) (size 15 to 20)
#    0.000    2.429    0.000    2.143    0.000    4.571 
#    0.000    4.286    0.000    0.000    0.000    5.000 
#    0.000    0.000    0.000    0.000    0.000    0.000 
#
# Total GULP energy -156384.878741 kJ/mol
# GULP energy per Si atom -5585.174241 kJ/mol
# Density = 2.239049 g / cm^3
# Si number density = 22.441566 Si / 1000 Ang^3
#
#
#
# Elastic Constant Matrix: (Units=GPa)
#
#
# Indices 1 2 3 4 5 6 
#
# 1 93.0023 -4.5567 1.1319 0.0000 -20.8552 0.0000
# 2 -4.5567 39.1864 -3.2823 0.0000 0.7042 0.0000
# 3 1.1319 -3.2823 70.0382 0.0000 -16.7255 0.0000
# 4 0.0000 0.0000 0.0000 16.0732 0.0000 -2.6796
# 5 -20.8552 0.7042 -16.7255 0.0000 20.8231 0.0000
# 6 0.0000 0.0000 0.0000 -2.6796 0.0000 -1.3692
#
#
#
# Elastic Compliance Matrix: (Units=1/GPa)
#
#
# Indices 1 2 3 4 5 6 
#
# 1 0.014867 0.001753 0.004187 0.000000 0.018194 0.000000
# 2 0.001753 0.025826 0.001723 0.000000 0.002266 0.000000
# 3 0.004187 0.001723 0.018905 0.000000 0.019319 0.000000
# 4 0.000000 0.000000 0.000000 0.046910 0.000000 -0.091806
# 5 0.018194 0.002266 0.019319 0.000000 0.081686 0.000000
# 6 0.000000 0.000000 0.000000 -0.091806 0.000000 -0.550678
#
#
# Mechanical properties :
#
#
# Convention : Reuss Voigt Hill
#
# Bulk Modulus (GPa) = 13.34708 20.97918 17.16313
# Shear Modulus (GPa) = -14.17096 21.03434 3.43169
#
# Velocity S-wave (km/s) = -2.51561 3.06485 1.23794
# Velocity P-wave (km/s) = 1.57396 4.67900 3.11574
#
# Compressibility (1/GPa) = 0.07492275
#
# Stress axis : x y z
#
# Youngs Moduli (GPa) = 67.26250 38.71995 52.89720
#
# Poissons Ratio (x) = -0.06786 -0.22146
# Poissons Ratio (y) = -0.11788 -0.09115
# Poissons Ratio (z) = -0.28160 -0.06672
#
# Static dielectric constant tensor:
#      x y z
#    x 1.815500 0.000000 -0.004500 
#    y 0.000000 1.832700 0.000000 
#    z -0.004500 0.000000 1.834510 
# 
# From -- ./inp_files/329641.got.cif
#   From: 2010.05.17/outbox.cif.g08.bks.cpg/sg12_165_cif.got.tgz:329641.got - 2010.06.03 13:09:07.
