data_PCOD9196459
_publ_section_title
;
Structure prediction by ZEFSAII (Michael W. Deem and Ramdas Pophale) SiO2 
 PCOD9196459
Probable space group: C 2/M
;
_chemical_formula_sum "Si O2"
_cell_formula_units_Z 64
_cell_length_a 22.730530
_cell_length_b 30.258085
_cell_length_c 7.367977
_cell_angle_alpha 90.000000
_cell_angle_beta 146.355293
_cell_angle_gamma 90.000000
_cell_volume 2807.639856
_symmetry_space_group_name_H-M "C 2/M"
_symmetry_group_IT_number 12
_symmetry_cell_setting 'monoclinic'
loop_
_space_group_symop_operation_xyz
x,y,z
-x,y,-z
-x,-y,-z
x,-y,z
1/2+x,1/2+y,z
1/2-x,1/2+y,-z
1/2-x,1/2-y,-z
1/2+x,1/2-y,z
loop_
_atom_site_type_symbol
_atom_site_label
_atom_site_fract_x
_atom_site_fract_y
_atom_site_fract_z
Si Si1 0.445140 0.670903 0.160577
Si Si2 0.214527 0.889321 0.658314
Si Si3 0.144137 0.208401 0.540641
Si Si4 0.584908 0.864706 0.588905
Si Si5 0.073536 0.450903 0.365855
Si Si6 0.505071 0.574785 0.216514
Si Si7 0.284806 0.550175 0.694616
Si Si8 0.770403 0.699925 0.248338
O O1 0.500000 0.664509 0.500000
O O2 0.518184 0.707931 0.255474
O O3 0.465004 0.625142 0.112101
O O4 0.321924 0.680700 0.863751
O O5 0.172654 0.838793 0.526070
O O6 0.228814 0.916353 0.509025
O O7 0.130087 0.917434 0.565138
O O8 0.320611 0.882183 0.042230
O O9 0.184516 0.253989 0.561433
O O10 0.205820 0.206856 0.892997
O O11 0.500000 0.840598 0.500000
O O12 0.534732 0.909029 0.378399
O O13 0.635522 0.833405 0.565177
O O14 0.070815 0.500000 0.444857
O O15 0.194793 0.441290 0.612953
O O16 0.000000 0.452968 0.000000
O O17 0.500000 0.555277 0.000000
O O18 0.408436 0.552805 0.077972
O O19 0.266074 0.500000 0.582514
#
# Coordination Sequence:
#
# PCOD9196459 Si02
#       8
#     8   8   8   8   8   8   8   8
#     4   9  16  29  50  71  97 137 176 212 256 311
#     4   9  19  34  53  80 110 139 177 221 266 316
#     4   8  16  29  47  75 106 140 174 210 262 318
#     4  11  22  35  56  83 107 136 180 233 273 303
#     4  10  22  40  58  76 105 146 183 215 269 337
#     4   9  18  32  52  75 106 140 171 208 260 323
#     4  10  20  35  57  81 106 141 180 219 266 320
#     4   9  17  29  49  77 105 133 174 221 262 310
#
# _framework density 22.794947000000001
#
# number of rings (size 3 to 8) (size 9 to 14) (size 15 to 20)
#    0.000    2.625    0.000    2.250    0.000    6.500 
#    0.000    0.000    0.000   19.875    0.000    0.000 
#    0.000    0.000    0.000    0.000    0.000    0.000 
#
# Total GULP energy -178427.197794 kJ/mol
# GULP energy per Si atom -5575.849931 kJ/mol
# Density = 2.274306 g / cm^3
# Si number density = 22.794947 Si / 1000 Ang^3
#
#
#
# Elastic Constant Matrix: (Units=GPa)
#
#
# Indices 1 2 3 4 5 6 
#
# 1 64.0050 32.8832 12.7655 0.0000 14.8860 0.0000
# 2 32.8832 104.8578 4.0881 0.0000 6.6556 0.0000
# 3 12.7655 4.0881 56.6378 0.0000 15.1386 0.0000
# 4 0.0000 0.0000 0.0000 21.7328 0.0000 3.7222
# 5 14.8860 6.6556 15.1386 0.0000 33.4823 0.0000
# 6 0.0000 0.0000 0.0000 3.7222 0.0000 21.5297
#
#
#
# Elastic Compliance Matrix: (Units=1/GPa)
#
#
# Indices 1 2 3 4 5 6 
#
# 1 0.020799 -0.005986 -0.002391 0.000000 -0.006976 0.000000
# 2 -0.005986 0.011384 0.000479 0.000000 0.000182 0.000000
# 3 -0.002391 0.000479 0.020363 0.000000 -0.008239 0.000000
# 4 0.000000 0.000000 0.000000 0.047417 0.000000 -0.008198
# 5 -0.006976 0.000182 -0.008239 0.000000 0.036657 0.000000
# 6 0.000000 0.000000 0.000000 -0.008198 0.000000 0.047865
#
#
# Mechanical properties :
#
#
# Convention : Reuss Voigt Hill
#
# Bulk Modulus (GPa) = 27.21251 36.10824 31.66038
# Shear Modulus (GPa) = 23.52603 27.06655 25.29629
#
# Velocity S-wave (km/s) = 3.21607 3.44959 3.33488
# Velocity P-wave (km/s) = 5.07491 5.63393 5.36171
#
# Compressibility (1/GPa) = 0.03674780
#
# Stress axis : x y z
#
# Youngs Moduli (GPa) = 48.07996 87.84398 49.10973
#
# Poissons Ratio (x) = 0.52587 0.11743
# Poissons Ratio (y) = 0.28783 -0.02352
# Poissons Ratio (z) = 0.11497 -0.04207
#
# Static dielectric constant tensor:
#      x y z
#    x 1.900490 0.000000 -0.012140 
#    y 0.000000 1.835560 0.000000 
#    z -0.012140 0.000000 1.919980 
# 
# From -- ./inp_files/100242.got.cif
#   From: 2010.05.17/outbox.cif.g08.bks.cpg/sg12_51_cif.got.tgz:100242.got - 2010.06.03 13:09:07.
