data_PCOD9196435
_publ_section_title
;
Structure prediction by ZEFSAII (Michael W. Deem and Ramdas Pophale) SiO2 
 PCOD9196435
Probable space group: C 2/M
;
_chemical_formula_sum "Si O2"
_cell_formula_units_Z 64
_cell_length_a 30.356133
_cell_length_b 21.722016
_cell_length_c 15.431430
_cell_angle_alpha 90.000000
_cell_angle_beta 18.432899
_cell_angle_gamma 90.000000
_cell_volume 3217.407978
_symmetry_space_group_name_H-M "C 2/M"
_symmetry_group_IT_number 12
_symmetry_cell_setting 'monoclinic'
loop_
_space_group_symop_operation_xyz
x,y,z
-x,y,-z
-x,-y,-z
x,-y,z
1/2+x,1/2+y,z
1/2-x,1/2+y,-z
1/2-x,1/2-y,-z
1/2+x,1/2-y,z
loop_
_atom_site_type_symbol
_atom_site_label
_atom_site_fract_x
_atom_site_fract_y
_atom_site_fract_z
Si Si1 0.197826 0.863152 0.390507
Si Si2 0.969303 0.572351 0.959826
Si Si3 0.063274 0.069564 0.066003
Si Si4 0.142012 0.246928 0.624005
Si Si5 0.785588 0.259007 0.093915
Si Si6 0.523247 0.826022 0.552398
Si Si7 0.131224 0.804342 0.891313
Si Si8 0.617235 0.069366 0.507022
O O1 0.336240 0.897629 0.162448
O O2 0.164824 0.816022 0.529676
O O3 0.227033 0.818872 0.254758
O O4 0.066055 0.909193 0.632869
O O5 0.939688 0.500000 0.027010
O O6 0.000000 0.597520 0.000000
O O7 0.089093 0.577105 0.662918
O O8 0.039769 0.000000 0.077149
O O9 0.081469 0.126568 0.965342
O O10 0.217047 0.070733 0.820941
O O11 0.250000 0.250000 0.500000
O O12 0.208543 0.296936 0.435648
O O13 0.977294 0.244906 0.947339
O O14 0.658700 0.217707 0.298643
O O15 0.868953 0.216327 0.007991
O O16 0.892903 0.284053 0.823616
O O17 0.500000 0.852274 0.500000
O O18 0.545136 0.878760 0.583729
O O19 0.566144 0.000000 0.581972
#
# Coordination Sequence:
#
# PCOD9196435 Si02
#       8
#     8   8   8   8   8   8   8   8
#     4  10  21  37  59  86 119 166 199 255 309 365
#     4  10  21  39  62  89 120 162 216 262 305 364
#     4  10  20  36  59  85 116 161 205 247 308 368
#     4  10  21  33  50  81 113 150 200 246 295 360
#     4  11  22  40  61  93 127 159 205 250 315 376
#     4  12  24  41  67  95 128 163 203 260 319 383
#     4  10  20  35  57  78 112 157 189 246 303 352
#     4  10  22  41  65  90 123 166 210 261 313 369
#
# _framework density 19.891788999999999
#
# number of rings (size 3 to 8) (size 9 to 14) (size 15 to 20)
#    0.000    1.625    2.500    3.375    0.000    3.250 
#    0.000    1.875    0.000   12.000    0.000    1.750 
#    0.000    0.000    0.000    0.000    0.000    0.000 
#
# Total GULP energy -178323.964740 kJ/mol
# GULP energy per Si atom -5572.623898 kJ/mol
# Density = 1.984651 g / cm^3
# Si number density = 19.891789 Si / 1000 Ang^3
#
#
#
# Elastic Constant Matrix: (Units=GPa)
#
#
# Indices 1 2 3 4 5 6 
#
# 1 81.4679 16.9359 18.8105 0.0002 6.5227 -0.0007
# 2 16.9359 107.4625 39.6512 -0.0011 -4.9624 -0.0008
# 3 18.8105 39.6512 90.8825 -0.0006 -15.3461 -0.0007
# 4 0.0002 -0.0011 -0.0006 21.3899 -0.0007 -6.2904
# 5 6.5227 -4.9624 -15.3461 -0.0007 19.0062 0.0006
# 6 -0.0007 -0.0008 -0.0007 -6.2904 0.0006 14.0199
#
#
#
# Elastic Compliance Matrix: (Units=1/GPa)
#
#
# Indices 1 2 3 4 5 6 
#
# 1 0.014048 -0.001203 -0.003763 0.000000 -0.008174 0.000001
# 2 -0.001203 0.011217 -0.004725 0.000001 -0.000473 0.000001
# 3 -0.003763 -0.004725 0.016040 0.000001 0.013009 0.000000
# 4 0.000000 0.000001 0.000001 0.053857 0.000002 0.024165
# 5 -0.008174 -0.000473 0.013009 0.000002 0.065800 -0.000002
# 6 0.000001 0.000001 0.000000 0.024165 -0.000002 0.082169
#
#
# Mechanical properties :
#
#
# Convention : Reuss Voigt Hill
#
# Bulk Modulus (GPa) = 45.61287 47.84534 46.72910
# Shear Modulus (GPa) = 18.53087 24.51090 21.52088
#
# Velocity S-wave (km/s) = 3.05550 3.51410 3.29279
# Velocity P-wave (km/s) = 5.95217 6.36947 6.16436
#
# Compressibility (1/GPa) = 0.02192364
#
# Stress axis : x y z
#
# Youngs Moduli (GPa) = 71.18402 89.15379 62.34408
#
# Poissons Ratio (x) = 0.10725 0.23460
# Poissons Ratio (y) = 0.08563 0.29455
# Poissons Ratio (z) = 0.26786 0.42122
#
# Static dielectric constant tensor:
#      x y z
#    x 1.682560 0.000000 -0.020290 
#    y 0.000000 1.755540 0.000000 
#    z -0.020290 0.000000 1.773380 
# 
# From -- ./inp_files/251926.got.cif
#   From: 2010.05.17/outbox.cif.g08.bks.cpg/sg12_126_cif.got.tgz:251926.got - 2010.06.03 13:09:07.
