data_PCOD9196347
_publ_section_title
;
Structure prediction by ZEFSAII (Michael W. Deem and Ramdas Pophale) SiO2 
 PCOD9196347
Probable space group: C 2/M
;
_chemical_formula_sum "Si O2"
_cell_formula_units_Z 48
_cell_length_a 31.389647
_cell_length_b 15.806070
_cell_length_c 9.170041
_cell_angle_alpha 90.000000
_cell_angle_beta 151.211992
_cell_angle_gamma 90.000000
_cell_volume 2190.994373
_symmetry_space_group_name_H-M "C 2/M"
_symmetry_group_IT_number 12
_symmetry_cell_setting 'monoclinic'
loop_
_space_group_symop_operation_xyz
x,y,z
-x,y,-z
-x,-y,-z
x,-y,z
1/2+x,1/2+y,z
1/2-x,1/2+y,-z
1/2-x,1/2-y,-z
1/2+x,1/2-y,z
loop_
_atom_site_type_symbol
_atom_site_label
_atom_site_fract_x
_atom_site_fract_y
_atom_site_fract_z
Si Si1 0.167581 0.903310 0.840025
Si Si2 0.810282 0.675308 0.755871
Si Si3 0.500000 0.100570 0.323101
Si Si4 0.189718 0.324692 0.894180
Si Si5 0.667581 0.596690 0.165463
Si Si6 0.500000 0.604292 0.833420
O O1 0.085501 0.863301 0.509122
O O2 0.141061 0.000000 0.778850
O O3 0.252980 0.901777 0.995943
O O4 0.181228 0.868226 0.043683
O O5 0.750000 0.750000 0.500000
O O6 0.752980 0.598223 0.521939
O O7 0.911252 0.653093 0.015306
O O8 0.806016 0.680955 0.918048
O O9 0.500000 0.097393 0.500000
O O10 0.588748 0.153093 0.547793
O O11 0.500000 0.000000 0.275557
O O12 0.250000 0.250000 0.000000
O O13 0.641061 0.500000 0.067519
O O14 0.585501 0.636699 0.003882
O O15 0.500000 0.500000 0.838734
O O16 0.500000 0.632453 0.000000
#
# Coordination Sequence:
#
# PCOD9196347 Si02
#       6
#     8   8   8   8   8   8
#     4  10  20  35  56  84 119 158 202 257 323 391
#     4  11  23  40  62  89 123 162 210 268 328 391
#     4   9  20  41  69  96 122 164 222 275 321 377
#     4  11  23  40  62  89 123 162 210 268 328 391
#     4  10  20  35  56  84 119 158 202 257 323 391
#     4   9  17  30  51  80 111 146 190 237 288 352
#
# _framework density 21.907861
#
# number of rings (size 3 to 8) (size 9 to 14) (size 15 to 20)
#    0.000    2.000    0.000    3.500    0.000    6.667 
#    0.000    8.333    0.000    6.000    0.000    0.000 
#    0.000    0.000    0.000    0.000    0.000    0.000 
#
# Total GULP energy -133613.251148 kJ/mol
# GULP energy per Si atom -5567.218798 kJ/mol
# Density = 2.185800 g / cm^3
# Si number density = 21.907861 Si / 1000 Ang^3
#
#
#
# Elastic Constant Matrix: (Units=GPa)
#
#
# Indices 1 2 3 4 5 6 
#
# 1 107.5411 36.3580 98.2576 0.0000 7.9893 0.0000
# 2 36.3580 93.7099 39.4835 0.0000 2.3245 0.0000
# 3 98.2576 39.4835 175.2071 0.0000 42.3347 0.0000
# 4 0.0000 0.0000 0.0000 4879.4922 0.0000 2586.4686
# 5 7.9893 2.3245 42.3347 0.0000 35.5561 0.0000
# 6 0.0000 0.0000 0.0000 2586.4686 0.0000 1401.7092
#
#
#
# Elastic Compliance Matrix: (Units=1/GPa)
#
#
# Indices 1 2 3 4 5 6 
#
# 1 0.024098 -0.002833 -0.016303 0.000000 0.014181 0.000000
# 2 -0.002833 0.012417 -0.001639 0.000000 0.001776 0.000000
# 3 -0.016303 -0.001639 0.020088 0.000000 -0.020147 0.000000
# 4 0.000000 0.000000 0.000000 0.009357 0.000000 -0.017265
# 5 0.014181 0.001776 -0.020147 0.000000 0.048810 0.000000
# 6 0.000000 0.000000 0.000000 -0.017265 0.000000 0.032571
#
#
# Mechanical properties :
#
#
# Convention : Reuss Voigt Hill
#
# Bulk Modulus (GPa) = 66.42554 80.51737 73.47146
# Shear Modulus (GPa) = 25.78563 1276.84210 651.31386
#
# Velocity S-wave (km/s) = 3.43447 24.16793 17.26100
# Velocity P-wave (km/s) = 6.79071 28.55902 20.75731
#
# Compressibility (1/GPa) = 0.01505445
#
# Stress axis : x y z
#
# Youngs Moduli (GPa) = 41.49669 80.53729 49.78205
#
# Poissons Ratio (x) = 0.22813 0.81158
# Poissons Ratio (y) = 0.11754 0.08158
# Poissons Ratio (z) = 0.67651 0.13198
#
# Static dielectric constant tensor:
#      x y z
#    x 1.798390 0.000000 0.009200 
#    y 0.000000 2.076570 0.000000 
#    z 0.009200 0.000000 1.810760 
# 
# From -- ./inp_files/112947.got.cif
#   From: 2010.05.17/outbox.cif.g08.bks.cpg/sg12_57_cif.got.tgz:112947.got - 2010.06.03 13:09:07.
