data_PCOD9196709
_publ_section_title
;
Structure prediction by ZEFSAII (Michael W. Deem and Ramdas Pophale) SiO2 
 PCOD9196709
Probable space group: C 2/M
;
_chemical_formula_sum "Si O2"
_cell_formula_units_Z 56
_cell_length_a 15.117326
_cell_length_b 19.588263
_cell_length_c 11.294830
_cell_angle_alpha 90.000000
_cell_angle_beta 135.110412
_cell_angle_gamma 90.000000
_cell_volume 2360.462376
_symmetry_space_group_name_H-M "C 2/M"
_symmetry_group_IT_number 12
_symmetry_cell_setting 'monoclinic'
loop_
_space_group_symop_operation_xyz
x,y,z
-x,y,-z
-x,-y,-z
x,-y,z
1/2+x,1/2+y,z
1/2-x,1/2+y,-z
1/2-x,1/2-y,-z
1/2+x,1/2-y,z
loop_
_atom_site_type_symbol
_atom_site_label
_atom_site_fract_x
_atom_site_fract_y
_atom_site_fract_z
Si Si1 0.930617 0.076053 0.069854
Si Si2 0.558022 0.300860 0.279958
Si Si3 0.777244 0.074798 0.165491
Si Si4 0.872916 0.784253 0.303241
Si Si5 0.297700 0.142397 0.274485
Si Si6 0.959489 0.422221 0.227884
Si Si7 0.187588 0.657074 0.426056
O O1 0.878068 0.073896 0.153961
O O2 0.021356 0.141539 0.150727
O O3 0.983443 0.000000 0.101079
O O4 0.811124 0.092129 0.873984
O O5 0.429919 0.283740 0.225416
O O6 0.665197 0.338865 0.459407
O O7 0.625550 0.228363 0.323562
O O8 0.810347 0.142841 0.266870
O O9 0.780810 0.000000 0.227845
O O10 0.646145 0.083607 0.972950
O O11 0.777475 0.722208 0.226123
O O12 0.000000 0.772589 0.500000
O O13 0.413823 0.121444 0.298644
O O14 0.315104 0.145395 0.432361
O O15 0.964892 0.500000 0.273834
O O16 0.091235 0.400416 0.296130
#
# Coordination Sequence:
#
# PCOD9196709 Si02
#       7
#     8   8   8   8   8   8   8
#     4   9  20  37  58  82 113 150 188 234 285 341
#     4  10  22  38  55  78 116 152 189 230 277 343
#     4   8  18  33  53  83 111 138 185 233 276 330
#     4  11  19  34  59  83 107 143 189 237 282 328
#     4  11  20  34  57  86 112 140 186 240 280 334
#     4  10  20  35  57  85 115 150 186 228 283 342
#     4  11  22  36  54  82 118 151 185 227 283 341
#
# _framework density 23.724164999999999
#
# number of rings (size 3 to 8) (size 9 to 14) (size 15 to 20)
#    0.000    2.000    2.857    1.714    2.000    4.857 
#    0.000    0.714    0.000    0.857    0.000    2.000 
#    0.000    0.000    0.000    0.000    0.000    0.000 
#
# Total GULP energy -156140.319830 kJ/mol
# GULP energy per Si atom -5576.439994 kJ/mol
# Density = 2.367017 g / cm^3
# Si number density = 23.724165 Si / 1000 Ang^3
#
#
#
# Elastic Constant Matrix: (Units=GPa)
#
#
# Indices 1 2 3 4 5 6 
#
# 1 20.2943 -2.0496 3.3524 0.0000 -4.1421 0.0000
# 2 -2.0496 143.4698 45.9725 0.0000 -9.8139 0.0000
# 3 3.3524 45.9725 49.2475 0.0000 5.4134 0.0000
# 4 0.0000 0.0000 0.0000 -28.7553 0.0000 -6.2460
# 5 -4.1421 -9.8139 5.4134 0.0000 21.3498 0.0000
# 6 0.0000 0.0000 0.0000 -6.2460 0.0000 -11.1172
#
#
#
# Elastic Compliance Matrix: (Units=1/GPa)
#
#
# Indices 1 2 3 4 5 6 
#
# 1 0.054648 0.005112 -0.010200 0.000000 0.015538 0.000000
# 2 0.005112 0.011601 -0.012213 0.000000 0.009421 0.000000
# 3 -0.010200 -0.012213 0.034189 0.000000 -0.016262 0.000000
# 4 0.000000 0.000000 0.000000 -0.039610 0.000000 0.022254
# 5 0.015538 0.009421 -0.016262 0.000000 0.058307 0.000000
# 6 0.000000 0.000000 0.000000 0.022254 0.000000 -0.102454
#
#
# Mechanical properties :
#
#
# Convention : Reuss Voigt Hill
#
# Bulk Modulus (GPa) = 15.18958 34.17359 24.68158
# Shear Modulus (GPa) = 68.27999 7.34455 37.81227
#
# Velocity S-wave (km/s) = 5.37059 1.76140 3.99661
# Velocity P-wave (km/s) = 6.69882 4.30959 5.63235
#
# Compressibility (1/GPa) = 0.06583460
#
# Stress axis : x y z
#
# Youngs Moduli (GPa) = 18.29908 86.19867 29.24960
#
# Poissons Ratio (x) = -0.44065 0.29835
# Poissons Ratio (y) = -0.09355 0.35723
# Poissons Ratio (z) = 0.18665 1.05276
#
# Static dielectric constant tensor:
#      x y z
#    x 2.010530 0.000000 -0.019720 
#    y 0.000000 1.911590 0.000000 
#    z -0.019720 0.000000 1.904690 
# 
# From -- ./inp_files/226606.got.cif
#   From: 2010.05.17/outbox.cif.g08.bks.cpg/sg12_114_cif.got.tgz:226606.got - 2010.06.03 13:09:07.
