data_PCOD9196823
_publ_section_title
;
Structure prediction by ZEFSAII (Michael W. Deem and Ramdas Pophale) SiO2 
 PCOD9196823
Probable space group: C 2/M
;
_chemical_formula_sum "Si O2"
_cell_formula_units_Z 56
_cell_length_a 12.473200
_cell_length_b 18.695643
_cell_length_c 14.070418
_cell_angle_alpha 90.000000
_cell_angle_beta 125.358222
_cell_angle_gamma 90.000000
_cell_volume 2675.936898
_symmetry_space_group_name_H-M "C 2/M"
_symmetry_group_IT_number 12
_symmetry_cell_setting 'monoclinic'
loop_
_space_group_symop_operation_xyz
x,y,z
-x,y,-z
-x,-y,-z
x,-y,z
1/2+x,1/2+y,z
1/2-x,1/2+y,-z
1/2-x,1/2-y,-z
1/2+x,1/2-y,z
loop_
_atom_site_type_symbol
_atom_site_label
_atom_site_fract_x
_atom_site_fract_y
_atom_site_fract_z
Si Si1 0.056598 0.918984 0.325925
Si Si2 0.794924 0.154220 0.221785
Si Si3 0.436706 0.824046 0.756206
Si Si4 0.613604 0.918318 0.979459
Si Si5 0.770334 0.797647 0.601201
Si Si6 0.892552 0.083055 0.870127
Si Si7 0.642429 0.815760 0.721200
O O1 0.187129 0.874741 0.412248
O O2 0.048677 0.916174 0.206402
O O3 0.935326 0.880020 0.312679
O O4 0.063290 0.000000 0.359450
O O5 0.693077 0.145147 0.257786
O O6 0.817072 0.238534 0.214069
O O7 0.736146 0.113243 0.100296
O O8 0.555747 0.857050 0.880287
O O9 0.390823 0.740924 0.722194
O O10 0.500033 0.839191 0.685660
O O11 0.636174 0.000000 0.953252
O O12 0.500000 0.925347 0.000000
O O13 0.750000 0.750000 0.500000
O O14 0.652221 0.802200 0.613994
O O15 0.758004 0.127816 0.802913
O O16 0.864904 0.000000 0.879531
O O17 0.000000 0.110774 0.000000
#
# Coordination Sequence:
#
# PCOD9196823 Si02
#       7
#     8   8   8   8   8   8   8
#     4  10  20  38  63  90 122 159 204 253 303 361
#     4  10  20  35  57  87 126 161 201 239 296 366
#     4  10  21  37  55  88 121 157 202 250 298 358
#     4   9  19  34  53  81 124 171 200 231 291 363
#     4  10  22  42  64  87 117 157 207 258 317 369
#     4   9  20  36  56  87 124 163 204 247 301 365
#     4  10  21  36  59  87 121 156 201 259 309 364
#
# _framework density 20.927250999999998
#
# number of rings (size 3 to 8) (size 9 to 14) (size 15 to 20)
#    0.000    2.286    1.429    0.429    2.000    6.286 
#    0.000    0.714    0.000    5.143    0.000    5.000 
#    0.000    0.000    0.000    0.000    0.000    0.000 
#
# Total GULP energy -155916.212481 kJ/mol
# GULP energy per Si atom -5568.436160 kJ/mol
# Density = 2.087962 g / cm^3
# Si number density = 20.927251 Si / 1000 Ang^3
#
#
#
# Elastic Constant Matrix: (Units=GPa)
#
#
# Indices 1 2 3 4 5 6 
#
# 1 135.6809 19.0406 12.0802 0.0000 -7.5784 0.0000
# 2 19.0406 109.0179 20.3400 0.0000 3.9273 0.0000
# 3 12.0802 20.3400 36.9956 0.0000 -5.7508 0.0000
# 4 0.0000 0.0000 0.0000 19.4741 0.0000 -5.3840
# 5 -7.5784 3.9273 -5.7508 0.0000 17.1951 0.0000
# 6 0.0000 0.0000 0.0000 -5.3840 0.0000 15.0975
#
#
#
# Elastic Compliance Matrix: (Units=1/GPa)
#
#
# Indices 1 2 3 4 5 6 
#
# 1 0.007849 -0.001232 -0.001375 0.000000 0.003281 0.000000
# 2 -0.001232 0.010747 -0.006300 0.000000 -0.005105 0.000000
# 3 -0.001375 -0.006300 0.032776 0.000000 0.011795 0.000000
# 4 0.000000 0.000000 0.000000 0.056967 0.000000 0.020315
# 5 0.003281 -0.005105 0.011795 0.000000 0.064713 0.000000
# 6 0.000000 0.000000 0.000000 0.020315 0.000000 0.073481
#
#
# Mechanical properties :
#
#
# Convention : Reuss Voigt Hill
#
# Bulk Modulus (GPa) = 29.79982 42.73510 36.26746
# Shear Modulus (GPa) = 18.14660 25.70226 21.92443
#
# Velocity S-wave (km/s) = 2.94790 3.50833 3.24025
# Velocity P-wave (km/s) = 5.08502 6.07259 5.60061
#
# Compressibility (1/GPa) = 0.03355725
#
# Stress axis : x y z
#
# Youngs Moduli (GPa) = 127.40666 93.04615 30.50979
#
# Poissons Ratio (x) = 0.11467 0.04196
# Poissons Ratio (y) = 0.15702 0.19221
# Poissons Ratio (z) = 0.17523 0.58618
#
# Static dielectric constant tensor:
#      x y z
#    x 1.746370 0.000000 -0.008810 
#    y 0.000000 1.754890 0.000000 
#    z -0.008810 0.000000 1.798110 
# 
# From -- ./inp_files/206744.got.cif
#   From: 2010.05.17/outbox.cif.g08.bks.cpg/sg12_104_cif.got.tgz:206744.got - 2010.06.03 13:09:07.
