data_PCOD9196898
_publ_section_title
;
Structure prediction by ZEFSAII (Michael W. Deem and Ramdas Pophale) SiO2 
 PCOD9196898
Probable space group: C 2/M
;
_chemical_formula_sum "Si O2"
_cell_formula_units_Z 56
_cell_length_a 8.177916
_cell_length_b 25.101037
_cell_length_c 14.535954
_cell_angle_alpha 90.000000
_cell_angle_beta 67.465409
_cell_angle_gamma 90.000000
_cell_volume 2756.033534
_symmetry_space_group_name_H-M "C 2/M"
_symmetry_group_IT_number 12
_symmetry_cell_setting 'monoclinic'
loop_
_space_group_symop_operation_xyz
x,y,z
-x,y,-z
-x,-y,-z
x,-y,z
1/2+x,1/2+y,z
1/2-x,1/2+y,-z
1/2-x,1/2-y,-z
1/2+x,1/2-y,z
loop_
_atom_site_type_symbol
_atom_site_label
_atom_site_fract_x
_atom_site_fract_y
_atom_site_fract_z
Si Si1 0.247659 0.810307 0.881368
Si Si2 0.766402 0.060977 0.379546
Si Si3 0.148072 0.825749 0.707095
Si Si4 0.358188 0.153334 0.251661
Si Si5 0.402304 0.736527 0.618304
Si Si6 0.862923 0.560056 0.390670
Si Si7 0.289614 0.186451 0.070721
O O1 0.120619 0.818949 0.821939
O O2 0.435606 0.835036 0.811556
O O3 0.264045 0.746734 0.891696
O O4 0.202949 0.831004 0.993051
O O5 0.860764 0.112405 0.317210
O O6 0.567669 0.062355 0.379870
O O7 0.749053 0.070472 0.492781
O O8 0.832610 0.000000 0.350772
O O9 0.339464 0.797310 0.646948
O O10 0.023343 0.790971 0.669100
O O11 0.272540 0.200255 0.331167
O O12 0.331681 0.100617 0.315851
O O13 0.272981 0.153017 0.167746
O O14 0.500000 0.731696 0.500000
O O15 0.825281 0.500000 0.368872
O O16 0.500000 0.189144 0.000000
#
# Coordination Sequence:
#
# PCOD9196898 Si02
#       7
#     8   8   8   8   8   8   8
#     4  10  20  35  58  83 111 152 192 240 291 352
#     4   9  19  35  57  82 112 158 209 244 279 340
#     4  12  23  37  58  82 121 158 197 242 294 353
#     4  11  20  38  58  82 121 152 194 243 292 352
#     4  12  27  37  53  88 124 164 190 235 301 359
#     4   9  18  33  58  84 110 153 202 246 287 341
#     4   9  20  34  57  83 115 151 189 240 295 356
#
# _framework density 20.319057000000001
#
# number of rings (size 3 to 8) (size 9 to 14) (size 15 to 20)
#    0.000    1.714    2.857    3.000    4.000    0.000 
#    0.000    0.714    0.000    7.286    0.000    0.000 
#    0.000    4.571    0.000    0.000    0.000    0.000 
#
# Total GULP energy -156369.698874 kJ/mol
# GULP energy per Si atom -5584.632103 kJ/mol
# Density = 2.027281 g / cm^3
# Si number density = 20.319057 Si / 1000 Ang^3
#
#
#
# Elastic Constant Matrix: (Units=GPa)
#
#
# Indices 1 2 3 4 5 6 
#
# 1 50.6160 28.9221 36.0577 0.0000 17.2829 0.0000
# 2 28.9221 131.5727 81.8063 0.0000 18.7845 0.0000
# 3 36.0577 81.8063 164.8267 0.0000 20.6041 0.0000
# 4 0.0000 0.0000 0.0000 28.4013 0.0000 8.7517
# 5 17.2829 18.7845 20.6041 0.0000 32.8632 0.0000
# 6 0.0000 0.0000 0.0000 8.7517 0.0000 21.0459
#
#
#
# Elastic Compliance Matrix: (Units=1/GPa)
#
#
# Indices 1 2 3 4 5 6 
#
# 1 0.027235 -0.002281 -0.003470 0.000000 -0.010843 0.000000
# 2 -0.002281 0.011484 -0.004915 0.000000 -0.002283 0.000000
# 3 -0.003470 -0.004915 0.009425 0.000000 -0.001275 0.000000
# 4 0.000000 0.000000 0.000000 0.040385 0.000000 -0.016793
# 5 -0.010843 -0.002283 -0.001275 0.000000 0.038236 0.000000
# 6 0.000000 0.000000 0.000000 -0.016793 0.000000 0.054499
#
#
# Mechanical properties :
#
#
# Convention : Reuss Voigt Hill
#
# Bulk Modulus (GPa) = 37.29900 71.17639 54.23769
# Shear Modulus (GPa) = 23.63709 29.81068 26.72388
#
# Velocity S-wave (km/s) = 3.41441 3.83447 3.63052
# Velocity P-wave (km/s) = 5.82587 7.39659 6.65772
#
# Compressibility (1/GPa) = 0.02681037
#
# Stress axis : x y z
#
# Youngs Moduli (GPa) = 36.71805 87.07960 106.10068
#
# Poissons Ratio (x) = 0.19861 0.36821
# Poissons Ratio (y) = 0.08375 0.52151
# Poissons Ratio (z) = 0.12743 0.42802
#
# Static dielectric constant tensor:
#      x y z
#    x 1.881410 0.000000 -0.009380 
#    y 0.000000 1.680860 0.000000 
#    z -0.009380 0.000000 1.730550 
# 
# From -- ./inp_files/198359.got.cif
#   From: 2010.05.17/outbox.cif.g08.bks.cpg/sg12_100_cif.got.tgz:198359.got - 2010.06.03 13:09:07.
