data_PCOD9196387
_publ_section_title
;
Structure prediction by ZEFSAII (Michael W. Deem and Ramdas Pophale) SiO2 
 PCOD9196387
Probable space group: C 2/M
;
_chemical_formula_sum "Si O2"
_cell_formula_units_Z 60
_cell_length_a 8.031338
_cell_length_b 27.247848
_cell_length_c 19.654332
_cell_angle_alpha 90.000000
_cell_angle_beta 139.191050
_cell_angle_gamma 90.000000
_cell_volume 2810.928540
_symmetry_space_group_name_H-M "C 2/M"
_symmetry_group_IT_number 12
_symmetry_cell_setting 'monoclinic'
loop_
_space_group_symop_operation_xyz
x,y,z
-x,y,-z
-x,-y,-z
x,-y,z
1/2+x,1/2+y,z
1/2-x,1/2+y,-z
1/2-x,1/2-y,-z
1/2+x,1/2-y,z
loop_
_atom_site_type_symbol
_atom_site_label
_atom_site_fract_x
_atom_site_fract_y
_atom_site_fract_z
Si Si1 0.114474 0.631422 0.111465
Si Si2 0.546497 0.948245 0.322867
Si Si3 0.912537 0.057573 0.712366
Si Si4 0.247494 0.914605 0.109562
Si Si5 0.236420 0.681386 0.806705
Si Si6 0.778358 0.651397 0.571885
Si Si7 0.046130 0.732062 0.882270
Si Si8 0.500000 0.115641 0.500000
O O1 0.361328 0.596093 0.199041
O O2 0.902470 0.609445 0.096347
O O3 0.130084 0.688374 0.141251
O O4 0.000000 0.630336 0.000000
O O5 0.288177 0.944610 0.287482
O O6 0.448764 0.944836 0.215617
O O7 0.721535 0.903892 0.398612
O O8 0.670680 0.000000 0.375260
O O9 0.735275 0.081558 0.598531
O O10 0.989644 0.000000 0.723059
O O11 0.163688 0.871178 0.136428
O O12 0.000000 0.938917 0.000000
O O13 0.182326 0.709297 0.859750
O O14 0.413341 0.717486 0.819904
O O15 0.984773 0.675581 0.684849
O O16 0.500000 0.672892 0.500000
O O17 0.887721 0.646939 0.528926
O O18 0.250000 0.750000 0.000000
#
# Coordination Sequence:
#
# PCOD9196387 Si02
#       8
#     8   8   8   8   8   8   8   4
#     4  11  23  37  62  94 127 169 214 266 333 395
#     4   9  20  38  59  88 119 162 212 263 326 384
#     4  10  22  41  63  93 129 164 218 276 327 396
#     4  10  20  35  56  85 124 164 206 255 320 390
#     4  10  22  39  61  92 126 160 212 272 319 390
#     4  10  23  43  65  92 129 166 220 279 329 393
#     4  11  22  39  66  96 127 167 214 262 323 399
#     4  10  23  40  72  94 126 182 228 274 341 380
#
# _framework density 21.345258999999999
#
# number of rings (size 3 to 8) (size 9 to 14) (size 15 to 20)
#    0.000    1.867    0.000    3.800    5.600    7.200 
#    0.000    0.667    1.467    0.000    0.000    0.000 
#    0.000    0.000    0.000    0.000    0.000    0.000 
#
# Total GULP energy -167340.811468 kJ/mol
# GULP energy per Si atom -5578.027049 kJ/mol
# Density = 2.129668 g / cm^3
# Si number density = 21.345259 Si / 1000 Ang^3
#
#
#
# Elastic Constant Matrix: (Units=GPa)
#
#
# Indices 1 2 3 4 5 6 
#
# 1 45.7560 -2.2169 21.1086 0.0000 -11.8406 -0.0001
# 2 -2.2169 48.3314 -10.7002 -0.0001 9.6422 0.0000
# 3 21.1086 -10.7002 83.9024 0.0000 5.3467 -0.0001
# 4 0.0000 -0.0001 0.0000 37.0278 0.0001 25.4355
# 5 -11.8406 9.6422 5.3467 0.0001 39.2900 0.0000
# 6 -0.0001 0.0000 -0.0001 25.4355 0.0000 35.8192
#
#
#
# Elastic Compliance Matrix: (Units=1/GPa)
#
#
# Indices 1 2 3 4 5 6 
#
# 1 0.028070 -0.002520 -0.008031 0.000000 0.010171 0.000000
# 2 -0.002520 0.022835 0.003986 0.000000 -0.006906 0.000000
# 3 -0.008031 0.003986 0.014792 0.000000 -0.005412 0.000000
# 4 0.000000 0.000000 0.000000 0.052726 0.000000 -0.037441
# 5 0.010171 -0.006906 -0.005412 0.000000 0.030948 0.000000
# 6 0.000000 0.000000 0.000000 -0.037441 0.000000 0.054505
#
#
# Mechanical properties :
#
#
# Convention : Reuss Voigt Hill
#
# Bulk Modulus (GPa) = 19.02304 21.59696 20.31000
# Shear Modulus (GPa) = 21.31927 33.74730 27.53328
#
# Velocity S-wave (km/s) = 3.16378 3.98052 3.59542
# Velocity P-wave (km/s) = 4.71990 5.59159 5.17414
#
# Compressibility (1/GPa) = 0.05256784
#
# Stress axis : x y z
#
# Youngs Moduli (GPa) = 35.62518 43.79220 67.60217
#
# Poissons Ratio (x) = 0.11034 0.54294
# Poissons Ratio (y) = 0.08976 -0.26947
# Poissons Ratio (z) = 0.28612 -0.17456
#
# Static dielectric constant tensor:
#      x y z
#    x 1.815810 0.000000 0.038340 
#    y 0.000000 1.829190 0.000000 
#    z 0.038340 0.000000 1.811150 
# 
# From -- ./inp_files/302764.got.cif
#   From: 2010.05.17/outbox.cif.g08.bks.cpg/sg12_152_cif.got.tgz:302764.got - 2010.06.03 13:09:07.
