data_PCOD9196524
_publ_section_title
;
Structure prediction by ZEFSAII (Michael W. Deem and Ramdas Pophale) SiO2 
 PCOD9196524
Probable space group: C 2/M
;
_chemical_formula_sum "Si O2"
_cell_formula_units_Z 64
_cell_length_a 20.253661
_cell_length_b 8.020619
_cell_length_c 20.674951
_cell_angle_alpha 90.000000
_cell_angle_beta 123.209725
_cell_angle_gamma 90.000000
_cell_volume 2810.029092
_symmetry_space_group_name_H-M "C 2/M"
_symmetry_group_IT_number 12
_symmetry_cell_setting 'monoclinic'
loop_
_space_group_symop_operation_xyz
x,y,z
-x,y,-z
-x,-y,-z
x,-y,z
1/2+x,1/2+y,z
1/2-x,1/2+y,-z
1/2-x,1/2-y,-z
1/2+x,1/2-y,z
loop_
_atom_site_type_symbol
_atom_site_label
_atom_site_fract_x
_atom_site_fract_y
_atom_site_fract_z
Si Si1 0.171423 0.301797 0.132059
Si Si2 0.664413 0.300677 0.982006
Si Si3 0.847970 0.800661 0.253583
Si Si4 0.124092 0.804375 0.239001
Si Si5 0.374250 0.804301 0.557745
Si Si6 0.530472 0.201716 0.586125
Si Si7 0.543845 0.704181 0.806022
Si Si8 0.246889 0.303388 0.399777
O O1 0.170407 0.500000 0.141244
O O2 0.151809 0.265364 0.047429
O O3 0.260533 0.236200 0.192815
O O4 0.117437 0.224139 0.158811
O O5 0.662610 0.500000 0.983356
O O6 0.750000 0.250000 0.000000
O O7 0.596690 0.245585 0.895923
O O8 0.885822 0.760648 0.342999
O O9 0.908917 0.737133 0.231763
O O10 0.844021 0.000000 0.244628
O O11 0.204240 0.722642 0.308885
O O12 0.046006 0.737713 0.233115
O O13 0.130674 0.000000 0.255322
O O14 0.461554 0.734335 0.597443
O O15 0.327509 0.783275 0.464861
O O16 0.318241 0.734453 0.583570
O O17 0.381694 0.000000 0.575241
O O18 0.500000 0.257415 0.500000
O O19 0.530823 0.000000 0.586280
O O20 0.541594 0.500000 0.803458
O O21 0.259268 0.500000 0.416596
#
# Coordination Sequence:
#
# PCOD9196524 Si02
#       8
#     8   8   8   8   8   8   8   8
#     4  11  24  42  62  91 129 162 201 253 305 362
#     4  11  21  40  67  95 126 162 205 248 301 361
#     4  10  21  40  63  86 117 159 204 248 298 362
#     4  11  23  39  61  88 120 160 203 248 305 364
#     4   9  19  36  55  79 112 153 196 243 299 359
#     4  10  22  37  54  82 118 152 193 249 300 348
#     4   9  20  40  65  91 121 159 202 249 298 359
#     4  10  20  35  57  82 113 151 197 247 298 357
#
# _framework density 22.775562999999998
#
# number of rings (size 3 to 8) (size 9 to 14) (size 15 to 20)
#    0.000    1.875    1.250    2.250    1.750    2.750 
#    0.000    5.625    0.000    0.000    0.000    0.000 
#    0.000    0.000    0.000    0.000    0.000    0.000 
#
# Total GULP energy -178881.489080 kJ/mol
# GULP energy per Si atom -5590.046534 kJ/mol
# Density = 2.272373 g / cm^3
# Si number density = 22.775563 Si / 1000 Ang^3
#
#
#
# Elastic Constant Matrix: (Units=GPa)
#
#
# Indices 1 2 3 4 5 6 
#
# 1 58.6031 -0.1734 -0.3541 0.0000 -0.1455 0.0000
# 2 -0.1734 22.9703 -12.6944 0.0000 2.0799 0.0000
# 3 -0.3541 -12.6944 97.9141 0.0000 1.5894 0.0000
# 4 0.0000 0.0000 0.0000 31.0526 0.0000 -3.9641
# 5 -0.1455 2.0799 1.5894 0.0000 38.5051 0.0000
# 6 0.0000 0.0000 0.0000 -3.9641 0.0000 14.1537
#
#
#
# Elastic Compliance Matrix: (Units=1/GPa)
#
#
# Indices 1 2 3 4 5 6 
#
# 1 0.017065 0.000170 0.000083 0.000000 0.000052 0.000000
# 2 0.000170 0.047197 0.006165 0.000000 -0.002803 0.000000
# 3 0.000083 0.006165 0.011025 0.000000 -0.000788 0.000000
# 4 0.000000 0.000000 0.000000 0.033398 0.000000 0.009354
# 5 0.000052 -0.002803 -0.000788 0.000000 0.026155 0.000000
# 6 0.000000 0.000000 0.000000 0.009354 0.000000 0.073273
#
#
# Mechanical properties :
#
#
# Convention : Reuss Voigt Hill
#
# Bulk Modulus (GPa) = 11.34775 17.00484 14.17629
# Shear Modulus (GPa) = 22.25679 29.58960 25.92320
#
# Velocity S-wave (km/s) = 3.12945 3.60833 3.37739
# Velocity P-wave (km/s) = 4.24867 4.98423 4.63107
#
# Compressibility (1/GPa) = 0.08812321
#
# Stress axis : x y z
#
# Youngs Moduli (GPa) = 58.59923 21.18791 90.69951
#
# Poissons Ratio (x) = -0.00360 -0.00752
# Poissons Ratio (y) = -0.00996 -0.55917
# Poissons Ratio (z) = -0.00486 -0.13063
#
# Static dielectric constant tensor:
#      x y z
#    x 2.039130 0.000000 -0.121050 
#    y 0.000000 1.802770 0.000000 
#    z -0.121050 0.000000 1.910760 
# 
# From -- ./inp_files/320154.got.cif
#   From: 2010.05.17/outbox.cif.g08.bks.cpg/sg12_161_cif.got.tgz:320154.got - 2010.06.03 13:09:07.
