data_PCOD9196214
_publ_section_title
;
Structure prediction by ZEFSAII (Michael W. Deem and Ramdas Pophale) SiO2 
 PCOD9196214
Probable space group: C 2/M
;
_chemical_formula_sum "Si O2"
_cell_formula_units_Z 56
_cell_length_a 14.799169
_cell_length_b 26.107442
_cell_length_c 15.884683
_cell_angle_alpha 90.000000
_cell_angle_beta 28.780943
_cell_angle_gamma 90.000000
_cell_volume 2954.897244
_symmetry_space_group_name_H-M "C 2/M"
_symmetry_group_IT_number 12
_symmetry_cell_setting 'monoclinic'
loop_
_space_group_symop_operation_xyz
x,y,z
-x,y,-z
-x,-y,-z
x,-y,z
1/2+x,1/2+y,z
1/2-x,1/2+y,-z
1/2-x,1/2-y,-z
1/2+x,1/2-y,z
loop_
_atom_site_type_symbol
_atom_site_label
_atom_site_fract_x
_atom_site_fract_y
_atom_site_fract_z
Si Si1 0.217106 0.301979 0.329980
Si Si2 0.767250 0.703433 0.871689
Si Si3 0.519441 0.391770 0.078710
Si Si4 0.603095 0.439868 0.182561
Si Si5 0.462514 0.227742 0.213898
Si Si6 0.488131 0.882421 0.908882
Si Si7 0.145760 0.061380 0.454751
O O1 0.259104 0.279721 0.202645
O O2 0.347788 0.351852 0.233942
O O3 0.270508 0.258166 0.353534
O O4 0.000000 0.316183 0.500000
O O5 0.968539 0.714439 0.748452
O O6 0.706158 0.644062 0.925523
O O7 0.615033 0.733055 0.051415
O O8 0.531910 0.429944 0.146212
O O9 0.500000 0.413348 0.000000
O O10 0.647099 0.500000 0.159628
O O11 0.447314 0.425023 0.379597
O O12 0.787819 0.405807 0.046335
O O13 0.483472 0.175659 0.144607
O O14 0.655733 0.913684 0.727995
O O15 0.500000 0.886273 0.000000
O O16 0.000000 0.076366 0.500000
O O17 0.166018 0.000000 0.435549
#
# Coordination Sequence:
#
# PCOD9196214 Si02
#       7
#     8   8   8   8   8   8   8
#     4  10  21  36  56  85 117 155 187 232 295 352
#     4   9  18  37  58  77 112 155 186 231 286 344
#     4   9  19  40  63  82 114 155 200 244 296 355
#     4  11  23  40  63  89 117 155 202 252 303 351
#     4  10  20  35  56  82 115 148 193 236 276 345
#     4  12  22  36  61  90 119 161 197 240 295 359
#     4  10  22  39  56  82 120 157 196 240 292 355
#
# _framework density 18.951589999999999
#
# number of rings (size 3 to 8) (size 9 to 14) (size 15 to 20)
#    0.000    1.857    2.857    2.571    0.000    3.143 
#    2.571    0.000    0.000    0.429    0.000    0.000 
#    0.000    0.000    0.000    0.000    0.000    0.000 
#
# Total GULP energy -156161.399923 kJ/mol
# GULP energy per Si atom -5577.192854 kJ/mol
# Density = 1.890846 g / cm^3
# Si number density = 18.951590 Si / 1000 Ang^3
#
#
#
# Elastic Constant Matrix: (Units=GPa)
#
#
# Indices 1 2 3 4 5 6 
#
# 1 96.8197 12.2069 26.3747 -0.0678 9.1076 -0.0626
# 2 12.2069 29.2538 12.6788 0.0154 6.3774 0.0138
# 3 26.3747 12.6788 76.1819 -0.0377 4.0341 -0.1113
# 4 -0.0678 0.0154 -0.0377 6.2228 0.0142 7.5623
# 5 9.1076 6.3774 4.0341 0.0142 27.0607 0.0148
# 6 -0.0626 0.0138 -0.1113 7.5623 0.0148 17.3759
#
#
#
# Elastic Compliance Matrix: (Units=1/GPa)
#
#
# Indices 1 2 3 4 5 6 
#
# 1 0.011905 -0.002837 -0.003500 0.000194 -0.002816 -0.000059
# 2 -0.002837 0.039240 -0.005150 -0.000126 -0.007525 -0.000013
# 3 -0.003500 -0.005150 0.015189 -0.000088 0.000127 0.000127
# 4 0.000194 -0.000126 -0.000088 0.341123 -0.000120 -0.148463
# 5 -0.002816 -0.007525 0.000127 -0.000120 0.039656 0.000015
# 6 -0.000059 -0.000013 0.000127 -0.148463 0.000015 0.122166
#
#
# Mechanical properties :
#
#
# Convention : Reuss Voigt Hill
#
# Bulk Modulus (GPa) = 23.06307 33.86404 28.46356
# Shear Modulus (GPa) = 8.24123 20.19820 14.21972
#
# Velocity S-wave (km/s) = 2.08758 3.26817 2.74216
# Velocity P-wave (km/s) = 4.24341 5.66999 5.00776
#
# Compressibility (1/GPa) = 0.04335936
#
# Stress axis : x y z
#
# Youngs Moduli (GPa) = 84.00082 25.48426 65.83796
#
# Poissons Ratio (x) = 0.07229 0.23045
# Poissons Ratio (y) = 0.23828 0.33908
# Poissons Ratio (z) = 0.29402 0.13125
#
# Static dielectric constant tensor:
#      x y z
#    x 1.699590 -0.000010 -0.003890 
#    y -0.000010 1.637100 0.000020 
#    z -0.003890 0.000020 1.673800 
# 
# From -- ./inp_files/219051.got.cif
#   From: 2010.05.17/outbox.cif.g08.bks.cpg/sg12_110_cif.got.tgz:219051.got - 2010.06.03 13:09:07.
