data_PCOD9196999
_publ_section_title
;
Structure prediction by ZEFSAII (Michael W. Deem and Ramdas Pophale) SiO2 
 PCOD9196999
Probable space group: C 2/M
;
_chemical_formula_sum "Si O2"
_cell_formula_units_Z 64
_cell_length_a 19.260314
_cell_length_b 8.819227
_cell_length_c 20.412463
_cell_angle_alpha 90.000000
_cell_angle_beta 96.129810
_cell_angle_gamma 90.000000
_cell_volume 3447.458923
_symmetry_space_group_name_H-M "C 2/M"
_symmetry_group_IT_number 12
_symmetry_cell_setting 'monoclinic'
loop_
_space_group_symop_operation_xyz
x,y,z
-x,y,-z
-x,-y,-z
x,-y,z
1/2+x,1/2+y,z
1/2-x,1/2+y,-z
1/2-x,1/2-y,-z
1/2+x,1/2-y,z
loop_
_atom_site_type_symbol
_atom_site_label
_atom_site_fract_x
_atom_site_fract_y
_atom_site_fract_z
Si Si1 0.933557 0.682676 0.312335
Si Si2 0.916972 0.821748 0.170534
Si Si3 0.538626 0.184670 0.437524
Si Si4 0.805504 0.178222 0.955919
Si Si5 0.251872 0.678685 0.177523
Si Si6 0.200167 0.682389 0.439102
Si Si7 0.431746 0.171128 0.037218
Si Si8 0.271980 0.818907 0.319283
O O1 0.936350 0.500000 0.304921
O O2 0.942800 0.759450 0.242789
O O3 0.855055 0.719099 0.329704
O O4 0.991844 0.730113 0.370528
O O5 0.832598 0.801947 0.162846
O O6 0.945571 0.729782 0.111736
O O7 0.931752 0.000000 0.165609
O O8 0.500000 0.235394 0.500000
O O9 0.619458 0.231446 0.441033
O O10 0.538525 0.000000 0.438468
O O11 0.796037 0.254941 0.884356
O O12 0.794184 0.000000 0.948981
O O13 0.750000 0.250000 0.000000
O O14 0.878794 0.216416 0.996315
O O15 0.239496 0.500000 0.185148
O O16 0.245391 0.763862 0.245811
O O17 0.202151 0.500000 0.442472
O O18 0.250000 0.750000 0.500000
O O19 0.230094 0.738615 0.372868
O O20 0.401705 0.000000 0.037401
O O21 0.500000 0.166090 0.000000
O O22 0.265649 0.000000 0.324743
#
# Coordination Sequence:
#
# PCOD9196999 Si02
#       8
#     8   8   8   8   8   8   8   8
#     4   9  18  35  60  84 109 147 193 237 279 338
#     4  10  20  35  58  85 116 152 190 240 294 348
#     4   9  18  35  59  85 111 146 192 235 276 331
#     4  12  23  37  61  89 118 154 198 249 299 352
#     4  10  20  36  59  88 118 152 195 243 291 347
#     4  11  22  37  59  86 117 152 188 234 287 343
#     4  11  24  41  60  84 115 155 199 246 300 360
#     4  10  20  36  59  86 116 150 189 236 289 344
#
# _framework density 18.564399000000002
#
# number of rings (size 3 to 8) (size 9 to 14) (size 15 to 20)
#    0.000    1.750    1.250    3.750    0.000    4.500 
#    2.250    1.250    0.000    2.625    0.000    0.000 
#    0.000    0.000    0.000    0.000    0.000    0.000 
#
# Total GULP energy -178751.706643 kJ/mol
# GULP energy per Si atom -5585.990833 kJ/mol
# Density = 1.852215 g / cm^3
# Si number density = 18.564399 Si / 1000 Ang^3
#
#
#
# Elastic Constant Matrix: (Units=GPa)
#
#
# Indices 1 2 3 4 5 6 
#
# 1 89.8594 28.2262 69.5567 0.0000 0.7287 0.0000
# 2 28.2262 58.7780 37.6748 0.0000 -6.9545 0.0000
# 3 69.5567 37.6748 149.4734 0.0000 0.1399 0.0000
# 4 0.0000 0.0000 0.0000 35.1499 0.0000 1.4210
# 5 0.7287 -6.9545 0.1399 0.0000 31.1502 0.0000
# 6 0.0000 0.0000 0.0000 1.4210 0.0000 23.5876
#
#
#
# Elastic Compliance Matrix: (Units=1/GPa)
#
#
# Indices 1 2 3 4 5 6 
#
# 1 0.018177 -0.004131 -0.007416 0.000000 -0.001314 0.000000
# 2 -0.004131 0.021897 -0.003602 0.000000 0.005002 0.000000
# 3 -0.007416 -0.003602 0.011050 0.000000 -0.000680 0.000000
# 4 0.000000 0.000000 0.000000 0.028519 0.000000 -0.001718
# 5 -0.001314 0.005002 -0.000680 0.000000 0.033253 0.000000
# 6 0.000000 0.000000 0.000000 -0.001718 0.000000 0.042499
#
#
# Mechanical properties :
#
#
# Convention : Reuss Voigt Hill
#
# Bulk Modulus (GPa) = 48.01550 63.22516 55.62033
# Shear Modulus (GPa) = 25.95584 28.82109 27.38846
#
# Velocity S-wave (km/s) = 3.74324 3.94444 3.84516
# Velocity P-wave (km/s) = 6.67854 7.40783 7.05262
#
# Compressibility (1/GPa) = 0.02082661
#
# Stress axis : x y z
#
# Youngs Moduli (GPa) = 55.01318 45.66800 90.50007
#
# Poissons Ratio (x) = 0.18865 0.67118
# Poissons Ratio (y) = 0.22726 0.32594
# Poissons Ratio (z) = 0.40800 0.16448
#
# Static dielectric constant tensor:
#      x y z
#    x 1.640130 0.000000 0.007370 
#    y 0.000000 1.630360 0.000000 
#    z 0.007370 0.000000 1.617460 
# 
# From -- ./inp_files/314109.got.cif
#   From: 2010.05.17/outbox.cif.g08.bks.cpg/sg12_158_cif.got.tgz:314109.got - 2010.06.03 13:09:07.
