data_PCOD9196638
_publ_section_title
;
Structure prediction by ZEFSAII (Michael W. Deem and Ramdas Pophale) SiO2 
 PCOD9196638
Probable space group: C 2/M
;
_chemical_formula_sum "Si O2"
_cell_formula_units_Z 64
_cell_length_a 20.364624
_cell_length_b 7.695284
_cell_length_c 31.294881
_cell_angle_alpha 90.000000
_cell_angle_beta 143.338358
_cell_angle_gamma 90.000000
_cell_volume 2928.281842
_symmetry_space_group_name_H-M "C 2/M"
_symmetry_group_IT_number 12
_symmetry_cell_setting 'monoclinic'
loop_
_space_group_symop_operation_xyz
x,y,z
-x,y,-z
-x,-y,-z
x,-y,z
1/2+x,1/2+y,z
1/2-x,1/2+y,-z
1/2-x,1/2-y,-z
1/2+x,1/2-y,z
loop_
_atom_site_type_symbol
_atom_site_label
_atom_site_fract_x
_atom_site_fract_y
_atom_site_fract_z
Si Si1 0.883174 0.289331 0.818282
Si Si2 0.065925 0.797719 0.400659
Si Si3 0.311543 0.294239 0.616508
Si Si4 0.831344 0.295056 0.243362
Si Si5 0.217821 0.290265 0.878080
Si Si6 0.959515 0.294110 0.024349
Si Si7 0.429432 0.701489 0.501954
Si Si8 0.477710 0.210296 0.777753
O O1 0.885034 0.500000 0.818461
O O2 0.763053 0.234623 0.771132
O O3 0.918495 0.228566 0.789905
O O4 0.970575 0.225725 0.899406
O O5 0.150852 0.723348 0.410192
O O6 0.060223 0.719133 0.445105
O O7 0.945473 0.789048 0.316815
O O8 0.096634 0.000000 0.421921
O O9 0.291715 0.500000 0.602593
O O10 0.200074 0.209298 0.575162
O O11 0.410350 0.266324 0.701085
O O12 0.853201 0.500000 0.250441
O O13 0.787576 0.231668 0.174380
O O14 0.220304 0.500000 0.879390
O O15 0.329146 0.230393 0.958516
O O16 0.104339 0.232666 0.840566
O O17 0.981774 0.500000 0.035013
O O18 0.000000 0.219633 0.000000
O O19 0.500000 0.779275 0.500000
O O20 0.466138 0.500000 0.524854
O O21 0.478357 0.000000 0.778298
#
# Coordination Sequence:
#
# PCOD9196638 Si02
#       8
#     8   8   8   8   8   8   8   8
#     4  10  22  39  59  83 115 156 197 239 293 355
#     4  10  22  40  62  88 118 157 199 236 284 346
#     4  11  23  39  62  90 120 153 194 245 290 334
#     4  11  22  36  59  89 118 151 195 245 291 339
#     4  10  21  37  58  85 115 152 195 239 290 345
#     4  10  20  35  57  84 113 150 195 242 292 346
#     4  10  23  42  63  88 119 157 197 233 284 351
#     4  10  22  41  61  83 117 158 196 236 291 356
#
# _framework density 21.855820000000001
#
# number of rings (size 3 to 8) (size 9 to 14) (size 15 to 20)
#    0.000    1.750    2.500    1.125    1.750    4.000 
#    0.000    0.000    0.000    0.000    0.000    0.000 
#    0.000    0.000    0.000    0.000    0.000    0.000 
#
# Total GULP energy -178846.299095 kJ/mol
# GULP energy per Si atom -5588.946847 kJ/mol
# Density = 2.180607 g / cm^3
# Si number density = 21.855820 Si / 1000 Ang^3
#
#
#
# Elastic Constant Matrix: (Units=GPa)
#
#
# Indices 1 2 3 4 5 6 
#
# 1 161.4749 5.1566 22.9510 0.0000 7.1213 0.0004
# 2 5.1566 41.7008 -8.3420 -0.0001 -9.6660 0.0008
# 3 22.9510 -8.3420 66.5209 0.0000 9.8631 0.0003
# 4 0.0000 -0.0001 0.0000 23.8699 0.0001 4.2284
# 5 7.1213 -9.6660 9.8631 0.0001 34.6265 -0.0002
# 6 0.0004 0.0008 0.0003 4.2284 -0.0002 3.9742
#
#
#
# Elastic Compliance Matrix: (Units=1/GPa)
#
#
# Indices 1 2 3 4 5 6 
#
# 1 0.006621 -0.001544 -0.002310 0.000000 -0.001135 0.000000
# 2 -0.001544 0.026326 0.002816 0.000001 0.006864 -0.000006
# 3 -0.002310 0.002816 0.016701 0.000000 -0.003496 -0.000002
# 4 0.000000 0.000001 0.000000 0.051623 0.000000 -0.054924
# 5 -0.001135 0.006864 -0.003496 0.000000 0.032025 0.000000
# 6 0.000000 -0.000006 -0.000002 -0.054924 0.000000 0.310056
#
#
# Mechanical properties :
#
#
# Convention : Reuss Voigt Hill
#
# Bulk Modulus (GPa) = 21.02019 34.35865 27.68942
# Shear Modulus (GPa) = 10.83932 29.15618 19.99775
#
# Velocity S-wave (km/s) = 2.22940 3.65639 3.02815
# Velocity P-wave (km/s) = 4.03305 5.79485 4.99229
#
# Compressibility (1/GPa) = 0.04757331
#
# Stress axis : x y z
#
# Youngs Moduli (GPa) = 151.04563 37.98577 59.87573
#
# Poissons Ratio (x) = 0.05864 0.13829
# Poissons Ratio (y) = 0.23317 -0.16862
# Poissons Ratio (z) = 0.34885 -0.10698
#
# Static dielectric constant tensor:
#      x y z
#    x 1.804820 0.000000 -0.020810 
#    y 0.000000 1.834480 0.000000 
#    z -0.020810 0.000000 1.760980 
# 
# From -- ./inp_files/378409.got.cif
#   From: 2010.05.17/outbox.cif.g08.bks.cpg/sg12_190_cif.got.tgz:378409.got - 2010.06.03 13:09:07.
