data_PCOD9196800
_publ_section_title
;
Structure prediction by ZEFSAII (Michael W. Deem and Ramdas Pophale) SiO2 
 PCOD9196800
Probable space group: C 2/M
;
_chemical_formula_sum "Si O2"
_cell_formula_units_Z 64
_cell_length_a 26.731738
_cell_length_b 8.201924
_cell_length_c 14.540755
_cell_angle_alpha 90.000000
_cell_angle_beta 65.226696
_cell_angle_gamma 90.000000
_cell_volume 2894.694528
_symmetry_space_group_name_H-M "C 2/M"
_symmetry_group_IT_number 12
_symmetry_cell_setting 'monoclinic'
loop_
_space_group_symop_operation_xyz
x,y,z
-x,y,-z
-x,-y,-z
x,-y,z
1/2+x,1/2+y,z
1/2-x,1/2+y,-z
1/2-x,1/2-y,-z
1/2+x,1/2-y,z
loop_
_atom_site_type_symbol
_atom_site_label
_atom_site_fract_x
_atom_site_fract_y
_atom_site_fract_z
Si Si1 0.559342 0.810438 0.431365
Si Si2 0.640133 0.309411 0.211753
Si Si3 0.472957 0.689866 0.171467
Si Si4 0.804459 0.696561 0.507882
Si Si5 0.361005 0.310993 0.162545
Si Si6 0.264302 0.801976 0.736130
Si Si7 0.916029 0.312045 0.375812
Si Si8 0.095002 0.313344 0.054335
O O1 0.500000 0.735862 0.500000
O O2 0.596503 0.726560 0.326988
O O3 0.584633 0.813892 0.513399
O O4 0.551457 0.000000 0.406936
O O5 0.640792 0.500000 0.190844
O O6 0.699758 0.255765 0.204815
O O7 0.619314 0.218532 0.136718
O O8 0.478629 0.500000 0.142024
O O9 0.416091 0.757168 0.170381
O O10 0.462215 0.710664 0.288755
O O11 0.529614 0.776827 0.102927
O O12 0.809529 0.500000 0.504850
O O13 0.750000 0.750000 0.500000
O O14 0.797113 0.750621 0.619018
O O15 0.855238 0.758085 0.406899
O O16 0.358365 0.500000 0.193458
O O17 0.299089 0.242986 0.222282
O O18 0.375211 0.297242 0.043966
O O19 0.263598 0.000000 0.738817
O O20 0.923022 0.500000 0.340609
O O21 0.104426 0.500000 0.020853
#
# Coordination Sequence:
#
# PCOD9196800 Si02
#       8
#     8   8   8   8   8   8   8   8
#     4  10  20  37  61  87 121 164 205 248 307 372
#     4  12  25  41  64  94 128 165 213 269 319 374
#     4  11  23  41  66  97 132 164 207 265 322 379
#     4  10  20  35  57  86 123 165 207 250 299 362
#     4  10  23  43  68  95 126 166 211 265 324 378
#     4  10  21  42  66  90 128 173 213 256 316 381
#     4  10  20  35  57  88 125 164 204 243 297 367
#     4  12  26  44  67  92 124 167 213 264 325 388
#
# _framework density 22.109414000000001
#
# number of rings (size 3 to 8) (size 9 to 14) (size 15 to 20)
#    0.000    1.375    1.250    4.500    0.000    7.250 
#    0.000    0.000    0.000    0.000    0.000    0.000 
#    0.000    0.000    0.000    0.000    0.000    0.000 
#
# Total GULP energy -178725.381067 kJ/mol
# GULP energy per Si atom -5585.168158 kJ/mol
# Density = 2.205909 g / cm^3
# Si number density = 22.109414 Si / 1000 Ang^3
#
#
#
# Elastic Constant Matrix: (Units=GPa)
#
#
# Indices 1 2 3 4 5 6 
#
# 1 101.7591 5.7080 8.3916 0.0000 -6.6347 0.0000
# 2 5.7080 34.5684 -9.9060 0.0000 0.2807 0.0000
# 3 8.3916 -9.9060 67.0891 0.0000 -5.1085 0.0000
# 4 0.0000 0.0000 0.0000 23.9063 0.0000 0.1952
# 5 -6.6347 0.2807 -5.1085 0.0000 36.3507 0.0000
# 6 0.0000 0.0000 0.0000 0.1952 0.0000 27.1889
#
#
#
# Elastic Compliance Matrix: (Units=1/GPa)
#
#
# Indices 1 2 3 4 5 6 
#
# 1 0.010175 -0.002111 -0.001457 0.000000 0.001669 0.000000
# 2 -0.002111 0.030650 0.004794 0.000000 0.000052 0.000000
# 3 -0.001457 0.004794 0.015943 0.000000 0.001938 0.000000
# 4 0.000000 0.000000 0.000000 0.041832 0.000000 -0.000300
# 5 0.001669 0.000052 0.001938 0.000000 0.028086 0.000000
# 6 0.000000 0.000000 0.000000 -0.000300 0.000000 0.036782
#
#
# Mechanical properties :
#
#
# Convention : Reuss Voigt Hill
#
# Bulk Modulus (GPa) = 16.88681 23.53377 20.21029
# Shear Modulus (GPa) = 27.66140 30.77072 29.21606
#
# Velocity S-wave (km/s) = 3.54095 3.73466 3.63909
# Velocity P-wave (km/s) = 4.93682 5.40964 5.17863
#
# Compressibility (1/GPa) = 0.05921780
#
# Stress axis : x y z
#
# Youngs Moduli (GPa) = 98.28474 32.62645 62.72285
#
# Poissons Ratio (x) = 0.06888 0.09141
# Poissons Ratio (y) = 0.20750 -0.30067
# Poissons Ratio (z) = 0.14323 -0.15640
#
# Static dielectric constant tensor:
#      x y z
#    x 1.956580 0.000000 0.019270 
#    y 0.000000 1.784140 0.000000 
#    z 0.019270 0.000000 1.841870 
# 
# From -- ./inp_files/243867.got.cif
#   From: 2010.05.17/outbox.cif.g08.bks.cpg/sg12_122_cif.got.tgz:243867.got - 2010.06.03 13:09:07.
