data_PCOD9196494
_publ_section_title
;
Structure prediction by ZEFSAII (Michael W. Deem and Ramdas Pophale) SiO2 
 PCOD9196494
Probable space group: C 2/M
;
_chemical_formula_sum "Si O2"
_cell_formula_units_Z 56
_cell_length_a 9.997566
_cell_length_b 29.706502
_cell_length_c 11.853330
_cell_angle_alpha 90.000000
_cell_angle_beta 127.914027
_cell_angle_gamma 90.000000
_cell_volume 2777.324749
_symmetry_space_group_name_H-M "C 2/M"
_symmetry_group_IT_number 12
_symmetry_cell_setting 'monoclinic'
loop_
_space_group_symop_operation_xyz
x,y,z
-x,y,-z
-x,-y,-z
x,-y,z
1/2+x,1/2+y,z
1/2-x,1/2+y,-z
1/2-x,1/2-y,-z
1/2+x,1/2-y,z
loop_
_atom_site_type_symbol
_atom_site_label
_atom_site_fract_x
_atom_site_fract_y
_atom_site_fract_z
Si Si1 0.316606 0.449218 0.347719
Si Si2 0.315471 0.145735 0.660210
Si Si3 0.612906 0.376275 0.955603
Si Si4 0.176627 0.689247 0.804425
Si Si5 0.315649 0.048974 0.960259
Si Si6 0.160205 0.839539 0.339704
Si Si7 0.418485 0.720451 0.341952
O O1 0.500000 0.440932 0.500000
O O2 0.260539 0.500000 0.355394
O O3 0.197294 0.406199 0.309180
O O4 0.316730 0.451493 0.212287
O O5 0.495090 0.171095 0.751724
O O6 0.252617 0.143676 0.498496
O O7 0.188637 0.177118 0.669921
O O8 0.765727 0.409747 0.011465
O O9 0.494219 0.369558 0.786422
O O10 0.500000 0.394081 0.000000
O O11 0.686019 0.328453 0.035209
O O12 0.221178 0.666880 0.706661
O O13 0.181744 0.741848 0.778329
O O14 0.310145 0.000000 0.014308
O O15 0.500000 0.053633 0.000000
O O16 0.070491 0.794303 0.338583
O O17 0.500000 0.740018 0.500000
#
# Coordination Sequence:
#
# PCOD9196494 Si02
#       7
#     8   8   8   8   8   8   8
#     4  10  20  35  58  87 113 139 179 231 280 323
#     4  11  20  35  61  84 107 143 186 229 271 323
#     4  10  22  37  52  76 112 147 177 216 275 332
#     4  11  22  35  53  79 111 145 184 228 269 317
#     4  10  20  36  58  81 106 138 181 231 274 319
#     4  10  21  37  54  76 111 146 178 219 274 326
#     4  10  20  35  57  82 107 142 188 227 269 326
#
# _framework density 20.163288000000001
#
# number of rings (size 3 to 8) (size 9 to 14) (size 15 to 20)
#    0.000    1.714    0.000    6.000    0.000    3.143 
#    0.000    1.429    0.000    3.429    0.000    0.000 
#    0.000    0.000    0.000    0.000    0.000    0.000 
#
# Total GULP energy -156162.603372 kJ/mol
# GULP energy per Si atom -5577.235835 kJ/mol
# Density = 2.011739 g / cm^3
# Si number density = 20.163288 Si / 1000 Ang^3
#
#
#
# Elastic Constant Matrix: (Units=GPa)
#
#
# Indices 1 2 3 4 5 6 
#
# 1 52.7312 11.5564 -1.4637 0.0000 8.4222 0.0000
# 2 11.5564 77.1048 -7.2245 0.0000 5.2544 0.0000
# 3 -1.4637 -7.2245 43.2192 0.0000 10.3870 0.0000
# 4 0.0000 0.0000 0.0000 23.2801 0.0000 6.8537
# 5 8.4222 5.2544 10.3870 0.0000 15.5696 0.0000
# 6 0.0000 0.0000 0.0000 6.8537 0.0000 12.4449
#
#
#
# Elastic Compliance Matrix: (Units=1/GPa)
#
#
# Indices 1 2 3 4 5 6 
#
# 1 0.021652 -0.001986 0.003638 0.000000 -0.013469 0.000000
# 2 -0.001986 0.014041 0.003764 0.000000 -0.006175 0.000000
# 3 0.003638 0.003764 0.029379 0.000000 -0.022838 0.000000
# 4 0.000000 0.000000 0.000000 0.051267 0.000000 -0.028234
# 5 -0.013469 -0.006175 -0.022838 0.000000 0.088833 0.000000
# 6 0.000000 0.000000 0.000000 -0.028234 0.000000 0.095903
#
#
# Mechanical properties :
#
#
# Convention : Reuss Voigt Hill
#
# Bulk Modulus (GPa) = 13.17480 19.86574 16.52027
# Shear Modulus (GPa) = 15.84562 21.60473 18.72517
#
# Velocity S-wave (km/s) = 2.80637 3.27691 3.05073
# Velocity P-wave (km/s) = 4.12907 4.91847 4.54095
#
# Compressibility (1/GPa) = 0.07590246
#
# Stress axis : x y z
#
# Youngs Moduli (GPa) = 46.18583 71.22241 34.03799
#
# Poissons Ratio (x) = 0.14147 -0.12384
# Poissons Ratio (y) = 0.09174 -0.12811
# Poissons Ratio (z) = -0.16804 -0.26806
#
# Static dielectric constant tensor:
#      x y z
#    x 1.708490 0.000000 0.016890 
#    y 0.000000 1.752000 0.000000 
#    z 0.016890 0.000000 1.736250 
# 
# From -- ./inp_files/125806.got.cif
#   From: 2010.05.17/outbox.cif.g08.bks.cpg/sg12_63_cif.got.tgz:125806.got - 2010.06.03 13:09:07.
