data_PCOD9196604
_publ_section_title
;
Structure prediction by ZEFSAII (Michael W. Deem and Ramdas Pophale) SiO2 
 PCOD9196604
Probable space group: C 2/M
;
_chemical_formula_sum "Si O2"
_cell_formula_units_Z 50
_cell_length_a 25.530371
_cell_length_b 12.962367
_cell_length_c 7.610733
_cell_angle_alpha 90.000000
_cell_angle_beta 118.813534
_cell_angle_gamma 90.000000
_cell_volume 2206.823678
_symmetry_space_group_name_H-M "C 2/M"
_symmetry_group_IT_number 12
_symmetry_cell_setting 'monoclinic'
loop_
_space_group_symop_operation_xyz
x,y,z
-x,y,-z
-x,-y,-z
x,-y,z
1/2+x,1/2+y,z
1/2-x,1/2+y,-z
1/2-x,1/2-y,-z
1/2+x,1/2-y,z
loop_
_atom_site_type_symbol
_atom_site_label
_atom_site_fract_x
_atom_site_fract_y
_atom_site_fract_z
Si Si1 0.430097 0.612015 0.848485
Si Si2 0.148447 0.716364 0.331405
Si Si3 0.000000 0.500000 0.500000
Si Si4 0.249468 0.180736 0.718167
Si Si5 0.245275 0.390205 0.906623
Si Si6 0.570684 0.612708 0.575200
Si Si7 0.108275 0.660735 0.640552
O O1 0.409242 0.500000 0.881723
O O2 0.395682 0.713643 0.853809
O O3 0.423198 0.612037 0.626199
O O4 0.500000 0.620316 0.000000
O O5 0.195160 0.795925 0.500289
O O6 0.192056 0.643869 0.290007
O O7 0.114371 0.661355 0.436029
O O8 0.052820 0.590080 0.601582
O O9 0.265490 0.293114 0.826210
O O10 0.230831 0.116421 0.856659
O O11 0.258939 0.500000 0.845988
O O12 0.173201 0.377649 0.807527
O O13 0.500000 0.618516 0.500000
O O14 0.591717 0.500000 0.675855
O O15 0.599448 0.719964 0.683082
#
# Coordination Sequence:
#
# PCOD9196604 Si02
#       7
#     8   8   2   8   8   8   8
#     4   9  18  31  49  76 108 139 174 220 285 346
#     4   9  19  38  56  81 112 151 192 251 293 349
#     4  12  20  36  58  86 120 180 200 236 282 382
#     4   9  20  38  59  82 111 145 199 245 302 351
#     4  10  20  37  58  86 115 151 192 252 301 359
#     4   9  17  31  51  76 105 144 189 237 280 332
#     4  10  20  35  57  83 119 160 205 234 293 359
#
# _framework density 22.657
#
# number of rings (size 3 to 8) (size 9 to 14) (size 15 to 20)
#    0.000    2.560    1.600    0.000    0.000    2.560 
#    1.440    9.600    0.000    0.960    0.000    0.000 
#    0.000    0.000    0.000    0.000    0.000    0.000 
#
# Total GULP energy -139261.612667 kJ/mol
# GULP energy per Si atom -5570.464507 kJ/mol
# Density = 2.260543 g / cm^3
# Si number density = 22.657000 Si / 1000 Ang^3
#
#
#
# Elastic Constant Matrix: (Units=GPa)
#
#
# Indices 1 2 3 4 5 6 
#
# 1 69.4300 6.4656 1.6944 0.0000 4.6500 0.0000
# 2 6.4656 113.5457 6.0954 0.0000 3.1537 0.0000
# 3 1.6944 6.0954 48.0206 0.0000 -1.0290 0.0000
# 4 0.0000 0.0000 0.0000 3.8215 0.0000 0.9229
# 5 4.6500 3.1537 -1.0290 0.0000 21.3415 0.0000
# 6 0.0000 0.0000 0.0000 0.9229 0.0000 -10.3693
#
#
#
# Elastic Compliance Matrix: (Units=1/GPa)
#
#
# Indices 1 2 3 4 5 6 
#
# 1 0.014691 -0.000723 -0.000493 0.000000 -0.003118 0.000000
# 2 -0.000723 0.008943 -0.001136 0.000000 -0.001219 0.000000
# 3 -0.000493 -0.001136 0.021014 0.000000 0.001288 0.000000
# 4 0.000000 0.000000 0.000000 0.256170 0.000000 0.022799
# 5 -0.003118 -0.001219 0.001288 0.000000 0.047779 0.000000
# 6 0.000000 0.000000 0.000000 0.022799 0.000000 -0.094410
#
#
# Mechanical properties :
#
#
# Convention : Reuss Voigt Hill
#
# Bulk Modulus (GPa) = 25.03588 28.83412 26.93500
# Shear Modulus (GPa) = 18.36844 17.40815 17.88829
#
# Velocity S-wave (km/s) = 2.85040 2.77489 2.81290
# Velocity P-wave (km/s) = 4.68049 4.79799 4.73960
#
# Compressibility (1/GPa) = 0.03994267
#
# Stress axis : x y z
#
# Youngs Moduli (GPa) = 68.06785 111.81878 47.58833
#
# Poissons Ratio (x) = 0.08090 0.02348
# Poissons Ratio (y) = 0.04925 0.05405
# Poissons Ratio (z) = 0.03358 0.12700
#
# Static dielectric constant tensor:
#      x y z
#    x 1.875930 0.000000 -0.028810 
#    y 0.000000 1.847290 0.000000 
#    z -0.028810 0.000000 1.859870 
# 
# From -- ./inp_files/103329.got.cif
#   From: 2010.05.17/outbox.cif.g08.bks.cpg/sg12_52_cif.got.tgz:103329.got - 2010.06.03 13:09:07.
