data_PCOD9196243
_publ_section_title
;
Structure prediction by ZEFSAII (Michael W. Deem and Ramdas Pophale) SiO2 
 PCOD9196243
Probable space group: C 2/M
;
_chemical_formula_sum "Si O2"
_cell_formula_units_Z 64
_cell_length_a 15.699698
_cell_length_b 7.546925
_cell_length_c 22.801513
_cell_angle_alpha 90.000000
_cell_angle_beta 97.738269
_cell_angle_gamma 90.000000
_cell_volume 2677.022195
_symmetry_space_group_name_H-M "C 2/M"
_symmetry_group_IT_number 12
_symmetry_cell_setting 'monoclinic'
loop_
_space_group_symop_operation_xyz
x,y,z
-x,y,-z
-x,-y,-z
x,-y,z
1/2+x,1/2+y,z
1/2-x,1/2+y,-z
1/2-x,1/2-y,-z
1/2+x,1/2-y,z
loop_
_atom_site_type_symbol
_atom_site_label
_atom_site_fract_x
_atom_site_fract_y
_atom_site_fract_z
Si Si1 0.122558 0.710721 0.146121
Si Si2 0.429077 0.289145 0.606541
Si Si3 0.539076 0.216732 0.941929
Si Si4 0.700110 0.213143 0.889045
Si Si5 0.405935 0.213443 0.730372
Si Si6 0.658096 0.288468 0.517396
Si Si7 0.102404 0.292173 0.765269
Si Si8 0.877086 0.214126 0.357653
O O1 0.113887 0.500000 0.150111
O O2 0.199978 0.741160 0.107929
O O3 0.140205 0.776485 0.214173
O O4 0.030668 0.774073 0.113310
O O5 0.433642 0.500000 0.599975
O O6 0.375561 0.259697 0.661536
O O7 0.402477 0.217787 0.540376
O O8 0.524052 0.223516 0.629484
O O9 0.635936 0.273801 0.934751
O O10 0.539850 0.000000 0.942549
O O11 0.500000 0.275092 0.000000
O O12 0.654576 0.280328 0.825003
O O13 0.697910 0.000000 0.889485
O O14 0.505221 0.278989 0.747856
O O15 0.405142 0.000000 0.730017
O O16 0.641480 0.500000 0.520457
O O17 0.750000 0.250000 0.500000
O O18 0.658912 0.220902 0.583885
O O19 0.090463 0.500000 0.776023
O O20 0.153355 0.272190 0.708968
O O21 0.872818 0.000000 0.356229
#
# Coordination Sequence:
#
# PCOD9196243 Si02
#       8
#     8   8   8   8   8   8   8   8
#     4  10  20  35  56  83 113 146 184 226 272 322
#     4   9  18  33  53  74  96 128 171 215 261 311
#     4   9  18  36  61  83 109 150 191 222 262 325
#     4  10  20  35  56  83 113 146 184 226 272 322
#     4   9  17  32  53  75 102 136 174 216 263 316
#     4  10  21  35  49  67  97 132 166 210 262 314
#     4   9  17  32  53  75 102 136 174 216 263 316
#     4   9  18  33  53  74  96 128 171 215 261 311
#
# _framework density 23.907160999999999
#
# number of rings (size 3 to 8) (size 9 to 14) (size 15 to 20)
#    0.000    2.625    1.250    0.375    0.000    5.000 
#    0.000    5.625    0.000    4.500    0.000    0.000 
#    0.000    0.000    0.000    0.000    0.000    0.000 
#
# Total GULP energy -178455.204671 kJ/mol
# GULP energy per Si atom -5576.725146 kJ/mol
# Density = 2.385275 g / cm^3
# Si number density = 23.907161 Si / 1000 Ang^3
#
#
#
# Elastic Constant Matrix: (Units=GPa)
#
#
# Indices 1 2 3 4 5 6 
#
# 1 56.3800 -10.3169 4.6195 0.0000 -29.4760 0.0000
# 2 -10.3169 54.0784 -5.6245 0.0000 3.1907 0.0000
# 3 4.6195 -5.6245 84.4157 0.0000 -38.7663 0.0000
# 4 0.0000 0.0000 0.0000 23.6151 0.0000 -5.1534
# 5 -29.4760 3.1907 -38.7663 0.0000 38.3607 0.0000
# 6 0.0000 0.0000 0.0000 -5.1534 0.0000 13.7320
#
#
#
# Elastic Compliance Matrix: (Units=1/GPa)
#
#
# Indices 1 2 3 4 5 6 
#
# 1 0.055090 0.009441 0.031149 0.000000 0.073023 0.000000
# 2 0.009441 0.020245 0.006326 0.000000 0.011964 0.000000
# 3 0.031149 0.006326 0.039769 0.000000 0.063598 0.000000
# 4 0.000000 0.000000 0.000000 0.046123 0.000000 0.017309
# 5 0.073023 0.011964 0.063598 0.000000 0.145454 0.000000
# 6 0.000000 0.000000 0.000000 0.017309 0.000000 0.079318
#
#
# Mechanical properties :
#
#
# Convention : Reuss Voigt Hill
#
# Bulk Modulus (GPa) = 4.78614 19.13669 11.96142
# Shear Modulus (GPa) = 13.81931 28.88797 21.35364
#
# Velocity S-wave (km/s) = 2.40686 3.47989 2.99187
# Velocity P-wave (km/s) = 3.11934 4.91611 4.11694
#
# Compressibility (1/GPa) = 0.20893661
#
# Stress axis : x y z
#
# Youngs Moduli (GPa) = 18.15226 49.39516 25.14496
#
# Poissons Ratio (x) = -0.46634 -0.78324
# Poissons Ratio (y) = -0.17138 -0.15908
# Poissons Ratio (z) = -0.56542 -0.31249
#
# Static dielectric constant tensor:
#      x y z
#    x 1.923590 0.000000 0.014550 
#    y 0.000000 1.905530 0.000000 
#    z 0.014550 0.000000 2.044800 
# 
# From -- ./inp_files/314173.got.cif
#   From: 2010.05.17/outbox.cif.g08.bks.cpg/sg12_158_cif.got.tgz:314173.got - 2010.06.03 13:09:07.
