data_PCOD9196749
_publ_section_title
;
Structure prediction by ZEFSAII (Michael W. Deem and Ramdas Pophale) SiO2 
 PCOD9196749
Probable space group: C 2/M
;
_chemical_formula_sum "Si O2"
_cell_formula_units_Z 56
_cell_length_a 20.016025
_cell_length_b 17.856571
_cell_length_c 15.280700
_cell_angle_alpha 90.000000
_cell_angle_beta 149.599661
_cell_angle_gamma 90.000000
_cell_volume 2763.777164
_symmetry_space_group_name_H-M "C 2/M"
_symmetry_group_IT_number 12
_symmetry_cell_setting 'monoclinic'
loop_
_space_group_symop_operation_xyz
x,y,z
-x,y,-z
-x,-y,-z
x,-y,z
1/2+x,1/2+y,z
1/2-x,1/2+y,-z
1/2-x,1/2-y,-z
1/2+x,1/2-y,z
loop_
_atom_site_type_symbol
_atom_site_label
_atom_site_fract_x
_atom_site_fract_y
_atom_site_fract_z
Si Si1 0.851929 0.333396 0.342561
Si Si2 0.095763 0.416242 0.024170
Si Si3 0.135061 0.844698 0.605638
Si Si4 0.230342 0.173402 0.378757
Si Si5 0.321926 0.310503 0.019483
Si Si6 0.558742 0.590075 0.333631
Si Si7 0.556634 0.204906 0.238436
O O1 0.864763 0.245104 0.382688
O O2 0.768496 0.364017 0.330468
O O3 0.776726 0.339696 0.165896
O O4 0.000000 0.363552 0.500000
O O5 0.127239 0.500000 0.032754
O O6 0.232118 0.375049 0.199750
O O7 0.995170 0.374152 0.147524
O O8 0.000000 0.417160 0.000000
O O9 0.000000 0.871548 0.500000
O O10 0.125669 0.875509 0.496192
O O11 0.361943 0.196940 0.580313
O O12 0.152354 0.252256 0.278915
O O13 0.142185 0.122500 0.344794
O O14 0.250000 0.250000 0.000000
O O15 0.409411 0.376135 0.162152
O O16 0.433875 0.260052 0.102102
O O17 0.560284 0.500000 0.336471
#
# Coordination Sequence:
#
# PCOD9196749 Si02
#       7
#     8   8   8   8   8   8   8
#     4  11  21  38  67  96 123 163 219 276 326 384
#     4  11  22  34  54  88 129 168 207 258 324 400
#     4  11  22  40  62  96 136 173 213 267 336 409
#     4  10  21  39  61  87 122 168 217 272 320 378
#     4  11  22  40  63  93 128 163 215 271 320 388
#     4  11  25  42  64  93 133 179 218 267 332 398
#     4  10  20  35  57  85 121 163 213 257 314 376
#
# _framework density 20.262125000000001
#
# number of rings (size 3 to 8) (size 9 to 14) (size 15 to 20)
#    0.000    1.286    1.429    7.286    0.000    4.571 
#    0.000    1.429    0.000    3.429    0.000    0.000 
#    0.000    0.000    0.000    0.000    0.000    0.000 
#
# Total GULP energy -156294.970141 kJ/mol
# GULP energy per Si atom -5581.963219 kJ/mol
# Density = 2.021601 g / cm^3
# Si number density = 20.262125 Si / 1000 Ang^3
#
#
#
# Elastic Constant Matrix: (Units=GPa)
#
#
# Indices 1 2 3 4 5 6 
#
# 1 82.9557 -0.5568 33.5404 0.0000 9.1751 0.0000
# 2 -0.5568 66.6303 9.3009 0.0000 0.3899 0.0000
# 3 33.5404 9.3009 120.8171 0.0000 11.7052 0.0000
# 4 0.0000 0.0000 0.0000 -252.2922 0.0000 -351.1760
# 5 9.1751 0.3899 11.7052 0.0000 26.8810 0.0000
# 6 0.0000 0.0000 0.0000 -351.1760 0.0000 -447.1088
#
#
#
# Elastic Compliance Matrix: (Units=1/GPa)
#
#
# Indices 1 2 3 4 5 6 
#
# 1 0.013862 0.000635 -0.003589 0.000000 -0.003178 0.000000
# 2 0.000635 0.015203 -0.001362 0.000000 0.000156 0.000000
# 3 -0.003589 -0.001362 0.009665 0.000000 -0.002964 0.000000
# 4 0.000000 0.000000 0.000000 0.042491 0.000000 -0.033374
# 5 -0.003178 0.000156 -0.002964 0.000000 0.039574 0.000000
# 6 0.000000 0.000000 0.000000 -0.033374 0.000000 0.023976
#
#
# Mechanical properties :
#
#
# Convention : Reuss Voigt Hill
#
# Bulk Modulus (GPa) = 33.22435 39.44134 36.33285
# Shear Modulus (GPa) = 30.59327 -119.29609 -44.35141
#
# Velocity S-wave (km/s) = 3.88993 -7.68142 -4.68362
# Velocity P-wave (km/s) = 6.05047 7.69184 3.35829
#
# Compressibility (1/GPa) = 0.03009841
#
# Stress axis : x y z
#
# Youngs Moduli (GPa) = 72.14212 65.77788 103.46204
#
# Poissons Ratio (x) = -0.04180 0.37135
# Poissons Ratio (y) = -0.04584 0.14090
# Poissons Ratio (z) = 0.25893 0.08958
#
# Static dielectric constant tensor:
#      x y z
#    x 1.868420 0.000000 0.008770 
#    y 0.000000 1.725850 0.000000 
#    z 0.008770 0.000000 1.721310 
# 
# From -- ./inp_files/234739.got.cif
#   From: 2010.05.17/outbox.cif.g08.bks.cpg/sg12_118_cif.got.tgz:234739.got - 2010.06.03 13:09:07.
