data_PCOD9196177
_publ_section_title
;
Structure prediction by ZEFSAII (Michael W. Deem and Ramdas Pophale) SiO2 
 PCOD9196177
Probable space group: C 2/M
;
_chemical_formula_sum "Si O2"
_cell_formula_units_Z 64
_cell_length_a 21.185106
_cell_length_b 24.509035
_cell_length_c 7.502265
_cell_angle_alpha 90.000000
_cell_angle_beta 120.376182
_cell_angle_gamma 90.000000
_cell_volume 3360.633177
_symmetry_space_group_name_H-M "C 2/M"
_symmetry_group_IT_number 12
_symmetry_cell_setting 'monoclinic'
loop_
_space_group_symop_operation_xyz
x,y,z
-x,y,-z
-x,-y,-z
x,-y,z
1/2+x,1/2+y,z
1/2-x,1/2+y,-z
1/2-x,1/2-y,-z
1/2+x,1/2-y,z
loop_
_atom_site_type_symbol
_atom_site_label
_atom_site_fract_x
_atom_site_fract_y
_atom_site_fract_z
Si Si1 0.566400 0.834816 0.219809
Si Si2 0.202284 0.733024 0.260657
Si Si3 0.476069 0.277555 0.672387
Si Si4 0.663286 0.334437 0.634422
Si Si5 0.653293 0.937748 0.401338
Si Si6 0.789877 0.937150 0.863966
Si Si7 0.242038 0.938087 0.764360
Si Si8 0.618495 0.666004 0.975134
O O1 0.634819 0.806084 0.216172
O O2 0.533251 0.785262 0.287374
O O3 0.598278 0.888393 0.359856
O O4 0.500000 0.852668 0.000000
O O5 0.250000 0.750000 0.500000
O O6 0.262298 0.699694 0.235108
O O7 0.171503 0.786569 0.122355
O O8 0.500000 0.278726 0.500000
O O9 0.396502 0.305504 0.574168
O O10 0.536555 0.310100 0.872790
O O11 0.687210 0.393807 0.605148
O O12 0.628196 0.339915 0.777141
O O13 0.723468 0.931311 0.630261
O O14 0.682898 0.932253 0.239412
O O15 0.625757 0.000000 0.384913
O O16 0.816149 0.000000 0.892482
O O17 0.758143 0.929133 0.021631
O O18 0.852405 0.892291 0.914586
O O19 0.217297 0.000000 0.698440
#
# Coordination Sequence:
#
# PCOD9196177 Si02
#       8
#     8   8   8   8   8   8   8   8
#     4  12  23  39  56  83 116 150 190 238 292 342
#     4  12  21  33  56  83 107 143 194 235 281 340
#     4  10  22  39  54  80 121 157 183 231 292 345
#     4  10  20  35  56  82 111 149 193 229 282 348
#     4  10  21  39  62  85 113 149 193 242 289 340
#     4   9  19  36  60  88 115 148 194 238 284 339
#     4   9  18  35  58  87 116 144 188 247 286 328
#     4  10  21  36  54  81 117 151 182 234 287 339
#
# _framework density 19.044029999999999
#
# number of rings (size 3 to 8) (size 9 to 14) (size 15 to 20)
#    0.000    1.750    3.750    1.125    0.000    0.250 
#    4.500    0.625    0.000    4.125    0.000    3.500 
#    0.000    0.000    0.000    0.000    0.000    0.000 
#
# Total GULP energy -178388.179793 kJ/mol
# GULP energy per Si atom -5574.630619 kJ/mol
# Density = 1.900069 g / cm^3
# Si number density = 19.044030 Si / 1000 Ang^3
#
#
#
# Elastic Constant Matrix: (Units=GPa)
#
#
# Indices 1 2 3 4 5 6 
#
# 1 52.7616 23.2188 15.5393 0.0000 13.9265 0.0000
# 2 23.2188 147.0720 56.6005 0.0000 21.5052 0.0000
# 3 15.5393 56.6005 72.2639 0.0000 23.7639 0.0000
# 4 0.0000 0.0000 0.0000 29.2713 0.0000 4.9890
# 5 13.9265 21.5052 23.7639 0.0000 28.4630 0.0000
# 6 0.0000 0.0000 0.0000 4.9890 0.0000 29.7871
#
#
#
# Elastic Compliance Matrix: (Units=1/GPa)
#
#
# Indices 1 2 3 4 5 6 
#
# 1 0.022364 -0.002144 -0.000088 0.000000 -0.009249 0.000000
# 2 -0.002144 0.009977 -0.007195 0.000000 -0.000482 0.000000
# 3 -0.000088 -0.007195 0.024386 0.000000 -0.014881 0.000000
# 4 0.000000 0.000000 0.000000 0.035167 0.000000 -0.005890
# 5 -0.009249 -0.000482 -0.014881 0.000000 0.052447 0.000000
# 6 0.000000 0.000000 0.000000 -0.005890 0.000000 0.034558
#
#
# Mechanical properties :
#
#
# Convention : Reuss Voigt Hill
#
# Bulk Modulus (GPa) = 26.40448 51.42388 38.91418
# Shear Modulus (GPa) = 23.76660 29.28687 26.52673
#
# Velocity S-wave (km/s) = 3.53651 3.92580 3.73623
# Velocity P-wave (km/s) = 5.52910 6.90003 6.25225
#
# Compressibility (1/GPa) = 0.03787236
#
# Stress axis : x y z
#
# Youngs Moduli (GPa) = 44.71471 100.22554 41.00662
#
# Poissons Ratio (x) = 0.21493 0.00361
# Poissons Ratio (y) = 0.09589 0.29505
# Poissons Ratio (z) = 0.00394 0.72115
#
# Static dielectric constant tensor:
#      x y z
#    x 1.717280 0.000000 -0.027400 
#    y 0.000000 1.676650 0.000000 
#    z -0.027400 0.000000 1.662130 
# 
# From -- ./inp_files/99142.got.cif
#   From: 2010.05.17/outbox.cif.g08.bks.cpg/sg12_50_cif.got.tgz:99142.got - 2010.06.03 13:09:07.
