data_PCOD9196557
_publ_section_title
;
Structure prediction by ZEFSAII (Michael W. Deem and Ramdas Pophale) SiO2 
 PCOD9196557
Probable space group: C 2/M
;
_chemical_formula_sum "Si O2"
_cell_formula_units_Z 64
_cell_length_a 20.682094
_cell_length_b 7.709761
_cell_length_c 26.587922
_cell_angle_alpha 90.000000
_cell_angle_beta 131.793975
_cell_angle_gamma 90.000000
_cell_volume 3160.780325
_symmetry_space_group_name_H-M "C 2/M"
_symmetry_group_IT_number 12
_symmetry_cell_setting 'monoclinic'
loop_
_space_group_symop_operation_xyz
x,y,z
-x,y,-z
-x,-y,-z
x,-y,z
1/2+x,1/2+y,z
1/2-x,1/2+y,-z
1/2-x,1/2-y,-z
1/2+x,1/2-y,z
loop_
_atom_site_type_symbol
_atom_site_label
_atom_site_fract_x
_atom_site_fract_y
_atom_site_fract_z
Si Si1 0.074068 0.299061 0.801048
Si Si2 0.402285 0.792849 0.447628
Si Si3 0.262524 0.207053 0.175254
Si Si4 0.747425 0.207237 0.557019
Si Si5 0.264594 0.292341 0.293434
Si Si6 0.382846 0.202979 0.708708
Si Si7 0.148498 0.207242 0.945666
Si Si8 0.092725 0.787769 0.027200
O O1 0.064545 0.500000 0.779704
O O2 0.150469 0.221689 0.806172
O O3 0.107270 0.292231 0.875355
O O4 0.978107 0.218890 0.751089
O O5 0.500000 0.722344 0.500000
O O6 0.339211 0.727539 0.459411
O O7 0.350137 0.761230 0.368891
O O8 0.408530 0.000000 0.457429
O O9 0.263560 0.236661 0.235241
O O10 0.174598 0.272298 0.103028
O O11 0.262618 0.000000 0.166215
O O12 0.750000 0.250000 0.500000
O O13 0.828487 0.283255 0.629371
O O14 0.750898 0.000000 0.564910
O O15 0.261595 0.500000 0.293486
O O16 0.180784 0.223542 0.281027
O O17 0.395278 0.000000 0.727965
O O18 0.137844 0.000000 0.935646
O O19 0.250000 0.250000 0.000000
O O20 0.106926 0.264170 0.976803
O O21 0.092869 0.000000 0.028269
O O22 0.000000 0.730078 0.000000
#
# Coordination Sequence:
#
# PCOD9196557 Si02
#       8
#     8   8   8   8   8   8   8   8
#     4  10  21  38  57  79 107 143 184 223 269 320
#     4   9  19  37  59  81 105 141 186 220 256 315
#     4  10  20  36  56  76 106 144 181 220 264 319
#     4  10  20  35  57  83 112 142 179 223 267 319
#     4  10  21  36  54  80 112 142 175 220 273 318
#     4   9  20  38  57  77 109 146 180 221 269 321
#     4  11  21  36  58  81 108 141 179 225 274 322
#     4   9  19  35  54  79 107 138 180 224 267 318
#
# _framework density 20.248166000000001
#
# number of rings (size 3 to 8) (size 9 to 14) (size 15 to 20)
#    0.000    2.250    1.250    1.125    1.750    3.250 
#    0.000    5.000    0.000    1.875    0.000    0.000 
#    0.000    0.000    0.000    0.000    0.000    0.000 
#
# Total GULP energy -178620.097445 kJ/mol
# GULP energy per Si atom -5581.878045 kJ/mol
# Density = 2.020208 g / cm^3
# Si number density = 20.248166 Si / 1000 Ang^3
#
#
#
# Elastic Constant Matrix: (Units=GPa)
#
#
# Indices 1 2 3 4 5 6 
#
# 1 188.8714 -3.1297 113.4423 0.0000 14.4614 0.0000
# 2 -3.1297 30.7045 -16.3113 0.0000 8.6275 -0.0001
# 3 113.4423 -16.3113 123.9288 0.0000 5.7525 0.0000
# 4 0.0000 0.0000 0.0000 24.0408 0.0000 -7.0490
# 5 14.4614 8.6275 5.7525 0.0000 45.3857 0.0000
# 6 0.0000 -0.0001 0.0000 -7.0490 0.0000 7.5982
#
#
#
# Elastic Compliance Matrix: (Units=1/GPa)
#
#
# Indices 1 2 3 4 5 6 
#
# 1 0.012582 -0.004676 -0.012059 0.000000 -0.001592 0.000000
# 2 -0.004676 0.039324 0.009792 0.000000 -0.007226 0.000001
# 3 -0.012059 0.009792 0.020425 0.000000 -0.000608 0.000000
# 4 0.000000 0.000000 0.000000 0.057138 0.000000 0.053008
# 5 -0.001592 -0.007226 -0.000608 0.000000 0.023991 0.000000
# 6 0.000000 0.000001 0.000000 0.053008 0.000000 0.180786
#
#
# Mechanical properties :
#
#
# Convention : Reuss Voigt Hill
#
# Bulk Modulus (GPa) = 17.11041 59.05636 38.08338
# Shear Modulus (GPa) = 13.60121 32.03851 22.81986
#
# Velocity S-wave (km/s) = 2.59458 3.98212 3.36074
# Velocity P-wave (km/s) = 4.17666 7.09737 5.82310
#
# Compressibility (1/GPa) = 0.05844397
#
# Stress axis : x y z
#
# Youngs Moduli (GPa) = 79.47865 25.42965 48.96027
#
# Poissons Ratio (x) = 0.11892 0.59041
# Poissons Ratio (y) = 0.37168 -0.47942
# Poissons Ratio (z) = 0.95843 -0.24901
#
# Static dielectric constant tensor:
#      x y z
#    x 1.736600 0.000000 0.018820 
#    y 0.000000 1.755470 0.000000 
#    z 0.018820 0.000000 1.668850 
# 
# From -- ./inp_files/346237.got.cif
#   From: 2010.05.17/outbox.cif.g08.bks.cpg/sg12_174_cif.got.tgz:346237.got - 2010.06.03 13:09:07.
