data_PCOD9196419
_publ_section_title
;
Structure prediction by ZEFSAII (Michael W. Deem and Ramdas Pophale) SiO2 
 PCOD9196419
Probable space group: C 2/M
;
_chemical_formula_sum "Si O2"
_cell_formula_units_Z 40
_cell_length_a 30.465312
_cell_length_b 8.490298
_cell_length_c 15.206508
_cell_angle_alpha 90.000000
_cell_angle_beta 30.679153
_cell_angle_gamma 90.000000
_cell_volume 2006.892328
_symmetry_space_group_name_H-M "C 2/M"
_symmetry_group_IT_number 12
_symmetry_cell_setting 'monoclinic'
loop_
_space_group_symop_operation_xyz
x,y,z
-x,y,-z
-x,-y,-z
x,-y,z
1/2+x,1/2+y,z
1/2-x,1/2+y,-z
1/2-x,1/2-y,-z
1/2+x,1/2-y,z
loop_
_atom_site_type_symbol
_atom_site_label
_atom_site_fract_x
_atom_site_fract_y
_atom_site_fract_z
Si Si1 0.964585 0.810862 0.779823
Si Si2 0.857591 0.689116 0.574519
Si Si3 0.554402 0.691722 0.989987
Si Si4 0.223165 0.688037 0.950761
Si Si5 0.255124 0.310406 0.392277
O O1 0.045222 0.749384 0.585335
O O2 0.976895 0.757139 0.860268
O O3 0.871985 0.750252 0.908481
O O4 0.963643 0.000000 0.779559
O O5 0.856723 0.500000 0.578447
O O6 0.819366 0.742812 0.545714
O O7 0.792556 0.750971 0.760385
O O8 0.550948 0.500000 0.995217
O O9 0.500000 0.748016 0.000000
O O10 0.653376 0.737952 0.806335
O O11 0.222504 0.500000 0.951142
O O12 0.250000 0.750000 0.000000
O O13 0.253400 0.500000 0.397921
O O14 0.250000 0.250000 0.500000
#
# Coordination Sequence:
#
# PCOD9196419 Si02
#       5
#     8   8   8   8   8
#     4  11  22  41  67  96 132 172 217 269 327 389
#     4  11  23  42  65  95 134 173 217 270 325 386
#     4   9  17  32  56  86 125 170 213 258 315 377
#     4  12  26  46  71  98 129 169 217 271 332 392
#     4  10  20  35  56  87 128 172 215 266 320 380
#
# _framework density 19.931314
#
# number of rings (size 3 to 8) (size 9 to 14) (size 15 to 20)
#    0.000    1.400    2.000    4.200    0.000    4.000 
#    0.000    4.000    0.000    4.200    0.000    0.000 
#    0.000    0.000    0.000    0.000    0.000    0.000 
#
# Total GULP energy -111798.596350 kJ/mol
# GULP energy per Si atom -5589.929818 kJ/mol
# Density = 1.988595 g / cm^3
# Si number density = 19.931314 Si / 1000 Ang^3
#
#
#
# Elastic Constant Matrix: (Units=GPa)
#
#
# Indices 1 2 3 4 5 6 
#
# 1 138.8217 40.0671 79.3743 0.0000 0.1686 0.0000
# 2 40.0671 79.1599 48.2198 0.0000 -2.1284 0.0000
# 3 79.3743 48.2198 177.4722 0.0000 -15.1408 0.0000
# 4 0.0000 0.0000 0.0000 30.0326 0.0000 0.5960
# 5 0.1686 -2.1284 -15.1408 0.0000 30.5203 0.0000
# 6 0.0000 0.0000 0.0000 0.5960 0.0000 28.6529
#
#
#
# Elastic Compliance Matrix: (Units=1/GPa)
#
#
# Indices 1 2 3 4 5 6 
#
# 1 0.010337 -0.002827 -0.004048 0.000000 -0.002262 0.000000
# 2 -0.002827 0.015942 -0.003102 0.000000 -0.000412 0.000000
# 3 -0.004048 -0.003102 0.008637 0.000000 0.004091 0.000000
# 4 0.000000 0.000000 0.000000 0.033311 0.000000 -0.000693
# 5 -0.002262 -0.000412 0.004091 0.000000 0.034778 0.000000
# 6 0.000000 0.000000 0.000000 -0.000693 0.000000 0.034915
#
#
# Mechanical properties :
#
#
# Convention : Reuss Voigt Hill
#
# Bulk Modulus (GPa) = 66.83860 81.19735 74.01797
# Shear Modulus (GPa) = 30.70089 33.02733 31.86411
#
# Velocity S-wave (km/s) = 3.92897 4.07511 4.00271
# Velocity P-wave (km/s) = 7.36136 7.93531 7.65372
#
# Compressibility (1/GPa) = 0.01496141
#
# Stress axis : x y z
#
# Youngs Moduli (GPa) = 96.74276 62.72641 115.78020
#
# Poissons Ratio (x) = 0.17733 0.46868
# Poissons Ratio (y) = 0.27349 0.35919
# Poissons Ratio (z) = 0.39161 0.19460
#
# Static dielectric constant tensor:
#      x y z
#    x 1.703130 0.000000 -0.000720 
#    y 0.000000 1.676940 0.000000 
#    z -0.000720 0.000000 1.686390 
# 
# From -- ./inp_files/211202.got.cif
#   From: 2010.05.17/outbox.cif.g08.bks.cpg/sg12_106_cif.got.tgz:211202.got - 2010.06.03 13:09:07.
