data_PCOD9196767
_publ_section_title
;
Structure prediction by ZEFSAII (Michael W. Deem and Ramdas Pophale) SiO2 
 PCOD9196767
Probable space group: C 2/M
;
_chemical_formula_sum "Si O2"
_cell_formula_units_Z 56
_cell_length_a 20.948315
_cell_length_b 8.725451
_cell_length_c 30.859426
_cell_angle_alpha 90.000000
_cell_angle_beta 33.782053
_cell_angle_gamma 90.000000
_cell_volume 3136.369224
_symmetry_space_group_name_H-M "C 2/M"
_symmetry_group_IT_number 12
_symmetry_cell_setting 'monoclinic'
loop_
_space_group_symop_operation_xyz
x,y,z
-x,y,-z
-x,-y,-z
x,-y,z
1/2+x,1/2+y,z
1/2-x,1/2+y,-z
1/2-x,1/2-y,-z
1/2+x,1/2-y,z
loop_
_atom_site_type_symbol
_atom_site_label
_atom_site_fract_x
_atom_site_fract_y
_atom_site_fract_z
Si Si1 0.799771 0.315148 0.906342
Si Si2 0.819808 0.184681 0.236356
Si Si3 0.924817 0.184958 0.920067
Si Si4 0.912409 0.183375 0.671221
Si Si5 0.541627 0.183683 0.260450
Si Si6 0.575233 0.315296 0.499981
Si Si7 0.181102 0.816831 0.661022
O O1 0.805227 0.500000 0.905530
O O2 0.877277 0.248843 0.901431
O O3 0.853597 0.267856 0.830310
O O4 0.668819 0.269160 0.990988
O O5 0.712088 0.258576 0.273512
O O6 0.818970 0.224953 0.287910
O O7 0.943785 0.232716 0.147683
O O8 0.810294 0.000000 0.238474
O O9 0.924469 0.000000 0.917412
O O10 0.944611 0.248436 0.699736
O O11 0.004270 0.230635 0.582589
O O12 0.912118 0.000000 0.672785
O O13 0.425211 0.239873 0.303342
O O14 0.541143 0.000000 0.263265
O O15 0.500000 0.275650 0.500000
O O16 0.589728 0.500000 0.491991
O O17 0.698606 0.237493 0.426730
O O18 0.169868 0.000000 0.664364
#
# Coordination Sequence:
#
# PCOD9196767 Si02
#       7
#     8   8   8   8   8   8   8
#     4   9  18  32  54  83 113 149 187 228 278 328
#     4  10  20  35  57  86 116 147 185 231 280 334
#     4   9  17  32  55  84 115 145 185 233 276 326
#     4  11  24  40  60  82 112 151 190 233 285 340
#     4  11  23  39  58  83 118 154 190 231 281 337
#     4  10  21  39  60  84 112 145 187 236 286 333
#     4  11  22  36  60  89 115 147 188 231 280 337
#
# _framework density 17.855042000000001
#
# number of rings (size 3 to 8) (size 9 to 14) (size 15 to 20)
#    0.000    1.857    2.857    1.286    0.000    3.714 
#    0.000    0.714    0.000    4.286    0.000    0.000 
#    0.000    0.000    0.000    0.000    0.000    0.000 
#
# Total GULP energy -156326.443448 kJ/mol
# GULP energy per Si atom -5583.087266 kJ/mol
# Density = 1.781440 g / cm^3
# Si number density = 17.855042 Si / 1000 Ang^3
#
#
#
# Elastic Constant Matrix: (Units=GPa)
#
#
# Indices 1 2 3 4 5 6 
#
# 1 111.2707 31.9439 66.5871 0.0000 6.0229 0.0001
# 2 31.9439 21.4632 33.7060 0.0000 0.9303 0.0002
# 3 66.5871 33.7060 152.2400 0.0001 -1.2800 -0.0001
# 4 0.0000 0.0000 0.0001 19.8285 0.0000 -0.8534
# 5 6.0229 0.9303 -1.2800 0.0000 31.1288 -0.0001
# 6 0.0001 0.0002 -0.0001 -0.8534 -0.0001 33.1001
#
#
#
# Elastic Compliance Matrix: (Units=1/GPa)
#
#
# Indices 1 2 3 4 5 6 
#
# 1 0.016618 -0.020180 -0.002823 0.000000 -0.002728 0.000000
# 2 -0.020180 0.096175 -0.012462 0.000000 0.000518 0.000000
# 3 -0.002823 -0.012462 0.010574 0.000000 0.001353 0.000000
# 4 0.000000 0.000000 0.000000 0.050489 0.000000 0.001302
# 5 -0.002728 0.000518 0.001353 0.000000 0.032693 0.000000
# 6 0.000000 0.000000 0.000000 0.001302 0.000000 0.030245
#
#
# Mechanical properties :
#
#
# Convention : Reuss Voigt Hill
#
# Bulk Modulus (GPa) = 19.07142 61.04976 40.06059
# Shear Modulus (GPa) = 15.37504 26.99394 21.18449
#
# Velocity S-wave (km/s) = 2.93764 3.89245 3.44826
# Velocity P-wave (km/s) = 4.71283 7.38023 6.19187
#
# Compressibility (1/GPa) = 0.05243449
#
# Stress axis : x y z
#
# Youngs Moduli (GPa) = 60.17655 10.39775 94.57210
#
# Poissons Ratio (x) = 0.20983 0.26700
# Poissons Ratio (y) = 1.21439 1.17857
# Poissons Ratio (z) = 0.16990 0.12958
#
# Static dielectric constant tensor:
#      x y z
#    x 1.561360 0.000000 0.002710 
#    y 0.000000 1.599970 0.000000 
#    z 0.002710 0.000000 1.630890 
# 
# From -- ./inp_files/274997.got.cif
#   From: 2010.05.17/outbox.cif.g08.bks.cpg/sg12_138_cif.got.tgz:274997.got - 2010.06.03 13:09:07.
