data_PCOD9196369
_publ_section_title
;
Structure prediction by ZEFSAII (Michael W. Deem and Ramdas Pophale) SiO2 
 PCOD9196369
Probable space group: C 2/M
;
_chemical_formula_sum "Si O2"
_cell_formula_units_Z 64
_cell_length_a 30.956914
_cell_length_b 8.805010
_cell_length_c 14.543744
_cell_angle_alpha 90.000000
_cell_angle_beta 54.986226
_cell_angle_gamma 90.000000
_cell_volume 3246.796964
_symmetry_space_group_name_H-M "C 2/M"
_symmetry_group_IT_number 12
_symmetry_cell_setting 'monoclinic'
loop_
_space_group_symop_operation_xyz
x,y,z
-x,y,-z
-x,-y,-z
x,-y,z
1/2+x,1/2+y,z
1/2-x,1/2+y,-z
1/2-x,1/2-y,-z
1/2+x,1/2-y,z
loop_
_atom_site_type_symbol
_atom_site_label
_atom_site_fract_x
_atom_site_fract_y
_atom_site_fract_z
Si Si1 0.111172 0.681592 0.516558
Si Si2 0.840782 0.817890 0.058662
Si Si3 0.306706 0.681574 0.452369
Si Si4 0.729883 0.818357 0.121110
Si Si5 0.079784 0.681726 0.176099
Si Si6 0.109332 0.181376 0.810869
Si Si7 0.528600 0.181665 0.779542
Si Si8 0.883096 0.180991 0.687444
O O1 0.113977 0.500000 0.503802
O O2 0.165543 0.744619 0.492940
O O3 0.066168 0.719048 0.646601
O O4 0.100542 0.756512 0.431742
O O5 0.778136 0.791152 0.133060
O O6 0.869867 0.765924 0.115805
O O7 0.848050 0.000000 0.039534
O O8 0.867931 0.735228 0.940175
O O9 0.303837 0.500000 0.466479
O O10 0.250000 0.750000 0.500000
O O11 0.345519 0.716325 0.319406
O O12 0.675784 0.742616 0.219180
O O13 0.722274 0.000000 0.121413
O O14 0.750000 0.750000 0.000000
O O15 0.078532 0.500000 0.186141
O O16 0.080296 0.754900 0.275930
O O17 0.029976 0.732198 0.175471
O O18 0.055459 0.249544 0.837042
O O19 0.103829 0.000000 0.821583
O O20 0.528382 0.000000 0.789676
O O21 0.883068 0.000000 0.688796
#
# Coordination Sequence:
#
# PCOD9196369 Si02
#       8
#     8   8   8   8   8   8   8   8
#     4  10  21  40  62  84 116 155 195 245 300 353
#     4  10  22  39  59  87 120 156 197 240 288 351
#     4  10  20  35  56  85 117 154 198 243 292 351
#     4  11  22  38  61  86 120 159 198 242 293 347
#     4  11  23  40  62  87 116 154 199 246 299 352
#     4   9  20  38  59  84 117 155 194 238 292 349
#     4   9  21  41  63  87 116 152 196 247 298 351
#     4  12  25  40  59  89 122 154 199 244 294 358
#
# _framework density 19.711735000000001
#
# number of rings (size 3 to 8) (size 9 to 14) (size 15 to 20)
#    0.000    1.750    1.250    2.625    1.750    4.000 
#    0.000    5.000    0.000    0.000    0.000    0.000 
#    0.000    0.000    0.000    0.000    0.000    0.000 
#
# Total GULP energy -178824.846985 kJ/mol
# GULP energy per Si atom -5588.276468 kJ/mol
# Density = 1.966687 g / cm^3
# Si number density = 19.711735 Si / 1000 Ang^3
#
#
#
# Elastic Constant Matrix: (Units=GPa)
#
#
# Indices 1 2 3 4 5 6 
#
# 1 110.9194 26.5366 5.3341 0.0000 9.8259 0.0000
# 2 26.5366 53.7467 11.7769 0.0000 4.9524 0.0000
# 3 5.3341 11.7769 14.7520 0.0000 11.5610 0.0000
# 4 0.0000 0.0000 0.0000 22.4975 0.0000 2.5651
# 5 9.8259 4.9524 11.5610 0.0000 40.5121 0.0000
# 6 0.0000 0.0000 0.0000 2.5651 0.0000 36.2198
#
#
#
# Elastic Compliance Matrix: (Units=1/GPa)
#
#
# Indices 1 2 3 4 5 6 
#
# 1 0.010434 -0.005495 0.002667 0.000000 -0.002620 0.000000
# 2 -0.005495 0.025744 -0.022081 0.000000 0.004487 0.000000
# 3 0.002667 -0.022081 0.106707 0.000000 -0.028399 0.000000
# 4 0.000000 0.000000 0.000000 0.044811 0.000000 -0.003174
# 5 -0.002620 0.004487 -0.028399 0.000000 0.032875 0.000000
# 6 0.000000 0.000000 0.000000 -0.003174 0.000000 0.027834
#
#
# Mechanical properties :
#
#
# Convention : Reuss Voigt Hill
#
# Bulk Modulus (GPa) = 10.74500 29.63481 20.18991
# Shear Modulus (GPa) = 15.18627 28.89727 22.04177
#
# Velocity S-wave (km/s) = 2.77865 3.83298 3.34759
# Velocity P-wave (km/s) = 3.96956 5.88691 5.02062
#
# Compressibility (1/GPa) = 0.09306650
#
# Stress axis : x y z
#
# Youngs Moduli (GPa) = 95.84115 38.84454 9.37147
#
# Poissons Ratio (x) = 0.21343 -0.02499
# Poissons Ratio (y) = 0.52661 0.20694
# Poissons Ratio (z) = -0.25561 0.85774
#
# Static dielectric constant tensor:
#      x y z
#    x 1.706950 0.000000 0.005010 
#    y 0.000000 1.657680 0.000000 
#    z 0.005010 0.000000 1.672900 
# 
# From -- ./inp_files/249799.got.cif
#   From: 2010.05.17/outbox.cif.g08.bks.cpg/sg12_125_cif.got.tgz:249799.got - 2010.06.03 13:09:07.
