data_PCOD9196639
_publ_section_title
;
Structure prediction by ZEFSAII (Michael W. Deem and Ramdas Pophale) SiO2 
 PCOD9196639
Probable space group: C 2/M
;
_chemical_formula_sum "Si O2"
_cell_formula_units_Z 48
_cell_length_a 20.854738
_cell_length_b 8.423213
_cell_length_c 14.565744
_cell_angle_alpha 90.000000
_cell_angle_beta 89.633983
_cell_angle_gamma 90.000000
_cell_volume 2558.623192
_symmetry_space_group_name_H-M "C 2/M"
_symmetry_group_IT_number 12
_symmetry_cell_setting 'monoclinic'
loop_
_space_group_symop_operation_xyz
x,y,z
-x,y,-z
-x,-y,-z
x,-y,z
1/2+x,1/2+y,z
1/2-x,1/2+y,-z
1/2-x,1/2-y,-z
1/2+x,1/2-y,z
loop_
_atom_site_type_symbol
_atom_site_label
_atom_site_fract_x
_atom_site_fract_y
_atom_site_fract_z
Si Si1 0.689765 0.809815 0.442885
Si Si2 0.257734 0.690262 0.745406
Si Si3 0.389530 0.309643 0.251718
Si Si4 0.309152 0.308433 0.939723
Si Si5 0.563526 0.192101 0.554076
Si Si6 0.065776 0.193977 0.950992
O O1 0.750000 0.750000 0.500000
O O2 0.701282 0.745276 0.341542
O O3 0.625188 0.756478 0.494128
O O4 0.689670 0.000000 0.440945
O O5 0.253143 0.500000 0.745275
O O6 0.184750 0.754141 0.743095
O O7 0.294154 0.744417 0.836795
O O8 0.389552 0.500000 0.252036
O O9 0.426804 0.251148 0.341969
O O10 0.420991 0.255667 0.154523
O O11 0.310402 0.500000 0.939947
O O12 0.250000 0.250000 0.000000
O O13 0.374688 0.254010 0.986354
O O14 0.500000 0.244057 0.500000
O O15 0.562969 0.000000 0.557499
O O16 0.065066 0.000000 0.949577
O O17 0.000000 0.245831 0.000000
#
# Coordination Sequence:
#
# PCOD9196639 Si02
#       6
#     8   8   8   8   8   8
#     4  11  22  37  60  87 116 152 196 241 288 345
#     4  11  22  35  57  87 120 156 195 245 296 347
#     4  11  21  35  61  88 113 153 198 243 293 350
#     4  10  20  35  57  84 113 151 193 238 287 339
#     4  10  23  42  61  83 118 158 191 236 297 353
#     4   9  19  36  57  84 118 152 190 238 292 343
#
# _framework density 18.760090000000002
#
# number of rings (size 3 to 8) (size 9 to 14) (size 15 to 20)
#    0.000    1.667    3.333    1.500    0.000    3.000 
#    0.000    1.667    0.000    4.500    0.000    0.000 
#    0.000    0.000    0.000    0.000    0.000    0.000 
#
# Total GULP energy -134003.495124 kJ/mol
# GULP energy per Si atom -5583.478963 kJ/mol
# Density = 1.871739 g / cm^3
# Si number density = 18.760090 Si / 1000 Ang^3
#
#
#
# Elastic Constant Matrix: (Units=GPa)
#
#
# Indices 1 2 3 4 5 6 
#
# 1 175.7611 21.9006 106.6013 0.0000 10.7837 0.0000
# 2 21.9006 17.8993 27.2693 0.0000 2.8971 0.0000
# 3 106.6013 27.2693 220.0334 0.0000 11.8854 0.0000
# 4 0.0000 0.0000 0.0000 24.7620 0.0000 -2.8752
# 5 10.7837 2.8971 11.8854 0.0000 32.8322 0.0000
# 6 0.0000 0.0000 0.0000 -2.8752 0.0000 15.9380
#
#
#
# Elastic Compliance Matrix: (Units=1/GPa)
#
#
# Indices 1 2 3 4 5 6 
#
# 1 0.008448 -0.004948 -0.003420 0.000000 -0.001100 0.000000
# 2 -0.004948 0.072070 -0.006404 0.000000 -0.002416 0.000000
# 3 -0.003420 -0.006404 0.007042 0.000000 -0.000861 0.000000
# 4 0.000000 0.000000 0.000000 0.041248 0.000000 0.007441
# 5 -0.001100 -0.002416 -0.000861 0.000000 0.031344 0.000000
# 6 0.000000 0.000000 0.000000 0.007441 0.000000 0.064085
#
#
# Mechanical properties :
#
#
# Convention : Reuss Voigt Hill
#
# Bulk Modulus (GPa) = 17.23681 80.58180 48.90930
# Shear Modulus (GPa) = 18.30694 31.90130 25.10412
#
# Velocity S-wave (km/s) = 3.12724 4.12817 3.66206
# Velocity P-wave (km/s) = 4.71672 8.10984 6.63389
#
# Compressibility (1/GPa) = 0.05801538
#
# Stress axis : x y z
#
# Youngs Moduli (GPa) = 118.37176 13.87543 142.00537
#
# Poissons Ratio (x) = 0.06865 0.48569
# Poissons Ratio (y) = 0.58567 0.90943
# Poissons Ratio (z) = 0.40486 0.08886
#
# Static dielectric constant tensor:
#      x y z
#    x 1.624010 0.000000 0.003120 
#    y 0.000000 1.649640 0.000000 
#    z 0.003120 0.000000 1.590190 
# 
# From -- ./inp_files/221632.got.cif
#   From: 2010.05.17/outbox.cif.g08.bks.cpg/sg12_111_cif.got.tgz:221632.got - 2010.06.03 13:09:07.
