data_PCOD9196942
_publ_section_title
;
Structure prediction by ZEFSAII (Michael W. Deem and Ramdas Pophale) SiO2 
 PCOD9196942
Probable space group: C 2/M
;
_chemical_formula_sum "Si O2"
_cell_formula_units_Z 64
_cell_length_a 20.714254
_cell_length_b 8.756578
_cell_length_c 18.855971
_cell_angle_alpha 90.000000
_cell_angle_beta 95.926537
_cell_angle_gamma 90.000000
_cell_volume 3401.928125
_symmetry_space_group_name_H-M "C 2/M"
_symmetry_group_IT_number 12
_symmetry_cell_setting 'monoclinic'
loop_
_space_group_symop_operation_xyz
x,y,z
-x,y,-z
-x,-y,-z
x,-y,z
1/2+x,1/2+y,z
1/2-x,1/2+y,-z
1/2-x,1/2-y,-z
1/2+x,1/2-y,z
loop_
_atom_site_type_symbol
_atom_site_label
_atom_site_fract_x
_atom_site_fract_y
_atom_site_fract_z
Si Si1 0.247440 0.817531 0.358228
Si Si2 0.434230 0.184444 0.030447
Si Si3 0.087475 0.816114 0.816478
Si Si4 0.005827 0.182931 0.671153
Si Si5 0.608304 0.815994 0.572119
Si Si6 0.264737 0.315689 0.207022
Si Si7 0.619522 0.817252 0.410145
Si Si8 0.799134 0.684229 0.947510
O O1 0.319117 0.774245 0.394275
O O2 0.242176 0.760705 0.276909
O O3 0.190035 0.744969 0.397559
O O4 0.242357 0.000000 0.361050
O O5 0.427613 0.246291 0.109062
O O6 0.434815 0.000000 0.033513
O O7 0.500000 0.236076 0.000000
O O8 0.371345 0.231375 0.977862
O O9 0.036929 0.769000 0.749829
O O10 0.160316 0.773777 0.800267
O O11 0.086144 0.000000 0.821970
O O12 0.055125 0.238583 0.615740
O O13 0.935542 0.251965 0.647656
O O14 0.002210 0.000000 0.669659
O O15 0.601679 0.773991 0.488902
O O16 0.601307 0.000000 0.577343
O O17 0.261527 0.500000 0.214299
O O18 0.222805 0.269814 0.133702
O O19 0.620225 0.000000 0.406240
O O20 0.795347 0.500000 0.949731
O O21 0.750000 0.750000 0.000000
#
# Coordination Sequence:
#
# PCOD9196942 Si02
#       8
#     8   8   8   8   8   8   8   8
#     4  11  23  39  61  90 120 153 199 247 294 350
#     4  10  22  38  57  86 120 152 190 236 289 346
#     4  10  21  38  60  86 117 153 192 238 290 347
#     4  11  23  39  61  89 120 155 200 247 295 351
#     4  10  22  40  62  88 118 156 200 243 294 356
#     4  10  20  37  59  85 117 155 198 241 293 350
#     4  11  24  41  60  85 121 159 196 244 301 355
#     4  10  20  35  58  84 113 149 192 237 283 339
#
# _framework density 18.812860000000001
#
# number of rings (size 3 to 8) (size 9 to 14) (size 15 to 20)
#    0.000    1.625    2.500    1.875    0.000    6.250 
#    0.000    1.250    0.000    0.000    0.000    0.000 
#    0.000    0.000    0.000    0.000    0.000    0.000 
#
# Total GULP energy -178846.042201 kJ/mol
# GULP energy per Si atom -5588.938819 kJ/mol
# Density = 1.877004 g / cm^3
# Si number density = 18.812860 Si / 1000 Ang^3
#
#
#
# Elastic Constant Matrix: (Units=GPa)
#
#
# Indices 1 2 3 4 5 6 
#
# 1 65.1336 12.0923 -7.3241 0.0000 11.5673 0.0000
# 2 12.0923 15.9600 10.3445 0.0000 3.9210 0.0000
# 3 -7.3241 10.3445 65.8010 0.0000 20.6432 0.0000
# 4 0.0000 0.0000 0.0000 31.4305 0.0000 -7.1510
# 5 11.5673 3.9210 20.6432 0.0000 29.6069 0.0000
# 6 0.0000 0.0000 0.0000 -7.1510 0.0000 29.3342
#
#
#
# Elastic Compliance Matrix: (Units=1/GPa)
#
#
# Indices 1 2 3 4 5 6 
#
# 1 0.022476 -0.020160 0.009713 0.000000 -0.012884 0.000000
# 2 -0.020160 0.087944 -0.019055 0.000000 0.009515 0.000000
# 3 0.009713 -0.019055 0.025181 0.000000 -0.018829 0.000000
# 4 0.000000 0.000000 0.000000 0.033684 0.000000 0.008211
# 5 -0.012884 0.009515 -0.018829 0.000000 0.050678 0.000000
# 6 0.000000 0.000000 0.000000 0.008211 0.000000 0.036092
#
#
# Mechanical properties :
#
#
# Convention : Reuss Voigt Hill
#
# Bulk Modulus (GPa) = 13.05515 19.68000 16.36757
# Shear Modulus (GPa) = 14.68043 26.85978 20.77010
#
# Velocity S-wave (km/s) = 2.79649 3.78264 3.32631
# Velocity P-wave (km/s) = 4.16913 5.43704 4.84474
#
# Compressibility (1/GPa) = 0.07659814
#
# Stress axis : x y z
#
# Youngs Moduli (GPa) = 44.49175 11.37091 39.71259
#
# Poissons Ratio (x) = 0.22923 -0.38573
# Poissons Ratio (y) = 0.89694 0.75671
# Poissons Ratio (z) = -0.43215 0.21667
#
# Static dielectric constant tensor:
#      x y z
#    x 1.633240 0.000000 0.022590 
#    y 0.000000 1.634680 0.000000 
#    z 0.022590 0.000000 1.624100 
# 
# From -- ./inp_files/281306.got.cif
#   From: 2010.05.17/outbox.cif.g08.bks.cpg/sg12_141_cif.got.tgz:281306.got - 2010.06.03 13:09:07.
