data_PCOD9196796
_publ_section_title
;
Structure prediction by ZEFSAII (Michael W. Deem and Ramdas Pophale) SiO2 
 PCOD9196796
Probable space group: C 2/M
;
_chemical_formula_sum "Si O2"
_cell_formula_units_Z 56
_cell_length_a 8.683204
_cell_length_b 26.236504
_cell_length_c 18.048744
_cell_angle_alpha 90.000000
_cell_angle_beta 45.187158
_cell_angle_gamma 90.000000
_cell_volume 2916.970021
_symmetry_space_group_name_H-M "C 2/M"
_symmetry_group_IT_number 12
_symmetry_cell_setting 'monoclinic'
loop_
_space_group_symop_operation_xyz
x,y,z
-x,y,-z
-x,-y,-z
x,-y,z
1/2+x,1/2+y,z
1/2-x,1/2+y,-z
1/2-x,1/2-y,-z
1/2+x,1/2-y,z
loop_
_atom_site_type_symbol
_atom_site_label
_atom_site_fract_x
_atom_site_fract_y
_atom_site_fract_z
Si Si1 0.754811 0.942257 0.927317
Si Si2 0.883682 0.893488 0.619341
Si Si3 0.602137 0.000000 0.384488
Si Si4 0.401733 0.402381 0.300019
Si Si5 0.351113 0.697089 0.222945
Si Si6 0.971228 0.692519 0.228799
Si Si7 0.261098 0.500000 0.617973
Si Si8 0.183360 0.155739 0.000259
O O1 0.796466 0.902031 0.978281
O O2 0.874127 0.919514 0.814940
O O3 0.832299 0.000000 0.915751
O O4 0.500000 0.943787 0.000000
O O5 0.713467 0.848526 0.690585
O O6 0.000000 0.888199 0.500000
O O7 0.058699 0.896131 0.626129
O O8 0.756068 0.947458 0.664260
O O9 0.500000 0.000000 0.500000
O O10 0.741631 0.948389 0.333753
O O11 0.420243 0.000000 0.383308
O O12 0.329468 0.349408 0.287715
O O13 0.365688 0.752112 0.254929
O O14 0.580756 0.688031 0.102344
O O15 0.154552 0.694125 0.230758
O O16 0.096633 0.676661 0.110513
O O17 0.500000 0.500000 0.500000
O O18 0.000000 0.157623 0.000000
#
# Coordination Sequence:
#
# PCOD9196796 Si02
#       8
#     8   8   4   8   8   8   4   8
#     4  10  20  35  57  86 122 159 199 242 301 364
#     4  11  23  41  62  88 121 158 205 253 300 357
#     4  12  22  38  63  88 118 157 201 250 302 358
#     4  11  22  40  62  89 121 162 204 255 304 359
#     4  10  22  38  63  89 121 157 203 248 307 367
#     4  11  21  40  60  90 122 161 202 251 303 357
#     4  10  22  40  60  86 115 153 199 250 299 356
#     4   9  20  37  58  87 120 155 198 245 297 364
#
# _framework density 19.198003
#
# number of rings (size 3 to 8) (size 9 to 14) (size 15 to 20)
#    0.000    1.571    0.714    5.143    0.000    1.429 
#    1.286    4.286    0.000    0.000    0.000    0.000 
#    0.000    0.000    0.000    0.000    0.000    0.000 
#
# Total GULP energy -156383.146550 kJ/mol
# GULP energy per Si atom -5585.112377 kJ/mol
# Density = 1.915431 g / cm^3
# Si number density = 19.198003 Si / 1000 Ang^3
#
#
#
# Elastic Constant Matrix: (Units=GPa)
#
#
# Indices 1 2 3 4 5 6 
#
# 1 98.2109 48.4663 28.2325 0.0000 9.8031 0.0000
# 2 48.4663 187.5449 44.8518 0.0000 5.1473 0.0000
# 3 28.2325 44.8518 58.8676 0.0000 0.2577 0.0000
# 4 0.0000 0.0000 0.0000 23.0411 0.0000 0.9838
# 5 9.8031 5.1473 0.2577 0.0000 26.8117 0.0000
# 6 0.0000 0.0000 0.0000 0.9838 0.0000 27.0861
#
#
#
# Elastic Compliance Matrix: (Units=1/GPa)
#
#
# Indices 1 2 3 4 5 6 
#
# 1 0.012983 -0.002143 -0.004575 0.000000 -0.004292 0.000000
# 2 -0.002143 0.006913 -0.004237 0.000000 -0.000503 0.000000
# 3 -0.004575 -0.004237 0.022400 0.000000 0.002271 0.000000
# 4 0.000000 0.000000 0.000000 0.043468 0.000000 -0.001579
# 5 -0.004292 -0.000503 0.002271 0.000000 0.038941 0.000000
# 6 0.000000 0.000000 0.000000 -0.001579 0.000000 0.036977
#
#
# Mechanical properties :
#
#
# Convention : Reuss Voigt Hill
#
# Bulk Modulus (GPa) = 49.05429 65.30273 57.17851
# Shear Modulus (GPa) = 26.26224 30.25932 28.26078
#
# Velocity S-wave (km/s) = 3.70262 3.97441 3.84092
# Velocity P-wave (km/s) = 6.62468 7.42633 7.03693
#
# Compressibility (1/GPa) = 0.02038558
#
# Stress axis : x y z
#
# Youngs Moduli (GPa) = 77.02125 144.65436 44.64360
#
# Poissons Ratio (x) = 0.31005 0.20424
# Poissons Ratio (y) = 0.16508 0.18915
# Poissons Ratio (z) = 0.35237 0.61290
#
# Static dielectric constant tensor:
#      x y z
#    x 1.616890 0.000000 0.035520 
#    y 0.000000 1.667500 0.000000 
#    z 0.035520 0.000000 1.649820 
# 
# From -- ./inp_files/259822.got.cif
#   From: 2010.05.17/outbox.cif.g08.bks.cpg/sg12_130_cif.got.tgz:259822.got - 2010.06.03 13:09:07.
