data_PCOD9196938
_publ_section_title
;
Structure prediction by ZEFSAII (Michael W. Deem and Ramdas Pophale) SiO2 
 PCOD9196938
Probable space group: C 2/M
;
_chemical_formula_sum "Si O2"
_cell_formula_units_Z 56
_cell_length_a 23.505372
_cell_length_b 15.243968
_cell_length_c 18.012883
_cell_angle_alpha 90.000000
_cell_angle_beta 22.090100
_cell_angle_gamma 90.000000
_cell_volume 2427.226678
_symmetry_space_group_name_H-M "C 2/M"
_symmetry_group_IT_number 12
_symmetry_cell_setting 'monoclinic'
loop_
_space_group_symop_operation_xyz
x,y,z
-x,y,-z
-x,-y,-z
x,-y,z
1/2+x,1/2+y,z
1/2-x,1/2+y,-z
1/2-x,1/2-y,-z
1/2+x,1/2-y,z
loop_
_atom_site_type_symbol
_atom_site_label
_atom_site_fract_x
_atom_site_fract_y
_atom_site_fract_z
Si Si1 0.101495 0.833729 0.532232
Si Si2 0.961341 0.642216 0.672018
Si Si3 0.733608 0.655742 0.063187
Si Si4 0.127562 0.105302 0.655006
Si Si5 0.817205 0.896604 0.717144
Si Si6 0.714294 0.403047 0.709564
Si Si7 0.693088 0.394145 0.892694
O O1 0.207843 0.864431 0.336572
O O2 0.037570 0.737281 0.592768
O O3 0.936614 0.883307 0.736934
O O4 0.176729 0.847015 0.520807
O O5 0.845666 0.643143 0.743460
O O6 0.110777 0.587447 0.480497
O O7 0.864068 0.607437 0.859548
O O8 0.757403 0.654536 0.123318
O O9 0.750000 0.750000 0.000000
O O10 0.202643 0.135541 0.641505
O O11 0.150076 0.000000 0.618688
O O12 0.949668 0.123879 0.882792
O O13 0.000000 0.884633 0.500000
O O14 0.784009 0.000000 0.765180
O O15 0.644551 0.500000 0.785145
O O16 0.651844 0.360544 0.860187
O O17 0.708833 0.500000 0.869804
#
# Coordination Sequence:
#
# PCOD9196938 Si02
#       7
#     8   8   8   8   8   8   8
#     4  10  20  36  56  84 114 149 198 240 292 348
#     4  11  21  34  55  85 119 151 183 241 304 359
#     4   9  19  33  51  79 115 147 185 240 299 348
#     4  10  20  37  60  81 113 155 198 244 288 344
#     4   9  18  32  53  81 112 148 197 247 285 335
#     4  10  22  37  54  84 118 153 194 239 294 354
#     4  10  20  35  58  84 112 150 196 240 290 349
#
# _framework density 23.071598000000002
#
# number of rings (size 3 to 8) (size 9 to 14) (size 15 to 20)
#    0.000    2.143    1.429    1.714    0.000   10.857 
#    0.000    0.000    0.000    0.857    0.000    3.000 
#    0.000    0.000    0.000    0.000    0.000    0.000 
#
# Total GULP energy -156109.181498 kJ/mol
# GULP energy per Si atom -5575.327911 kJ/mol
# Density = 2.301909 g / cm^3
# Si number density = 23.071598 Si / 1000 Ang^3
#
#
#
# Elastic Constant Matrix: (Units=GPa)
#
#
# Indices 1 2 3 4 5 6 
#
# 1 189.8491 34.9505 33.1054 0.0006 54.6399 -0.0004
# 2 34.9505 78.9593 18.9491 0.0009 15.0464 -0.0005
# 3 33.1054 18.9491 76.1753 0.0011 41.1610 -0.0006
# 4 0.0006 0.0009 0.0011 -50.2096 -0.0007 20.0509
# 5 54.6399 15.0464 41.1610 -0.0007 60.6088 0.0005
# 6 -0.0004 -0.0005 -0.0006 20.0509 0.0005 16.1638
#
#
#
# Elastic Compliance Matrix: (Units=1/GPa)
#
#
# Indices 1 2 3 4 5 6 
#
# 1 0.007484 -0.002247 0.001028 0.000000 -0.006887 0.000000
# 2 -0.002247 0.014254 -0.002767 0.000000 0.000366 0.000000
# 3 0.001028 -0.002767 0.021324 0.000001 -0.014721 0.000000
# 4 0.000000 0.000000 0.000001 -0.013319 -0.000001 0.016522
# 5 -0.006887 0.000366 -0.014721 -0.000001 0.032615 0.000000
# 6 0.000000 0.000000 0.000000 0.016522 0.000000 0.041372
#
#
# Mechanical properties :
#
#
# Convention : Reuss Voigt Hill
#
# Bulk Modulus (GPa) = 28.49893 57.66596 43.08244
# Shear Modulus (GPa) = 40.51928 22.51117 31.51523
#
# Velocity S-wave (km/s) = 4.19530 3.12702 3.69992
# Velocity P-wave (km/s) = 5.98720 6.17141 6.08000
#
# Compressibility (1/GPa) = 0.03508904
#
# Stress axis : x y z
#
# Youngs Moduli (GPa) = 133.61970 70.15768 46.89587
#
# Poissons Ratio (x) = 0.15764 -0.04821
# Poissons Ratio (y) = 0.30024 0.12977
# Poissons Ratio (z) = -0.13735 0.19414
#
# Static dielectric constant tensor:
#      x y z
#    x 1.942600 0.000000 0.028620 
#    y 0.000000 2.005080 0.000000 
#    z 0.028620 0.000000 1.919000 
# 
# From -- ./inp_files/234674.got.cif
#   From: 2010.05.17/outbox.cif.g08.bks.cpg/sg12_118_cif.got.tgz:234674.got - 2010.06.03 13:09:07.
