data_PCOD9196519
_publ_section_title
;
Structure prediction by ZEFSAII (Michael W. Deem and Ramdas Pophale) SiO2 
 PCOD9196519
Probable space group: C 2/M
;
_chemical_formula_sum "Si O2"
_cell_formula_units_Z 32
_cell_length_a 13.600437
_cell_length_b 18.532028
_cell_length_c 14.298952
_cell_angle_alpha 90.000000
_cell_angle_beta 21.715615
_cell_angle_gamma 90.000000
_cell_volume 1333.465241
_symmetry_space_group_name_H-M "C 2/M"
_symmetry_group_IT_number 12
_symmetry_cell_setting 'monoclinic'
loop_
_space_group_symop_operation_xyz
x,y,z
-x,y,-z
-x,-y,-z
x,-y,z
1/2+x,1/2+y,z
1/2-x,1/2+y,-z
1/2-x,1/2-y,-z
1/2+x,1/2-y,z
loop_
_atom_site_type_symbol
_atom_site_label
_atom_site_fract_x
_atom_site_fract_y
_atom_site_fract_z
Si Si1 0.942607 0.418542 0.439098
Si Si2 0.693928 0.917960 0.739069
Si Si3 0.455871 0.358393 0.935947
Si Si4 0.948542 0.275512 0.243126
O O1 0.005936 0.500000 0.356260
O O2 0.000000 0.410752 0.500000
O O3 0.138824 0.365722 0.210258
O O4 0.628964 0.402767 0.708402
O O5 0.611963 0.854679 0.741301
O O6 0.000000 0.907900 0.500000
O O7 0.669892 0.000000 0.722071
O O8 0.500000 0.913198 0.000000
O O9 0.500000 0.390276 0.000000
O O10 0.589093 0.279963 0.811970
O O11 0.750000 0.250000 0.500000
O O12 0.250000 0.250000 0.000000
#
# Coordination Sequence:
#
# PCOD9196519 Si02
#       4
#     8   8   8   8
#     4   9  17  31  52  79 110 144 191 243 280 332
#     4  10  22  44  74 100 126 172 234 288 328 386
#     4  10  20  35  57  82 111 158 210 250 300 377
#     4  12  25  41  61  94 135 165 201 268 350 412
#
# _framework density 23.997627000000001
#
# number of rings (size 3 to 8) (size 9 to 14) (size 15 to 20)
#    0.000    1.750    0.000    4.500    0.000    6.000 
#    0.000    7.500    0.000    0.000    0.000    0.000 
#    0.000    0.000    0.000    0.000    0.000    0.000 
#
# Total GULP energy -89290.597193 kJ/mol
# GULP energy per Si atom -5580.662325 kJ/mol
# Density = 2.394301 g / cm^3
# Si number density = 23.997627 Si / 1000 Ang^3
#
#
#
# Elastic Constant Matrix: (Units=GPa)
#
#
# Indices 1 2 3 4 5 6 
#
# 1 66.9840 60.5679 53.4355 0.2853 0.4579 0.1732
# 2 60.5679 204.6945 90.3544 -0.9294 7.8728 -0.3405
# 3 53.4355 90.3544 248.6119 -0.9469 0.9815 -0.4070
# 4 0.2853 -0.9294 -0.9469 -51.1799 -0.2243 -40.2913
# 5 0.4579 7.8728 0.9815 -0.2243 30.2115 -0.1314
# 6 0.1732 -0.3405 -0.4070 -40.2913 -0.1314 -1.5897
#
#
#
# Elastic Compliance Matrix: (Units=1/GPa)
#
#
# Indices 1 2 3 4 5 6 
#
# 1 0.021943 -0.005303 -0.002793 0.000158 0.001142 0.000136
# 2 -0.005303 0.007164 -0.001457 -0.000060 -0.001740 -0.000083
# 3 -0.002793 -0.001457 0.005151 -0.000051 0.000254 -0.000044
# 4 0.000158 -0.000060 -0.000051 0.001033 -0.000091 -0.026127
# 5 0.001142 -0.001740 0.000254 -0.000091 0.033527 -0.000029
# 6 0.000136 -0.000083 -0.000044 -0.026127 -0.000029 0.033192
#
#
# Mechanical properties :
#
#
# Convention : Reuss Voigt Hill
#
# Bulk Modulus (GPa) = 65.99808 103.22288 84.61048
# Shear Modulus (GPa) = 39.62993 16.55055 28.09024
#
# Velocity S-wave (km/s) = 4.06816 2.62901 3.42503
# Velocity P-wave (km/s) = 7.04473 7.23345 7.13971
#
# Compressibility (1/GPa) = 0.01515196
#
# Stress axis : x y z
#
# Youngs Moduli (GPa) = 45.57250 139.58052 194.13699
#
# Poissons Ratio (x) = 0.74020 0.54217
# Poissons Ratio (y) = 0.24167 0.28294
# Poissons Ratio (z) = 0.12727 0.20343
#
# Static dielectric constant tensor:
#      x y z
#    x 2.051880 -0.000910 -0.100310 
#    y -0.000910 2.011630 0.000150 
#    z -0.100310 0.000150 1.936170 
# 
# From -- ./inp_files/217532.got.cif
#   From: 2010.05.17/outbox.cif.g08.bks.cpg/sg12_109_cif.got.tgz:217532.got - 2010.06.03 13:09:07.
