data_PCOD9196807
_publ_section_title
;
Structure prediction by ZEFSAII (Michael W. Deem and Ramdas Pophale) SiO2 
 PCOD9196807
Probable space group: C 2/M
;
_chemical_formula_sum "Si O2"
_cell_formula_units_Z 48
_cell_length_a 10.061769
_cell_length_b 29.482239
_cell_length_c 17.350074
_cell_angle_alpha 90.000000
_cell_angle_beta 30.029676
_cell_angle_gamma 90.000000
_cell_volume 2575.701410
_symmetry_space_group_name_H-M "C 2/M"
_symmetry_group_IT_number 12
_symmetry_cell_setting 'monoclinic'
loop_
_space_group_symop_operation_xyz
x,y,z
-x,y,-z
-x,-y,-z
x,-y,z
1/2+x,1/2+y,z
1/2-x,1/2+y,-z
1/2-x,1/2-y,-z
1/2+x,1/2-y,z
loop_
_atom_site_type_symbol
_atom_site_label
_atom_site_fract_x
_atom_site_fract_y
_atom_site_fract_z
Si Si1 0.315038 0.272728 0.322385
Si Si2 0.610160 0.624397 0.681112
Si Si3 0.188228 0.446899 0.660336
Si Si4 0.096862 0.384745 0.319027
Si Si5 0.753506 0.213582 0.181024
Si Si6 0.206811 0.449311 0.826384
O O1 0.438250 0.322603 0.277348
O O2 0.487371 0.236652 0.282204
O O3 0.330093 0.264069 0.223914
O O4 0.000000 0.273315 0.500000
O O5 0.683880 0.602026 0.726985
O O6 0.393481 0.592896 0.750971
O O7 0.850877 0.625416 0.499401
O O8 0.500000 0.432081 0.500000
O O9 0.184462 0.500000 0.641570
O O10 0.097033 0.442528 0.795017
O O11 0.004516 0.419845 0.693412
O O12 0.191278 0.338891 0.230541
O O13 0.000000 0.218078 0.000000
O O14 0.337889 0.500000 0.758462
O O15 0.000000 0.450500 0.000000
#
# Coordination Sequence:
#
# PCOD9196807 Si02
#       6
#     8   8   8   8   8   8
#     4  11  22  40  62  86 120 156 196 244 290 352
#     4  10  20  38  60  84 118 154 193 239 290 348
#     4  10  20  35  57  87 117 148 196 244 281 342
#     4  10  21  37  59  86 118 152 193 241 289 344
#     4  11  24  40  60  88 120 153 196 246 296 346
#     4  10  22  39  59  86 120 154 192 242 294 344
#
# _framework density 18.635701000000001
#
# number of rings (size 3 to 8) (size 9 to 14) (size 15 to 20)
#    0.000    1.667    5.000    1.000    0.000    6.000 
#    0.000    1.667    0.000    3.500    0.000    0.000 
#    0.000    0.000    0.000    0.000    0.000    0.000 
#
# Total GULP energy -133795.921362 kJ/mol
# GULP energy per Si atom -5574.830057 kJ/mol
# Density = 1.859329 g / cm^3
# Si number density = 18.635701 Si / 1000 Ang^3
#
#
#
# Elastic Constant Matrix: (Units=GPa)
#
#
# Indices 1 2 3 4 5 6 
#
# 1 100.1647 48.3074 12.6708 0.0000 26.5202 0.0000
# 2 48.3074 49.3449 12.9616 0.0000 3.0155 0.0000
# 3 12.6708 12.9616 57.9843 0.0000 23.7171 0.0000
# 4 0.0000 0.0000 0.0000 16.9849 0.0000 2.5566
# 5 26.5202 3.0155 23.7171 0.0000 31.6893 0.0000
# 6 0.0000 0.0000 0.0000 2.5566 0.0000 53.5511
#
#
#
# Elastic Compliance Matrix: (Units=1/GPa)
#
#
# Indices 1 2 3 4 5 6 
#
# 1 0.036410 -0.037579 0.016494 0.000000 -0.039239 0.000000
# 2 -0.037579 0.060426 -0.022781 0.000000 0.042749 0.000000
# 3 0.016494 -0.022781 0.033858 0.000000 -0.036976 0.000000
# 4 0.000000 0.000000 0.000000 0.059302 0.000000 -0.002831
# 5 -0.039239 0.042749 -0.036976 0.000000 0.088001 0.000000
# 6 0.000000 0.000000 0.000000 -0.002831 0.000000 0.018809
#
#
# Mechanical properties :
#
#
# Convention : Reuss Voigt Hill
#
# Bulk Modulus (GPa) = 23.27646 39.48593 31.38119
# Shear Modulus (GPa) = 12.53574 29.34866 20.94220
#
# Velocity S-wave (km/s) = 2.59641 3.97276 3.35590
# Velocity P-wave (km/s) = 4.63744 6.50216 5.64730
#
# Compressibility (1/GPa) = 0.04296187
#
# Stress axis : x y z
#
# Youngs Moduli (GPa) = 27.46504 16.54923 29.53475
#
# Poissons Ratio (x) = 0.62190 -0.48714
# Poissons Ratio (y) = 1.03211 0.67283
# Poissons Ratio (z) = -0.45300 0.37701
#
# Static dielectric constant tensor:
#      x y z
#    x 1.639050 0.000000 -0.000470 
#    y 0.000000 1.637090 0.000000 
#    z -0.000470 0.000000 1.663540 
# 
# From -- ./inp_files/200117.got.cif
#   From: 2010.05.17/outbox.cif.g08.bks.cpg/sg12_101_cif.got.tgz:200117.got - 2010.06.03 13:09:07.
