data_PCOD9196358
_publ_section_title
;
Structure prediction by ZEFSAII (Michael W. Deem and Ramdas Pophale) SiO2 
 PCOD9196358
Probable space group: C 2/M
;
_chemical_formula_sum "Si O2"
_cell_formula_units_Z 48
_cell_length_a 31.037977
_cell_length_b 7.919201
_cell_length_c 15.230972
_cell_angle_alpha 90.000000
_cell_angle_beta 139.778660
_cell_angle_gamma 90.000000
_cell_volume 2417.472313
_symmetry_space_group_name_H-M "C 2/M"
_symmetry_group_IT_number 12
_symmetry_cell_setting 'monoclinic'
loop_
_space_group_symop_operation_xyz
x,y,z
-x,y,-z
-x,-y,-z
x,-y,z
1/2+x,1/2+y,z
1/2-x,1/2+y,-z
1/2-x,1/2-y,-z
1/2+x,1/2-y,z
loop_
_atom_site_type_symbol
_atom_site_label
_atom_site_fract_x
_atom_site_fract_y
_atom_site_fract_z
Si Si1 0.931282 0.203349 0.848937
Si Si2 0.927762 0.203219 0.643827
Si Si3 0.310996 0.702053 0.336169
Si Si4 0.661558 0.796304 0.139073
Si Si5 0.178492 0.701849 0.848117
Si Si6 0.922550 0.295909 0.160535
O O1 0.923759 0.266945 0.737894
O O2 0.870927 0.248290 0.819240
O O3 0.935857 0.000000 0.852013
O O4 0.000000 0.266832 0.000000
O O5 0.868588 0.269002 0.489852
O O6 0.000818 0.243326 0.720455
O O7 0.921826 0.000000 0.637870
O O8 0.308444 0.500000 0.344213
O O9 0.236823 0.767491 0.242638
O O10 0.326742 0.734216 0.259007
O O11 0.663094 0.000000 0.135912
O O12 0.614057 0.735860 0.985624
O O13 0.174887 0.500000 0.840235
O O14 0.120427 0.763992 0.823046
O O15 0.250000 0.750000 0.000000
O O16 0.920294 0.500000 0.156578
#
# Coordination Sequence:
#
# PCOD9196358 Si02
#       6
#     8   8   8   8   8   8
#     4  10  20  35  56  85 115 146 191 239 282 336
#     4  10  22  39  59  83 117 155 188 236 291 338
#     4  10  22  41  59  83 119 153 190 235 288 343
#     4  10  20  36  58  83 112 150 189 233 286 340
#     4  11  22  38  61  88 116 151 192 237 285 337
#     4  10  21  37  58  84 114 147 189 236 285 341
#
# _framework density 19.855450999999999
#
# number of rings (size 3 to 8) (size 9 to 14) (size 15 to 20)
#    0.000    1.833    3.333    0.500    0.000    5.000 
#    0.000    3.333    0.000    0.000    0.000    0.000 
#    0.000    0.000    0.000    0.000    0.000    0.000 
#
# Total GULP energy -134065.905265 kJ/mol
# GULP energy per Si atom -5586.079386 kJ/mol
# Density = 1.981026 g / cm^3
# Si number density = 19.855451 Si / 1000 Ang^3
#
#
#
# Elastic Constant Matrix: (Units=GPa)
#
#
# Indices 1 2 3 4 5 6 
#
# 1 161.5641 -7.2235 73.6484 0.0000 -1.7662 0.0000
# 2 -7.2235 13.5933 5.3156 0.0000 0.8873 0.0000
# 3 73.6484 5.3156 162.4577 0.0000 -6.0132 0.0000
# 4 0.0000 0.0000 0.0000 18.0148 0.0000 1.2206
# 5 -1.7662 0.8873 -6.0132 0.0000 29.2712 0.0000
# 6 0.0000 0.0000 0.0000 1.2206 0.0000 30.6001
#
#
#
# Elastic Compliance Matrix: (Units=1/GPa)
#
#
# Indices 1 2 3 4 5 6 
#
# 1 0.008254 0.005965 -0.003955 0.000000 -0.000495 0.000000
# 2 0.005965 0.079056 -0.005407 0.000000 -0.003147 0.000000
# 3 -0.003955 -0.005407 0.008185 0.000000 0.001607 0.000000
# 4 0.000000 0.000000 0.000000 0.055660 0.000000 -0.002220
# 5 -0.000495 -0.003147 0.001607 0.000000 0.034559 0.000000
# 6 0.000000 0.000000 0.000000 -0.002220 0.000000 0.032768
#
#
# Mechanical properties :
#
#
# Convention : Reuss Voigt Hill
#
# Bulk Modulus (GPa) = 11.27407 53.45511 32.36459
# Shear Modulus (GPa) = 19.61992 33.30220 26.46106
#
# Velocity S-wave (km/s) = 3.14688 4.09985 3.65456
# Velocity P-wave (km/s) = 4.34674 7.02796 5.84322
#
# Compressibility (1/GPa) = 0.08869912
#
# Stress axis : x y z
#
# Youngs Moduli (GPa) = 121.15671 12.64934 122.17583
#
# Poissons Ratio (x) = -0.07545 0.48324
# Poissons Ratio (y) = -0.72271 0.66065
# Poissons Ratio (z) = 0.47921 0.06840
#
# Static dielectric constant tensor:
#      x y z
#    x 1.669170 0.000000 -0.000160 
#    y 0.000000 1.874490 0.000000 
#    z -0.000160 0.000000 1.681880 
# 
# From -- ./inp_files/229948.got.cif
#   From: 2010.05.17/outbox.cif.g08.bks.cpg/sg12_115_cif.got.tgz:229948.got - 2010.06.03 13:09:07.
