data_PCOD9196297
_publ_section_title
;
Structure prediction by ZEFSAII (Michael W. Deem and Ramdas Pophale) SiO2 
 PCOD9196297
Probable space group: C 2/M
;
_chemical_formula_sum "Si O2"
_cell_formula_units_Z 58
_cell_length_a 24.760005
_cell_length_b 7.401108
_cell_length_c 28.505311
_cell_angle_alpha 90.000000
_cell_angle_beta 31.193995
_cell_angle_gamma 90.000000
_cell_volume 2705.518393
_symmetry_space_group_name_H-M "C 2/M"
_symmetry_group_IT_number 12
_symmetry_cell_setting 'monoclinic'
loop_
_space_group_symop_operation_xyz
x,y,z
-x,y,-z
-x,-y,-z
x,-y,z
1/2+x,1/2+y,z
1/2-x,1/2+y,-z
1/2-x,1/2-y,-z
1/2+x,1/2-y,z
loop_
_atom_site_type_symbol
_atom_site_label
_atom_site_fract_x
_atom_site_fract_y
_atom_site_fract_z
Si Si1 0.180817 0.279063 0.840207
Si Si2 0.500000 0.500000 0.000000
Si Si3 0.490162 0.711568 0.182726
Si Si4 0.593762 0.216387 0.205539
Si Si5 0.427049 0.709214 0.508631
Si Si6 0.218523 0.704367 0.706180
Si Si7 0.697783 0.284719 0.988036
Si Si8 0.582559 0.709220 0.316579
O O1 0.166707 0.500000 0.856237
O O2 0.179867 0.227566 0.785308
O O3 0.298381 0.224568 0.768397
O O4 0.092194 0.159959 0.930605
O O5 0.478074 0.500000 0.181524
O O6 0.532035 0.729238 0.204612
O O7 0.379670 0.797464 0.255141
O O8 0.580741 0.785564 0.080694
O O9 0.713812 0.285675 0.112447
O O10 0.547551 0.277557 0.288869
O O11 0.597559 0.000000 0.202352
O O12 0.500000 0.708632 0.500000
O O13 0.404241 0.500000 0.511507
O O14 0.317489 0.791162 0.606957
O O15 0.496835 0.790574 0.415163
O O16 0.253142 0.500000 0.691805
O O17 0.688829 0.500000 0.987701
O O18 0.750000 0.250000 0.000000
O O19 0.591670 0.500000 0.323983
#
# Coordination Sequence:
#
# PCOD9196297 Si02
#       8
#     8   2   8   8   8   8   8   8
#     4  10  23  42  63  92 128 169 211 256 311 383
#     4  12  26  40  64  88 140 168 214 252 324 362
#     4  10  20  35  56  83 119 158 203 249 306 362
#     4  10  20  35  56  83 119 158 203 249 306 362
#     4   9  16  34  64  89 112 151 201 255 310 375
#     4  10  20  37  62  90 120 155 204 255 312 370
#     4   8  16  31  50  73 101 143 191 234 277 340
#     4  10  20  37  62  90 120 155 204 255 312 370
#
# _framework density 21.437664999999999
#
# number of rings (size 3 to 8) (size 9 to 14) (size 15 to 20)
#    0.000    2.345    1.379    1.034    1.931    2.207 
#    2.483    2.759    0.000    1.655    0.000    0.000 
#    0.000    0.000    0.000    0.000    0.000    0.000 
#
# Total GULP energy -161443.476874 kJ/mol
# GULP energy per Si atom -5567.016444 kJ/mol
# Density = 2.138887 g / cm^3
# Si number density = 21.437665 Si / 1000 Ang^3
#
#
#
# Elastic Constant Matrix: (Units=GPa)
#
#
# Indices 1 2 3 4 5 6 
#
# 1 64.9156 -6.8549 23.8743 0.0774 -5.0885 -0.0172
# 2 -6.8549 98.6887 7.5612 0.0275 -6.6988 0.0296
# 3 23.8743 7.5612 67.9069 0.0227 -15.6808 -0.0194
# 4 0.0774 0.0275 0.0227 -21.2057 -0.0260 9.0042
# 5 -5.0885 -6.6988 -15.6808 -0.0260 39.4412 0.0179
# 6 -0.0172 0.0296 -0.0194 9.0042 0.0179 0.5046
#
#
#
# Elastic Compliance Matrix: (Units=1/GPa)
#
#
# Indices 1 2 3 4 5 6 
#
# 1 0.017987 0.001750 -0.006512 0.000020 0.000029 -0.000097
# 2 0.001750 0.010462 -0.001451 -0.000031 0.001426 -0.000112
# 3 -0.006512 -0.001451 0.018637 0.000016 0.006323 0.000070
# 4 0.000020 -0.000031 0.000016 -0.005498 -0.000044 0.098111
# 5 0.000029 0.001426 0.006323 -0.000044 0.028114 -0.000044
# 6 -0.000097 -0.000112 0.000070 0.098111 -0.000044 0.231059
#
#
# Mechanical properties :
#
#
# Convention : Reuss Voigt Hill
#
# Bulk Modulus (GPa) = 28.85102 31.18582 30.01842
# Shear Modulus (GPa) = 15.39694 17.54341 16.47017
#
# Velocity S-wave (km/s) = 2.68287 2.86378 2.77480
# Velocity P-wave (km/s) = 4.80462 5.05111 4.92941
#
# Compressibility (1/GPa) = 0.03466082
#
# Stress axis : x y z
#
# Youngs Moduli (GPa) = 55.59710 95.57994 53.65636
#
# Poissons Ratio (x) = -0.16729 0.34940
# Poissons Ratio (y) = -0.09731 0.07786
# Poissons Ratio (z) = 0.36204 0.13869
#
# Static dielectric constant tensor:
#      x y z
#    x 1.754830 0.000030 0.018490 
#    y 0.000030 1.782530 0.000020 
#    z 0.018490 0.000020 1.825340 
# 
# From -- ./inp_files/367546.got.cif
#   From: 2010.05.17/outbox.cif.g08.bks.cpg/sg12_184_cif.got.tgz:367546.got - 2010.06.03 13:09:07.
