data_PCOD9196601
_publ_section_title
;
Structure prediction by ZEFSAII (Michael W. Deem and Ramdas Pophale) SiO2 
 PCOD9196601
Probable space group: C 2/M
;
_chemical_formula_sum "Si O2"
_cell_formula_units_Z 64
_cell_length_a 12.386675
_cell_length_b 25.907905
_cell_length_c 11.081605
_cell_angle_alpha 90.000000
_cell_angle_beta 108.979178
_cell_angle_gamma 90.000000
_cell_volume 3362.901000
_symmetry_space_group_name_H-M "C 2/M"
_symmetry_group_IT_number 12
_symmetry_cell_setting 'monoclinic'
loop_
_space_group_symop_operation_xyz
x,y,z
-x,y,-z
-x,-y,-z
x,-y,z
1/2+x,1/2+y,z
1/2-x,1/2+y,-z
1/2-x,1/2-y,-z
1/2+x,1/2-y,z
loop_
_atom_site_type_symbol
_atom_site_label
_atom_site_fract_x
_atom_site_fract_y
_atom_site_fract_z
Si Si1 0.941704 0.853511 0.280529
Si Si2 0.129528 0.056832 0.598099
Si Si3 0.627406 0.218884 0.065622
Si Si4 0.268131 0.709834 0.348365
Si Si5 0.862176 0.316401 0.450655
Si Si6 0.822586 0.829345 0.988421
Si Si7 0.630746 0.441869 0.096249
Si Si8 0.185216 0.897872 0.368304
O O1 0.882750 0.908632 0.287515
O O2 0.885186 0.820945 0.367556
O O3 0.901033 0.833074 0.137109
O O4 0.077525 0.858418 0.335749
O O5 0.196495 0.078062 0.506035
O O6 0.000000 0.055161 0.500000
O O7 0.169415 0.000000 0.643102
O O8 0.685340 0.198750 0.207404
O O9 0.702007 0.194370 0.985788
O O10 0.500000 0.201859 0.000000
O O11 0.629624 0.281555 0.071765
O O12 0.196230 0.694836 0.439890
O O13 0.311000 0.768460 0.358627
O O14 0.802019 0.368306 0.381982
O O15 0.000000 0.317192 0.500000
O O16 0.818202 0.887087 0.933262
O O17 0.673189 0.500000 0.077900
O O18 0.646320 0.436138 0.247070
O O19 0.500000 0.439889 0.000000
#
# Coordination Sequence:
#
# PCOD9196601 Si02
#       8
#     8   8   8   8   8   8   8   8
#     4  10  20  35  57  83 118 150 191 240 295 347
#     4   9  18  32  54  83 109 142 188 237 292 341
#     4  10  22  38  62  88 118 161 199 245 297 360
#     4  10  23  38  56  85 119 152 197 242 294 351
#     4  11  25  37  57  85 117 159 197 241 296 358
#     4  10  21  37  56  89 123 155 196 243 296 358
#     4  11  22  36  59  92 126 157 193 245 308 364
#     4  11  21  37  59  84 117 158 193 249 290 359
#
# _framework density 19.031186999999999
#
# number of rings (size 3 to 8) (size 9 to 14) (size 15 to 20)
#    0.000    1.750    2.500    1.500    5.250    4.000 
#    0.000    0.000    0.000    1.875    0.000    0.000 
#    0.000    0.000    0.000    0.000    0.000    0.000 
#
# Total GULP energy -178291.519201 kJ/mol
# GULP energy per Si atom -5571.609975 kJ/mol
# Density = 1.898787 g / cm^3
# Si number density = 19.031187 Si / 1000 Ang^3
#
#
#
# Elastic Constant Matrix: (Units=GPa)
#
#
# Indices 1 2 3 4 5 6 
#
# 1 96.1703 24.3297 13.4207 0.0000 11.1318 0.0000
# 2 24.3297 89.3240 -6.2369 0.0000 -1.7250 0.0000
# 3 13.4207 -6.2369 37.4061 0.0000 7.2270 0.0000
# 4 0.0000 0.0000 0.0000 15.3558 0.0000 -4.8749
# 5 11.1318 -1.7250 7.2270 0.0000 19.3739 0.0000
# 6 0.0000 0.0000 0.0000 -4.8749 0.0000 16.9187
#
#
#
# Elastic Compliance Matrix: (Units=1/GPa)
#
#
# Indices 1 2 3 4 5 6 
#
# 1 0.012634 -0.003838 -0.003992 0.000000 -0.006112 0.000000
# 2 -0.003838 0.012495 0.003038 0.000000 0.002184 0.000000
# 3 -0.003992 0.003038 0.030365 0.000000 -0.008763 0.000000
# 4 0.000000 0.000000 0.000000 0.071678 0.000000 0.020653
# 5 -0.006112 0.002184 -0.008763 0.000000 0.058591 0.000000
# 6 0.000000 0.000000 0.000000 0.020653 0.000000 0.065057
#
#
# Mechanical properties :
#
#
# Convention : Reuss Voigt Hill
#
# Bulk Modulus (GPa) = 21.78126 31.76972 26.77549
# Shear Modulus (GPa) = 18.13523 23.08882 20.61203
#
# Velocity S-wave (km/s) = 3.09029 3.48689 3.29457
# Velocity P-wave (km/s) = 4.91966 5.73942 5.34528
#
# Compressibility (1/GPa) = 0.04591104
#
# Stress axis : x y z
#
# Youngs Moduli (GPa) = 79.15379 80.03292 32.93220
#
# Poissons Ratio (x) = 0.30715 0.13146
# Poissons Ratio (y) = 0.30378 -0.10006
# Poissons Ratio (z) = 0.31597 -0.24316
#
# Static dielectric constant tensor:
#      x y z
#    x 1.658530 0.000000 -0.048830 
#    y 0.000000 1.738280 0.000000 
#    z -0.048830 0.000000 1.692830 
# 
# From -- ./inp_files/136696.got.cif
#   From: 2010.05.17/outbox.cif.g08.bks.cpg/sg12_69_cif.got.tgz:136696.got - 2010.06.03 13:09:07.
