data_PCOD9196688
_publ_section_title
;
Structure prediction by ZEFSAII (Michael W. Deem and Ramdas Pophale) SiO2 
 PCOD9196688
Probable space group: C 2/M
;
_chemical_formula_sum "Si O2"
_cell_formula_units_Z 48
_cell_length_a 29.988044
_cell_length_b 9.132612
_cell_length_c 8.025924
_cell_angle_alpha 90.000000
_cell_angle_beta 99.991211
_cell_angle_gamma 90.000000
_cell_volume 2164.718306
_symmetry_space_group_name_H-M "C 2/M"
_symmetry_group_IT_number 12
_symmetry_cell_setting 'monoclinic'
loop_
_space_group_symop_operation_xyz
x,y,z
-x,y,-z
-x,-y,-z
x,-y,z
1/2+x,1/2+y,z
1/2-x,1/2+y,-z
1/2-x,1/2-y,-z
1/2+x,1/2-y,z
loop_
_atom_site_type_symbol
_atom_site_label
_atom_site_fract_x
_atom_site_fract_y
_atom_site_fract_z
Si Si1 0.188159 0.169696 0.308777
Si Si2 0.021886 0.828061 0.196576
Si Si3 0.356531 0.670419 0.089415
Si Si4 0.938798 0.671195 0.278926
Si Si5 0.226185 0.323407 0.824407
Si Si6 0.105715 0.329517 0.385913
O O1 0.240334 0.212081 0.306865
O O2 0.156491 0.268460 0.402427
O O3 0.186711 0.000000 0.361559
O O4 0.164732 0.178124 0.109332
O O5 0.071585 0.760910 0.247046
O O6 0.987711 0.744069 0.296883
O O7 0.023586 0.000000 0.235892
O O8 0.000000 0.809576 0.000000
O O9 0.359470 0.500000 0.137063
O O10 0.405062 0.745165 0.132915
O O11 0.323430 0.755878 0.194811
O O12 0.942207 0.500000 0.240237
O O13 0.915759 0.685458 0.444690
O O14 0.224873 0.500000 0.839146
O O15 0.250000 0.250000 0.000000
O O16 0.105552 0.500000 0.339952
#
# Coordination Sequence:
#
# PCOD9196688 Si02
#       6
#     8   8   8   8   8   8
#     4   9  19  35  56  83 113 145 186 232 276 328
#     4  11  24  41  62  87 112 141 182 228 274 330
#     4  10  20  35  57  85 113 146 190 234 279 332
#     4  11  24  40  57  82 115 148 185 228 275 330
#     4   9  17  31  53  82 114 147 186 234 282 327
#     4  11  24  39  57  83 114 148 186 227 274 330
#
# _framework density 22.173784999999999
#
# number of rings (size 3 to 8) (size 9 to 14) (size 15 to 20)
#    0.000    1.833    0.000    5.000    0.000   14.000 
#    0.000    0.833    0.000    0.000    0.000    0.000 
#    0.000    0.000    0.000    0.000    0.000    0.000 
#
# Total GULP energy -134223.819178 kJ/mol
# GULP energy per Si atom -5592.659132 kJ/mol
# Density = 2.212332 g / cm^3
# Si number density = 22.173785 Si / 1000 Ang^3
#
#
#
# Elastic Constant Matrix: (Units=GPa)
#
#
# Indices 1 2 3 4 5 6 
#
# 1 109.0440 29.1695 15.6976 0.0000 -34.0367 0.0000
# 2 29.1695 99.7005 45.2726 0.0000 -33.7976 0.0000
# 3 15.6976 45.2726 43.4179 0.0000 -8.6021 0.0000
# 4 0.0000 0.0000 0.0000 16.5566 0.0000 -10.8319
# 5 -34.0367 -33.7976 -8.6021 0.0000 32.4696 0.0000
# 6 0.0000 0.0000 0.0000 -10.8319 0.0000 -11.1369
#
#
#
# Elastic Compliance Matrix: (Units=1/GPa)
#
#
# Indices 1 2 3 4 5 6 
#
# 1 0.014765 0.005530 -0.007280 0.000000 0.019306 0.000000
# 2 0.005530 0.032881 -0.029926 0.000000 0.032095 0.000000
# 3 -0.007280 -0.029926 0.051910 0.000000 -0.025029 0.000000
# 4 0.000000 0.000000 0.000000 0.036912 0.000000 -0.035901
# 5 0.019306 0.032095 -0.025029 0.000000 0.077812 0.000000
# 6 0.000000 0.000000 0.000000 -0.035901 0.000000 -0.054874
#
#
# Mechanical properties :
#
#
# Convention : Reuss Voigt Hill
#
# Bulk Modulus (GPa) = 27.62112 48.04908 37.83510
# Shear Modulus (GPa) = 21.29240 18.37936 19.83588
#
# Velocity S-wave (km/s) = 3.10215 2.88215 2.99417
# Velocity P-wave (km/s) = 5.03139 5.72643 5.39013
#
# Compressibility (1/GPa) = 0.03620418
#
# Stress axis : x y z
#
# Youngs Moduli (GPa) = 67.72638 30.41273 19.26419
#
# Poissons Ratio (x) = -0.16819 0.14024
# Poissons Ratio (y) = -0.37455 0.57651
# Poissons Ratio (z) = 0.49305 0.91014
#
# Static dielectric constant tensor:
#      x y z
#    x 1.740760 0.000000 -0.035350 
#    y 0.000000 1.734610 0.000000 
#    z -0.035350 0.000000 1.838950 
# 
# From -- ./inp_files/108558.got.cif
#   From: 2010.05.17/outbox.cif.g08.bks.cpg/sg12_55_cif.got.tgz:108558.got - 2010.06.03 13:09:07.
