data_PCOD9196280
_publ_section_title
;
Structure prediction by ZEFSAII (Michael W. Deem and Ramdas Pophale) SiO2 
 PCOD9196280
Probable space group: C 2/M
;
_chemical_formula_sum "Si O2"
_cell_formula_units_Z 64
_cell_length_a 20.051948
_cell_length_b 19.732867
_cell_length_c 12.013860
_cell_angle_alpha 90.000000
_cell_angle_beta 137.710756
_cell_angle_gamma 90.000000
_cell_volume 3198.621472
_symmetry_space_group_name_H-M "C 2/M"
_symmetry_group_IT_number 12
_symmetry_cell_setting 'monoclinic'
loop_
_space_group_symop_operation_xyz
x,y,z
-x,y,-z
-x,-y,-z
x,-y,z
1/2+x,1/2+y,z
1/2-x,1/2+y,-z
1/2-x,1/2-y,-z
1/2+x,1/2-y,z
loop_
_atom_site_type_symbol
_atom_site_label
_atom_site_fract_x
_atom_site_fract_y
_atom_site_fract_z
Si Si1 0.681237 0.579679 0.696576
Si Si2 0.606048 0.216418 0.901443
Si Si3 0.111062 0.367510 0.130309
Si Si4 0.287796 0.355568 0.033014
Si Si5 0.310228 0.655955 0.672328
Si Si6 0.414252 0.579141 0.640441
Si Si7 0.391340 0.421349 0.980320
Si Si8 0.881999 0.712259 0.632288
O O1 0.662974 0.500000 0.693422
O O2 0.794587 0.588908 0.792219
O O3 0.669248 0.619984 0.795974
O O4 0.609547 0.607569 0.510746
O O5 0.655614 0.289190 0.942788
O O6 0.492731 0.213083 0.724620
O O7 0.606488 0.192745 0.031598
O O8 0.675278 0.164664 0.919421
O O9 0.128304 0.336392 0.273028
O O10 0.000000 0.398887 0.000000
O O11 0.304171 0.413412 0.962544
O O12 0.319177 0.592081 0.600803
O O13 0.366623 0.630431 0.850920
O O14 0.201086 0.686199 0.555961
O O15 0.360074 0.714267 0.658020
O O16 0.428992 0.500000 0.640573
O O17 0.509838 0.599915 0.830198
O O18 0.401297 0.500000 0.955535
#
# Coordination Sequence:
#
# PCOD9196280 Si02
#       8
#     8   8   8   8   8   8   8   8
#     4  10  20  35  56  83 116 149 188 237 284 336
#     4   9  19  35  59  86 112 150 193 235 285 340
#     4   9  17  33  57  83 114 143 183 233 289 345
#     4  10  20  37  59  82 115 155 196 236 279 336
#     4  11  21  35  59  85 118 145 186 237 296 347
#     4  10  21  37  58  86 117 151 192 241 292 342
#     4  11  23  38  59  85 116 158 199 236 286 347
#     4  10  20  35  57  89 114 145 184 237 294 346
#
# _framework density 20.008618999999999
#
# number of rings (size 3 to 8) (size 9 to 14) (size 15 to 20)
#    0.000    2.000    1.250    2.625    0.000    3.750 
#    0.000    2.500    0.000    3.000    0.000    0.000 
#    0.000    0.000    0.000    0.000    0.000    0.000 
#
# Total GULP energy -178435.241674 kJ/mol
# GULP energy per Si atom -5576.101302 kJ/mol
# Density = 1.996308 g / cm^3
# Si number density = 20.008619 Si / 1000 Ang^3
#
#
#
# Elastic Constant Matrix: (Units=GPa)
#
#
# Indices 1 2 3 4 5 6 
#
# 1 87.0462 16.4099 37.2861 0.0000 7.3062 0.0000
# 2 16.4099 44.1008 41.4929 0.0000 5.7788 0.0000
# 3 37.2861 41.4929 118.2693 0.0000 8.0262 0.0000
# 4 0.0000 0.0000 0.0000 28.1885 0.0000 -1.2524
# 5 7.3062 5.7788 8.0262 0.0000 31.5394 0.0000
# 6 0.0000 0.0000 0.0000 -1.2524 0.0000 21.4379
#
#
#
# Elastic Compliance Matrix: (Units=1/GPa)
#
#
# Indices 1 2 3 4 5 6 
#
# 1 0.013464 -0.001322 -0.003649 0.000000 -0.001948 0.000000
# 2 -0.001322 0.034306 -0.011410 0.000000 -0.003076 0.000000
# 3 -0.003649 -0.011410 0.013645 0.000000 -0.000537 0.000000
# 4 0.000000 0.000000 0.000000 0.035568 0.000000 0.002078
# 5 -0.001948 -0.003076 -0.000537 0.000000 0.032858 0.000000
# 6 0.000000 0.000000 0.000000 0.002078 0.000000 0.046768
#
#
# Mechanical properties :
#
#
# Convention : Reuss Voigt Hill
#
# Bulk Modulus (GPa) = 34.89990 48.86600 41.88295
# Shear Modulus (GPa) = 22.83941 26.51499 24.67720
#
# Velocity S-wave (km/s) = 3.38224 3.64425 3.51569
# Velocity P-wave (km/s) = 5.72128 6.49484 6.12029
#
# Compressibility (1/GPa) = 0.02865337
#
# Stress axis : x y z
#
# Youngs Moduli (GPa) = 74.27346 29.14981 73.28635
#
# Poissons Ratio (x) = 0.03852 0.26741
# Poissons Ratio (y) = 0.09816 0.83621
# Poissons Ratio (z) = 0.27101 0.33260
#
# Static dielectric constant tensor:
#      x y z
#    x 1.734660 0.000000 0.019580 
#    y 0.000000 1.752610 0.000000 
#    z 0.019580 0.000000 1.751700 
# 
# From -- ./inp_files/169699.got.cif
#   From: 2010.05.17/outbox.cif.g08.bks.cpg/sg12_85_cif.got.tgz:169699.got - 2010.06.03 13:09:07.
