data_PCOD9196250
_publ_section_title
;
Structure prediction by ZEFSAII (Michael W. Deem and Ramdas Pophale) SiO2 
 PCOD9196250
Probable space group: C 2/M
;
_chemical_formula_sum "Si O2"
_cell_formula_units_Z 64
_cell_length_a 25.685676
_cell_length_b 9.019594
_cell_length_c 14.967689
_cell_angle_alpha 90.000000
_cell_angle_beta 69.361484
_cell_angle_gamma 90.000000
_cell_volume 3245.087147
_symmetry_space_group_name_H-M "C 2/M"
_symmetry_group_IT_number 12
_symmetry_cell_setting 'monoclinic'
loop_
_space_group_symop_operation_xyz
x,y,z
-x,y,-z
-x,-y,-z
x,-y,z
1/2+x,1/2+y,z
1/2-x,1/2+y,-z
1/2-x,1/2-y,-z
1/2+x,1/2-y,z
loop_
_atom_site_type_symbol
_atom_site_label
_atom_site_fract_x
_atom_site_fract_y
_atom_site_fract_z
Si Si1 0.606588 0.676432 0.090570
Si Si2 0.604113 0.322054 0.580295
Si Si3 0.995215 0.322084 0.107539
Si Si4 0.018044 0.832376 0.384771
Si Si5 0.127689 0.677203 0.745910
Si Si6 0.182440 0.178089 0.878068
Si Si7 0.806737 0.675528 0.829385
Si Si8 0.124274 0.673482 0.380203
O O1 0.602241 0.500000 0.099365
O O2 0.545669 0.747599 0.130546
O O3 0.649679 0.736105 0.137406
O O4 0.634644 0.715301 0.978232
O O5 0.606589 0.500000 0.580185
O O6 0.538368 0.279966 0.627959
O O7 0.635143 0.250200 0.644709
O O8 0.624787 0.263286 0.472075
O O9 0.001356 0.500000 0.108770
O O10 0.934439 0.282978 0.181351
O O11 0.000000 0.278618 0.000000
O O12 0.071033 0.727294 0.354417
O O13 0.000000 0.841828 0.500000
O O14 0.032557 0.000000 0.346651
O O15 0.131472 0.500000 0.738091
O O16 0.169732 0.740979 0.793533
O O17 0.242758 0.219716 0.880580
O O18 0.182685 0.000000 0.864620
O O19 0.812576 0.500000 0.845792
O O20 0.823142 0.695821 0.715584
O O21 0.118081 0.500000 0.404443
#
# Coordination Sequence:
#
# PCOD9196250 Si02
#       8
#     8   8   8   8   8   8   8   8
#     4  11  23  37  61  92 119 153 197 243 290 350
#     4  10  21  37  57  82 117 156 191 236 293 349
#     4  10  21  39  60  86 122 159 190 235 297 353
#     4   8  16  31  50  74 107 146 182 224 283 339
#     4  11  23  38  61  89 118 155 199 241 288 351
#     4  10  22  42  62  84 117 156 198 244 295 346
#     4  10  23  41  61  85 118 158 197 244 297 346
#     4  10  20  35  56  83 113 149 196 243 287 342
#
# _framework density 19.722118999999999
#
# number of rings (size 3 to 8) (size 9 to 14) (size 15 to 20)
#    0.000    2.000    1.250    2.625    1.750    6.000 
#    0.000    0.625    0.000    0.000    0.000    0.000 
#    0.000    0.000    0.000    0.000    0.000    0.000 
#
# Total GULP energy -178762.195811 kJ/mol
# GULP energy per Si atom -5586.318619 kJ/mol
# Density = 1.967723 g / cm^3
# Si number density = 19.722119 Si / 1000 Ang^3
#
#
#
# Elastic Constant Matrix: (Units=GPa)
#
#
# Indices 1 2 3 4 5 6 
#
# 1 78.1215 19.6549 6.5399 0.0000 14.3171 0.0000
# 2 19.6549 27.2509 16.0872 0.0000 6.5133 0.0000
# 3 6.5399 16.0872 41.1690 0.0000 19.7667 0.0000
# 4 0.0000 0.0000 0.0000 11.1352 0.0000 9.3955
# 5 14.3171 6.5133 19.7667 0.0000 33.7915 0.0000
# 6 0.0000 0.0000 0.0000 9.3955 0.0000 24.6766
#
#
#
# Elastic Compliance Matrix: (Units=1/GPa)
#
#
# Indices 1 2 3 4 5 6 
#
# 1 0.017535 -0.014810 0.007228 0.000000 -0.008803 0.000000
# 2 -0.014810 0.060346 -0.025942 0.000000 0.009818 0.000000
# 3 0.007228 -0.025942 0.044982 0.000000 -0.024375 0.000000
# 4 0.000000 0.000000 0.000000 0.132312 0.000000 -0.050377
# 5 -0.008803 0.009818 -0.024375 0.000000 0.045689 0.000000
# 6 0.000000 0.000000 0.000000 -0.050377 0.000000 0.059705
#
#
# Mechanical properties :
#
#
# Convention : Reuss Voigt Hill
#
# Bulk Modulus (GPa) = 17.91637 25.67838 21.79738
# Shear Modulus (GPa) = 11.20516 20.87129 16.03823
#
# Velocity S-wave (km/s) = 2.38618 3.25663 2.85478
# Velocity P-wave (km/s) = 4.08607 5.21433 4.68429
#
# Compressibility (1/GPa) = 0.05581487
#
# Stress axis : x y z
#
# Youngs Moduli (GPa) = 57.02913 16.57116 22.23091
#
# Poissons Ratio (x) = 0.24542 -0.16069
# Poissons Ratio (y) = 0.84462 0.57672
# Poissons Ratio (z) = -0.41223 0.42989
#
# Static dielectric constant tensor:
#      x y z
#    x 1.678690 0.000000 -0.003780 
#    y 0.000000 1.652900 0.000000 
#    z -0.003780 0.000000 1.710740 
# 
# From -- ./inp_files/243902.got.cif
#   From: 2010.05.17/outbox.cif.g08.bks.cpg/sg12_122_cif.got.tgz:243902.got - 2010.06.03 13:09:07.
