data_PCOD9196372
_publ_section_title
;
Structure prediction by ZEFSAII (Michael W. Deem and Ramdas Pophale) SiO2 
 PCOD9196372
Probable space group: C 2/M
;
_chemical_formula_sum "Si O2"
_cell_formula_units_Z 48
_cell_length_a 26.332901
_cell_length_b 10.574951
_cell_length_c 9.892795
_cell_angle_alpha 90.000000
_cell_angle_beta 115.887836
_cell_angle_gamma 90.000000
_cell_volume 2478.391448
_symmetry_space_group_name_H-M "C 2/M"
_symmetry_group_IT_number 12
_symmetry_cell_setting 'monoclinic'
loop_
_space_group_symop_operation_xyz
x,y,z
-x,y,-z
-x,-y,-z
x,-y,z
1/2+x,1/2+y,z
1/2-x,1/2+y,-z
1/2-x,1/2-y,-z
1/2+x,1/2-y,z
loop_
_atom_site_type_symbol
_atom_site_label
_atom_site_fract_x
_atom_site_fract_y
_atom_site_fract_z
Si Si1 0.632158 0.851213 0.880374
Si Si2 0.851350 0.257616 0.390351
Si Si3 0.705504 0.861203 0.428922
Si Si4 0.730642 0.145422 0.164707
Si Si5 0.036458 0.856902 0.405357
Si Si6 0.988394 0.651386 0.145885
O O1 0.625595 0.829113 0.713954
O O2 0.576300 0.812143 0.894464
O O3 0.637972 0.000000 0.911460
O O4 0.690730 0.793869 0.004808
O O5 0.841995 0.339850 0.514475
O O6 0.789394 0.209594 0.273352
O O7 0.897524 0.152906 0.479537
O O8 0.750000 0.750000 0.500000
O O9 0.691290 0.855937 0.254167
O O10 0.731420 0.000000 0.481915
O O11 0.744982 0.000000 0.147662
O O12 0.000000 0.835282 0.500000
O O13 0.023597 0.746884 0.281832
O O14 0.023447 0.000000 0.342236
O O15 0.996422 0.500000 0.186856
O O16 0.000000 0.667233 0.000000
#
# Coordination Sequence:
#
# PCOD9196372 Si02
#       6
#     8   8   8   8   8   8
#     4  10  20  35  56  85 118 151 196 250 297 351
#     4  11  20  35  58  86 117 156 200 247 298 357
#     4   9  19  34  56  83 116 154 196 243 296 356
#     4   9  19  35  55  81 115 155 194 238 295 355
#     4  11  24  42  63  89 123 161 203 255 312 369
#     4  10  23  42  65  91 120 158 205 253 305 363
#
# _framework density 19.3674
#
# number of rings (size 3 to 8) (size 9 to 14) (size 15 to 20)
#    0.000    2.000    1.667    1.500    2.333    2.667 
#    0.000    0.000    0.000    2.000    0.000    0.000 
#    0.000    0.000    0.000    0.000    0.000    0.000 
#
# Total GULP energy -133633.024154 kJ/mol
# GULP energy per Si atom -5568.042673 kJ/mol
# Density = 1.932332 g / cm^3
# Si number density = 19.367400 Si / 1000 Ang^3
#
#
#
# Elastic Constant Matrix: (Units=GPa)
#
#
# Indices 1 2 3 4 5 6 
#
# 1 102.8979 21.6028 41.6616 0.0000 -8.8063 0.0000
# 2 21.6028 75.9310 36.8005 0.0000 1.6426 0.0000
# 3 41.6616 36.8005 77.4643 0.0000 -3.9911 0.0000
# 4 0.0000 0.0000 0.0000 26.8991 0.0000 3.5712
# 5 -8.8063 1.6426 -3.9911 0.0000 37.0616 0.0000
# 6 0.0000 0.0000 0.0000 3.5712 0.0000 16.4954
#
#
#
# Elastic Compliance Matrix: (Units=1/GPa)
#
#
# Indices 1 2 3 4 5 6 
#
# 1 0.012629 -0.000533 -0.006419 0.000000 0.002333 0.000000
# 2 -0.000533 0.017232 -0.007990 0.000000 -0.001751 0.000000
# 3 -0.006419 -0.007990 0.020209 0.000000 0.001005 0.000000
# 4 0.000000 0.000000 0.000000 0.038276 0.000000 -0.008287
# 5 0.002333 -0.001751 0.001005 0.000000 0.027722 0.000000
# 6 0.000000 0.000000 0.000000 -0.008287 0.000000 0.062417
#
#
# Mechanical properties :
#
#
# Convention : Reuss Voigt Hill
#
# Bulk Modulus (GPa) = 49.53750 50.71369 50.12559
# Shear Modulus (GPa) = 23.24545 26.50643 24.87594
#
# Velocity S-wave (km/s) = 3.46820 3.70349 3.58777
# Velocity P-wave (km/s) = 6.45532 6.67306 6.56509
#
# Compressibility (1/GPa) = 0.02018673
#
# Stress axis : x y z
#
# Youngs Moduli (GPa) = 79.18485 58.03292 49.48342
#
# Poissons Ratio (x) = 0.03090 0.31762
# Poissons Ratio (y) = 0.04217 0.39537
# Poissons Ratio (z) = 0.50827 0.46368
#
# Static dielectric constant tensor:
#      x y z
#    x 1.717880 0.000000 0.000510 
#    y 0.000000 1.672230 0.000000 
#    z 0.000510 0.000000 1.703260 
# 
# From -- ./inp_files/94980.got.cif
#   From: 2010.05.17/outbox.cif.g08.bks.cpg/sg12_48_cif.got.tgz:94980.got - 2010.06.03 13:09:07.
