data_PCOD9196122
_publ_section_title
;
Structure prediction by ZEFSAII (Michael W. Deem and Ramdas Pophale) SiO2 
 PCOD9196122
Probable space group: C 2/M
;
_chemical_formula_sum "Si O2"
_cell_formula_units_Z 48
_cell_length_a 27.720692
_cell_length_b 11.111325
_cell_length_c 21.709894
_cell_angle_alpha 90.000000
_cell_angle_beta 16.808128
_cell_angle_gamma 90.000000
_cell_volume 1933.647256
_symmetry_space_group_name_H-M "C 2/M"
_symmetry_group_IT_number 12
_symmetry_cell_setting 'monoclinic'
loop_
_space_group_symop_operation_xyz
x,y,z
-x,y,-z
-x,-y,-z
x,-y,z
1/2+x,1/2+y,z
1/2-x,1/2+y,-z
1/2-x,1/2-y,-z
1/2+x,1/2-y,z
loop_
_atom_site_type_symbol
_atom_site_label
_atom_site_fract_x
_atom_site_fract_y
_atom_site_fract_z
Si Si1 0.886426 0.632584 0.919441
Si Si2 0.617758 0.135873 0.931553
Si Si3 0.518604 0.364308 0.550495
Si Si4 0.452684 0.866933 0.703852
Si Si5 0.595900 0.372694 0.665163
Si Si6 0.702043 0.280263 0.663430
O O1 0.973392 0.500000 0.815472
O O2 0.824558 0.636526 0.066656
O O3 0.838822 0.630013 0.904472
O O4 0.980410 0.758176 0.803121
O O5 0.480243 0.239665 0.090686
O O6 0.554711 0.000000 0.998149
O O7 0.780651 0.150626 0.689393
O O8 0.500000 0.361089 0.500000
O O9 0.468777 0.500000 0.633364
O O10 0.423680 0.254220 0.699384
O O11 0.648476 0.845654 0.483145
O O12 0.437611 0.000000 0.692488
O O13 0.511930 0.500000 0.759126
O O14 0.675176 0.362194 0.635582
O O15 0.727890 0.345586 0.450418
#
# Coordination Sequence:
#
# PCOD9196122 Si02
#       6
#     8   8   8   8   8   8
#     4   8  16  31  52  78 105 137 173 207 251 308
#     4   9  17  33  56  79 107 143 179 213 255 312
#     4  10  23  42  59  74  98 138 185 229 269 308
#     4  10  20  35  56  81 111 142 171 210 263 321
#     4   9  15  24  43  73 111 143 165 198 247 306
#     4   9  17  27  46  78 111 139 169 204 253 313
#
# _framework density 24.823554000000001
#
# number of rings (size 3 to 8) (size 9 to 14) (size 15 to 20)
#    0.000    2.833    0.000    2.000    0.000   11.000 
#    0.000    7.500    0.000    0.000    0.000    0.000 
#    0.000    0.000    0.000    0.000    0.000    0.000 
#
# Total GULP energy -133604.062168 kJ/mol
# GULP energy per Si atom -5566.835924 kJ/mol
# Density = 2.476705 g / cm^3
# Si number density = 24.823554 Si / 1000 Ang^3
#
#
#
# Elastic Constant Matrix: (Units=GPa)
#
#
# Indices 1 2 3 4 5 6 
#
# 1 93.2435 44.5090 16.8213 0.0006 14.3418 -0.0003
# 2 44.5090 198.1437 32.3532 0.0009 24.0203 -0.0003
# 3 16.8213 32.3532 93.6397 0.0018 20.9693 -0.0010
# 4 0.0006 0.0009 0.0018 16.4050 -0.0010 -2.3216
# 5 14.3418 24.0203 20.9693 -0.0010 38.1539 0.0005
# 6 -0.0003 -0.0003 -0.0010 -2.3216 0.0005 18.2840
#
#
#
# Elastic Compliance Matrix: (Units=1/GPa)
#
#
# Indices 1 2 3 4 5 6 
#
# 1 0.012402 -0.002320 -0.000809 0.000000 -0.002757 0.000000
# 2 -0.002320 0.006034 -0.001155 0.000000 -0.002292 0.000000
# 3 -0.000809 -0.001155 0.012535 -0.000002 -0.005858 0.000001
# 4 0.000000 0.000000 -0.000002 0.062072 0.000003 0.007882
# 5 -0.002757 -0.002292 -0.005858 0.000003 0.031909 -0.000001
# 6 0.000000 0.000000 0.000001 0.007882 -0.000001 0.055693
#
#
# Mechanical properties :
#
#
# Convention : Reuss Voigt Hill
#
# Bulk Modulus (GPa) = 44.63359 63.59933 54.11646
# Shear Modulus (GPa) = 25.42181 33.99147 29.70664
#
# Velocity S-wave (km/s) = 3.20363 3.70445 3.46310
# Velocity P-wave (km/s) = 5.63060 6.63125 6.15131
#
# Compressibility (1/GPa) = 0.02240465
#
# Stress axis : x y z
#
# Youngs Moduli (GPa) = 80.63355 165.71815 79.77357
#
# Poissons Ratio (x) = 0.38438 0.06454
# Poissons Ratio (y) = 0.18703 0.09213
# Poissons Ratio (z) = 0.06524 0.19139
#
# Static dielectric constant tensor:
#      x y z
#    x 2.048380 0.000000 -0.072240 
#    y 0.000000 1.905360 0.000000 
#    z -0.072240 0.000000 2.163820 
# 
# From -- ./inp_files/353820.got.cif
#   From: 2010.05.17/outbox.cif.g08.bks.cpg/sg12_177_cif.got.tgz:353820.got - 2010.06.03 13:09:07.
