data_PCOD9196948
_publ_section_title
;
Structure prediction by ZEFSAII (Michael W. Deem and Ramdas Pophale) SiO2 
 PCOD9196948
Probable space group: C 2/M
;
_chemical_formula_sum "Si O2"
_cell_formula_units_Z 44
_cell_length_a 26.193693
_cell_length_b 14.171327
_cell_length_c 13.315027
_cell_angle_alpha 90.000000
_cell_angle_beta 156.523353
_cell_angle_gamma 90.000000
_cell_volume 1968.981600
_symmetry_space_group_name_H-M "C 2/M"
_symmetry_group_IT_number 12
_symmetry_cell_setting 'monoclinic'
loop_
_space_group_symop_operation_xyz
x,y,z
-x,y,-z
-x,-y,-z
x,-y,z
1/2+x,1/2+y,z
1/2-x,1/2+y,-z
1/2-x,1/2-y,-z
1/2+x,1/2-y,z
loop_
_atom_site_type_symbol
_atom_site_label
_atom_site_fract_x
_atom_site_fract_y
_atom_site_fract_z
Si Si1 0.375155 0.866562 0.714924
Si Si2 0.505502 0.899102 0.749636
Si Si3 0.053375 0.186625 0.810694
Si Si4 0.680387 0.104269 0.775095
Si Si5 0.500000 0.256196 0.500000
Si Si6 0.905323 0.857349 0.742055
O O1 0.397878 0.896408 0.641909
O O2 0.238737 0.896098 0.512380
O O3 0.384771 0.753166 0.730961
O O4 0.500000 0.899480 0.000000
O O5 0.574839 0.797372 0.880927
O O6 0.427229 0.900215 0.505204
O O7 0.576606 0.000000 0.887296
O O8 0.985696 0.188041 0.578649
O O9 0.970877 0.140421 0.751058
O O10 0.186257 0.133418 0.033424
O O11 0.624741 0.189388 0.740742
O O12 0.688600 0.000000 0.837370
O O13 0.000000 0.894060 0.000000
#
# Coordination Sequence:
#
# PCOD9196948 Si02
#       6
#     8   8   8   8   4   8
#     4   9  17  29  49  78 112 152 193 234 283 339
#     4   9  19  34  55  83 114 151 193 236 282 341
#     4  10  20  35  58  84 114 147 190 238 294 347
#     4  10  20  37  59  82 111 148 193 240 289 350
#     4  10  21  36  57  84 112 146 187 240 295 350
#     4   9  17  31  53  81 113 152 191 235 287 342
#
# _framework density 22.346577
#
# number of rings (size 3 to 8) (size 9 to 14) (size 15 to 20)
#    0.000    2.545    0.000    1.909    0.000    9.818 
#    0.000    1.364    0.000   12.000    0.000    0.000 
#    0.000    0.000    0.000    0.000    0.000    0.000 
#
# Total GULP energy -122680.884608 kJ/mol
# GULP energy per Si atom -5576.403846 kJ/mol
# Density = 2.229572 g / cm^3
# Si number density = 22.346577 Si / 1000 Ang^3
#
#
#
# Elastic Constant Matrix: (Units=GPa)
#
#
# Indices 1 2 3 4 5 6 
#
# 1 160.8219 4.1822 58.9484 0.0000 18.9913 0.0000
# 2 4.1822 77.4466 15.2610 0.0000 -3.2690 0.0000
# 3 58.9484 15.2610 104.0487 0.0000 26.2580 0.0000
# 4 0.0000 0.0000 0.0000 14.7345 0.0000 16.0279
# 5 18.9913 -3.2690 26.2580 0.0000 27.9101 0.0000
# 6 0.0000 0.0000 0.0000 16.0279 0.0000 -4.3425
#
#
#
# Elastic Compliance Matrix: (Units=1/GPa)
#
#
# Indices 1 2 3 4 5 6 
#
# 1 0.007905 0.000335 -0.004170 0.000000 -0.001416 0.000000
# 2 0.000335 0.013746 -0.003350 0.000000 0.004534 0.000000
# 3 -0.004170 -0.003350 0.015537 0.000000 -0.012172 0.000000
# 4 0.000000 0.000000 0.000000 0.013533 0.000000 0.049950
# 5 -0.001416 0.004534 -0.012172 0.000000 0.048775 0.000000
# 6 0.000000 0.000000 0.000000 0.049950 0.000000 -0.045919
#
#
# Mechanical properties :
#
#
# Convention : Reuss Voigt Hill
#
# Bulk Modulus (GPa) = 43.82769 55.45562 49.64165
# Shear Modulus (GPa) = 66.17880 25.25544 45.71712
#
# Velocity S-wave (km/s) = 5.44785 3.36545 4.52798
# Velocity P-wave (km/s) = 7.69593 6.32232 7.04269
#
# Compressibility (1/GPa) = 0.02281663
#
# Stress axis : x y z
#
# Youngs Moduli (GPa) = 126.49839 72.75090 64.36404
#
# Poissons Ratio (x) = -0.02438 0.26843
# Poissons Ratio (y) = -0.04239 0.21562
# Poissons Ratio (z) = 0.52755 0.24372
#
# Static dielectric constant tensor:
#      x y z
#    x 1.860380 0.000000 -0.020820 
#    y 0.000000 1.923340 0.000000 
#    z -0.020820 0.000000 1.797840 
# 
# From -- ./inp_files/247002.got.cif
#   From: 2010.05.17/outbox.cif.g08.bks.cpg/sg12_124_cif.got.tgz:247002.got - 2010.06.03 13:09:07.
