data_PCOD9196413
_publ_section_title
;
Structure prediction by ZEFSAII (Michael W. Deem and Ramdas Pophale) SiO2 
 PCOD9196413
Probable space group: C 2/M
;
_chemical_formula_sum "Si O2"
_cell_formula_units_Z 64
_cell_length_a 15.137373
_cell_length_b 14.701820
_cell_length_c 17.413168
_cell_angle_alpha 90.000000
_cell_angle_beta 120.792142
_cell_angle_gamma 90.000000
_cell_volume 3328.953989
_symmetry_space_group_name_H-M "C 2/M"
_symmetry_group_IT_number 12
_symmetry_cell_setting 'monoclinic'
loop_
_space_group_symop_operation_xyz
x,y,z
-x,y,-z
-x,-y,-z
x,-y,z
1/2+x,1/2+y,z
1/2-x,1/2+y,-z
1/2-x,1/2-y,-z
1/2+x,1/2-y,z
loop_
_atom_site_type_symbol
_atom_site_label
_atom_site_fract_x
_atom_site_fract_y
_atom_site_fract_z
Si Si1 0.623344 0.400572 0.557186
Si Si2 0.674462 0.396415 0.189999
Si Si3 0.209017 0.101463 0.022057
Si Si4 0.335216 0.201160 0.364641
Si Si5 0.998357 0.603617 0.652619
Si Si6 0.449683 0.103386 0.145673
Si Si7 0.981282 0.785659 0.083078
Si Si8 0.225307 0.644567 0.498733
O O1 0.500000 0.392770 0.500000
O O2 0.648421 0.500000 0.603665
O O3 0.664451 0.308496 0.615766
O O4 0.675789 0.401078 0.495998
O O5 0.689098 0.500000 0.223569
O O6 0.692513 0.396531 0.106636
O O7 0.753409 0.328062 0.264453
O O8 0.560044 0.359489 0.151670
O O9 0.330822 0.110243 0.066349
O O10 0.177652 0.000000 0.981635
O O11 0.134199 0.177540 0.954406
O O12 0.445778 0.171971 0.380503
O O13 0.305100 0.140063 0.425493
O O14 0.024065 0.500000 0.641441
O O15 0.876072 0.616437 0.593448
O O16 0.038673 0.615899 0.757364
O O17 0.503613 0.187419 0.128551
O O18 0.485280 0.000000 0.144544
O O19 0.000000 0.781331 0.000000
O O20 0.250000 0.750000 0.500000
#
# Coordination Sequence:
#
# PCOD9196413 Si02
#       8
#     8   8   8   8   8   8   8   8
#     4  10  22  41  60  81 115 160 204 238 283 349
#     4  10  20  35  56  87 118 146 187 242 298 344
#     4   9  17  36  60  83 111 145 187 234 294 355
#     4  11  21  37  61  88 120 153 197 251 294 339
#     4  11  22  37  59  89 120 151 193 248 304 346
#     4  10  21  36  58  85 116 153 191 239 293 350
#     4  10  21  35  57  84 114 154 192 233 288 353
#     4  10  22  37  59  86 115 154 198 236 286 343
#
# _framework density 19.225259000000001
#
# number of rings (size 3 to 8) (size 9 to 14) (size 15 to 20)
#    0.000    1.875    1.250    3.375    3.500    4.250 
#    0.000    0.000    0.000    1.500    0.000    0.000 
#    0.000    0.000    0.000    0.000    0.000    0.000 
#
# Total GULP energy -178386.259105 kJ/mol
# GULP energy per Si atom -5574.570597 kJ/mol
# Density = 1.918150 g / cm^3
# Si number density = 19.225259 Si / 1000 Ang^3
#
#
#
# Elastic Constant Matrix: (Units=GPa)
#
#
# Indices 1 2 3 4 5 6 
#
# 1 67.5081 15.8437 9.2812 0.0000 6.9617 0.0000
# 2 15.8437 140.3142 25.7086 0.0000 -7.2183 0.0000
# 3 9.2812 25.7086 23.2674 0.0000 3.8406 0.0000
# 4 0.0000 0.0000 0.0000 30.1147 0.0000 -3.6598
# 5 6.9617 -7.2183 3.8406 0.0000 13.5358 0.0000
# 6 0.0000 0.0000 0.0000 -3.6598 0.0000 46.5561
#
#
#
# Elastic Compliance Matrix: (Units=1/GPa)
#
#
# Indices 1 2 3 4 5 6 
#
# 1 0.016541 -0.001693 -0.003330 0.000000 -0.008466 0.000000
# 2 -0.001693 0.010004 -0.011962 0.000000 0.009600 0.000000
# 3 -0.003330 -0.011962 0.061159 0.000000 -0.022020 0.000000
# 4 0.000000 0.000000 0.000000 0.033527 0.000000 0.002636
# 5 -0.008466 0.009600 -0.022020 0.000000 0.089599 0.000000
# 6 0.000000 0.000000 0.000000 0.002636 0.000000 0.021687
#
#
# Mechanical properties :
#
#
# Convention : Reuss Voigt Hill
#
# Bulk Modulus (GPa) = 18.61065 36.97299 27.79182
# Shear Modulus (GPa) = 17.58099 30.05840 23.81970
#
# Velocity S-wave (km/s) = 3.02731 3.95838 3.52373
# Velocity P-wave (km/s) = 4.68196 6.33758 5.57161
#
# Compressibility (1/GPa) = 0.05373267
#
# Stress axis : x y z
#
# Youngs Moduli (GPa) = 60.45501 99.96342 16.35083
#
# Poissons Ratio (x) = 0.16925 0.05445
# Poissons Ratio (y) = 0.10236 0.19560
# Poissons Ratio (z) = 0.20132 1.19580
#
# Static dielectric constant tensor:
#      x y z
#    x 1.701090 0.000000 0.009810 
#    y 0.000000 1.687220 0.000000 
#    z 0.009810 0.000000 1.657830 
# 
# From -- ./inp_files/270308.got.cif
#   From: 2010.05.17/outbox.cif.g08.bks.cpg/sg12_136_cif.got.tgz:270308.got - 2010.06.03 13:09:07.
