data_PCOD9196663
_publ_section_title
;
Structure prediction by ZEFSAII (Michael W. Deem and Ramdas Pophale) SiO2 
 PCOD9196663
Probable space group: C 2/M
;
_chemical_formula_sum "Si O2"
_cell_formula_units_Z 56
_cell_length_a 25.945774
_cell_length_b 7.462809
_cell_length_c 12.764333
_cell_angle_alpha 90.000000
_cell_angle_beta 69.441214
_cell_angle_gamma 90.000000
_cell_volume 2314.130514
_symmetry_space_group_name_H-M "C 2/M"
_symmetry_group_IT_number 12
_symmetry_cell_setting 'monoclinic'
loop_
_space_group_symop_operation_xyz
x,y,z
-x,y,-z
-x,-y,-z
x,-y,z
1/2+x,1/2+y,z
1/2-x,1/2+y,-z
1/2-x,1/2-y,-z
1/2+x,1/2-y,z
loop_
_atom_site_type_symbol
_atom_site_label
_atom_site_fract_x
_atom_site_fract_y
_atom_site_fract_z
Si Si1 0.173861 0.279600 0.807650
Si Si2 0.943077 0.294531 0.079652
Si Si3 0.813673 0.286343 0.436297
Si Si4 0.723838 0.714015 0.131162
Si Si5 0.898909 0.204169 0.763758
Si Si6 0.592405 0.211685 0.479000
Si Si7 0.516168 0.715347 0.727394
O O1 0.173393 0.500000 0.809721
O O2 0.117223 0.219824 0.903754
O O3 0.171929 0.218353 0.689168
O O4 0.230815 0.219218 0.818630
O O5 0.943071 0.500000 0.042011
O O6 0.948948 0.292256 0.201560
O O7 0.000000 0.208375 0.000000
O O8 0.822230 0.500000 0.428407
O O9 0.750000 0.250000 0.500000
O O10 0.853354 0.217996 0.499307
O O11 0.719725 0.500000 0.151589
O O12 0.661699 0.786854 0.181524
O O13 0.750000 0.750000 0.000000
O O14 0.912982 0.201435 0.630148
O O15 0.953248 0.283092 0.778652
O O16 0.894838 0.000000 0.805739
O O17 0.543232 0.237978 0.596686
O O18 0.597863 0.000000 0.455067
O O19 0.516353 0.500000 0.735977
#
# Coordination Sequence:
#
# PCOD9196663 Si02
#       7
#     8   8   8   8   8   8   8
#     4   9  18  37  59  82 114 150 186 234 294 343
#     4  10  21  38  62  89 117 151 195 247 297 348
#     4  10  20  35  57  84 117 151 190 236 286 348
#     4  10  22  40  62  85 115 155 197 243 292 349
#     4  10  23  41  59  84 122 162 198 240 298 358
#     4  11  22  38  61  90 120 151 198 250 293 348
#     4  11  23  39  60  87 122 162 197 238 298 360
#
# _framework density 24.199154
#
# number of rings (size 3 to 8) (size 9 to 14) (size 15 to 20)
#    0.000    1.857    1.429    2.143    2.000    6.000 
#    0.000    1.429    0.000    0.000    0.000    0.000 
#    0.000    0.000    0.000    0.000    0.000    0.000 
#
# Total GULP energy -156563.948351 kJ/mol
# GULP energy per Si atom -5591.569584 kJ/mol
# Density = 2.414408 g / cm^3
# Si number density = 24.199154 Si / 1000 Ang^3
#
#
#
# Elastic Constant Matrix: (Units=GPa)
#
#
# Indices 1 2 3 4 5 6 
#
# 1 153.6420 -1.5806 11.0527 0.0000 -37.9933 0.0000
# 2 -1.5806 85.4180 -13.9729 0.0000 -1.4283 0.0000
# 3 11.0527 -13.9729 67.8236 0.0000 -29.2469 0.0000
# 4 0.0000 0.0000 0.0000 17.5893 0.0000 0.0675
# 5 -37.9933 -1.4283 -29.2469 0.0000 53.4135 0.0000
# 6 0.0000 0.0000 0.0000 0.0675 0.0000 5.1679
#
#
#
# Elastic Compliance Matrix: (Units=1/GPa)
#
#
# Indices 1 2 3 4 5 6 
#
# 1 0.008037 0.000532 0.001664 0.000000 0.006642 0.000000
# 2 0.000532 0.012354 0.003618 0.000000 0.002690 0.000000
# 3 0.001664 0.003618 0.020645 0.000000 0.012585 0.000000
# 4 0.000000 0.000000 0.000000 0.056856 0.000000 -0.000743
# 5 0.006642 0.002690 0.012585 0.000000 0.030409 0.000000
# 6 0.000000 0.000000 0.000000 -0.000743 0.000000 0.193511
#
#
# Mechanical properties :
#
#
# Convention : Reuss Voigt Hill
#
# Bulk Modulus (GPa) = 18.98793 33.09802 26.04297
# Shear Modulus (GPa) = 15.25609 35.99310 25.62460
#
# Velocity S-wave (km/s) = 2.51358 3.86083 3.25761
# Velocity P-wave (km/s) = 4.03580 5.79497 4.99346
#
# Compressibility (1/GPa) = 0.05266505
#
# Stress axis : x y z
#
# Youngs Moduli (GPa) = 124.42635 80.94628 48.43728
#
# Poissons Ratio (x) = -0.04306 -0.08060
# Poissons Ratio (y) = -0.06619 -0.17527
# Poissons Ratio (z) = -0.20706 -0.29290
#
# Static dielectric constant tensor:
#      x y z
#    x 1.945480 0.000000 -0.025330 
#    y 0.000000 1.938450 0.000000 
#    z -0.025330 0.000000 1.904440 
# 
# From -- ./inp_files/238230.got.cif
#   From: 2010.05.17/outbox.cif.g08.bks.cpg/sg12_120_cif.got.tgz:238230.got - 2010.06.03 13:09:07.
