data_PCOD9196315
_publ_section_title
;
Structure prediction by ZEFSAII (Michael W. Deem and Ramdas Pophale) SiO2 
 PCOD9196315
Probable space group: C 2/M
;
_chemical_formula_sum "Si O2"
_cell_formula_units_Z 64
_cell_length_a 24.058955
_cell_length_b 19.853963
_cell_length_c 19.853394
_cell_angle_alpha 90.000000
_cell_angle_beta 20.335506
_cell_angle_gamma 90.000000
_cell_volume 3295.600222
_symmetry_space_group_name_H-M "C 2/M"
_symmetry_group_IT_number 12
_symmetry_cell_setting 'monoclinic'
loop_
_space_group_symop_operation_xyz
x,y,z
-x,y,-z
-x,-y,-z
x,-y,z
1/2+x,1/2+y,z
1/2-x,1/2+y,-z
1/2-x,1/2-y,-z
1/2+x,1/2-y,z
loop_
_atom_site_type_symbol
_atom_site_label
_atom_site_fract_x
_atom_site_fract_y
_atom_site_fract_z
Si Si1 0.231365 0.924427 0.823790
Si Si2 0.665623 0.225226 0.843593
Si Si3 0.740910 0.425114 0.264428
Si Si4 0.169848 0.711017 0.462533
Si Si5 0.394103 0.303415 0.833335
Si Si6 0.961849 0.423788 0.432491
Si Si7 0.529561 0.308243 0.101156
Si Si8 0.598949 0.574717 0.275849
O O1 0.330603 0.922500 0.641688
O O2 0.366251 0.911489 0.727804
O O3 0.169539 0.000000 0.903172
O O4 0.090776 0.870984 0.987450
O O5 0.673932 0.145840 0.821416
O O6 0.801773 0.263932 0.647130
O O7 0.500000 0.250017 0.000000
O O8 0.644450 0.247089 0.944897
O O9 0.812965 0.500000 0.193595
O O10 0.584707 0.421812 0.489676
O O11 0.691858 0.421848 0.241391
O O12 0.087782 0.637847 0.557923
O O13 0.343507 0.708224 0.300575
O O14 0.051623 0.764574 0.629048
O O15 0.432854 0.325881 0.865007
O O16 0.362398 0.365913 0.819563
O O17 0.250000 0.250000 0.000000
O O18 0.962057 0.500000 0.403989
O O19 0.626490 0.500000 0.215142
#
# Coordination Sequence:
#
# PCOD9196315 Si02
#       8
#     8   8   8   8   8   8   8   8
#     4   9  18  34  56  85 114 147 191 238 282 336
#     4  10  20  35  56  84 115 149 189 232 283 342
#     4   9  17  34  59  86 109 138 184 235 285 333
#     4  11  22  39  57  81 118 156 192 240 287 345
#     4  12  24  39  58  86 114 154 197 236 294 346
#     4   9  18  34  57  84 115 147 191 242 284 330
#     4  11  23  37  56  85 119 154 191 234 292 352
#     4   9  19  36  59  83 110 142 183 236 286 338
#
# _framework density 19.419830999999999
#
# number of rings (size 3 to 8) (size 9 to 14) (size 15 to 20)
#    0.000    2.000    2.500    3.375    0.000    1.250 
#    0.000    1.875    0.000    0.750    0.000    0.000 
#    0.000    0.000    0.000    0.000    0.000    0.000 
#
# Total GULP energy -178406.689847 kJ/mol
# GULP energy per Si atom -5575.209058 kJ/mol
# Density = 1.937563 g / cm^3
# Si number density = 19.419831 Si / 1000 Ang^3
#
#
#
# Elastic Constant Matrix: (Units=GPa)
#
#
# Indices 1 2 3 4 5 6 
#
# 1 36.2546 16.8368 6.2364 -0.0023 10.1800 0.0051
# 2 16.8368 130.6339 33.9356 -0.0119 0.5927 0.0190
# 3 6.2364 33.9356 61.5696 -0.0036 -1.2552 0.0113
# 4 -0.0023 -0.0119 -0.0036 31.8228 -0.0018 1.0922
# 5 10.1800 0.5927 -1.2552 -0.0018 19.6779 -0.0037
# 6 0.0051 0.0190 0.0113 1.0922 -0.0037 27.0865
#
#
#
# Elastic Compliance Matrix: (Units=1/GPa)
#
#
# Indices 1 2 3 4 5 6 
#
# 1 0.034759 -0.003955 -0.001707 0.000000 -0.017972 -0.000006
# 2 -0.003955 0.009391 -0.004746 0.000003 0.001460 -0.000004
# 3 -0.001707 -0.004746 0.019076 0.000001 0.002243 -0.000004
# 4 0.000000 0.000003 0.000001 0.031468 0.000003 -0.001269
# 5 -0.017972 0.001460 0.002243 0.000003 0.060215 0.000010
# 6 -0.000006 -0.000004 -0.000004 -0.001269 0.000010 0.036970
#
#
# Mechanical properties :
#
#
# Convention : Reuss Voigt Hill
#
# Bulk Modulus (GPa) = 23.57896 38.05285 30.81591
# Shear Modulus (GPa) = 22.04277 27.14737 24.59507
#
# Velocity S-wave (km/s) = 3.37273 3.74293 3.56264
# Velocity P-wave (km/s) = 5.22830 6.19006 5.72939
#
# Compressibility (1/GPa) = 0.04241070
#
# Stress axis : x y z
#
# Youngs Moduli (GPa) = 28.76916 106.48603 52.42159
#
# Poissons Ratio (x) = 0.42115 0.08950
# Poissons Ratio (y) = 0.11378 0.24877
# Poissons Ratio (z) = 0.04912 0.50535
#
# Static dielectric constant tensor:
#      x y z
#    x 1.705620 0.000000 0.013640 
#    y 0.000000 1.702320 0.000000 
#    z 0.013640 0.000000 1.676060 
# 
# From -- ./inp_files/328629.got.cif
#   From: 2010.05.17/outbox.cif.g08.bks.cpg/sg12_165_cif.got.tgz:328629.got - 2010.06.03 13:09:07.
