data_PCOD9196259
_publ_section_title
;
Structure prediction by ZEFSAII (Michael W. Deem and Ramdas Pophale) SiO2 
 PCOD9196259
Probable space group: C 2/M
;
_chemical_formula_sum "Si O2"
_cell_formula_units_Z 56
_cell_length_a 18.785396
_cell_length_b 8.616198
_cell_length_c 19.203064
_cell_angle_alpha 90.000000
_cell_angle_beta 104.549273
_cell_angle_gamma 90.000000
_cell_volume 3008.509485
_symmetry_space_group_name_H-M "C 2/M"
_symmetry_group_IT_number 12
_symmetry_cell_setting 'monoclinic'
loop_
_space_group_symop_operation_xyz
x,y,z
-x,y,-z
-x,-y,-z
x,-y,z
1/2+x,1/2+y,z
1/2-x,1/2+y,-z
1/2-x,1/2-y,-z
1/2+x,1/2-y,z
loop_
_atom_site_type_symbol
_atom_site_label
_atom_site_fract_x
_atom_site_fract_y
_atom_site_fract_z
Si Si1 0.348819 0.184944 0.223579
Si Si2 0.010269 0.186706 0.228262
Si Si3 0.796775 0.813789 0.357503
Si Si4 0.525237 0.687776 0.931498
Si Si5 0.192052 0.814491 0.931040
Si Si6 0.084062 0.312269 0.505054
Si Si7 0.867099 0.687380 0.638061
O O1 0.431555 0.252103 0.236237
O O2 0.312845 0.246369 0.285326
O O3 0.304119 0.240960 0.144677
O O4 0.352805 0.000000 0.225690
O O5 0.075892 0.246873 0.291926
O O6 0.016848 0.238526 0.148912
O O7 0.008054 0.000000 0.229202
O O8 0.859806 0.755996 0.425202
O O9 0.716331 0.764882 0.365352
O O10 0.798319 0.000000 0.354629
O O11 0.518294 0.500000 0.931940
O O12 0.610516 0.723032 0.939205
O O13 0.500000 0.749420 0.000000
O O14 0.198279 0.000000 0.926712
O O15 0.250000 0.750000 0.000000
O O16 0.087384 0.500000 0.509893
O O17 0.108377 0.264729 0.433425
O O18 0.000000 0.265704 0.500000
O O19 0.870370 0.500000 0.641433
#
# Coordination Sequence:
#
# PCOD9196259 Si02
#       7
#     8   8   8   8   8   8   8
#     4  11  22  38  59  80 109 151 195 238 286 337
#     4  10  20  35  58  85 112 146 189 234 280 338
#     4  11  23  38  57  84 117 149 187 236 283 330
#     4   8  16  32  53  78 108 141 180 225 270 323
#     4  10  20  35  56  83 114 147 186 233 284 338
#     4  10  21  38  60  84 111 148 190 228 275 339
#     4  10  22  38  56  83 119 152 182 227 283 335
#
# _framework density 18.613869000000001
#
# number of rings (size 3 to 8) (size 9 to 14) (size 15 to 20)
#    0.000    2.000    0.000    4.714    0.000    4.286 
#    0.000    1.429    0.000   14.571    0.000    0.000 
#    0.000    0.000    0.000    0.000    0.000    0.000 
#
# Total GULP energy -156383.437559 kJ/mol
# GULP energy per Si atom -5585.122770 kJ/mol
# Density = 1.857150 g / cm^3
# Si number density = 18.613869 Si / 1000 Ang^3
#
#
#
# Elastic Constant Matrix: (Units=GPa)
#
#
# Indices 1 2 3 4 5 6 
#
# 1 130.6652 43.1314 117.3209 0.0000 -7.9051 0.0000
# 2 43.1314 41.1260 52.0232 0.0000 0.2498 0.0000
# 3 117.3209 52.0232 213.5751 0.0000 -6.0128 0.0000
# 4 0.0000 0.0000 0.0000 33.1419 0.0000 10.4440
# 5 -7.9051 0.2498 -6.0128 0.0000 41.3782 0.0000
# 6 0.0000 0.0000 0.0000 10.4440 0.0000 17.3439
#
#
#
# Elastic Compliance Matrix: (Units=1/GPa)
#
#
# Indices 1 2 3 4 5 6 
#
# 1 0.017228 -0.008951 -0.007219 0.000000 0.002296 0.000000
# 2 -0.008951 0.039883 -0.004873 0.000000 -0.002659 0.000000
# 3 -0.007219 -0.004873 0.009837 0.000000 0.000080 0.000000
# 4 0.000000 0.000000 0.000000 0.037240 0.000000 -0.022425
# 5 0.002296 -0.002659 0.000080 0.000000 0.024634 0.000000
# 6 0.000000 0.000000 0.000000 -0.022425 0.000000 0.071161
#
#
# Mechanical properties :
#
#
# Convention : Reuss Voigt Hill
#
# Bulk Modulus (GPa) = 40.22020 90.03525 65.12772
# Shear Modulus (GPa) = 19.97164 29.89885 24.93525
#
# Velocity S-wave (km/s) = 3.27914 4.01217 3.66403
# Velocity P-wave (km/s) = 5.99929 8.36292 7.27770
#
# Compressibility (1/GPa) = 0.02486313
#
# Stress axis : x y z
#
# Youngs Moduli (GPa) = 58.04386 25.07347 101.65782
#
# Poissons Ratio (x) = 0.22442 0.73387
# Poissons Ratio (y) = 0.51953 0.49537
# Poissons Ratio (z) = 0.41902 0.12218
#
# Static dielectric constant tensor:
#      x y z
#    x 1.621090 0.000000 -0.015780 
#    y 0.000000 1.628260 0.000000 
#    z -0.015780 0.000000 1.628180 
# 
# From -- ./inp_files/275535.got.cif
#   From: 2010.05.17/outbox.cif.g08.bks.cpg/sg12_138_cif.got.tgz:275535.got - 2010.06.03 13:09:07.
