data_PCOD9196669
_publ_section_title
;
Structure prediction by ZEFSAII (Michael W. Deem and Ramdas Pophale) SiO2 
 PCOD9196669
Probable space group: C 2/M
;
_chemical_formula_sum "Si O2"
_cell_formula_units_Z 56
_cell_length_a 29.278564
_cell_length_b 12.632184
_cell_length_c 9.104388
_cell_angle_alpha 90.000000
_cell_angle_beta 119.641461
_cell_angle_gamma 90.000000
_cell_volume 2926.626810
_symmetry_space_group_name_H-M "C 2/M"
_symmetry_group_IT_number 12
_symmetry_cell_setting 'monoclinic'
loop_
_space_group_symop_operation_xyz
x,y,z
-x,y,-z
-x,-y,-z
x,-y,z
1/2+x,1/2+y,z
1/2-x,1/2+y,-z
1/2-x,1/2-y,-z
1/2+x,1/2-y,z
loop_
_atom_site_type_symbol
_atom_site_label
_atom_site_fract_x
_atom_site_fract_y
_atom_site_fract_z
Si Si1 0.937799 0.621159 0.422248
Si Si2 0.317771 0.377935 0.203124
Si Si3 0.778203 0.310870 0.770532
Si Si4 0.621121 0.266535 0.445454
Si Si5 0.120307 0.262692 0.929647
Si Si6 0.562702 0.625981 0.078169
Si Si7 0.277347 0.120901 0.449188
O O1 0.922047 0.500000 0.427766
O O2 0.919667 0.697737 0.524266
O O3 0.910986 0.662018 0.230205
O O4 0.000000 0.625512 0.500000
O O5 0.320569 0.500000 0.169448
O O6 0.258820 0.346743 0.155753
O O7 0.352828 0.351171 0.402510
O O8 0.341588 0.307828 0.111846
O O9 0.764847 0.188645 0.709869
O O10 0.762564 0.372647 0.597436
O O11 0.839168 0.324933 0.901990
O O12 0.594010 0.322976 0.265026
O O13 0.668420 0.186467 0.478776
O O14 0.082777 0.188257 0.966353
O O15 0.573370 0.500000 0.084552
O O16 0.500000 0.639525 0.000000
O O17 0.281842 0.000000 0.408343
#
# Coordination Sequence:
#
# PCOD9196669 Si02
#       7
#     8   8   8   8   8   8   8
#     4  10  22  40  62  86 116 158 202 248 303 357
#     4  10  21  36  58  84 116 156 194 237 293 357
#     4  10  21  37  54  87 119 153 194 241 289 352
#     4  10  20  39  59  83 117 153 198 243 293 355
#     4  11  22  40  59  88 123 153 198 251 297 353
#     4  11  23  39  61  88 118 155 201 256 310 354
#     4  10  20  35  57  84 118 155 191 235 292 356
#
# _framework density 19.134657000000001
#
# number of rings (size 3 to 8) (size 9 to 14) (size 15 to 20)
#    0.000    1.714    1.429    3.000    0.000    2.286 
#    0.000    0.000    0.000    9.857    0.000    0.000 
#    0.000    0.000    0.000    0.000    0.000    0.000 
#
# Total GULP energy -156423.670137 kJ/mol
# GULP energy per Si atom -5586.559648 kJ/mol
# Density = 1.909111 g / cm^3
# Si number density = 19.134657 Si / 1000 Ang^3
#
#
#
# Elastic Constant Matrix: (Units=GPa)
#
#
# Indices 1 2 3 4 5 6 
#
# 1 65.1608 -12.4696 -5.8051 0.0000 1.8612 0.0000
# 2 -12.4696 49.9495 -3.6791 0.0000 17.2079 0.0000
# 3 -5.8051 -3.6791 50.0912 0.0000 8.5224 0.0000
# 4 0.0000 0.0000 0.0000 8.6921 0.0000 4.0038
# 5 1.8612 17.2079 8.5224 0.0000 26.1679 0.0000
# 6 0.0000 0.0000 0.0000 4.0038 0.0000 14.2459
#
#
#
# Elastic Compliance Matrix: (Units=1/GPa)
#
#
# Indices 1 2 3 4 5 6 
#
# 1 0.017216 0.006992 0.003705 0.000000 -0.007029 0.000000
# 2 0.006992 0.030005 0.006834 0.000000 -0.022454 0.000000
# 3 0.003705 0.006834 0.022978 0.000000 -0.012241 0.000000
# 4 0.000000 0.000000 0.000000 0.132156 0.000000 -0.037143
# 5 -0.007029 -0.022454 -0.012241 0.000000 0.057467 0.000000
# 6 0.000000 0.000000 0.000000 -0.037143 0.000000 0.080635
#
#
# Mechanical properties :
#
#
# Convention : Reuss Voigt Hill
#
# Bulk Modulus (GPa) = 9.50027 13.47708 11.48868
# Shear Modulus (GPa) = 14.68514 22.29821 18.49168
#
# Velocity S-wave (km/s) = 2.77332 3.41740 3.11207
# Velocity P-wave (km/s) = 3.90266 4.75711 4.35091
#
# Compressibility (1/GPa) = 0.10526016
#
# Stress axis : x y z
#
# Youngs Moduli (GPa) = 58.08715 33.32802 43.52071
#
# Poissons Ratio (x) = -0.23303 -0.16123
# Poissons Ratio (y) = -0.40615 -0.29744
# Poissons Ratio (z) = -0.21519 -0.22778
#
# Static dielectric constant tensor:
#      x y z
#    x 1.667730 0.000000 -0.009040 
#    y 0.000000 1.644240 0.000000 
#    z -0.009040 0.000000 1.662490 
# 
# From -- ./inp_files/103141.got.cif
#   From: 2010.05.17/outbox.cif.g08.bks.cpg/sg12_52_cif.got.tgz:103141.got - 2010.06.03 13:09:07.
