data_PCOD9196077
_publ_section_title
;
Structure prediction by ZEFSAII (Michael W. Deem and Ramdas Pophale) SiO2 
 PCOD9196077
Probable space group: C 2/M
;
_chemical_formula_sum "Si O2"
_cell_formula_units_Z 48
_cell_length_a 27.330690
_cell_length_b 10.371148
_cell_length_c 14.683745
_cell_angle_alpha 90.000000
_cell_angle_beta 32.689397
_cell_angle_gamma 90.000000
_cell_volume 2247.895110
_symmetry_space_group_name_H-M "C 2/M"
_symmetry_group_IT_number 12
_symmetry_cell_setting 'monoclinic'
loop_
_space_group_symop_operation_xyz
x,y,z
-x,y,-z
-x,-y,-z
x,-y,z
1/2+x,1/2+y,z
1/2-x,1/2+y,-z
1/2-x,1/2-y,-z
1/2+x,1/2-y,z
loop_
_atom_site_type_symbol
_atom_site_label
_atom_site_fract_x
_atom_site_fract_y
_atom_site_fract_z
Si Si1 0.891269 0.347581 0.175437
Si Si2 0.488655 0.144288 0.754611
Si Si3 0.739434 0.353479 0.287034
Si Si4 0.682457 0.864477 0.093123
Si Si5 0.584579 0.218922 0.418715
Si Si6 0.106643 0.151581 0.669149
O O1 0.868056 0.500000 0.231325
O O2 0.838759 0.310234 0.164760
O O3 0.863243 0.241233 0.293998
O O4 0.000000 0.341668 0.000000
O O5 0.385095 0.154294 0.885335
O O6 0.544851 0.152774 0.571464
O O7 0.523151 0.265183 0.758598
O O8 0.503632 0.000000 0.771913
O O9 0.749565 0.500000 0.242552
O O10 0.674400 0.289385 0.314934
O O11 0.681450 0.348388 0.472136
O O12 0.620489 0.867182 0.280396
O O13 0.731552 0.000000 0.007453
O O14 0.750000 0.750000 0.000000
O O15 0.500000 0.292155 0.500000
O O16 0.087776 0.000000 0.720414
#
# Coordination Sequence:
#
# PCOD9196077 Si02
#       6
#     8   8   8   8   8   8
#     4  10  21  37  56  78 108 146 183 218 263 324
#     4   9  18  35  58  79 103 141 185 225 267 318
#     4   9  19  35  55  81 109 139 179 224 271 324
#     4  10  21  35  52  78 111 145 181 222 269 322
#     4   9  18  34  56  80 105 138 184 231 269 312
#     4  10  20  35  56  81 108 136 174 226 275 319
#
# _framework density 21.353307999999998
#
# number of rings (size 3 to 8) (size 9 to 14) (size 15 to 20)
#    0.000    2.500    0.000    1.500    0.000    5.333 
#    0.000   10.833    0.000    0.000    0.000    0.000 
#    0.000    0.000    0.000    0.000    0.000    0.000 
#
# Total GULP energy -133729.137164 kJ/mol
# GULP energy per Si atom -5572.047382 kJ/mol
# Density = 2.130471 g / cm^3
# Si number density = 21.353308 Si / 1000 Ang^3
#
#
#
# Elastic Constant Matrix: (Units=GPa)
#
#
# Indices 1 2 3 4 5 6 
#
# 1 155.1450 72.4851 33.5119 0.0000 -22.5295 0.0000
# 2 72.4851 131.3477 36.3093 0.0000 -17.1307 0.0000
# 3 33.5119 36.3093 57.4641 0.0000 -16.7963 0.0000
# 4 0.0000 0.0000 0.0000 18.2762 0.0000 -12.2761
# 5 -22.5295 -17.1307 -16.7963 0.0000 50.7211 0.0000
# 6 0.0000 0.0000 0.0000 -12.2761 0.0000 15.5264
#
#
#
# Elastic Compliance Matrix: (Units=1/GPa)
#
#
# Indices 1 2 3 4 5 6 
#
# 1 0.009152 -0.004215 -0.002106 0.000000 0.001944 0.000000
# 2 -0.004215 0.011245 -0.004522 0.000000 0.000428 0.000000
# 3 -0.002106 -0.004522 0.022993 0.000000 0.005152 0.000000
# 4 0.000000 0.000000 0.000000 0.116687 0.000000 0.092259
# 5 0.001944 0.000428 0.005152 0.000000 0.022430 0.000000
# 6 0.000000 0.000000 0.000000 0.092259 0.000000 0.137352
#
#
# Mechanical properties :
#
#
# Convention : Reuss Voigt Hill
#
# Bulk Modulus (GPa) = 46.07244 69.84105 57.95674
# Shear Modulus (GPa) = 14.33567 30.34810 22.34189
#
# Velocity S-wave (km/s) = 2.59386 3.77402 3.23816
# Velocity P-wave (km/s) = 5.53118 7.19509 6.41729
#
# Compressibility (1/GPa) = 0.02170495
#
# Stress axis : x y z
#
# Youngs Moduli (GPa) = 109.26550 88.92521 43.49078
#
# Poissons Ratio (x) = 0.37481 0.09158
# Poissons Ratio (y) = 0.46055 0.19668
# Poissons Ratio (z) = 0.23008 0.40215
#
# Static dielectric constant tensor:
#      x y z
#    x 1.828040 0.000000 0.013130 
#    y 0.000000 1.735250 0.000000 
#    z 0.013130 0.000000 1.844680 
# 
# From -- ./inp_files/295346.got.cif
#   From: 2010.05.17/outbox.cif.g08.bks.cpg/sg12_148_cif.got.tgz:295346.got - 2010.06.03 13:09:07.
