data_PCOD9196968
_publ_section_title
;
Structure prediction by ZEFSAII (Michael W. Deem and Ramdas Pophale) SiO2 
 PCOD9196968
Probable space group: C 2/M
;
_chemical_formula_sum "Si O2"
_cell_formula_units_Z 48
_cell_length_a 24.042829
_cell_length_b 8.810585
_cell_length_c 12.846801
_cell_angle_alpha 90.000000
_cell_angle_beta 90.644362
_cell_angle_gamma 90.000000
_cell_volume 2721.183600
_symmetry_space_group_name_H-M "C 2/M"
_symmetry_group_IT_number 12
_symmetry_cell_setting 'monoclinic'
loop_
_space_group_symop_operation_xyz
x,y,z
-x,y,-z
-x,-y,-z
x,-y,z
1/2+x,1/2+y,z
1/2-x,1/2+y,-z
1/2-x,1/2-y,-z
1/2+x,1/2-y,z
loop_
_atom_site_type_symbol
_atom_site_label
_atom_site_fract_x
_atom_site_fract_y
_atom_site_fract_z
Si Si1 0.181635 0.180811 0.607951
Si Si2 0.118544 0.681956 0.791208
Si Si3 0.116727 0.182457 0.180639
Si Si4 0.000805 0.317136 0.120983
Si Si5 0.810786 0.182222 0.020746
Si Si6 0.302049 0.682611 0.631524
O O1 0.135831 0.259734 0.678327
O O2 0.242431 0.238982 0.644570
O O3 0.177552 0.217365 0.485083
O O4 0.178504 0.000000 0.620111
O O5 0.122161 0.500000 0.795649
O O6 0.056533 0.728402 0.824703
O O7 0.161651 0.751841 0.874807
O O8 0.149638 0.223650 0.075829
O O9 0.153968 0.229282 0.280037
O O10 0.055740 0.252876 0.175809
O O11 0.111910 0.000000 0.183143
O O12 0.003517 0.500000 0.121569
O O13 0.000000 0.266994 0.000000
O O14 0.807505 0.000000 0.026777
O O15 0.750000 0.250000 0.000000
O O16 0.294124 0.500000 0.638533
#
# Coordination Sequence:
#
# PCOD9196968 Si02
#       6
#     8   8   8   8   8   8
#     4  10  20  35  58  85 112 146 186 227 275 332
#     4  11  22  37  56  78 110 147 185 230 277 326
#     4  10  21  36  56  81 109 142 181 226 275 329
#     4  10  21  38  57  78 106 146 189 229 276 326
#     4  11  22  34  53  83 114 143 178 223 277 335
#     4   9  19  37  58  83 115 147 181 225 279 333
#
# _framework density 17.639382999999999
#
# number of rings (size 3 to 8) (size 9 to 14) (size 15 to 20)
#    0.000    1.833    1.667    2.500    0.000    5.000 
#    0.000    0.833    0.000    5.000    0.000    0.000 
#    0.000    0.000    0.000    0.000    0.000    0.000 
#
# Total GULP energy -134061.595630 kJ/mol
# GULP energy per Si atom -5585.899818 kJ/mol
# Density = 1.759924 g / cm^3
# Si number density = 17.639383 Si / 1000 Ang^3
#
#
#
# Elastic Constant Matrix: (Units=GPa)
#
#
# Indices 1 2 3 4 5 6 
#
# 1 78.4164 23.7558 27.6803 0.0000 -23.1970 0.0000
# 2 23.7558 28.4438 22.8250 0.0000 -12.3657 0.0000
# 3 27.6803 22.8250 72.8593 0.0000 -14.5657 0.0000
# 4 0.0000 0.0000 0.0000 23.6545 0.0000 -1.5921
# 5 -23.1970 -12.3657 -14.5657 0.0000 33.4600 0.0000
# 6 0.0000 0.0000 0.0000 -1.5921 0.0000 34.5621
#
#
#
# Elastic Compliance Matrix: (Units=1/GPa)
#
#
# Indices 1 2 3 4 5 6 
#
# 1 0.019269 -0.010556 -0.002325 0.000000 0.008446 0.000000
# 2 -0.010556 0.057595 -0.012312 0.000000 0.008608 0.000000
# 3 -0.002325 -0.012312 0.018876 0.000000 0.002055 0.000000
# 4 0.000000 0.000000 0.000000 0.042407 0.000000 0.001953
# 5 0.008446 0.008608 0.002055 0.000000 0.039817 0.000000
# 6 0.000000 0.000000 0.000000 0.001953 0.000000 0.029023
#
#
# Mechanical properties :
#
#
# Convention : Reuss Voigt Hill
#
# Bulk Modulus (GPa) = 22.04855 36.47128 29.25991
# Shear Modulus (GPa) = 18.34911 25.36588 21.85749
#
# Velocity S-wave (km/s) = 3.22877 3.79624 3.52395
# Velocity P-wave (km/s) = 5.14069 6.31951 5.76033
#
# Compressibility (1/GPa) = 0.04535446
#
# Stress axis : x y z
#
# Youngs Moduli (GPa) = 51.89552 17.36263 52.97617
#
# Poissons Ratio (x) = 0.18328 0.12320
# Poissons Ratio (y) = 0.54780 0.65224
# Poissons Ratio (z) = 0.12068 0.21377
#
# Static dielectric constant tensor:
#      x y z
#    x 1.567110 0.000000 -0.012350 
#    y 0.000000 1.592880 0.000000 
#    z -0.012350 0.000000 1.598330 
# 
# From -- ./inp_files/172023.got.cif
#   From: 2010.05.17/outbox.cif.g08.bks.cpg/sg12_87_cif.got.tgz:172023.got - 2010.06.03 13:09:07.
