data_PCOD9196116
_publ_section_title
;
Structure prediction by ZEFSAII (Michael W. Deem and Ramdas Pophale) SiO2 
 PCOD9196116
Probable space group: C 2/M
;
_chemical_formula_sum "Si O2"
_cell_formula_units_Z 56
_cell_length_a 32.161032
_cell_length_b 18.474743
_cell_length_c 8.930933
_cell_angle_alpha 90.000000
_cell_angle_beta 146.416747
_cell_angle_gamma 90.000000
_cell_volume 2935.260263
_symmetry_space_group_name_H-M "C 2/M"
_symmetry_group_IT_number 12
_symmetry_cell_setting 'monoclinic'
loop_
_space_group_symop_operation_xyz
x,y,z
-x,y,-z
-x,-y,-z
x,-y,z
1/2+x,1/2+y,z
1/2-x,1/2+y,-z
1/2-x,1/2-y,-z
1/2+x,1/2-y,z
loop_
_atom_site_type_symbol
_atom_site_label
_atom_site_fract_x
_atom_site_fract_y
_atom_site_fract_z
Si Si1 0.909912 0.147407 0.559646
Si Si2 0.827820 0.275721 0.162407
Si Si3 0.590088 0.352593 0.100172
Si Si4 0.087004 0.418223 0.578812
Si Si5 0.408122 0.500000 0.051266
Si Si6 0.912996 0.418223 0.056788
Si Si7 0.091878 0.000000 0.602533
Si Si8 0.172180 0.724279 0.195487
O O1 0.886860 0.215115 0.390872
O O2 0.881359 0.155278 0.644078
O O3 0.882615 0.072394 0.405124
O O4 0.000000 0.143401 0.835889
O O5 0.857849 0.354192 0.304957
O O6 0.750000 0.250000 0.000000
O O7 0.821497 0.277273 0.964490
O O8 0.613140 0.284885 0.069712
O O9 0.617385 0.427606 0.109437
O O10 0.107046 0.500000 0.590922
O O11 0.087657 0.417950 0.762972
O O12 1.000000 0.404006 0.273289
O O13 0.500000 0.500000 0.324558
O O14 0.385162 0.500000 0.155486
O O15 0.892954 0.500000 0.948645
O O16 0.857849 0.354192 0.842136
O O17 0.250000 0.750000 0.500000
#
# Coordination Sequence:
#
# PCOD9196116 Si02
#       8
#     8   8   8   8   4   8   4   8
#     4  10  20  35  56  81 110 145 186 231 279 335
#     4  11  22  36  54  79 114 150 187 231 286 346
#     4  10  20  35  56  81 110 145 186 231 279 335
#     4   8  15  31  57  85 107 133 180 239 291 338
#     4   9  17  31  53  81 109 137 176 223 270 321
#     4   8  15  31  57  85 107 133 180 239 291 338
#     4   9  17  31  53  81 109 137 176 223 270 321
#     4  11  22  36  54  79 114 150 187 231 286 346
#
# _framework density 19.078377
#
# number of rings (size 3 to 8) (size 9 to 14) (size 15 to 20)
#    0.000    2.429    0.000    3.857    0.000    4.571 
#    2.571    0.000    0.000    2.571    0.000   10.000 
#    0.000    0.000    0.000    0.000    0.000    0.000 
#
# Total GULP energy -156189.232372 kJ/mol
# GULP energy per Si atom -5578.186870 kJ/mol
# Density = 1.903495 g / cm^3
# Si number density = 19.078377 Si / 1000 Ang^3
#
#
#
# Elastic Constant Matrix: (Units=GPa)
#
#
# Indices 1 2 3 4 5 6 
#
# 1 70.5839 47.6055 17.2568 0.0000 0.1351 0.0000
# 2 47.6055 183.0638 57.5825 0.0000 12.1465 0.0000
# 3 17.2568 57.5825 64.8666 0.0000 -7.0952 0.0000
# 4 0.0000 0.0000 0.0000 19.4942 0.0000 -2.4679
# 5 0.1351 12.1465 -7.0952 0.0000 17.9164 0.0000
# 6 0.0000 0.0000 0.0000 -2.4679 0.0000 21.5216
#
#
#
# Elastic Compliance Matrix: (Units=1/GPa)
#
#
# Indices 1 2 3 4 5 6 
#
# 1 0.017341 -0.004658 -0.000154 0.000000 0.002966 0.000000
# 2 -0.004658 0.010172 -0.008928 0.000000 -0.010396 0.000000
# 3 -0.000154 -0.008928 0.025133 0.000000 0.016007 0.000000
# 4 0.000000 0.000000 0.000000 0.052053 0.000000 0.005969
# 5 0.002966 -0.010396 0.016007 0.000000 0.069180 0.000000
# 6 0.000000 0.000000 0.000000 0.005969 0.000000 0.047150
#
#
# Mechanical properties :
#
#
# Convention : Reuss Voigt Hill
#
# Bulk Modulus (GPa) = 39.73463 62.60044 51.16753
# Shear Modulus (GPa) = 19.46311 24.85775 22.16043
#
# Velocity S-wave (km/s) = 3.19747 3.61352 3.41184
# Velocity P-wave (km/s) = 5.87401 7.09180 6.51143
#
# Compressibility (1/GPa) = 0.02516696
#
# Stress axis : x y z
#
# Youngs Moduli (GPa) = 57.66667 98.31067 39.78799
#
# Poissons Ratio (x) = 0.45792 0.00613
# Poissons Ratio (y) = 0.26860 0.35521
# Poissons Ratio (z) = 0.00889 0.87768
#
# Static dielectric constant tensor:
#      x y z
#    x 1.654850 0.000000 0.003060 
#    y 0.000000 1.662740 0.000000 
#    z 0.003060 0.000000 1.657370 
# 
# From -- ./inp_files/112668.got.cif
#   From: 2010.05.17/outbox.cif.g08.bks.cpg/sg12_57_cif.got.tgz:112668.got - 2010.06.03 13:09:07.
