data_PCOD9196356
_publ_section_title
;
Structure prediction by ZEFSAII (Michael W. Deem and Ramdas Pophale) SiO2 
 PCOD9196356
Probable space group: C 2/M
;
_chemical_formula_sum "Si O2"
_cell_formula_units_Z 48
_cell_length_a 34.278902
_cell_length_b 13.611000
_cell_length_c 10.814165
_cell_angle_alpha 90.000000
_cell_angle_beta 149.138674
_cell_angle_gamma 90.000000
_cell_volume 2588.183598
_symmetry_space_group_name_H-M "C 2/M"
_symmetry_group_IT_number 12
_symmetry_cell_setting 'monoclinic'
loop_
_space_group_symop_operation_xyz
x,y,z
-x,y,-z
-x,-y,-z
x,-y,z
1/2+x,1/2+y,z
1/2-x,1/2+y,-z
1/2-x,1/2-y,-z
1/2+x,1/2-y,z
loop_
_atom_site_type_symbol
_atom_site_label
_atom_site_fract_x
_atom_site_fract_y
_atom_site_fract_z
Si Si1 0.939698 0.117507 0.226314
Si Si2 0.547396 0.384613 0.012064
Si Si3 0.305273 0.277470 0.539155
Si Si4 0.802495 0.764900 0.968921
Si Si5 0.411971 0.887803 0.726298
Si Si6 0.327237 0.883878 0.247181
O O1 0.000000 0.131400 0.500000
O O2 0.923509 0.000000 0.174396
O O3 0.969904 0.151839 0.173914
O O4 0.864724 0.177037 0.059196
O O5 0.530852 0.500000 0.964123
O O6 0.636698 0.365339 0.276083
O O7 0.500000 0.343449 0.000000
O O8 0.250000 0.250000 0.500000
O O9 0.254948 0.290436 0.279879
O O10 0.361165 0.186017 0.666175
O O11 0.751208 0.843766 0.904639
O O12 0.838672 0.686417 0.161002
O O13 0.391953 0.869627 0.527816
O O14 0.387935 0.000000 0.685760
O O15 0.500000 0.879418 0.000000
O O16 0.322308 0.000000 0.205178
#
# Coordination Sequence:
#
# PCOD9196356 Si02
#       6
#     8   8   8   8   8   8
#     4  10  21  37  58  82 113 151 193 239 292 351
#     4  10  22  39  59  85 119 155 193 241 293 346
#     4  11  21  35  56  85 115 147 187 234 285 340
#     4  10  20  35  56  85 113 151 190 232 290 344
#     4   9  19  36  58  82 109 149 193 229 275 336
#     4   9  19  35  57  84 116 148 186 235 285 343
#
# _framework density 18.545825000000001
#
# number of rings (size 3 to 8) (size 9 to 14) (size 15 to 20)
#    0.000    2.167    1.667    1.000    0.000    7.333 
#    0.000    1.667    0.000    0.500    0.000    0.000 
#    0.000    0.000    0.000    0.000    0.000    0.000 
#
# Total GULP energy -133843.004674 kJ/mol
# GULP energy per Si atom -5576.791861 kJ/mol
# Density = 1.850361 g / cm^3
# Si number density = 18.545825 Si / 1000 Ang^3
#
#
#
# Elastic Constant Matrix: (Units=GPa)
#
#
# Indices 1 2 3 4 5 6 
#
# 1 116.4023 19.5531 38.2739 0.0000 -16.1922 0.0000
# 2 19.5531 45.8921 26.8213 0.0000 -14.5615 0.0000
# 3 38.2739 26.8213 93.6863 0.0000 -11.4782 0.0000
# 4 0.0000 0.0000 0.0000 29.6592 0.0000 2.5057
# 5 -16.1922 -14.5615 -11.4782 0.0000 22.3515 0.0000
# 6 0.0000 0.0000 0.0000 2.5057 0.0000 9.0991
#
#
#
# Elastic Compliance Matrix: (Units=1/GPa)
#
#
# Indices 1 2 3 4 5 6 
#
# 1 0.010608 -0.000793 -0.003445 0.000000 0.005399 0.000000
# 2 -0.000793 0.031170 -0.006597 0.000000 0.016344 0.000000
# 3 -0.003445 -0.006597 0.014020 0.000000 0.000406 0.000000
# 4 0.000000 0.000000 0.000000 0.034519 0.000000 -0.009506
# 5 0.005399 0.016344 0.000406 0.000000 0.059507 0.000000
# 6 0.000000 0.000000 0.000000 -0.009506 0.000000 0.112519
#
#
# Mechanical properties :
#
#
# Convention : Reuss Voigt Hill
#
# Bulk Modulus (GPa) = 29.30264 47.25305 38.27785
# Shear Modulus (GPa) = 16.92685 23.64413 20.28549
#
# Velocity S-wave (km/s) = 3.02438 3.57445 3.31086
# Velocity P-wave (km/s) = 5.29436 6.52457 5.94139
#
# Compressibility (1/GPa) = 0.03412662
#
# Stress axis : x y z
#
# Youngs Moduli (GPa) = 94.26910 32.08248 71.32776
#
# Poissons Ratio (x) = 0.02545 0.24574
# Poissons Ratio (y) = 0.07477 0.47055
# Poissons Ratio (z) = 0.32477 0.21165
#
# Static dielectric constant tensor:
#      x y z
#    x 1.636160 0.000000 -0.019930 
#    y 0.000000 1.632520 0.000000 
#    z -0.019930 0.000000 1.652490 
# 
# From -- ./inp_files/111782.got.cif
#   From: 2010.05.17/outbox.cif.g08.bks.cpg/sg12_56_cif.got.tgz:111782.got - 2010.06.03 13:09:07.
