data_PCOD9196860
_publ_section_title
;
Structure prediction by ZEFSAII (Michael W. Deem and Ramdas Pophale) SiO2 
 PCOD9196860
Probable space group: C 2/M
;
_chemical_formula_sum "Si O2"
_cell_formula_units_Z 48
_cell_length_a 23.098700
_cell_length_b 16.189680
_cell_length_c 19.557861
_cell_angle_alpha 90.000000
_cell_angle_beta 18.396956
_cell_angle_gamma 90.000000
_cell_volume 2308.246897
_symmetry_space_group_name_H-M "C 2/M"
_symmetry_group_IT_number 12
_symmetry_cell_setting 'monoclinic'
loop_
_space_group_symop_operation_xyz
x,y,z
-x,y,-z
-x,-y,-z
x,-y,z
1/2+x,1/2+y,z
1/2-x,1/2+y,-z
1/2-x,1/2-y,-z
1/2+x,1/2-y,z
loop_
_atom_site_type_symbol
_atom_site_label
_atom_site_fract_x
_atom_site_fract_y
_atom_site_fract_z
Si Si1 0.308804 0.090839 0.437872
Si Si2 0.730860 0.093665 0.917485
Si Si3 0.218835 0.593730 0.254350
Si Si4 0.999225 0.809923 0.292674
Si Si5 0.876154 0.761929 0.995059
Si Si6 0.247009 0.314852 0.364214
O O1 0.284529 0.115029 0.543573
O O2 0.185625 0.152489 0.532396
O O3 0.235315 0.000000 0.507518
O O4 0.521891 0.092037 0.179340
O O5 0.874060 0.120541 0.815585
O O6 0.770661 0.000000 0.847648
O O7 0.724465 0.175185 0.876040
O O8 0.294144 0.500000 0.166251
O O9 0.270784 0.642451 0.265039
O O10 0.000000 0.587678 0.500000
O O11 0.277643 0.653664 0.127260
O O12 0.093723 0.767281 0.120875
O O13 0.927803 0.745254 0.429533
O O14 0.069143 0.767215 0.818711
#
# Coordination Sequence:
#
# PCOD9196860 Si02
#       6
#     8   8   8   8   8   8
#     4  10  20  35  57  90 126 157 207 263 310 373
#     4  11  22  36  61  92 123 164 208 261 316 367
#     4  11  26  42  62  94 132 171 211 258 317 385
#     4  11  21  38  61  92 125 168 210 266 318 374
#     4  11  22  41  63  89 128 169 215 262 314 380
#     4  11  21  40  62  89 125 168 211 261 324 375
#
# _framework density 20.795002
#
# number of rings (size 3 to 8) (size 9 to 14) (size 15 to 20)
#    0.000    1.167    3.333    4.000    2.333    4.667 
#    0.000    0.000    0.000    7.500    0.000    0.000 
#    0.000    0.000    0.000    0.000    0.000    0.000 
#
# Total GULP energy -133967.505191 kJ/mol
# GULP energy per Si atom -5581.979383 kJ/mol
# Density = 2.074767 g / cm^3
# Si number density = 20.795002 Si / 1000 Ang^3
#
#
#
# Elastic Constant Matrix: (Units=GPa)
#
#
# Indices 1 2 3 4 5 6 
#
# 1 56.1231 33.5997 13.9344 0.0032 -13.7237 -0.0049
# 2 33.5997 173.4459 30.4905 0.0190 9.1170 -0.0070
# 3 13.9344 30.4905 55.0347 0.0255 -7.4676 0.0076
# 4 0.0032 0.0190 0.0255 28.1325 0.0007 -4.2543
# 5 -13.7237 9.1170 -7.4676 0.0007 22.0127 -0.0068
# 6 -0.0049 -0.0070 0.0076 -4.2543 -0.0068 21.0175
#
#
#
# Elastic Compliance Matrix: (Units=1/GPa)
#
#
# Indices 1 2 3 4 5 6 
#
# 1 0.026026 -0.005857 -0.000853 0.000003 0.018362 0.000011
# 2 -0.005857 0.008066 -0.004125 -0.000001 -0.008392 0.000000
# 3 -0.000853 -0.004125 0.021836 -0.000019 0.008584 -0.000010
# 4 0.000003 -0.000001 -0.000019 0.036668 -0.000003 0.007422
# 5 0.018362 -0.008392 0.008584 -0.000003 0.063264 0.000018
# 6 0.000011 0.000000 -0.000010 0.007422 0.000018 0.049082
#
#
# Mechanical properties :
#
#
# Convention : Reuss Voigt Hill
#
# Bulk Modulus (GPa) = 29.18910 48.96144 39.07527
# Shear Modulus (GPa) = 21.00551 28.00449 24.50500
#
# Velocity S-wave (km/s) = 3.18169 3.67371 3.43652
# Velocity P-wave (km/s) = 5.25020 6.44909 5.88028
#
# Compressibility (1/GPa) = 0.03425936
#
# Stress axis : x y z
#
# Youngs Moduli (GPa) = 38.42249 123.97317 45.79537
#
# Poissons Ratio (x) = 0.72611 0.03907
# Poissons Ratio (y) = 0.22504 0.18889
# Poissons Ratio (z) = 0.03278 0.51134
#
# Static dielectric constant tensor:
#      x y z
#    x 1.731160 -0.000010 -0.013580 
#    y -0.000010 1.803740 0.000010 
#    z -0.013580 0.000010 1.784960 
# 
# From -- ./inp_files/325612.got.cif
#   From: 2010.05.17/outbox.cif.g08.bks.cpg/sg12_163_cif.got.tgz:325612.got - 2010.06.03 13:09:07.
