data_PCOD9196261
_publ_section_title
;
Structure prediction by ZEFSAII (Michael W. Deem and Ramdas Pophale) SiO2 
 PCOD9196261
Probable space group: C 2/M
;
_chemical_formula_sum "Si O2"
_cell_formula_units_Z 56
_cell_length_a 16.870259
_cell_length_b 7.872258
_cell_length_c 25.211560
_cell_angle_alpha 90.000000
_cell_angle_beta 42.777027
_cell_angle_gamma 90.000000
_cell_volume 2273.969375
_symmetry_space_group_name_H-M "C 2/M"
_symmetry_group_IT_number 12
_symmetry_cell_setting 'monoclinic'
loop_
_space_group_symop_operation_xyz
x,y,z
-x,y,-z
-x,-y,-z
x,-y,z
1/2+x,1/2+y,z
1/2-x,1/2+y,-z
1/2-x,1/2-y,-z
1/2+x,1/2-y,z
loop_
_atom_site_type_symbol
_atom_site_label
_atom_site_fract_x
_atom_site_fract_y
_atom_site_fract_z
Si Si1 0.036725 0.708109 0.892194
Si Si2 0.787180 0.703848 0.040891
Si Si3 0.597170 0.690394 0.521541
Si Si4 0.961689 0.698443 0.337642
Si Si5 0.159072 0.305413 0.381932
Si Si6 0.210136 0.794035 0.189583
Si Si7 0.086452 0.301377 0.754386
O O1 0.037394 0.500000 0.891710
O O2 0.162801 0.758461 0.851821
O O3 0.025583 0.769119 0.836749
O O4 0.922025 0.760931 0.980404
O O5 0.787091 0.500000 0.044816
O O6 0.708756 0.763951 0.128505
O O7 0.750000 0.750000 0.000000
O O8 0.635178 0.500000 0.491476
O O9 0.606966 0.727346 0.578810
O O10 0.659003 0.801979 0.446427
O O11 0.459107 0.712955 0.577343
O O12 0.932757 0.500000 0.350849
O O13 0.101068 0.720731 0.274840
O O14 0.937288 0.776447 0.291605
O O15 0.153795 0.500000 0.366825
O O16 0.275102 0.216534 0.304560
O O17 0.202252 0.000000 0.196400
O O18 0.055247 0.500000 0.766623
#
# Coordination Sequence:
#
# PCOD9196261 Si02
#       7
#     8   8   8   8   8   8   8
#     4   9  18  35  58  81 108 147 192 234 278 336
#     4  10  20  35  56  83 114 148 187 233 286 342
#     4  11  22  39  62  85 114 152 193 233 281 342
#     4  11  23  38  57  84 118 152 190 237 287 339
#     4  11  22  38  61  88 117 147 187 238 288 338
#     4  10  20  35  58  84 110 146 194 240 285 343
#     4  10  21  37  57  81 113 154 194 233 286 346
#
# _framework density 24.626542000000001
#
# number of rings (size 3 to 8) (size 9 to 14) (size 15 to 20)
#    0.000    1.714    0.000    6.000    0.000    6.286 
#    0.000    1.429    0.000    1.714    0.000    0.000 
#    0.000    0.000    0.000    0.000    0.000    0.000 
#
# Total GULP energy -156667.355478 kJ/mol
# GULP energy per Si atom -5595.262696 kJ/mol
# Density = 2.457049 g / cm^3
# Si number density = 24.626542 Si / 1000 Ang^3
#
#
#
# Elastic Constant Matrix: (Units=GPa)
#
#
# Indices 1 2 3 4 5 6 
#
# 1 68.6060 0.5339 11.1731 0.0000 10.4920 0.0007
# 2 0.5339 54.4873 -5.5346 -0.0001 8.5639 0.0019
# 3 11.1731 -5.5346 113.0654 0.0000 13.5470 0.0000
# 4 0.0000 -0.0001 0.0000 14.4488 0.0000 7.4506
# 5 10.4920 8.5639 13.5470 0.0000 45.7214 0.0000
# 6 0.0007 0.0019 0.0000 7.4506 0.0000 13.5080
#
#
#
# Elastic Compliance Matrix: (Units=1/GPa)
#
#
# Indices 1 2 3 4 5 6 
#
# 1 0.015247 0.000243 -0.001109 0.000001 -0.003216 -0.000001
# 2 0.000243 0.019130 0.001398 0.000002 -0.004053 -0.000004
# 3 -0.001109 0.001398 0.009356 0.000000 -0.002779 0.000000
# 4 0.000001 0.000002 0.000000 0.096719 0.000000 -0.053347
# 5 -0.003216 -0.004053 -0.002779 0.000000 0.024192 0.000001
# 6 -0.000001 -0.000004 0.000000 -0.053347 0.000001 0.103455
#
#
# Mechanical properties :
#
#
# Convention : Reuss Voigt Hill
#
# Bulk Modulus (GPa) = 22.32378 27.61148 24.96763
# Shear Modulus (GPa) = 17.73267 30.06808 23.90037
#
# Velocity S-wave (km/s) = 2.68631 3.49802 3.11869
# Velocity P-wave (km/s) = 4.32508 5.24893 4.80924
#
# Compressibility (1/GPa) = 0.04479528
#
# Stress axis : x y z
#
# Youngs Moduli (GPa) = 65.58865 52.27515 106.88895
#
# Poissons Ratio (x) = -0.01272 0.11859
# Poissons Ratio (y) = -0.01596 -0.14943
# Poissons Ratio (z) = 0.07277 -0.07308
#
# Static dielectric constant tensor:
#      x y z
#    x 2.051140 0.000000 0.028110 
#    y 0.000000 1.870160 0.000000 
#    z 0.028110 0.000000 1.911530 
# 
# From -- ./inp_files/362897.got.cif
#   From: 2010.05.17/outbox.cif.g08.bks.cpg/sg12_182_cif.got.tgz:362897.got - 2010.06.03 13:09:07.
