data_PCOD9196849
_publ_section_title
;
Structure prediction by ZEFSAII (Michael W. Deem and Ramdas Pophale) SiO2 
 PCOD9196849
Probable space group: C 2/M
;
_chemical_formula_sum "Si O2"
_cell_formula_units_Z 40
_cell_length_a 9.235220
_cell_length_b 17.905048
_cell_length_c 24.013621
_cell_angle_alpha 90.000000
_cell_angle_beta 153.407223
_cell_angle_gamma 90.000000
_cell_volume 1777.523893
_symmetry_space_group_name_H-M "C 2/M"
_symmetry_group_IT_number 12
_symmetry_cell_setting 'monoclinic'
loop_
_space_group_symop_operation_xyz
x,y,z
-x,y,-z
-x,-y,-z
x,-y,z
1/2+x,1/2+y,z
1/2-x,1/2+y,-z
1/2-x,1/2-y,-z
1/2+x,1/2-y,z
loop_
_atom_site_type_symbol
_atom_site_label
_atom_site_fract_x
_atom_site_fract_y
_atom_site_fract_z
Si Si1 0.278827 0.410857 0.975118
Si Si2 0.440015 0.585007 0.814868
Si Si3 0.009902 0.087371 0.712902
Si Si4 0.492716 0.709182 0.626227
Si Si5 0.647466 0.842299 0.350263
O O1 0.352674 0.500000 0.003950
O O2 0.362099 0.380158 0.065590
O O3 0.500000 0.381942 0.000000
O O4 0.895541 0.404964 0.835461
O O5 0.559830 0.500000 0.848458
O O6 0.443943 0.615341 0.753226
O O7 0.074351 0.587831 0.712207
O O8 0.853206 0.139147 0.612031
O O9 0.919818 0.000000 0.677201
O O10 0.250000 0.750000 0.500000
O O11 0.548904 0.773159 0.690683
O O12 0.783269 0.678260 0.689189
O O13 0.000000 0.849851 0.500000
#
# Coordination Sequence:
#
# PCOD9196849 Si02
#       5
#     8   8   8   8   8
#     4   9  17  31  55  88 124 159 195 240 295 352
#     4  10  20  35  57  89 126 160 198 244 294 352
#     4  10  20  36  60  89 121 158 200 245 297 359
#     4  10  21  38  59  82 112 153 199 249 303 354
#     4  10  21  37  58  79 111 157 201 246 300 357
#
# _framework density 22.503212999999999
#
# number of rings (size 3 to 8) (size 9 to 14) (size 15 to 20)
#    0.000    2.200    0.000    3.000    0.000    6.800 
#    0.000    4.000    0.000   15.000    0.000    0.000 
#    0.000    0.000    0.000    0.000    0.000    0.200 
#
# Total GULP energy -111514.943222 kJ/mol
# GULP energy per Si atom -5575.747161 kJ/mol
# Density = 2.245199 g / cm^3
# Si number density = 22.503213 Si / 1000 Ang^3
#
#
#
# Elastic Constant Matrix: (Units=GPa)
#
#
# Indices 1 2 3 4 5 6 
#
# 1 176.8675 43.5866 30.8028 -0.0008 -22.9867 0.0001
# 2 43.5866 65.0882 23.6747 0.0071 -16.9128 0.0028
# 3 30.8028 23.6747 50.8925 0.0058 -4.7263 -0.0021
# 4 -0.0008 0.0071 0.0058 9.8973 0.0030 -1.9444
# 5 -22.9867 -16.9128 -4.7263 0.0030 37.6654 0.0027
# 6 0.0001 0.0028 -0.0021 -1.9444 0.0027 21.6408
#
#
#
# Elastic Compliance Matrix: (Units=1/GPa)
#
#
# Indices 1 2 3 4 5 6 
#
# 1 0.007250 -0.003200 -0.002653 0.000004 0.002655 0.000000
# 2 -0.003200 0.022134 -0.007708 -0.000015 0.007019 -0.000006
# 3 -0.002653 -0.007708 0.024656 -0.000008 -0.001986 0.000003
# 4 0.000004 -0.000015 -0.000008 0.102853 -0.000014 0.009241
# 5 0.002655 0.007019 -0.001986 -0.000014 0.031072 -0.000006
# 6 0.000000 -0.000006 0.000003 0.009241 -0.000006 0.047039
#
#
# Mechanical properties :
#
#
# Convention : Reuss Voigt Hill
#
# Bulk Modulus (GPa) = 37.14937 54.33074 45.74005
# Shear Modulus (GPa) = 18.44354 26.82632 22.63493
#
# Velocity S-wave (km/s) = 2.86596 3.45644 3.17496
# Velocity P-wave (km/s) = 5.24366 6.33445 5.81469
#
# Compressibility (1/GPa) = 0.02691836
#
# Stress axis : x y z
#
# Youngs Moduli (GPa) = 137.93979 45.17922 40.55815
#
# Poissons Ratio (x) = 0.14458 0.10759
# Poissons Ratio (y) = 0.44142 0.31262
# Poissons Ratio (z) = 0.36590 0.34824
#
# Static dielectric constant tensor:
#      x y z
#    x 1.859430 0.000000 -0.033300 
#    y 0.000000 1.936700 0.000000 
#    z -0.033300 0.000000 1.914760 
# 
# From -- ./inp_files/118913.got.cif
#   From: 2010.05.17/outbox.cif.g08.bks.cpg/sg12_60_cif.got.tgz:118913.got - 2010.06.03 13:09:07.
