data_PCOD9196928
_publ_section_title
;
Structure prediction by ZEFSAII (Michael W. Deem and Ramdas Pophale) SiO2 
 PCOD9196928
Probable space group: C 2/M
;
_chemical_formula_sum "Si O2"
_cell_formula_units_Z 28
_cell_length_a 12.884195
_cell_length_b 15.679981
_cell_length_c 7.733524
_cell_angle_alpha 90.000000
_cell_angle_beta 117.042107
_cell_angle_gamma 90.000000
_cell_volume 1391.548579
_symmetry_space_group_name_H-M "C 2/M"
_symmetry_group_IT_number 12
_symmetry_cell_setting 'monoclinic'
loop_
_space_group_symop_operation_xyz
x,y,z
-x,y,-z
-x,-y,-z
x,-y,z
1/2+x,1/2+y,z
1/2-x,1/2+y,-z
1/2-x,1/2-y,-z
1/2+x,1/2-y,z
loop_
_atom_site_type_symbol
_atom_site_label
_atom_site_fract_x
_atom_site_fract_y
_atom_site_fract_z
Si Si1 0.811341 0.159954 0.585555
Si Si2 0.000000 0.768111 0.500000
Si Si3 0.656130 0.000000 0.436799
Si Si4 0.293570 0.172153 0.145505
Si Si5 0.890692 0.500000 0.179784
O O1 0.750000 0.250000 0.500000
O O2 0.934965 0.171931 0.588962
O O3 0.732414 0.083303 0.454070
O O4 0.805039 0.150039 0.787281
O O5 0.092463 0.706501 0.665168
O O6 0.529002 0.000000 0.255270
O O7 0.631197 0.000000 0.626616
O O8 0.331406 0.087271 0.073445
O O9 0.250000 0.250000 0.000000
#
# Coordination Sequence:
#
# PCOD9196928 Si02
#       5
#     8   4   4   8   4
#     4   9  18  33  54  81 109 142 182 223 273 327
#     4  10  20  36  56  78 114 150 178 226 280 320
#     4   9  16  31  58  82 104 142 188 227 270 326
#     4  10  20  35  58  84 111 143 185 228 272 330
#     4   9  16  32  56  81 108 141 182 230 276 317
#
# _framework density 20.121466999999999
#
# number of rings (size 3 to 8) (size 9 to 14) (size 15 to 20)
#    0.000    2.571    0.000    5.143    0.000    1.714 
#    0.000    7.143    0.000   13.714    0.000    0.000 
#    0.000    0.000    0.000    0.000    0.000    0.000 
#
# Total GULP energy -78085.989764 kJ/mol
# GULP energy per Si atom -5577.570697 kJ/mol
# Density = 2.007567 g / cm^3
# Si number density = 20.121467 Si / 1000 Ang^3
#
#
#
# Elastic Constant Matrix: (Units=GPa)
#
#
# Indices 1 2 3 4 5 6 
#
# 1 135.3541 47.5927 4.7107 0.0000 -1.8327 0.0000
# 2 47.5927 179.1064 26.7509 0.0000 11.1642 0.0000
# 3 4.7107 26.7509 45.8165 0.0000 6.6128 0.0000
# 4 0.0000 0.0000 0.0000 28.3769 0.0000 11.0876
# 5 -1.8327 11.1642 6.6128 0.0000 8.2859 0.0000
# 6 0.0000 0.0000 0.0000 11.0876 0.0000 33.4943
#
#
#
# Elastic Compliance Matrix: (Units=1/GPa)
#
#
# Indices 1 2 3 4 5 6 
#
# 1 0.008357 -0.002533 -0.000158 0.000000 0.005387 0.000000
# 2 -0.002533 0.007169 -0.002769 0.000000 -0.008010 0.000000
# 3 -0.000158 -0.002769 0.025911 0.000000 -0.016982 0.000000
# 4 0.000000 0.000000 0.000000 0.040475 0.000000 -0.013398
# 5 0.005387 -0.008010 -0.016982 0.000000 0.146224 0.000000
# 6 0.000000 0.000000 0.000000 -0.013398 0.000000 0.034291
#
#
# Mechanical properties :
#
#
# Convention : Reuss Voigt Hill
#
# Bulk Modulus (GPa) = 32.76933 57.59840 45.18387
# Shear Modulus (GPa) = 17.63550 32.77959 25.20755
#
# Velocity S-wave (km/s) = 2.96370 4.04057 3.54329
# Velocity P-wave (km/s) = 5.29457 7.10322 6.26451
#
# Compressibility (1/GPa) = 0.03051634
#
# Stress axis : x y z
#
# Youngs Moduli (GPa) = 119.65914 139.48533 38.59438
#
# Poissons Ratio (x) = 0.35330 0.00610
# Poissons Ratio (y) = 0.30308 0.10688
# Poissons Ratio (z) = 0.01890 0.38629
#
# Static dielectric constant tensor:
#      x y z
#    x 1.767780 0.000000 -0.043930 
#    y 0.000000 1.709800 0.000000 
#    z -0.043930 0.000000 1.736930 
# 
# From -- ./inp_files/44800.got.cif
#   From: 2010.05.17/outbox.cif.g08.bks.cpg/sg12_23_cif.got.tgz:44800.got - 2010.06.03 13:09:07.
