data_PCOD9196055
_publ_section_title
;
Structure prediction by ZEFSAII (Michael W. Deem and Ramdas Pophale) SiO2 
 PCOD9196055
Probable space group: C 2/M
;
_chemical_formula_sum "Si O2"
_cell_formula_units_Z 56
_cell_length_a 15.896893
_cell_length_b 18.972805
_cell_length_c 19.182160
_cell_angle_alpha 90.000000
_cell_angle_beta 148.300192
_cell_angle_gamma 90.000000
_cell_volume 3040.102580
_symmetry_space_group_name_H-M "C 2/M"
_symmetry_group_IT_number 12
_symmetry_cell_setting 'monoclinic'
loop_
_space_group_symop_operation_xyz
x,y,z
-x,y,-z
-x,-y,-z
x,-y,z
1/2+x,1/2+y,z
1/2-x,1/2+y,-z
1/2-x,1/2-y,-z
1/2+x,1/2-y,z
loop_
_atom_site_type_symbol
_atom_site_label
_atom_site_fract_x
_atom_site_fract_y
_atom_site_fract_z
Si Si1 0.515342 0.918723 0.344390
Si Si2 0.692289 0.220063 0.149769
Si Si3 0.387435 0.920874 0.852234
Si Si4 0.658431 0.156590 0.653722
Si Si5 0.110628 0.191655 0.849759
Si Si6 0.569880 0.157729 0.856802
Si Si7 0.339248 0.417180 0.654959
O O1 0.407230 0.895790 0.333298
O O2 0.475128 0.872463 0.249485
O O3 0.697841 0.910089 0.498683
O O4 0.487892 0.000000 0.307913
O O5 0.728213 0.143328 0.208846
O O6 0.751435 0.280840 0.242894
O O7 0.787732 0.220921 0.144191
O O8 0.500000 0.225554 0.000000
O O9 0.487175 0.889519 0.857747
O O10 0.326036 0.000000 0.794602
O O11 0.500000 0.926487 0.000000
O O12 0.500000 0.182170 0.500000
O O13 0.768298 0.114369 0.676843
O O14 0.025524 0.259107 0.825227
O O15 0.988318 0.131696 0.741176
O O16 0.240867 0.158968 0.994017
O O17 0.377937 0.500000 0.689219
#
# Coordination Sequence:
#
# PCOD9196055 Si02
#       7
#     8   8   8   8   8   8   8
#     4  10  21  39  62  89 121 158 197 242 297 357
#     4  11  21  41  60  85 119 154 199 248 288 350
#     4  10  20  35  56  80 110 153 195 234 285 346
#     4  10  21  40  63  89 117 158 199 238 296 360
#     4  11  23  38  59  92 119 155 195 249 302 345
#     4  11  21  38  59  88 119 151 203 245 293 352
#     4  10  23  40  61  89 123 156 195 247 298 353
#
# _framework density 18.420431000000001
#
# number of rings (size 3 to 8) (size 9 to 14) (size 15 to 20)
#    0.000    1.571    4.286    1.714    2.000    4.000 
#    2.571    0.000    0.000    3.000    0.000    0.000 
#    0.000    0.000    0.000    0.000    0.000    0.000 
#
# Total GULP energy -156200.357680 kJ/mol
# GULP energy per Si atom -5578.584203 kJ/mol
# Density = 1.837850 g / cm^3
# Si number density = 18.420431 Si / 1000 Ang^3
#
#
#
# Elastic Constant Matrix: (Units=GPa)
#
#
# Indices 1 2 3 4 5 6 
#
# 1 80.5849 18.6971 36.3652 -0.0001 -8.4430 0.0007
# 2 18.6971 123.6768 57.2021 -0.0015 1.7562 -0.0009
# 3 36.3652 57.2021 63.3775 -0.0007 -9.0912 0.0008
# 4 -0.0001 -0.0015 -0.0007 29.9677 -0.0001 -0.6954
# 5 -8.4430 1.7562 -9.0912 -0.0001 21.6718 0.0002
# 6 0.0007 -0.0009 0.0008 -0.6954 0.0002 26.5508
#
#
#
# Elastic Compliance Matrix: (Units=1/GPa)
#
#
# Indices 1 2 3 4 5 6 
#
# 1 0.017586 0.003285 -0.012886 0.000000 0.001179 0.000000
# 2 0.003285 0.015500 -0.016887 0.000000 -0.007060 0.000001
# 3 -0.012886 -0.016887 0.040316 0.000000 0.013261 -0.000002
# 4 0.000000 0.000000 0.000000 0.033390 0.000000 0.000875
# 5 0.001179 -0.007060 0.013261 0.000000 0.052737 -0.000001
# 6 0.000000 0.000001 -0.000002 0.000875 -0.000001 0.037687
#
#
# Mechanical properties :
#
#
# Convention : Reuss Voigt Hill
#
# Bulk Modulus (GPa) = 48.95957 54.68531 51.82244
# Shear Modulus (GPa) = 19.45536 25.99639 22.72588
#
# Velocity S-wave (km/s) = 3.25342 3.76078 3.51626
# Velocity P-wave (km/s) = 6.38355 6.97206 6.68429
#
# Compressibility (1/GPa) = 0.02042502
#
# Stress axis : x y z
#
# Youngs Moduli (GPa) = 56.86450 64.51755 24.80426
#
# Poissons Ratio (x) = -0.21191 0.31962
# Poissons Ratio (y) = -0.18677 0.41886
# Poissons Ratio (z) = 0.73274 1.08949
#
# Static dielectric constant tensor:
#      x y z
#    x 1.648990 0.000000 0.005770 
#    y 0.000000 1.640910 0.000000 
#    z 0.005770 0.000000 1.618660 
# 
# From -- ./inp_files/272405.got.cif
#   From: 2010.05.17/outbox.cif.g08.bks.cpg/sg12_137_cif.got.tgz:272405.got - 2010.06.03 13:09:07.
