data_PCOD9196036
_publ_section_title
;
Structure prediction by ZEFSAII (Michael W. Deem and Ramdas Pophale) SiO2 
 PCOD9196036
Probable space group: C 2/M
;
_chemical_formula_sum "Si O2"
_cell_formula_units_Z 40
_cell_length_a 7.810697
_cell_length_b 12.835656
_cell_length_c 17.329269
_cell_angle_alpha 90.000000
_cell_angle_beta 92.787744
_cell_angle_gamma 90.000000
_cell_volume 1735.297092
_symmetry_space_group_name_H-M "C 2/M"
_symmetry_group_IT_number 12
_symmetry_cell_setting 'monoclinic'
loop_
_space_group_symop_operation_xyz
x,y,z
-x,y,-z
-x,-y,-z
x,-y,z
1/2+x,1/2+y,z
1/2-x,1/2+y,-z
1/2-x,1/2-y,-z
1/2+x,1/2-y,z
loop_
_atom_site_type_symbol
_atom_site_label
_atom_site_fract_x
_atom_site_fract_y
_atom_site_fract_z
Si Si1 0.621842 0.312149 0.670513
Si Si2 0.253283 0.886211 0.922462
Si Si3 0.134293 0.339754 0.900566
Si Si4 0.189062 0.886283 0.250435
Si Si5 0.125623 0.681984 0.443313
O O1 0.711499 0.212127 0.711321
O O2 0.509722 0.372448 0.730863
O O3 0.761240 0.371653 0.620917
O O4 0.487811 0.264476 0.606710
O O5 0.140535 0.785844 0.901772
O O6 0.438056 0.874577 0.884482
O O7 0.179129 0.000000 0.905264
O O8 0.301687 0.876984 0.014323
O O9 0.259928 0.380344 0.837694
O O10 0.245114 0.000000 0.281815
O O11 0.250000 0.750000 0.500000
O O12 0.000000 0.623443 0.500000
#
# Coordination Sequence:
#
# PCOD9196036 Si02
#       5
#     8   8   8   8   8
#     4   9  19  33  54  83 109 142 187 219 264 336
#     4  10  20  37  56  78 109 142 190 243 279 322
#     4  10  20  35  56  80 108 148 189 229 283 337
#     4  11  21  36  55  78 114 148 179 226 280 330
#     4   8  14  30  58  81 107 147 177 218 275 310
#
# _framework density 23.050809999999998
#
# number of rings (size 3 to 8) (size 9 to 14) (size 15 to 20)
#    0.000    2.400    0.000    3.600    0.000    0.000 
#    0.000   17.000    0.000   75.600    0.000    0.000 
#    0.000    0.000    0.000    0.000    0.000    0.000 
#
# Total GULP energy -111640.992693 kJ/mol
# GULP energy per Si atom -5582.049635 kJ/mol
# Density = 2.299835 g / cm^3
# Si number density = 23.050810 Si / 1000 Ang^3
#
#
#
# Elastic Constant Matrix: (Units=GPa)
#
#
# Indices 1 2 3 4 5 6 
#
# 1 83.9736 18.0518 54.7891 0.0000 -44.5780 0.0000
# 2 18.0518 148.6756 16.6909 0.0000 -9.5958 0.0000
# 3 54.7891 16.6909 96.4737 0.0000 -53.7702 0.0000
# 4 0.0000 0.0000 0.0000 -17.4196 0.0000 4.0854
# 5 -44.5780 -9.5958 -53.7702 0.0000 53.3383 0.0000
# 6 0.0000 0.0000 0.0000 4.0854 0.0000 10.5996
#
#
#
# Elastic Compliance Matrix: (Units=1/GPa)
#
#
# Indices 1 2 3 4 5 6 
#
# 1 0.022759 -0.001311 -0.005086 0.000000 0.013658 0.000000
# 2 -0.001311 0.006935 -0.000846 0.000000 -0.000701 0.000000
# 3 -0.005086 -0.000846 0.024984 0.000000 0.020784 0.000000
# 4 0.000000 0.000000 0.000000 -0.052647 0.000000 0.020292
# 5 0.013658 -0.000701 0.020784 0.000000 0.050989 0.000000
# 6 0.000000 0.000000 0.000000 0.020292 0.000000 0.086522
#
#
# Mechanical properties :
#
#
# Convention : Reuss Voigt Hill
#
# Bulk Modulus (GPa) = 24.88019 56.46518 40.67268
# Shear Modulus (GPa) = 29.86403 25.27638 27.57021
#
# Velocity S-wave (km/s) = 3.60331 3.31501 3.46217
# Velocity P-wave (km/s) = 5.30367 6.26111 5.80217
#
# Compressibility (1/GPa) = 0.04019262
#
# Stress axis : x y z
#
# Youngs Moduli (GPa) = 43.93799 144.19707 40.02518
#
# Poissons Ratio (x) = 0.18902 0.20358
# Poissons Ratio (y) = 0.05760 0.03386
# Poissons Ratio (z) = 0.22348 0.12197
#
# Static dielectric constant tensor:
#      x y z
#    x 1.906180 0.000000 -0.047980 
#    y 0.000000 1.835020 0.000000 
#    z -0.047980 0.000000 1.896070 
# 
# From -- ./inp_files/254683.got.cif
#   From: 2010.05.17/outbox.cif.g08.bks.cpg/sg12_128_cif.got.tgz:254683.got - 2010.06.03 13:09:07.
