data_PCOD9196693
_publ_section_title
;
Structure prediction by ZEFSAII (Michael W. Deem and Ramdas Pophale) SiO2 
 PCOD9196693
Probable space group: C 2/M
;
_chemical_formula_sum "Si O2"
_cell_formula_units_Z 64
_cell_length_a 31.956089
_cell_length_b 9.245968
_cell_length_c 11.415155
_cell_angle_alpha 90.000000
_cell_angle_beta 90.855527
_cell_angle_gamma 90.000000
_cell_volume 3372.402515
_symmetry_space_group_name_H-M "C 2/M"
_symmetry_group_IT_number 12
_symmetry_cell_setting 'monoclinic'
loop_
_space_group_symop_operation_xyz
x,y,z
-x,y,-z
-x,-y,-z
x,-y,z
1/2+x,1/2+y,z
1/2-x,1/2+y,-z
1/2-x,1/2-y,-z
1/2+x,1/2-y,z
loop_
_atom_site_type_symbol
_atom_site_label
_atom_site_fract_x
_atom_site_fract_y
_atom_site_fract_z
Si Si1 0.451691 0.827526 0.525756
Si Si2 0.761759 0.669630 0.318881
Si Si3 0.312167 0.831702 0.563369
Si Si4 0.388126 0.672900 0.669080
Si Si5 0.169316 0.673811 0.859229
Si Si6 0.959350 0.171199 0.069810
Si Si7 0.871240 0.170625 0.933785
Si Si8 0.583540 0.173434 0.726407
O O1 0.500000 0.796802 0.500000
O O2 0.432128 0.741230 0.632758
O O3 0.425870 0.788296 0.407514
O O4 0.447526 0.000000 0.545691
O O5 0.749134 0.500000 0.308035
O O6 0.722582 0.768586 0.349450
O O7 0.792739 0.678630 0.432453
O O8 0.788149 0.713558 0.206057
O O9 0.353282 0.737079 0.581259
O O10 0.321257 0.000000 0.586351
O O11 0.390098 0.500000 0.664172
O O12 0.373906 0.716133 0.799160
O O13 0.168796 0.500000 0.869352
O O14 0.129551 0.715349 0.775363
O O15 0.160685 0.744822 0.984177
O O16 0.950216 0.254965 0.188976
O O17 0.964130 0.000000 0.093991
O O18 0.917618 0.190391 0.990124
O O19 0.000000 0.220383 0.000000
O O20 0.861412 0.000000 0.937760
O O21 0.580401 0.000000 0.735331
#
# Coordination Sequence:
#
# PCOD9196693 Si02
#       8
#     8   8   8   8   8   8   8   8
#     4  10  22  38  55  78 108 142 179 223 272 324
#     4   9  18  34  57  85 115 141 175 224 271 318
#     4  10  20  35  57  85 114 146 179 218 268 322
#     4  11  23  38  56  77 109 147 182 222 269 324
#     4   9  17  32  55  79 104 138 176 220 269 317
#     4   9  18  32  52  74  99 133 174 222 271 315
#     4   9  20  36  51  74 105 140 180 224 270 318
#     4   9  18  33  51  75 105 134 171 216 264 315
#
# _framework density 18.977568000000002
#
# number of rings (size 3 to 8) (size 9 to 14) (size 15 to 20)
#    0.000    2.500    0.000    1.500    1.750    5.000 
#    0.000    3.125    0.000    0.000    0.000    0.000 
#    0.000    0.000    0.000    0.000    0.000    0.000 
#
# Total GULP energy -178599.909945 kJ/mol
# GULP energy per Si atom -5581.247186 kJ/mol
# Density = 1.893437 g / cm^3
# Si number density = 18.977568 Si / 1000 Ang^3
#
#
#
# Elastic Constant Matrix: (Units=GPa)
#
#
# Indices 1 2 3 4 5 6 
#
# 1 58.7396 25.8130 26.7996 0.0000 -31.2247 0.0000
# 2 25.8130 29.6233 30.4447 0.0000 -12.9770 0.0000
# 3 26.7996 30.4447 71.0415 0.0000 -25.3052 0.0000
# 4 0.0000 0.0000 0.0000 26.5975 0.0000 -7.4693
# 5 -31.2247 -12.9770 -25.3052 0.0000 33.2794 0.0000
# 6 0.0000 0.0000 0.0000 -7.4693 0.0000 25.3427
#
#
#
# Elastic Compliance Matrix: (Units=1/GPa)
#
#
# Indices 1 2 3 4 5 6 
#
# 1 0.050389 -0.038196 0.012199 0.000000 0.041660 0.000000
# 2 -0.038196 0.089970 -0.033486 0.000000 -0.026217 0.000000
# 3 0.012199 -0.033486 0.031887 0.000000 0.022635 0.000000
# 4 0.000000 0.000000 0.000000 0.040990 0.000000 0.012081
# 5 0.041660 -0.026217 0.022635 0.000000 0.076125 0.000000
# 6 0.000000 0.000000 0.000000 0.012081 0.000000 0.043020
#
#
# Mechanical properties :
#
#
# Convention : Reuss Voigt Hill
#
# Bulk Modulus (GPa) = 18.76809 36.16876 27.46843
# Shear Modulus (GPa) = 10.65857 22.13373 16.39615
#
# Velocity S-wave (km/s) = 2.37247 3.41883 2.94253
# Velocity P-wave (km/s) = 4.17323 5.88937 5.10394
#
# Compressibility (1/GPa) = 0.05328192
#
# Stress axis : x y z
#
# Youngs Moduli (GPa) = 19.84552 11.11488 31.36050
#
# Poissons Ratio (x) = 0.42454 -0.38258
# Poissons Ratio (y) = 0.75801 1.05013
# Poissons Ratio (z) = -0.24210 0.37219
#
# Static dielectric constant tensor:
#      x y z
#    x 1.667650 0.000000 0.005550 
#    y 0.000000 1.627220 0.000000 
#    z 0.005550 0.000000 1.663470 
# 
# From -- ./inp_files/187397.got.cif
#   From: 2010.05.17/outbox.cif.g08.bks.cpg/sg12_94_cif.got.tgz:187397.got - 2010.06.03 13:09:07.
