data_PCOD9196475
_publ_section_title
;
Structure prediction by ZEFSAII (Michael W. Deem and Ramdas Pophale) SiO2 
 PCOD9196475
Probable space group: C 2/M
;
_chemical_formula_sum "Si O2"
_cell_formula_units_Z 56
_cell_length_a 30.092986
_cell_length_b 8.646977
_cell_length_c 20.143289
_cell_angle_alpha 90.000000
_cell_angle_beta 147.477410
_cell_angle_gamma 90.000000
_cell_volume 2818.027025
_symmetry_space_group_name_H-M "C 2/M"
_symmetry_group_IT_number 12
_symmetry_cell_setting 'monoclinic'
loop_
_space_group_symop_operation_xyz
x,y,z
-x,y,-z
-x,-y,-z
x,-y,z
1/2+x,1/2+y,z
1/2-x,1/2+y,-z
1/2-x,1/2-y,-z
1/2+x,1/2-y,z
loop_
_atom_site_type_symbol
_atom_site_label
_atom_site_fract_x
_atom_site_fract_y
_atom_site_fract_z
Si Si1 0.311563 0.185891 0.722347
Si Si2 0.860344 0.186205 0.440586
Si Si3 0.562632 0.182529 0.232790
Si Si4 0.162114 0.315203 0.865923
Si Si5 0.906547 0.686209 0.364216
Si Si6 0.434206 0.325928 0.977296
Si Si7 0.500033 0.316202 0.286619
O O1 0.215672 0.226612 0.606816
O O2 0.362121 0.235604 0.720424
O O3 0.354444 0.256538 0.841523
O O4 0.320300 0.000000 0.736130
O O5 0.852246 0.259328 0.358116
O O6 0.945528 0.237267 0.581997
O O7 0.861684 0.000000 0.436121
O O8 0.552644 0.273140 0.288249
O O9 0.571064 0.000000 0.255472
O O10 0.478312 0.218034 0.086275
O O11 0.167418 0.500000 0.870865
O O12 0.131560 0.260263 0.754020
O O13 0.088713 0.263992 0.822712
O O14 0.250000 0.250000 0.000000
O O15 0.909202 0.500000 0.365299
O O16 0.000000 0.741450 0.500000
O O17 0.421044 0.500000 0.986641
O O18 0.500000 0.334944 0.000000
O O19 0.489102 0.500000 0.276253
#
# Coordination Sequence:
#
# PCOD9196475 Si02
#       7
#     8   8   8   8   8   8   8
#     4   9  19  36  55  82 118 155 199 245 292 354
#     4  10  22  38  60  88 118 154 198 247 297 358
#     4  10  20  35  57  81 114 161 201 241 297 356
#     4  11  24  43  66  93 126 160 199 250 306 364
#     4  10  21  40  65  90 118 154 197 246 300 360
#     4   9  17  31  52  78 108 145 191 243 296 348
#     4  11  23  39  59  86 119 155 199 248 302 361
#
# _framework density 19.872059
#
# number of rings (size 3 to 8) (size 9 to 14) (size 15 to 20)
#    0.000    2.000    1.429    1.714    0.000    6.571 
#    0.000    2.857    0.000    0.000    0.000    0.000 
#    0.000    0.000    0.000    0.000    0.000    0.000 
#
# Total GULP energy -156238.352372 kJ/mol
# GULP energy per Si atom -5579.941156 kJ/mol
# Density = 1.982683 g / cm^3
# Si number density = 19.872059 Si / 1000 Ang^3
#
#
#
# Elastic Constant Matrix: (Units=GPa)
#
#
# Indices 1 2 3 4 5 6 
#
# 1 97.0260 13.1411 42.5334 0.0000 4.5642 0.0000
# 2 13.1411 24.0690 22.0196 0.0000 5.7417 0.0000
# 3 42.5334 22.0196 107.7484 0.0000 13.2829 0.0000
# 4 0.0000 0.0000 0.0000 20.4444 0.0000 -0.8822
# 5 4.5642 5.7417 13.2829 0.0000 31.4150 0.0000
# 6 0.0000 0.0000 0.0000 -0.8822 0.0000 31.2669
#
#
#
# Elastic Compliance Matrix: (Units=1/GPa)
#
#
# Indices 1 2 3 4 5 6 
#
# 1 0.012633 -0.002963 -0.004454 0.000000 0.000589 0.000000
# 2 -0.002963 0.052613 -0.008915 0.000000 -0.005416 0.000000
# 3 -0.004454 -0.008915 0.013272 0.000000 -0.003335 0.000000
# 4 0.000000 0.000000 0.000000 0.048973 0.000000 0.001382
# 5 0.000589 -0.005416 -0.003335 0.000000 0.034146 0.000000
# 6 0.000000 0.000000 0.000000 0.001382 0.000000 0.032022
#
#
# Mechanical properties :
#
#
# Convention : Reuss Voigt Hill
#
# Bulk Modulus (GPa) = 21.80825 42.69238 32.25031
# Shear Modulus (GPa) = 20.69488 26.70189 23.69838
#
# Velocity S-wave (km/s) = 3.23058 3.66961 3.45708
# Velocity P-wave (km/s) = 4.99136 6.28371 5.67445
#
# Compressibility (1/GPa) = 0.04585422
#
# Stress axis : x y z
#
# Youngs Moduli (GPa) = 79.16088 19.00682 75.34689
#
# Poissons Ratio (x) = 0.05632 0.33558
# Poissons Ratio (y) = 0.23456 0.67169
# Poissons Ratio (z) = 0.35256 0.16944
#
# Static dielectric constant tensor:
#      x y z
#    x 1.710650 0.000000 -0.007440 
#    y 0.000000 1.675430 0.000000 
#    z -0.007440 0.000000 1.706570 
# 
# From -- ./inp_files/275000.got.cif
#   From: 2010.05.17/outbox.cif.g08.bks.cpg/sg12_138_cif.got.tgz:275000.got - 2010.06.03 13:09:07.
