data_PCOD9196779
_publ_section_title
;
Structure prediction by ZEFSAII (Michael W. Deem and Ramdas Pophale) SiO2 
 PCOD9196779
Probable space group: C 2/M
;
_chemical_formula_sum "Si O2"
_cell_formula_units_Z 56
_cell_length_a 17.949391
_cell_length_b 19.222948
_cell_length_c 14.070579
_cell_angle_alpha 90.000000
_cell_angle_beta 141.885602
_cell_angle_gamma 90.000000
_cell_volume 2996.617022
_symmetry_space_group_name_H-M "C 2/M"
_symmetry_group_IT_number 12
_symmetry_cell_setting 'monoclinic'
loop_
_space_group_symop_operation_xyz
x,y,z
-x,y,-z
-x,-y,-z
x,-y,z
1/2+x,1/2+y,z
1/2-x,1/2+y,-z
1/2-x,1/2-y,-z
1/2+x,1/2-y,z
loop_
_atom_site_type_symbol
_atom_site_label
_atom_site_fract_x
_atom_site_fract_y
_atom_site_fract_z
Si Si1 0.555377 0.203242 0.156818
Si Si2 0.458866 0.351252 0.056802
Si Si3 0.422102 0.580464 0.659606
Si Si4 0.335609 0.701728 0.449705
Si Si5 0.194881 0.420575 0.574987
Si Si6 0.695114 0.193204 0.742610
Si Si7 0.988556 0.673476 0.689003
O O1 0.552293 0.287159 0.156381
O O2 0.693723 0.183760 0.315980
O O3 0.477350 0.177947 0.167145
O O4 0.500000 0.181853 0.000000
O O5 0.469591 0.397077 0.161322
O O6 0.500000 0.389042 0.000000
O O7 0.329951 0.313757 0.918020
O O8 0.429747 0.500000 0.638946
O O9 0.406452 0.633705 0.556611
O O10 0.307138 0.588820 0.615800
O O11 0.338493 0.735950 0.347381
O O12 0.390472 0.764631 0.569124
O O13 0.194748 0.500000 0.607002
O O14 0.192602 0.368430 0.661804
O O15 0.076565 0.398853 0.398252
O O16 0.597783 0.183496 0.726765
#
# Coordination Sequence:
#
# PCOD9196779 Si02
#       7
#     8   8   8   8   8   8   8
#     4  11  20  35  60  84 113 150 186 243 296 334
#     4  11  19  36  55  84 117 148 191 243 301 342
#     4  11  22  35  60  87 113 156 203 244 287 342
#     4  11  19  38  59  82 118 151 197 240 281 343
#     4  10  20  35  57  86 119 150 186 234 293 355
#     4  11  23  35  58  91 119 151 190 239 300 346
#     4  11  22  36  58  89 116 152 192 237 291 351
#
# _framework density 18.687740000000002
#
# number of rings (size 3 to 8) (size 9 to 14) (size 15 to 20)
#    0.000    1.143    7.143    3.000    0.000    2.571 
#    0.000    0.000    0.000    3.429    0.000    0.000 
#    0.000    0.000    0.000    0.000    0.000    0.000 
#
# Total GULP energy -156091.268584 kJ/mol
# GULP energy per Si atom -5574.688164 kJ/mol
# Density = 1.864521 g / cm^3
# Si number density = 18.687740 Si / 1000 Ang^3
#
#
#
# Elastic Constant Matrix: (Units=GPa)
#
#
# Indices 1 2 3 4 5 6 
#
# 1 79.2133 12.4888 30.8923 0.0000 -10.8690 0.0000
# 2 12.4888 75.8045 41.6353 0.0000 -11.7383 0.0000
# 3 30.8923 41.6353 93.4770 0.0000 -9.3814 0.0000
# 4 0.0000 0.0000 0.0000 17.1267 0.0000 -2.8067
# 5 -10.8690 -11.7383 -9.3814 0.0000 16.5681 0.0000
# 6 0.0000 0.0000 0.0000 -2.8067 0.0000 9.5448
#
#
#
# Elastic Compliance Matrix: (Units=1/GPa)
#
#
# Indices 1 2 3 4 5 6 
#
# 1 0.015463 0.001451 -0.004915 0.000000 0.008389 0.000000
# 2 0.001451 0.018792 -0.007865 0.000000 0.009812 0.000000
# 3 -0.004915 -0.007865 0.015842 0.000000 0.000174 0.000000
# 4 0.000000 0.000000 0.000000 0.061345 0.000000 0.018038
# 5 0.008389 0.009812 0.000174 0.000000 0.072911 0.000000
# 6 0.000000 0.000000 0.000000 0.018038 0.000000 0.110073
#
#
# Mechanical properties :
#
#
# Convention : Reuss Voigt Hill
#
# Bulk Modulus (GPa) = 36.44235 46.50307 41.47271
# Shear Modulus (GPa) = 15.32662 19.54649 17.43655
#
# Velocity S-wave (km/s) = 2.86692 3.23763 3.05790
# Velocity P-wave (km/s) = 5.52286 6.23816 5.89137
#
# Compressibility (1/GPa) = 0.02744060
#
# Stress axis : x y z
#
# Youngs Moduli (GPa) = 64.67001 53.21445 63.12142
#
# Poissons Ratio (x) = -0.07720 0.31021
# Poissons Ratio (y) = -0.09382 0.49643
# Poissons Ratio (z) = 0.31782 0.41852
#
# Static dielectric constant tensor:
#      x y z
#    x 1.682350 0.000000 -0.005650 
#    y 0.000000 1.637090 0.000000 
#    z -0.005650 0.000000 1.716200 
# 
# From -- ./inp_files/158332.got.cif
#   From: 2010.05.17/outbox.cif.g08.bks.cpg/sg12_80_cif.got.tgz:158332.got - 2010.06.03 13:09:07.
