data_PCOD9196700
_publ_section_title
;
Structure prediction by ZEFSAII (Michael W. Deem and Ramdas Pophale) SiO2 
 PCOD9196700
Probable space group: C 2/M
;
_chemical_formula_sum "Si O2"
_cell_formula_units_Z 48
_cell_length_a 21.162125
_cell_length_b 7.961662
_cell_length_c 15.528310
_cell_angle_alpha 90.000000
_cell_angle_beta 112.450625
_cell_angle_gamma 90.000000
_cell_volume 2418.006050
_symmetry_space_group_name_H-M "C 2/M"
_symmetry_group_IT_number 12
_symmetry_cell_setting 'monoclinic'
loop_
_space_group_symop_operation_xyz
x,y,z
-x,y,-z
-x,-y,-z
x,-y,z
1/2+x,1/2+y,z
1/2-x,1/2+y,-z
1/2-x,1/2-y,-z
1/2+x,1/2-y,z
loop_
_atom_site_type_symbol
_atom_site_label
_atom_site_fract_x
_atom_site_fract_y
_atom_site_fract_z
Si Si1 0.421761 0.205364 0.464294
Si Si2 0.832443 0.303337 0.767688
Si Si3 0.174263 0.798267 0.929084
Si Si4 0.673986 0.797219 0.429897
Si Si5 0.075742 0.198458 0.027493
Si Si6 0.318696 0.801033 0.261755
O O1 0.500000 0.262508 0.500000
O O2 0.381422 0.260576 0.528913
O O3 0.376884 0.256571 0.358406
O O4 0.422805 0.000000 0.465702
O O5 0.849941 0.500000 0.776463
O O6 0.839100 0.235659 0.673921
O O7 0.880206 0.218400 0.863184
O O8 0.753625 0.283509 0.754595
O O9 0.162496 0.731327 0.827202
O O10 0.171178 0.000000 0.924771
O O11 0.250000 0.750000 0.000000
O O12 0.119609 0.732616 0.970321
O O13 0.750000 0.750000 0.500000
O O14 0.671375 0.000000 0.426042
O O15 0.068004 0.000000 0.006037
O O16 0.000000 0.271174 0.000000
O O17 0.308728 0.000000 0.269414
#
# Coordination Sequence:
#
# PCOD9196700 Si02
#       6
#     8   8   8   8   8   8
#     4   9  19  36  57  83 116 152 191 235 285 340
#     4  11  22  35  58  88 117 150 193 244 288 338
#     4  11  22  37  60  87 117 151 193 239 286 343
#     4  10  20  35  57  85 114 149 191 235 283 336
#     4  10  23  42  61  83 116 156 193 234 290 349
#     4  11  21  35  60  87 114 154 196 238 287 342
#
# _framework density 19.851068000000001
#
# number of rings (size 3 to 8) (size 9 to 14) (size 15 to 20)
#    0.000    1.667    3.333    1.500    0.000    3.000 
#    0.000    1.667    0.000    4.500    0.000    0.000 
#    0.000    0.000    0.000    0.000    0.000    0.000 
#
# Total GULP energy -134083.204483 kJ/mol
# GULP energy per Si atom -5586.800187 kJ/mol
# Density = 1.980589 g / cm^3
# Si number density = 19.851068 Si / 1000 Ang^3
#
#
#
# Elastic Constant Matrix: (Units=GPa)
#
#
# Indices 1 2 3 4 5 6 
#
# 1 184.0541 -8.9864 91.2047 0.0000 -8.7454 0.0000
# 2 -8.9864 16.5289 -18.3242 0.0000 -3.0250 0.0000
# 3 91.2047 -18.3242 155.2598 0.0000 -22.1837 0.0000
# 4 0.0000 0.0000 0.0000 2.9459 0.0000 -12.5561
# 5 -8.7454 -3.0250 -22.1837 0.0000 38.0110 0.0000
# 6 0.0000 0.0000 0.0000 -12.5561 0.0000 10.1966
#
#
#
# Elastic Compliance Matrix: (Units=1/GPa)
#
#
# Indices 1 2 3 4 5 6 
#
# 1 0.007722 -0.001419 -0.004872 0.000000 -0.001180 0.000000
# 2 -0.001419 0.074598 0.011389 0.000000 0.012257 0.000000
# 3 -0.004872 0.011389 0.011582 0.000000 0.006545 0.000000
# 4 0.000000 0.000000 0.000000 -0.079899 0.000000 -0.098388
# 5 -0.001180 0.012257 0.006545 0.000000 0.030832 0.000000
# 6 0.000000 0.000000 0.000000 -0.098388 0.000000 -0.023084
#
#
# Mechanical properties :
#
#
# Convention : Reuss Voigt Hill
#
# Bulk Modulus (GPa) = 9.60637 53.73679 31.67158
# Shear Modulus (GPa) = 108.09629 29.69394 68.89512
#
# Velocity S-wave (km/s) = 7.38728 3.87180 5.89757
# Velocity P-wave (km/s) = 8.80978 6.86415 7.89711
#
# Compressibility (1/GPa) = 0.10409763
#
# Stress axis : x y z
#
# Youngs Moduli (GPa) = 129.49603 13.40524 86.33860
#
# Poissons Ratio (x) = 0.01902 0.42067
# Poissons Ratio (y) = 0.18376 -0.98332
# Poissons Ratio (z) = 0.63095 -0.15267
#
# Static dielectric constant tensor:
#      x y z
#    x 1.681260 0.000000 -0.023570 
#    y 0.000000 1.724870 0.000000 
#    z -0.023570 0.000000 1.673160 
# 
# From -- ./inp_files/229894.got.cif
#   From: 2010.05.17/outbox.cif.g08.bks.cpg/sg12_115_cif.got.tgz:229894.got - 2010.06.03 13:09:07.
