data_PCOD9196576
_publ_section_title
;
Structure prediction by ZEFSAII (Michael W. Deem and Ramdas Pophale) SiO2 
 PCOD9196576
Probable space group: C 2/M
;
_chemical_formula_sum "Si O2"
_cell_formula_units_Z 48
_cell_length_a 28.006572
_cell_length_b 8.519323
_cell_length_c 15.896901
_cell_angle_alpha 90.000000
_cell_angle_beta 40.897954
_cell_angle_gamma 90.000000
_cell_volume 2483.299026
_symmetry_space_group_name_H-M "C 2/M"
_symmetry_group_IT_number 12
_symmetry_cell_setting 'monoclinic'
loop_
_space_group_symop_operation_xyz
x,y,z
-x,y,-z
-x,-y,-z
x,-y,z
1/2+x,1/2+y,z
1/2-x,1/2+y,-z
1/2-x,1/2-y,-z
1/2+x,1/2-y,z
loop_
_atom_site_type_symbol
_atom_site_label
_atom_site_fract_x
_atom_site_fract_y
_atom_site_fract_z
Si Si1 0.962973 0.808691 0.796918
Si Si2 0.712882 0.811971 0.299295
Si Si3 0.048846 0.810051 0.515186
Si Si4 0.790358 0.686649 0.363426
Si Si5 0.044933 0.809877 0.857521
Si Si6 0.205038 0.189886 0.980194
O O1 0.008199 0.759905 0.654718
O O2 0.002728 0.758757 0.829514
O O3 0.962149 0.000000 0.798321
O O4 0.879045 0.756982 0.904833
O O5 0.629314 0.759605 0.403204
O O6 0.748517 0.743134 0.335836
O O7 0.756975 0.760196 0.157441
O O8 0.717040 0.000000 0.298427
O O9 0.000000 0.765730 0.500000
O O10 0.054724 0.000000 0.508183
O O11 0.789912 0.500000 0.366843
O O12 0.750000 0.750000 0.500000
O O13 0.873146 0.747502 0.250636
O O14 0.048021 0.000000 0.853192
O O15 0.000000 0.761381 0.000000
O O16 0.205282 0.000000 0.981789
O O17 0.250000 0.250000 0.000000
#
# Coordination Sequence:
#
# PCOD9196576 Si02
#       6
#     8   8   8   8   8   8
#     4   9  18  34  56  80 108 146 190 231 276 336
#     4  11  23  39  60  87 119 155 196 244 299 356
#     4  10  20  35  57  83 113 152 195 238 286 345
#     4  12  25  41  62  88 120 157 200 250 303 361
#     4  10  20  37  61  86 116 155 196 239 291 353
#     4  10  21  38  60  86 116 152 194 238 286 341
#
# _framework density 19.329125999999999
#
# number of rings (size 3 to 8) (size 9 to 14) (size 15 to 20)
#    0.000    1.667    0.000    5.000    0.000    7.333 
#    0.000    1.667    0.000    0.000    0.000    0.000 
#    0.000    0.000    0.000    0.000    0.000    0.000 
#
# Total GULP energy -134192.357803 kJ/mol
# GULP energy per Si atom -5591.348242 kJ/mol
# Density = 1.928513 g / cm^3
# Si number density = 19.329126 Si / 1000 Ang^3
#
#
#
# Elastic Constant Matrix: (Units=GPa)
#
#
# Indices 1 2 3 4 5 6 
#
# 1 88.6076 20.6067 11.3965 -0.0004 2.6694 0.0003
# 2 20.6067 27.3718 24.9086 0.0022 1.8560 -0.0012
# 3 11.3965 24.9086 115.3088 0.0009 1.9931 -0.0005
# 4 -0.0004 0.0022 0.0009 25.6518 -0.0002 -8.3177
# 5 2.6694 1.8560 1.9931 -0.0002 46.3182 0.0000
# 6 0.0003 -0.0012 -0.0005 -8.3177 0.0000 30.5577
#
#
#
# Elastic Compliance Matrix: (Units=1/GPa)
#
#
# Indices 1 2 3 4 5 6 
#
# 1 0.013798 -0.011360 0.001097 0.000001 -0.000387 0.000000
# 2 -0.011360 0.054916 -0.010721 -0.000004 -0.001085 0.000001
# 3 0.001097 -0.010721 0.010882 0.000001 -0.000102 0.000000
# 4 0.000001 -0.000004 0.000001 0.042757 0.000000 0.011638
# 5 -0.000387 -0.001085 -0.000102 0.000000 0.021660 0.000000
# 6 0.000000 0.000001 0.000000 0.011638 0.000000 0.035893
#
#
# Mechanical properties :
#
#
# Convention : Reuss Voigt Hill
#
# Bulk Modulus (GPa) = 26.57630 38.34577 32.46104
# Shear Modulus (GPa) = 21.32951 32.13063 26.73007
#
# Velocity S-wave (km/s) = 3.32549 4.08154 3.72276
# Velocity P-wave (km/s) = 5.34082 6.48794 5.94213
#
# Compressibility (1/GPa) = 0.03762751
#
# Stress axis : x y z
#
# Youngs Moduli (GPa) = 72.47356 18.20962 91.89742
#
# Poissons Ratio (x) = 0.20686 -0.10080
# Poissons Ratio (y) = 0.82328 0.98526
# Poissons Ratio (z) = -0.07949 0.19523
#
# Static dielectric constant tensor:
#      x y z
#    x 1.631790 0.000000 0.018090 
#    y 0.000000 1.665000 0.000010 
#    z 0.018090 0.000010 1.438350 
# 
# From -- ./inp_files/244596.got.cif
#   From: 2010.05.17/outbox.cif.g08.bks.cpg/sg12_123_cif.got.tgz:244596.got - 2010.06.03 13:09:07.
