data_PCOD9196125
_publ_section_title
;
Structure prediction by ZEFSAII (Michael W. Deem and Ramdas Pophale) SiO2 
 PCOD9196125
Probable space group: C 2/M
;
_chemical_formula_sum "Si O2"
_cell_formula_units_Z 48
_cell_length_a 22.876746
_cell_length_b 15.022695
_cell_length_c 7.709549
_cell_angle_alpha 90.000000
_cell_angle_beta 99.712839
_cell_angle_gamma 90.000000
_cell_volume 2611.564234
_symmetry_space_group_name_H-M "C 2/M"
_symmetry_group_IT_number 12
_symmetry_cell_setting 'monoclinic'
loop_
_space_group_symop_operation_xyz
x,y,z
-x,y,-z
-x,-y,-z
x,-y,z
1/2+x,1/2+y,z
1/2-x,1/2+y,-z
1/2-x,1/2-y,-z
1/2+x,1/2-y,z
loop_
_atom_site_type_symbol
_atom_site_label
_atom_site_fract_x
_atom_site_fract_y
_atom_site_fract_z
Si Si1 0.496487 0.598451 0.202426
Si Si2 0.249506 0.143642 0.495479
Si Si3 0.830921 0.601125 0.219827
Si Si4 0.226590 0.897938 0.887486
Si Si5 0.884550 0.786133 0.234360
Si Si6 0.876312 0.898371 0.568586
O O1 0.478635 0.500000 0.263170
O O2 0.447872 0.672278 0.219998
O O3 0.563078 0.615815 0.299340
O O4 0.500000 0.592459 0.000000
O O5 0.250000 0.250000 0.500000
O O6 0.301706 0.110894 0.396403
O O7 0.248660 0.112791 0.697228
O O8 0.187905 0.110822 0.376336
O O9 0.852674 0.500000 0.208476
O O10 0.877805 0.680602 0.220396
O O11 0.779354 0.616982 0.050338
O O12 0.171013 0.832546 0.891589
O O13 0.206216 0.000000 0.897169
O O14 0.874476 0.823039 0.422484
O O15 0.878286 0.000000 0.500917
#
# Coordination Sequence:
#
# PCOD9196125 Si02
#       6
#     8   8   8   8   8   8
#     4  10  22  36  56  86 113 143 183 230 287 345
#     4  11  20  35  58  86 117 152 185 229 281 340
#     4  11  23  37  57  84 117 154 192 234 276 333
#     4  10  21  35  55  83 116 151 185 230 286 338
#     4  11  20  36  56  79 112 148 188 228 277 336
#     4  10  20  35  56  81 111 145 180 227 285 340
#
# _framework density 18.37979
#
# number of rings (size 3 to 8) (size 9 to 14) (size 15 to 20)
#    0.000    1.500    3.333    5.000    2.333    1.333 
#    0.000    0.000    0.000    2.500    0.000    0.000 
#    0.000    0.000    0.000    0.000    0.000    0.000 
#
# Total GULP energy -133825.699863 kJ/mol
# GULP energy per Si atom -5576.070828 kJ/mol
# Density = 1.833796 g / cm^3
# Si number density = 18.379790 Si / 1000 Ang^3
#
#
#
# Elastic Constant Matrix: (Units=GPa)
#
#
# Indices 1 2 3 4 5 6 
#
# 1 65.7732 29.6679 3.0784 0.0000 7.4016 0.0000
# 2 29.6679 135.2576 12.4772 0.0000 23.7896 0.0000
# 3 3.0784 12.4772 48.0641 0.0000 13.4882 0.0000
# 4 0.0000 0.0000 0.0000 16.2353 0.0000 10.3509
# 5 7.4016 23.7896 13.4882 0.0000 21.1527 0.0000
# 6 0.0000 0.0000 0.0000 10.3509 0.0000 24.4435
#
#
#
# Elastic Compliance Matrix: (Units=1/GPa)
#
#
# Indices 1 2 3 4 5 6 
#
# 1 0.016963 -0.003325 0.000479 0.000000 -0.002501 0.000000
# 2 -0.003325 0.009884 0.000536 0.000000 -0.010294 0.000000
# 3 0.000479 0.000536 0.025397 0.000000 -0.016965 0.000000
# 4 0.000000 0.000000 0.000000 0.084373 0.000000 -0.035729
# 5 -0.002501 -0.010294 -0.016965 0.000000 0.070546 0.000000
# 6 0.000000 0.000000 0.000000 -0.035729 0.000000 0.056040
#
#
# Mechanical properties :
#
#
# Convention : Reuss Voigt Hill
#
# Bulk Modulus (GPa) = 20.99849 37.72687 29.36268
# Shear Modulus (GPa) = 17.62448 25.95774 21.79111
#
# Velocity S-wave (km/s) = 3.09998 3.76213 3.44699
# Velocity P-wave (km/s) = 4.92572 6.28032 5.64381
#
# Compressibility (1/GPa) = 0.04762248
#
# Stress axis : x y z
#
# Youngs Moduli (GPa) = 58.95343 101.17653 39.37544
#
# Poissons Ratio (x) = 0.33640 -0.01885
# Poissons Ratio (y) = 0.19601 -0.02111
# Poissons Ratio (z) = -0.02822 -0.05423
#
# Static dielectric constant tensor:
#      x y z
#    x 1.756050 0.000000 -0.001150 
#    y 0.000000 1.645010 0.000000 
#    z -0.001150 0.000000 1.659640 
# 
# From -- ./inp_files/85969.got.cif
#   From: 2010.05.17/outbox.cif.g08.bks.cpg/sg12_43_cif.got.tgz:85969.got - 2010.06.03 13:09:07.
