data_PCOD9196522
_publ_section_title
;
Structure prediction by ZEFSAII (Michael W. Deem and Ramdas Pophale) SiO2 
 PCOD9196522
Probable space group: C 2/M
;
_chemical_formula_sum "Si O2"
_cell_formula_units_Z 58
_cell_length_a 7.761865
_cell_length_b 12.507726
_cell_length_c 26.654209
_cell_angle_alpha 90.000000
_cell_angle_beta 88.245430
_cell_angle_gamma 90.000000
_cell_volume 2586.464825
_symmetry_space_group_name_H-M "C 2/M"
_symmetry_group_IT_number 12
_symmetry_cell_setting 'monoclinic'
loop_
_space_group_symop_operation_xyz
x,y,z
-x,y,-z
-x,-y,-z
x,-y,z
1/2+x,1/2+y,z
1/2-x,1/2+y,-z
1/2-x,1/2-y,-z
1/2+x,1/2-y,z
loop_
_atom_site_type_symbol
_atom_site_label
_atom_site_fract_x
_atom_site_fract_y
_atom_site_fract_z
Si Si1 0.131053 0.810724 0.461186
Si Si2 0.061574 0.119041 0.825539
Si Si3 0.500000 0.500000 0.000000
Si Si4 0.941406 0.615699 0.942668
Si Si5 0.550248 0.882415 0.596150
Si Si6 0.179690 0.843393 0.077444
Si Si7 0.555782 0.119236 0.288268
Si Si8 0.753414 0.793265 0.768726
O O1 0.250000 0.750000 0.500000
O O2 0.251972 0.877032 0.423363
O O3 0.000000 0.869796 0.500000
O O4 0.041339 0.717022 0.429798
O O5 0.197600 0.213298 0.814307
O O6 0.955129 0.130316 0.877616
O O7 0.916396 0.137889 0.784056
O O8 0.136445 0.000000 0.822110
O O9 0.389601 0.407077 0.970201
O O10 0.855626 0.500000 0.934581
O O11 0.124266 0.623148 0.912328
O O12 0.825168 0.716506 0.931819
O O13 0.000000 0.621142 0.000000
O O14 0.524561 0.871751 0.655780
O O15 0.480085 0.000000 0.581828
O O16 0.406406 0.137543 0.248448
O O17 0.692334 0.211896 0.275975
O O18 0.629498 0.000000 0.282848
#
# Coordination Sequence:
#
# PCOD9196522 Si02
#       8
#     8   8   2   8   8   8   8   8
#     4   9  19  34  52  79 116 155 197 240 280 335
#     4  11  22  40  60  85 116 150 186 231 285 352
#     4  12  24  40  68  88 120 156 194 242 288 340
#     4  11  24  41  60  86 114 149 188 230 278 333
#     4  10  20  35  57  82 112 153 197 242 297 340
#     4  12  24  42  63  88 119 153 193 237 287 340
#     4  10  20  37  60  86 114 147 190 242 291 350
#     4  10  22  38  60  86 115 148 186 234 296 351
#
# _framework density 22.424431999999999
#
# number of rings (size 3 to 8) (size 9 to 14) (size 15 to 20)
#    0.000    1.517    2.069    2.897    0.000    2.759 
#    0.000    5.517    0.000   11.586    0.000    0.000 
#    0.000    0.000    0.000    0.000    0.000    0.000 
#
# Total GULP energy -161905.139929 kJ/mol
# GULP energy per Si atom -5582.935860 kJ/mol
# Density = 2.237339 g / cm^3
# Si number density = 22.424432 Si / 1000 Ang^3
#
#
#
# Elastic Constant Matrix: (Units=GPa)
#
#
# Indices 1 2 3 4 5 6 
#
# 1 30.5610 2.1382 7.0764 0.0000 -5.9271 0.0000
# 2 2.1382 139.8173 26.9910 0.0000 3.5811 0.0000
# 3 7.0764 26.9910 78.9007 0.0000 -26.1654 0.0000
# 4 0.0000 0.0000 0.0000 -14.1282 0.0000 8.0313
# 5 -5.9271 3.5811 -26.1654 0.0000 38.9738 0.0000
# 6 0.0000 0.0000 0.0000 8.0313 0.0000 14.3110
#
#
#
# Elastic Compliance Matrix: (Units=1/GPa)
#
#
# Indices 1 2 3 4 5 6 
#
# 1 0.033908 -0.000324 -0.001557 0.000000 0.004141 0.000000
# 2 -0.000324 0.007978 -0.003807 0.000000 -0.003338 0.000000
# 3 -0.001557 -0.003807 0.018207 0.000000 0.012337 0.000000
# 4 0.000000 0.000000 0.000000 -0.053661 0.000000 0.030115
# 5 0.004141 -0.003338 0.012337 0.000000 0.034877 0.000000
# 6 0.000000 0.000000 0.000000 0.030115 0.000000 0.052976
#
#
# Mechanical properties :
#
#
# Convention : Reuss Voigt Hill
#
# Bulk Modulus (GPa) = 20.52683 35.74334 28.13509
# Shear Modulus (GPa) = 41.01758 22.03621 31.52689
#
# Velocity S-wave (km/s) = 4.28149 3.13819 3.75362
# Velocity P-wave (km/s) = 5.79786 5.39491 5.60001
#
# Compressibility (1/GPa) = 0.04871672
#
# Stress axis : x y z
#
# Youngs Moduli (GPa) = 29.49170 125.35161 54.92321
#
# Poissons Ratio (x) = 0.04062 0.08551
# Poissons Ratio (y) = 0.00956 0.20909
# Poissons Ratio (z) = 0.04592 0.47721
#
# Static dielectric constant tensor:
#      x y z
#    x 1.838540 0.000000 -0.060600 
#    y 0.000000 1.802210 0.000000 
#    z -0.060600 0.000000 1.838510 
# 
# From -- ./inp_files/371982.got.cif
#   From: 2010.05.17/outbox.cif.g08.bks.cpg/sg12_186_cif.got.tgz:371982.got - 2010.06.03 13:09:07.
