data_PCOD9196971
_publ_section_title
;
Structure prediction by ZEFSAII (Michael W. Deem and Ramdas Pophale) SiO2 
 PCOD9196971
Probable space group: C 2/M
;
_chemical_formula_sum "Si O2"
_cell_formula_units_Z 64
_cell_length_a 12.690343
_cell_length_b 28.663696
_cell_length_c 9.525258
_cell_angle_alpha 90.000000
_cell_angle_beta 88.054158
_cell_angle_gamma 90.000000
_cell_volume 3462.834993
_symmetry_space_group_name_H-M "C 2/M"
_symmetry_group_IT_number 12
_symmetry_cell_setting 'monoclinic'
loop_
_space_group_symop_operation_xyz
x,y,z
-x,y,-z
-x,-y,-z
x,-y,z
1/2+x,1/2+y,z
1/2-x,1/2+y,-z
1/2-x,1/2-y,-z
1/2+x,1/2-y,z
loop_
_atom_site_type_symbol
_atom_site_label
_atom_site_fract_x
_atom_site_fract_y
_atom_site_fract_z
Si Si1 0.594325 0.874555 0.107648
Si Si2 0.595214 0.656224 0.814015
Si Si3 0.121134 0.881394 0.518377
Si Si4 0.282469 0.222390 0.856366
Si Si5 0.862623 0.186274 0.729274
Si Si6 0.255728 0.553689 0.686436
Si Si7 0.201555 0.111295 0.064905
Si Si8 0.992307 0.555045 0.331582
O O1 0.638502 0.821997 0.134281
O O2 0.558178 0.906513 0.240793
O O3 0.500000 0.871812 0.000000
O O4 0.693512 0.898543 0.026691
O O5 0.633758 0.625764 0.681404
O O6 0.672230 0.700380 0.814034
O O7 0.477472 0.673443 0.787537
O O8 0.615900 0.627179 0.954654
O O9 0.136553 0.833592 0.428254
O O10 0.200644 0.917016 0.445039
O O11 0.000000 0.896267 0.500000
O O12 0.332790 0.260456 0.751070
O O13 0.250000 0.250000 0.000000
O O14 0.784179 0.155449 0.829988
O O15 0.274009 0.500000 0.659782
O O16 0.317132 0.570456 0.823407
O O17 0.130361 0.561142 0.706689
O O18 0.020823 0.500000 0.302255
O O19 0.000000 0.561791 0.500000
#
# Coordination Sequence:
#
# PCOD9196971 Si02
#       8
#     8   8   8   8   8   8   8   8
#     4  11  22  36  58  86 118 153 198 245 284 350
#     4  10  21  37  60  84 116 156 200 240 291 359
#     4   9  21  40  62  84 115 159 197 239 300 357
#     4  11  23  34  57  91 116 157 200 244 298 346
#     4  10  20  39  59  82 120 159 194 240 302 354
#     4  10  21  39  62  87 120 154 195 248 302 355
#     4  10  20  35  58  85 112 155 196 236 294 349
#     4  10  23  41  61  85 119 161 195 240 308 361
#
# _framework density 18.481967999999998
#
# number of rings (size 3 to 8) (size 9 to 14) (size 15 to 20)
#    0.000    1.875    3.750    0.375    5.250    1.500 
#    0.000    2.500    0.000    9.750    0.000    0.000 
#    0.000    0.000    0.000    0.000    0.000    0.000 
#
# Total GULP energy -178325.829463 kJ/mol
# GULP energy per Si atom -5572.682171 kJ/mol
# Density = 1.843990 g / cm^3
# Si number density = 18.481968 Si / 1000 Ang^3
#
#
#
# Elastic Constant Matrix: (Units=GPa)
#
#
# Indices 1 2 3 4 5 6 
#
# 1 41.0153 34.4894 18.0378 0.0000 -17.8954 0.0000
# 2 34.4894 99.6273 36.1760 0.0000 -15.4389 0.0000
# 3 18.0378 36.1760 86.3013 0.0000 -6.0355 0.0000
# 4 0.0000 0.0000 0.0000 13.5585 0.0000 -8.9509
# 5 -17.8954 -15.4389 -6.0355 0.0000 27.1768 0.0000
# 6 0.0000 0.0000 0.0000 -8.9509 0.0000 15.6841
#
#
#
# Elastic Compliance Matrix: (Units=1/GPa)
#
#
# Indices 1 2 3 4 5 6 
#
# 1 0.044770 -0.010817 -0.003241 0.000000 0.022615 0.000000
# 2 -0.010817 0.015396 -0.004144 0.000000 0.000703 0.000000
# 3 -0.003241 -0.004144 0.013904 0.000000 -0.001401 0.000000
# 4 0.000000 0.000000 0.000000 0.118340 0.000000 0.067536
# 5 0.022615 0.000703 -0.001401 0.000000 0.051776 0.000000
# 6 0.000000 0.000000 0.000000 0.067536 0.000000 0.102302
#
#
# Mechanical properties :
#
#
# Convention : Reuss Voigt Hill
#
# Bulk Modulus (GPa) = 26.54962 44.92781 35.73872
# Shear Modulus (GPa) = 12.64395 20.49994 16.57194
#
# Velocity S-wave (km/s) = 2.61841 3.33406 2.99767
# Velocity P-wave (km/s) = 4.85158 6.25963 5.60004
#
# Compressibility (1/GPa) = 0.03766532
#
# Stress axis : x y z
#
# Youngs Moduli (GPa) = 22.33642 64.95347 71.92301
#
# Poissons Ratio (x) = 0.70260 0.23313
# Poissons Ratio (y) = 0.24161 0.29802
# Poissons Ratio (z) = 0.07240 0.26914
#
# Static dielectric constant tensor:
#      x y z
#    x 1.722770 0.000000 0.048120 
#    y 0.000000 1.656920 0.000000 
#    z 0.048120 0.000000 1.697880 
# 
# From -- ./inp_files/54724.got.cif
#   From: 2010.05.17/outbox.cif.g08.bks.cpg/sg12_28_cif.got.tgz:54724.got - 2010.06.03 13:09:07.
