data_PCOD9196133
_publ_section_title
;
Structure prediction by ZEFSAII (Michael W. Deem and Ramdas Pophale) SiO2 
 PCOD9196133
Probable space group: C 2/M
;
_chemical_formula_sum "Si O2"
_cell_formula_units_Z 56
_cell_length_a 17.486022
_cell_length_b 24.365182
_cell_length_c 8.237611
_cell_angle_alpha 90.000000
_cell_angle_beta 52.757679
_cell_angle_gamma 90.000000
_cell_volume 2793.961226
_symmetry_space_group_name_H-M "C 2/M"
_symmetry_group_IT_number 12
_symmetry_cell_setting 'monoclinic'
loop_
_space_group_symop_operation_xyz
x,y,z
-x,y,-z
-x,-y,-z
x,-y,z
1/2+x,1/2+y,z
1/2-x,1/2+y,-z
1/2-x,1/2-y,-z
1/2+x,1/2-y,z
loop_
_atom_site_type_symbol
_atom_site_label
_atom_site_fract_x
_atom_site_fract_y
_atom_site_fract_z
Si Si1 0.353078 0.564774 0.386283
Si Si2 0.901516 0.240040 0.555924
Si Si3 0.048026 0.066378 0.267526
Si Si4 0.559313 0.178283 0.757690
Si Si5 0.384610 0.148704 0.787587
Si Si6 0.260785 0.149702 0.274584
Si Si7 0.738983 0.565559 0.847492
O O1 0.349641 0.500000 0.423573
O O2 0.465133 0.581140 0.244792
O O3 0.298019 0.596015 0.599755
O O4 0.303615 0.574386 0.277310
O O5 0.926609 0.263746 0.347224
O O6 0.877693 0.293459 0.699386
O O7 0.814533 0.198730 0.650847
O O8 0.000000 0.215110 0.500000
O O9 0.000000 0.082553 0.500000
O O10 0.056469 0.000000 0.258912
O O11 0.153385 0.085597 0.078848
O O12 0.494394 0.144139 0.711887
O O13 0.663496 0.157484 0.675564
O O14 0.500000 0.182556 0.000000
O O15 0.335698 0.099913 0.750120
O O16 0.322532 0.148776 0.032070
O O17 0.754259 0.500000 0.850235
#
# Coordination Sequence:
#
# PCOD9196133 Si02
#       7
#     8   8   8   8   8   8   8
#     4  10  21  36  54  81 116 149 185 231 279 329
#     4  10  21  38  59  83 112 143 182 230 281 335
#     4   9  17  31  51  76 109 147 184 226 276 324
#     4   9  20  38  58  81 111 148 184 229 283 330
#     4  10  21  37  58  83 114 146 184 233 280 324
#     4  11  21  36  59  84 111 147 190 227 275 338
#     4  10  20  35  56  81 111 151 192 228 275 334
#
# _framework density 20.043227000000002
#
# number of rings (size 3 to 8) (size 9 to 14) (size 15 to 20)
#    0.000    2.143    0.000    3.000    0.000    5.143 
#    0.000    2.143    0.000    8.143    0.000    0.000 
#    0.000    0.000    0.000    0.000    0.000    0.000 
#
# Total GULP energy -156205.027454 kJ/mol
# GULP energy per Si atom -5578.750980 kJ/mol
# Density = 1.999761 g / cm^3
# Si number density = 20.043227 Si / 1000 Ang^3
#
#
#
# Elastic Constant Matrix: (Units=GPa)
#
#
# Indices 1 2 3 4 5 6 
#
# 1 153.1148 55.2552 36.1290 0.0000 -10.1698 0.0000
# 2 55.2552 47.9525 31.2896 0.0000 -3.0381 0.0000
# 3 36.1290 31.2896 77.9208 0.0000 -9.5055 0.0000
# 4 0.0000 0.0000 0.0000 20.4228 0.0000 -6.7797
# 5 -10.1698 -3.0381 -9.5055 0.0000 29.1336 0.0000
# 6 0.0000 0.0000 0.0000 -6.7797 0.0000 25.0597
#
#
#
# Elastic Compliance Matrix: (Units=1/GPa)
#
#
# Indices 1 2 3 4 5 6 
#
# 1 0.011382 -0.013165 0.000340 0.000000 0.002711 0.000000
# 2 -0.013165 0.043504 -0.011844 0.000000 -0.003923 0.000000
# 3 0.000340 -0.011844 0.018012 0.000000 0.004761 0.000000
# 4 0.000000 0.000000 0.000000 0.053796 0.000000 0.014554
# 5 0.002711 -0.003923 0.004761 0.000000 0.036415 0.000000
# 6 0.000000 0.000000 0.000000 0.014554 0.000000 0.043842
#
#
# Mechanical properties :
#
#
# Convention : Reuss Voigt Hill
#
# Bulk Modulus (GPa) = 42.44412 58.25951 50.35182
# Shear Modulus (GPa) = 18.92913 25.34417 22.13665
#
# Velocity S-wave (km/s) = 3.07647 3.55980 3.32692
# Velocity P-wave (km/s) = 5.81737 6.78427 6.31934
#
# Compressibility (1/GPa) = 0.02356039
#
# Stress axis : x y z
#
# Youngs Moduli (GPa) = 87.85849 22.98652 55.51705
#
# Poissons Ratio (x) = 0.30263 -0.01888
# Poissons Ratio (y) = 1.15669 0.65752
# Poissons Ratio (z) = -0.02987 0.27224
#
# Static dielectric constant tensor:
#      x y z
#    x 1.778000 0.000000 0.008960 
#    y 0.000000 1.678130 0.000000 
#    z 0.008960 0.000000 1.719100 
# 
# From -- ./inp_files/79073.got.cif
#   From: 2010.05.17/outbox.cif.g08.bks.cpg/sg12_40_cif.got.tgz:79073.got - 2010.06.03 13:09:07.
