data_PCOD9196908
_publ_section_title
;
Structure prediction by ZEFSAII (Michael W. Deem and Ramdas Pophale) SiO2 
 PCOD9196908
Probable space group: C 2/M
;
_chemical_formula_sum "Si O2"
_cell_formula_units_Z 64
_cell_length_a 29.099070
_cell_length_b 11.793138
_cell_length_c 8.569319
_cell_angle_alpha 90.000000
_cell_angle_beta 88.626523
_cell_angle_gamma 90.000000
_cell_volume 2939.882723
_symmetry_space_group_name_H-M "C 2/M"
_symmetry_group_IT_number 12
_symmetry_cell_setting 'monoclinic'
loop_
_space_group_symop_operation_xyz
x,y,z
-x,y,-z
-x,-y,-z
x,-y,z
1/2+x,1/2+y,z
1/2-x,1/2+y,-z
1/2-x,1/2-y,-z
1/2+x,1/2-y,z
loop_
_atom_site_type_symbol
_atom_site_label
_atom_site_fract_x
_atom_site_fract_y
_atom_site_fract_z
Si Si1 0.041504 0.203842 0.085029
Si Si2 0.591306 0.870042 0.843664
Si Si3 0.681813 0.798976 0.985327
Si Si4 0.233737 0.882432 0.852050
Si Si5 0.864919 0.869480 0.767158
Si Si6 0.033229 0.623321 0.348521
Si Si7 0.774720 0.373755 0.516567
Si Si8 0.377821 0.201746 0.492180
O O1 0.085975 0.137710 0.146113
O O2 0.023309 0.273688 0.235128
O O3 0.059131 0.298747 0.961085
O O4 0.000000 0.141415 0.000000
O O5 0.639440 0.871835 0.934247
O O6 0.599587 0.802623 0.681191
O O7 0.577243 0.000000 0.812128
O O8 0.696356 0.714625 0.845963
O O9 0.729053 0.862847 0.016271
O O10 0.667547 0.716640 0.131045
O O11 0.265199 0.887341 0.699625
O O12 0.208425 0.000000 0.877053
O O13 0.870000 0.817883 0.591599
O O14 0.849401 0.000000 0.764999
O O15 0.028004 0.500000 0.272818
O O16 0.085711 0.635963 0.401875
O O17 0.000000 0.628156 0.500000
O O18 0.760204 0.500000 0.448886
O O19 0.750000 0.250000 0.500000
O O20 0.828532 0.357763 0.480958
#
# Coordination Sequence:
#
# PCOD9196908 Si02
#       8
#     8   8   8   8   8   8   8   8
#     4  10  22  38  59  90 124 153 196 250 302 368
#     4  11  22  36  59  88 122 157 194 244 303 367
#     4  10  20  38  58  86 116 150 204 246 308 362
#     4  10  20  35  58  83 116 154 198 252 307 364
#     4  10  22  41  63  85 115 160 209 254 309 367
#     4  10  20  35  60  90 123 163 199 241 306 375
#     4  11  23  39  58  88 124 165 211 259 312 371
#     4  11  22  39  58  87 122 163 205 256 306 368
#
# _framework density 21.769577000000002
#
# number of rings (size 3 to 8) (size 9 to 14) (size 15 to 20)
#    0.000    1.625    1.250    3.750    0.000    2.750 
#    0.000    3.750    0.000   12.750    0.000    0.000 
#    0.000    0.000    0.000    0.000    0.000    0.000 
#
# Total GULP energy -178389.482409 kJ/mol
# GULP energy per Si atom -5574.671325 kJ/mol
# Density = 2.172003 g / cm^3
# Si number density = 21.769577 Si / 1000 Ang^3
#
#
#
# Elastic Constant Matrix: (Units=GPa)
#
#
# Indices 1 2 3 4 5 6 
#
# 1 73.9170 20.6116 -9.4832 0.0000 6.2983 0.0000
# 2 20.6116 103.3095 26.5618 0.0000 3.9572 0.0000
# 3 -9.4832 26.5618 74.3336 0.0000 -14.0034 0.0000
# 4 0.0000 0.0000 0.0000 12.9507 0.0000 -4.7532
# 5 6.2983 3.9572 -14.0034 0.0000 34.6140 0.0000
# 6 0.0000 0.0000 0.0000 -4.7532 0.0000 2.5466
#
#
#
# Elastic Compliance Matrix: (Units=1/GPa)
#
#
# Indices 1 2 3 4 5 6 
#
# 1 0.015058 -0.003750 0.003059 0.000000 -0.001074 0.000000
# 2 -0.003750 0.011886 -0.005253 0.000000 -0.002802 0.000000
# 3 0.003059 -0.005253 0.017026 0.000000 0.006932 0.000000
# 4 0.000000 0.000000 0.000000 0.245161 0.000000 0.457587
# 5 -0.001074 -0.002802 0.006932 0.000000 0.032210 0.000000
# 6 0.000000 0.000000 0.000000 0.457587 0.000000 1.246748
#
#
# Mechanical properties :
#
#
# Convention : Reuss Voigt Hill
#
# Bulk Modulus (GPa) = 31.17065 36.32672 33.74868
# Shear Modulus (GPa) = 3.14332 24.28027 13.71180
#
# Velocity S-wave (km/s) = 1.20293 3.34328 2.51242
# Velocity P-wave (km/s) = 4.03471 5.62374 4.89415
#
# Compressibility (1/GPa) = 0.03208146
#
# Stress axis : x y z
#
# Youngs Moduli (GPa) = 66.40921 84.13433 58.73306
#
# Poissons Ratio (x) = 0.31547 -0.17964
# Poissons Ratio (y) = 0.24901 0.30855
# Poissons Ratio (z) = -0.20312 0.44199
#
# Static dielectric constant tensor:
#      x y z
#    x 1.803990 0.000000 0.029180 
#    y 0.000000 1.845580 0.000000 
#    z 0.029180 0.000000 1.816640 
# 
# From -- ./inp_files/110451.got.cif
#   From: 2010.05.17/outbox.cif.g08.bks.cpg/sg12_56_cif.got.tgz:110451.got - 2010.06.03 13:09:07.
