data_PCOD9196255
_publ_section_title
;
Structure prediction by ZEFSAII (Michael W. Deem and Ramdas Pophale) SiO2 
 PCOD9196255
Probable space group: C 2/M
;
_chemical_formula_sum "Si O2"
_cell_formula_units_Z 40
_cell_length_a 25.189058
_cell_length_b 12.813940
_cell_length_c 5.588022
_cell_angle_alpha 90.000000
_cell_angle_beta 83.868471
_cell_angle_gamma 90.000000
_cell_volume 1793.333765
_symmetry_space_group_name_H-M "C 2/M"
_symmetry_group_IT_number 12
_symmetry_cell_setting 'monoclinic'
loop_
_space_group_symop_operation_xyz
x,y,z
-x,y,-z
-x,-y,-z
x,-y,z
1/2+x,1/2+y,z
1/2-x,1/2+y,-z
1/2-x,1/2-y,-z
1/2+x,1/2-y,z
loop_
_atom_site_type_symbol
_atom_site_label
_atom_site_fract_x
_atom_site_fract_y
_atom_site_fract_z
Si Si1 0.153274 0.119012 0.060656
Si Si2 0.707776 0.222310 0.722653
Si Si3 0.121414 0.500000 0.320902
Si Si4 0.813109 0.500000 0.206246
Si Si5 0.897597 0.274958 0.530037
Si Si6 0.047291 0.884841 0.787506
O O1 0.200463 0.183030 0.909191
O O2 0.103288 0.111247 0.902335
O O3 0.165211 0.000000 0.129925
O O4 0.131396 0.194998 0.276358
O O5 0.750000 0.250000 0.500000
O O6 0.647676 0.208483 0.649170
O O7 0.719726 0.106201 0.805024
O O8 0.162651 0.500000 0.530899
O O9 0.091275 0.388952 0.365436
O O10 0.146925 0.500000 0.042504
O O11 0.946375 0.211076 0.395139
O O12 0.041002 0.000000 0.676848
O O13 0.000000 0.870355 0.000000
#
# Coordination Sequence:
#
# PCOD9196255 Si02
#       6
#     8   8   4   4   8   8
#     4  10  20  35  56  83 114 146 191 240 295 348
#     4  10  22  37  54  80 116 152 197 243 294 348
#     4  10  20  38  63  81 115 158 202 238 291 352
#     4  10  20  40  58  84 112 161 201 240 292 356
#     4  10  20  37  56  82 111 153 192 247 290 353
#     4   9  19  36  59  85 115 149 188 238 301 364
#
# _framework density 22.304828000000001
#
# number of rings (size 3 to 8) (size 9 to 14) (size 15 to 20)
#    0.000    2.200    2.000    0.600    1.400    2.400 
#    0.000    3.500    0.000    1.200    0.000    0.000 
#    0.000    0.000    0.000    0.000    0.000    0.000 
#
# Total GULP energy -111573.830332 kJ/mol
# GULP energy per Si atom -5578.691517 kJ/mol
# Density = 2.225406 g / cm^3
# Si number density = 22.304828 Si / 1000 Ang^3
#
#
#
# Elastic Constant Matrix: (Units=GPa)
#
#
# Indices 1 2 3 4 5 6 
#
# 1 60.9419 27.7086 13.7796 0.0000 -6.4151 0.0000
# 2 27.7086 260.1158 67.2585 0.0000 -41.2497 0.0000
# 3 13.7796 67.2585 70.1486 0.0000 -17.9264 0.0000
# 4 0.0000 0.0000 0.0000 24.6363 0.0000 -10.8712
# 5 -6.4151 -41.2497 -17.9264 0.0000 42.4854 0.0000
# 6 0.0000 0.0000 0.0000 -10.8712 0.0000 15.5975
#
#
#
# Elastic Compliance Matrix: (Units=1/GPa)
#
#
# Indices 1 2 3 4 5 6 
#
# 1 0.017505 -0.001229 -0.002118 0.000000 0.000556 0.000000
# 2 -0.001229 0.005631 -0.004268 0.000000 0.003481 0.000000
# 3 -0.002118 -0.004268 0.019753 0.000000 0.003871 0.000000
# 4 0.000000 0.000000 0.000000 0.058619 0.000000 0.040857
# 5 0.000556 0.003481 0.003871 0.000000 0.028634 0.000000
# 6 0.000000 0.000000 0.000000 0.040857 0.000000 0.092589
#
#
# Mechanical properties :
#
#
# Convention : Reuss Voigt Hill
#
# Bulk Modulus (GPa) = 36.15470 67.63330 51.89400
# Shear Modulus (GPa) = 20.22802 35.37448 27.80125
#
# Velocity S-wave (km/s) = 3.01473 3.98673 3.53430
# Velocity P-wave (km/s) = 5.32566 7.18193 6.32229
#
# Compressibility (1/GPa) = 0.02765892
#
# Stress axis : x y z
#
# Youngs Moduli (GPa) = 57.12555 177.59122 50.62532
#
# Poissons Ratio (x) = 0.21822 0.10724
# Poissons Ratio (y) = 0.07019 0.21607
# Poissons Ratio (z) = 0.12101 0.75797
#
# Static dielectric constant tensor:
#      x y z
#    x 1.894620 0.000000 0.107780 
#    y 0.000000 1.880020 0.000000 
#    z 0.107780 0.000000 1.871890 
# 
# From -- ./inp_files/27423.got.cif
#   From: 2010.05.17/outbox.cif.g08.bks.cpg/sg12_14_cif.got.tgz:27423.got - 2010.06.03 13:09:07.
