data_PCOD9196311
_publ_section_title
;
Structure prediction by ZEFSAII (Michael W. Deem and Ramdas Pophale) SiO2 
 PCOD9196311
Probable space group: C 2/M
;
_chemical_formula_sum "Si O2"
_cell_formula_units_Z 58
_cell_length_a 14.390006
_cell_length_b 7.994827
_cell_length_c 20.466958
_cell_angle_alpha 90.000000
_cell_angle_beta 102.489970
_cell_angle_gamma 90.000000
_cell_volume 2298.908598
_symmetry_space_group_name_H-M "C 2/M"
_symmetry_group_IT_number 12
_symmetry_cell_setting 'monoclinic'
loop_
_space_group_symop_operation_xyz
x,y,z
-x,y,-z
-x,-y,-z
x,-y,z
1/2+x,1/2+y,z
1/2-x,1/2+y,-z
1/2-x,1/2-y,-z
1/2+x,1/2-y,z
loop_
_atom_site_type_symbol
_atom_site_label
_atom_site_fract_x
_atom_site_fract_y
_atom_site_fract_z
Si Si1 0.000000 0.500000 0.000000
Si Si2 0.394860 0.180620 0.554632
Si Si3 0.484645 0.693809 0.695092
Si Si4 0.544127 0.305277 0.169819
Si Si5 0.326101 0.798462 0.137727
Si Si6 0.815828 0.818495 0.419086
Si Si7 0.133803 0.793809 0.045889
Si Si8 0.307101 0.812971 0.275848
O O1 0.920429 0.652734 0.004408
O O2 0.438427 0.297877 0.616734
O O3 0.284315 0.172243 0.559173
O O4 0.387819 0.218799 0.476604
O O5 0.439642 0.000000 0.571660
O O6 0.511732 0.500000 0.711231
O O7 0.428151 0.751109 0.752107
O O8 0.578045 0.806303 0.707982
O O9 0.566930 0.500000 0.170683
O O10 0.430329 0.278931 0.146990
O O11 0.591769 0.240208 0.111376
O O12 0.246596 0.765263 0.071587
O O13 0.283477 0.738695 0.201634
O O14 0.337018 0.000000 0.145069
O O15 0.787705 0.764789 0.342681
O O16 0.860684 0.000000 0.420679
O O17 0.117765 0.000000 0.032034
O O18 0.268911 0.000000 0.272252
#
# Coordination Sequence:
#
# PCOD9196311 Si02
#       8
#     2   8   8   8   8   8   8   8
#     4  12  26  44  72 106 128 178 222 248 312 378
#     4  10  21  36  52  75 108 149 196 250 304 364
#     4  10  20  35  56  84 114 150 195 248 304 365
#     4   9  20  38  64  93 129 166 208 261 317 370
#     4   9  20  38  64  93 129 166 208 261 317 370
#     4  10  21  36  52  75 108 149 196 250 304 364
#     4  10  23  45  69  98 138 172 211 266 310 368
#     4  10  20  35  56  84 114 150 195 248 304 365
#
# _framework density 25.229361999999998
#
# number of rings (size 3 to 8) (size 9 to 14) (size 15 to 20)
#    0.000    2.207    0.000    1.862    3.862    3.310 
#    0.000    3.448    0.000    0.000    0.000    0.000 
#    0.000    0.000    0.000    0.000    0.000    0.000 
#
# Total GULP energy -161543.082409 kJ/mol
# GULP energy per Si atom -5570.451118 kJ/mol
# Density = 2.517194 g / cm^3
# Si number density = 25.229362 Si / 1000 Ang^3
#
#
#
# Elastic Constant Matrix: (Units=GPa)
#
#
# Indices 1 2 3 4 5 6 
#
# 1 48.3590 2.9106 23.8648 0.0000 11.6462 0.0000
# 2 2.9106 76.2999 27.5540 0.0000 8.1362 0.0000
# 3 23.8648 27.5540 147.2718 0.0000 1.1267 0.0000
# 4 0.0000 0.0000 0.0000 -1.3258 0.0000 19.2254
# 5 11.6462 8.1362 1.1267 0.0000 48.2386 0.0000
# 6 0.0000 0.0000 0.0000 19.2254 0.0000 13.2295
#
#
#
# Elastic Compliance Matrix: (Units=1/GPa)
#
#
# Indices 1 2 3 4 5 6 
#
# 1 0.024040 0.001183 -0.004072 0.000000 -0.005908 0.000000
# 2 0.001183 0.014376 -0.002861 0.000000 -0.002644 0.000000
# 3 -0.004072 -0.002861 0.007976 0.000000 0.001279 0.000000
# 4 0.000000 0.000000 0.000000 -0.034171 0.000000 0.049658
# 5 -0.005908 -0.002644 0.001279 0.000000 0.022573 0.000000
# 6 0.000000 0.000000 0.000000 0.049658 0.000000 0.003424
#
#
# Mechanical properties :
#
#
# Convention : Reuss Voigt Hill
#
# Bulk Modulus (GPa) = 28.65966 42.28772 35.47369
# Shear Modulus (GPa) = 81.50302 26.53523 54.01913
#
# Velocity S-wave (km/s) = 5.68990 3.24660 4.63225
# Velocity P-wave (km/s) = 7.38586 5.55442 6.53462
#
# Compressibility (1/GPa) = 0.03489225
#
# Stress axis : x y z
#
# Youngs Moduli (GPa) = 41.59781 69.55929 125.38356
#
# Poissons Ratio (x) = -0.08232 0.51053
# Poissons Ratio (y) = -0.04923 0.35876
# Poissons Ratio (z) = 0.16938 0.19903
#
# Static dielectric constant tensor:
#      x y z
#    x 2.037130 0.000000 -0.049900 
#    y 0.000000 2.033640 0.000000 
#    z -0.049900 0.000000 2.153980 
# 
# From -- ./inp_files/314310.got.cif
#   From: 2010.05.17/outbox.cif.g08.bks.cpg/sg12_158_cif.got.tgz:314310.got - 2010.06.03 13:09:07.
