data_PCOD9196810
_publ_section_title
;
Structure prediction by ZEFSAII (Michael W. Deem and Ramdas Pophale) SiO2 
 PCOD9196810
Probable space group: C 2/M
;
_chemical_formula_sum "Si O2"
_cell_formula_units_Z 64
_cell_length_a 26.229776
_cell_length_b 15.446939
_cell_length_c 19.311404
_cell_angle_alpha 90.000000
_cell_angle_beta 155.362120
_cell_angle_gamma 90.000000
_cell_volume 3261.848789
_symmetry_space_group_name_H-M "C 2/M"
_symmetry_group_IT_number 12
_symmetry_cell_setting 'monoclinic'
loop_
_space_group_symop_operation_xyz
x,y,z
-x,y,-z
-x,-y,-z
x,-y,z
1/2+x,1/2+y,z
1/2-x,1/2+y,-z
1/2-x,1/2-y,-z
1/2+x,1/2-y,z
loop_
_atom_site_type_symbol
_atom_site_label
_atom_site_fract_x
_atom_site_fract_y
_atom_site_fract_z
Si Si1 0.676103 0.403866 0.052252
Si Si2 0.364935 0.598774 0.419096
Si Si3 0.404120 0.099624 0.106988
Si Si4 0.601081 0.841927 0.748020
Si Si5 0.365865 0.355039 0.258848
Si Si6 0.531573 0.241902 0.924084
Si Si7 0.300000 0.757439 0.729560
Si Si8 0.156428 0.597442 0.603273
O O1 0.621152 0.500000 0.982504
O O2 0.770653 0.389914 0.106524
O O3 0.767490 0.399466 0.231403
O O4 0.579604 0.326519 0.942046
O O5 0.320876 0.500000 0.363346
O O6 0.509442 0.601041 0.612244
O O7 0.357552 0.638075 0.332148
O O8 0.288293 0.659668 0.375146
O O9 0.436317 0.145936 0.218690
O O10 0.451010 0.157575 0.101451
O O11 0.445218 0.000000 0.156520
O O12 0.257117 0.103053 0.920459
O O13 0.624782 0.744254 0.753244
O O14 0.486241 0.880510 0.564508
O O15 0.394104 0.247303 0.782649
O O16 0.617888 0.237249 0.098864
O O17 0.217949 0.671564 0.632975
O O18 0.167570 0.500000 0.589135
#
# Coordination Sequence:
#
# PCOD9196810 Si02
#       8
#     8   8   8   8   8   8   8   8
#     4  10  20  35  57  87 118 146 187 240 286 338
#     4  11  21  36  62  92 118 148 188 236 288 342
#     4  12  24  39  56  84 120 155 190 230 286 350
#     4  12  22  36  59  85 116 153 188 232 290 348
#     4  11  21  36  59  87 119 150 182 232 291 341
#     4  10  22  37  58  82 116 151 194 234 288 337
#     4  10  20  38  59  86 111 150 192 241 285 336
#     4  10  20  36  59  87 115 147 188 238 288 335
#
# _framework density 19.620774999999998
#
# number of rings (size 3 to 8) (size 9 to 14) (size 15 to 20)
#    0.000    1.250    3.750    4.125    1.750    2.000 
#    0.000    4.375    0.000    0.000    0.000    0.000 
#    0.000    0.000    0.000    0.000    0.000    0.000 
#
# Total GULP energy -178739.170151 kJ/mol
# GULP energy per Si atom -5585.599067 kJ/mol
# Density = 1.957612 g / cm^3
# Si number density = 19.620775 Si / 1000 Ang^3
#
#
#
# Elastic Constant Matrix: (Units=GPa)
#
#
# Indices 1 2 3 4 5 6 
#
# 1 100.9916 63.3761 29.2823 0.0000 27.8318 0.0000
# 2 63.3761 164.0445 10.7572 0.0000 14.6798 0.0000
# 3 29.2823 10.7572 29.7570 0.0000 14.9670 0.0000
# 4 0.0000 0.0000 0.0000 13.2070 0.0000 4.6500
# 5 27.8318 14.6798 14.9670 0.0000 31.4213 0.0000
# 6 0.0000 0.0000 0.0000 4.6500 0.0000 -0.5237
#
#
#
# Elastic Compliance Matrix: (Units=1/GPa)
#
#
# Indices 1 2 3 4 5 6 
#
# 1 0.019820 -0.006040 -0.013032 0.000000 -0.008527 0.000000
# 2 -0.006040 0.008228 0.002908 0.000000 0.000120 0.000000
# 3 -0.013032 0.002908 0.052939 0.000000 -0.015032 0.000000
# 4 0.000000 0.000000 0.000000 0.018351 0.000000 0.162933
# 5 -0.008527 0.000120 -0.015032 0.000000 0.046482 0.000000
# 6 0.000000 0.000000 0.000000 0.162933 0.000000 -0.462762
#
#
# Mechanical properties :
#
#
# Convention : Reuss Voigt Hill
#
# Bulk Modulus (GPa) = 20.55047 55.73601 38.14324
# Shear Modulus (GPa) = -18.62932 21.57941 1.47505
#
# Velocity S-wave (km/s) = -3.08469 3.31996 0.86799
# Velocity P-wave (km/s) = 1.48003 6.56997 4.52625
#
# Compressibility (1/GPa) = 0.04866069
#
# Stress axis : x y z
#
# Youngs Moduli (GPa) = 50.45288 121.53973 18.88959
#
# Poissons Ratio (x) = 0.73407 0.24617
# Poissons Ratio (y) = 0.30472 -0.05494
# Poissons Ratio (z) = 0.65751 -0.35349
#
# Static dielectric constant tensor:
#      x y z
#    x 1.690220 0.000000 -0.027710 
#    y 0.000000 1.697730 0.000000 
#    z -0.027710 0.000000 1.708980 
# 
# From -- ./inp_files/290152.got.cif
#   From: 2010.05.17/outbox.cif.g08.bks.cpg/sg12_146_cif.got.tgz:290152.got - 2010.06.03 13:09:07.
