data_PCOD9196105
_publ_section_title
;
Structure prediction by ZEFSAII (Michael W. Deem and Ramdas Pophale) SiO2 
 PCOD9196105
Probable space group: C 2/M
;
_chemical_formula_sum "Si O2"
_cell_formula_units_Z 48
_cell_length_a 14.280786
_cell_length_b 18.051302
_cell_length_c 16.604203
_cell_angle_alpha 90.000000
_cell_angle_beta 150.967011
_cell_angle_gamma 90.000000
_cell_volume 2077.307107
_symmetry_space_group_name_H-M "C 2/M"
_symmetry_group_IT_number 12
_symmetry_cell_setting 'monoclinic'
loop_
_space_group_symop_operation_xyz
x,y,z
-x,y,-z
-x,-y,-z
x,-y,z
1/2+x,1/2+y,z
1/2-x,1/2+y,-z
1/2-x,1/2-y,-z
1/2+x,1/2-y,z
loop_
_atom_site_type_symbol
_atom_site_label
_atom_site_fract_x
_atom_site_fract_y
_atom_site_fract_z
Si Si1 0.302174 0.912258 0.185801
Si Si2 0.281991 0.161917 0.513431
Si Si3 0.383311 0.176906 0.828285
Si Si4 0.713614 0.914496 0.000326
Si Si5 0.765440 0.661320 0.321929
Si Si6 0.948765 0.914152 0.343256
O O1 0.497577 0.864766 0.320455
O O2 0.196544 0.900551 0.020472
O O3 0.213469 0.885695 0.203448
O O4 0.343515 0.000000 0.224627
O O5 0.250000 0.250000 0.500000
O O6 0.212060 0.136405 0.371673
O O7 0.155091 0.123009 0.486084
O O8 0.533129 0.138548 0.881020
O O9 0.317907 0.257071 0.751516
O O10 0.195544 0.127696 0.705816
O O11 0.500000 0.184062 0.000000
O O12 0.644942 0.000000 0.947987
O O13 0.848837 0.907693 0.179686
O O14 0.000000 0.664840 0.500000
O O15 0.964329 0.000000 0.375530
#
# Coordination Sequence:
#
# PCOD9196105 Si02
#       6
#     8   8   8   8   8   8
#     4  10  21  38  58  79 108 146 184 223 270 322
#     4  11  22  37  57  81 110 143 181 225 270 321
#     4  10  20  35  56  81 110 143 179 221 272 326
#     4   9  19  36  57  81 110 143 179 221 270 325
#     4  10  22  37  55  78 108 143 182 225 267 320
#     4  10  20  35  57  84 111 141 179 224 272 321
#
# _framework density 23.106839000000001
#
# number of rings (size 3 to 8) (size 9 to 14) (size 15 to 20)
#    0.000    2.000    0.000    4.000    0.000    7.000 
#    0.000    4.167    0.000    8.500    0.000    0.000 
#    0.000    0.000    0.000    0.000    0.000    0.000 
#
# Total GULP energy -134221.510254 kJ/mol
# GULP energy per Si atom -5592.562927 kJ/mol
# Density = 2.305425 g / cm^3
# Si number density = 23.106839 Si / 1000 Ang^3
#
#
#
# Elastic Constant Matrix: (Units=GPa)
#
#
# Indices 1 2 3 4 5 6 
#
# 1 142.7793 14.3264 29.9439 0.0088 -24.2425 0.0092
# 2 14.3264 48.1711 9.6774 0.0038 -0.8325 0.0249
# 3 29.9439 9.6774 46.8914 0.0286 -15.3328 0.0292
# 4 0.0088 0.0038 0.0286 30.0163 0.0145 -5.7170
# 5 -24.2425 -0.8325 -15.3328 0.0145 48.4333 0.0110
# 6 0.0092 0.0249 0.0292 -5.7170 0.0110 11.2017
#
#
#
# Elastic Compliance Matrix: (Units=1/GPa)
#
#
# Indices 1 2 3 4 5 6 
#
# 1 0.008538 -0.001654 -0.004153 0.000001 0.002931 0.000005
# 2 -0.001654 0.022037 -0.004058 -0.000005 -0.001734 -0.000038
# 3 -0.004153 -0.004058 0.026897 -0.000043 0.006367 -0.000086
# 4 0.000001 -0.000005 -0.000043 0.036902 -0.000028 0.018834
# 5 0.002931 -0.001734 0.006367 -0.000028 0.024100 -0.000053
# 6 0.000005 -0.000038 -0.000086 0.018834 -0.000053 0.098885
#
#
# Mechanical properties :
#
#
# Convention : Reuss Voigt Hill
#
# Bulk Modulus (GPa) = 26.49629 38.41523 32.45576
# Shear Modulus (GPa) = 20.02636 30.18986 25.10811
#
# Velocity S-wave (km/s) = 2.94715 3.61852 3.29995
# Velocity P-wave (km/s) = 4.80340 5.84118 5.34753
#
# Compressibility (1/GPa) = 0.03774113
#
# Stress axis : x y z
#
# Youngs Moduli (GPa) = 117.11897 45.37869 37.17864
#
# Poissons Ratio (x) = 0.07508 0.15439
# Poissons Ratio (y) = 0.19377 0.15089
# Poissons Ratio (z) = 0.48636 0.18417
#
# Static dielectric constant tensor:
#      x y z
#    x 1.846600 0.000000 -0.051130 
#    y 0.000000 1.780260 0.000000 
#    z -0.051130 0.000000 1.903850 
# 
# From -- ./inp_files/61689.got.cif
#   From: 2010.05.17/outbox.cif.g08.bks.cpg/sg12_31_cif.got.tgz:61689.got - 2010.06.03 13:09:07.
