data_PCOD9196586
_publ_section_title
;
Structure prediction by ZEFSAII (Michael W. Deem and Ramdas Pophale) SiO2 
 PCOD9196586
Probable space group: C 2/M
;
_chemical_formula_sum "Si O2"
_cell_formula_units_Z 56
_cell_length_a 19.522691
_cell_length_b 7.846790
_cell_length_c 18.011248
_cell_angle_alpha 90.000000
_cell_angle_beta 119.088596
_cell_angle_gamma 90.000000
_cell_volume 2411.136803
_symmetry_space_group_name_H-M "C 2/M"
_symmetry_group_IT_number 12
_symmetry_cell_setting 'monoclinic'
loop_
_space_group_symop_operation_xyz
x,y,z
-x,y,-z
-x,-y,-z
x,-y,z
1/2+x,1/2+y,z
1/2-x,1/2+y,-z
1/2-x,1/2-y,-z
1/2+x,1/2-y,z
loop_
_atom_site_type_symbol
_atom_site_label
_atom_site_fract_x
_atom_site_fract_y
_atom_site_fract_z
Si Si1 0.658183 0.796396 0.453369
Si Si2 0.829045 0.290460 0.377064
Si Si3 0.148647 0.803248 0.285528
Si Si4 0.016597 0.300354 0.830968
Si Si5 0.748562 0.696015 0.912738
Si Si6 0.919015 0.195177 0.986315
Si Si7 0.393474 0.804267 0.258869
O O1 0.750000 0.750000 0.500000
O O2 0.634397 0.742337 0.523953
O O3 0.628470 0.712935 0.362484
O O4 0.647076 0.000000 0.440755
O O5 0.826451 0.500000 0.375480
O O6 0.737404 0.235235 0.322905
O O7 0.875911 0.228315 0.330067
O O8 0.076198 0.716912 0.206130
O O9 0.149514 0.000000 0.263858
O O10 0.038310 0.500000 0.847500
O O11 0.066217 0.200906 0.917813
O O12 0.042323 0.233522 0.763732
O O13 0.725231 0.500000 0.896146
O O14 0.687010 0.799216 0.830901
O O15 0.750000 0.750000 0.000000
O O16 0.836378 0.718866 0.927826
O O17 0.914832 0.000000 0.957532
O O18 0.000000 0.275763 0.000000
O O19 0.416912 0.000000 0.285379
#
# Coordination Sequence:
#
# PCOD9196586 Si02
#       7
#     8   8   8   8   8   8   8
#     4   9  16  31  55  83 113 147 187 234 283 340
#     4   8  17  34  58  84 109 144 190 233 280 340
#     4  10  20  35  57  83 114 152 190 236 287 344
#     4  11  23  38  58  84 116 151 188 239 290 340
#     4  12  24  40  62  87 115 153 195 239 287 343
#     4  11  25  43  63  85 115 155 193 237 292 348
#     4  10  21  39  60  83 113 151 193 236 285 345
#
# _framework density 23.225557999999999
#
# number of rings (size 3 to 8) (size 9 to 14) (size 15 to 20)
#    0.000    1.857    1.429    3.857    2.000    1.714 
#    0.000    4.286    0.000    4.286    0.000    0.000 
#    0.000    0.000    0.000    0.000    0.000    0.000 
#
# Total GULP energy -156372.592530 kJ/mol
# GULP energy per Si atom -5584.735447 kJ/mol
# Density = 2.317270 g / cm^3
# Si number density = 23.225558 Si / 1000 Ang^3
#
#
#
# Elastic Constant Matrix: (Units=GPa)
#
#
# Indices 1 2 3 4 5 6 
#
# 1 81.8041 -1.6813 -6.6223 0.0000 -9.5294 0.0000
# 2 -1.6813 49.7989 -12.6536 0.0000 0.2747 0.0000
# 3 -6.6223 -12.6536 31.9770 0.0000 -6.3363 0.0000
# 4 0.0000 0.0000 0.0000 20.2363 0.0000 -1.2813
# 5 -9.5294 0.2747 -6.3363 0.0000 45.5331 0.0000
# 6 0.0000 0.0000 0.0000 -1.2813 0.0000 14.5699
#
#
#
# Elastic Compliance Matrix: (Units=1/GPa)
#
#
# Indices 1 2 3 4 5 6 
#
# 1 0.012945 0.001405 0.003879 0.000000 0.003240 0.000000
# 2 0.001405 0.022534 0.009501 0.000000 0.001480 0.000000
# 3 0.003879 0.009501 0.037005 0.000000 0.005904 0.000000
# 4 0.000000 0.000000 0.000000 0.049693 0.000000 0.004370
# 5 0.003240 0.001480 0.005904 0.000000 0.023453 0.000000
# 6 0.000000 0.000000 0.000000 0.004370 0.000000 0.069019
#
#
# Mechanical properties :
#
#
# Convention : Reuss Voigt Hill
#
# Bulk Modulus (GPa) = 9.79876 13.51839 11.65857
# Shear Modulus (GPa) = 22.82088 28.37034 25.59561
#
# Velocity S-wave (km/s) = 3.13801 3.49881 3.32331
# Velocity P-wave (km/s) = 4.16624 4.70694 4.44482
#
# Compressibility (1/GPa) = 0.10205376
#
# Stress axis : x y z
#
# Youngs Moduli (GPa) = 77.25193 44.37689 27.02310
#
# Poissons Ratio (x) = -0.06234 -0.10482
# Poissons Ratio (y) = -0.10852 -0.25675
# Poissons Ratio (z) = -0.29964 -0.42164
#
# Static dielectric constant tensor:
#      x y z
#    x 1.899370 0.000000 -0.061580 
#    y 0.000000 1.850660 0.000000 
#    z -0.061580 0.000000 1.879000 
# 
# From -- ./inp_files/281670.got.cif
#   From: 2010.05.17/outbox.cif.g08.bks.cpg/sg12_141_cif.got.tgz:281670.got - 2010.06.03 13:09:07.
