data_PCOD9196460
_publ_section_title
;
Structure prediction by ZEFSAII (Michael W. Deem and Ramdas Pophale) SiO2 
 PCOD9196460
Probable space group: C 2/M
;
_chemical_formula_sum "Si O2"
_cell_formula_units_Z 58
_cell_length_a 27.374700
_cell_length_b 9.156042
_cell_length_c 23.143403
_cell_angle_alpha 90.000000
_cell_angle_beta 32.102379
_cell_angle_gamma 90.000000
_cell_volume 3082.715859
_symmetry_space_group_name_H-M "C 2/M"
_symmetry_group_IT_number 12
_symmetry_cell_setting 'monoclinic'
loop_
_space_group_symop_operation_xyz
x,y,z
-x,y,-z
-x,-y,-z
x,-y,z
1/2+x,1/2+y,z
1/2-x,1/2+y,-z
1/2-x,1/2-y,-z
1/2+x,1/2-y,z
loop_
_atom_site_type_symbol
_atom_site_label
_atom_site_fract_x
_atom_site_fract_y
_atom_site_fract_z
Si Si1 0.646292 0.749053 0.382636
Si Si2 0.538119 0.669611 0.603142
Si Si3 0.649702 0.322474 0.602991
Si Si4 0.344141 0.334293 0.756861
Si Si5 0.500000 0.000000 0.500000
Si Si6 0.642918 0.824484 0.948648
Si Si7 0.141758 0.172179 0.827606
Si Si8 0.449281 0.173820 0.190218
O O1 0.604030 0.674845 0.481428
O O2 0.648565 0.661301 0.320161
O O3 0.749018 0.804916 0.291152
O O4 0.576194 0.876390 0.439131
O O5 0.521649 0.500000 0.632443
O O6 0.591530 0.728475 0.605096
O O7 0.437805 0.736140 0.687829
O O8 0.656905 0.500000 0.596303
O O9 0.750000 0.250000 0.500000
O O10 0.597509 0.263018 0.711525
O O11 0.340165 0.500000 0.782568
O O12 0.243061 0.269758 0.869709
O O13 0.621304 0.740084 0.910975
O O14 0.649585 0.000000 0.929831
O O15 0.559272 0.804959 0.076467
O O16 0.090584 0.263433 0.829684
O O17 0.119628 0.000000 0.847486
O O18 0.430351 0.000000 0.214002
#
# Coordination Sequence:
#
# PCOD9196460 Si02
#       8
#     8   8   8   8   2   8   8   8
#     4  11  20  33  51  80 117 149 177 217 274 334
#     4  10  20  35  57  81 106 141 185 232 274 322
#     4  11  24  42  61  84 111 144 187 231 277 326
#     4   9  17  33  57  83 107 139 180 225 271 326
#     4  12  20  32  46  76 122 156 172 210 274 332
#     4   9  20  37  59  83 112 147 184 224 274 335
#     4  11  22  34  55  86 115 147 185 229 280 332
#     4  11  23  41  59  80 111 149 189 230 275 327
#
# _framework density 18.814578999999998
#
# number of rings (size 3 to 8) (size 9 to 14) (size 15 to 20)
#    0.000    1.655    2.069    2.897    0.000    6.621 
#    2.483    0.690    0.000    0.000    0.000    0.000 
#    0.000    0.000    0.000    0.000    0.000    0.000 
#
# Total GULP energy -161440.287989 kJ/mol
# GULP energy per Si atom -5566.906482 kJ/mol
# Density = 1.877176 g / cm^3
# Si number density = 18.814579 Si / 1000 Ang^3
#
#
#
# Elastic Constant Matrix: (Units=GPa)
#
#
# Indices 1 2 3 4 5 6 
#
# 1 82.8928 24.7763 65.1181 -0.0010 -15.0686 0.0006
# 2 24.7763 68.2760 32.8544 0.0017 -5.4414 0.0010
# 3 65.1181 32.8544 133.5693 0.0017 -11.4084 0.0004
# 4 -0.0010 0.0017 0.0017 27.8649 -0.0005 -0.3715
# 5 -15.0686 -5.4414 -11.4084 -0.0005 18.2259 -0.0005
# 6 0.0006 0.0010 0.0004 -0.3715 -0.0005 26.6656
#
#
#
# Elastic Compliance Matrix: (Units=1/GPa)
#
#
# Indices 1 2 3 4 5 6 
#
# 1 0.022215 -0.002715 -0.009152 0.000002 0.011827 0.000000
# 2 -0.002715 0.017056 -0.002777 -0.000001 0.001109 -0.000001
# 3 -0.009152 -0.002777 0.012588 -0.000001 -0.000517 0.000000
# 4 0.000002 -0.000001 -0.000001 0.035894 0.000002 0.000500
# 5 0.011827 0.001109 -0.000517 0.000002 0.064653 0.000001
# 6 0.000000 -0.000001 0.000000 0.000500 0.000001 0.037508
#
#
# Mechanical properties :
#
#
# Convention : Reuss Voigt Hill
#
# Bulk Modulus (GPa) = 44.30560 58.91509 51.61034
# Shear Modulus (GPa) = 22.05297 25.35056 23.70176
#
# Velocity S-wave (km/s) = 3.42734 3.67466 3.55315
# Velocity P-wave (km/s) = 6.26593 7.02750 6.65761
#
# Compressibility (1/GPa) = 0.02257051
#
# Stress axis : x y z
#
# Youngs Moduli (GPa) = 45.01448 58.62920 79.44247
#
# Poissons Ratio (x) = 0.15916 0.72709
# Poissons Ratio (y) = 0.12220 0.22062
# Poissons Ratio (z) = 0.41199 0.16282
#
# Static dielectric constant tensor:
#      x y z
#    x 1.665110 0.000000 -0.032300 
#    y 0.000000 1.648770 0.000000 
#    z -0.032300 0.000000 1.678480 
# 
# From -- ./inp_files/351451.got.cif
#   From: 2010.05.17/outbox.cif.g08.bks.cpg/sg12_176_cif.got.tgz:351451.got - 2010.06.03 13:09:07.
