data_PCOD9196992
_publ_section_title
;
Structure prediction by ZEFSAII (Michael W. Deem and Ramdas Pophale) SiO2 
 PCOD9196992
Probable space group: C 2/M
;
_chemical_formula_sum "Si O2"
_cell_formula_units_Z 64
_cell_length_a 30.395849
_cell_length_b 9.611750
_cell_length_c 18.823855
_cell_angle_alpha 90.000000
_cell_angle_beta 141.091439
_cell_angle_gamma 90.000000
_cell_volume 3454.139056
_symmetry_space_group_name_H-M "C 2/M"
_symmetry_group_IT_number 12
_symmetry_cell_setting 'monoclinic'
loop_
_space_group_symop_operation_xyz
x,y,z
-x,y,-z
-x,-y,-z
x,-y,z
1/2+x,1/2+y,z
1/2-x,1/2+y,-z
1/2-x,1/2-y,-z
1/2+x,1/2-y,z
loop_
_atom_site_type_symbol
_atom_site_label
_atom_site_fract_x
_atom_site_fract_y
_atom_site_fract_z
Si Si1 0.555827 0.661008 0.133268
Si Si2 0.531430 0.157957 0.241934
Si Si3 0.370051 0.154947 0.002193
Si Si4 0.329549 0.160919 0.319353
Si Si5 0.908018 0.161116 0.300706
Si Si6 0.809797 0.842757 0.043000
Si Si7 0.538127 0.836001 0.412621
Si Si8 0.170512 0.840090 0.168218
O O1 0.538506 0.500000 0.128345
O O2 0.552307 0.750395 0.200414
O O3 0.634411 0.665793 0.199815
O O4 0.500000 0.700827 0.000000
O O5 0.546814 0.209332 0.341263
O O6 0.559476 0.000000 0.270482
O O7 0.447415 0.149584 0.130723
O O8 0.369498 0.218645 0.923786
O O9 0.339182 0.000000 0.967125
O O10 0.329278 0.269748 0.994949
O O11 0.354503 0.262849 0.287610
O O12 0.388987 0.174275 0.454242
O O13 0.252956 0.184994 0.257702
O O14 0.330633 0.000000 0.295001
O O15 0.872880 0.159685 0.178558
O O16 0.979502 0.247699 0.380699
O O17 0.919627 0.000000 0.336572
O O18 0.786873 0.000000 0.003444
O O19 0.750000 0.750000 0.000000
O O20 0.516870 0.000000 0.384666
O O21 0.155919 0.000000 0.124805
#
# Coordination Sequence:
#
# PCOD9196992 Si02
#       8
#     8   8   8   8   8   8   8   8
#     4  10  20  35  58  85 115 147 184 228 280 341
#     4  10  21  36  57  84 112 142 184 233 278 330
#     4  11  21  34  55  82 112 147 184 229 282 335
#     4  10  22  39  60  81 109 151 194 232 276 332
#     4  11  23  37  56  84 115 146 187 237 284 329
#     4  11  23  36  52  78 114 153 188 228 280 338
#     4  10  21  40  61  82 110 150 195 233 273 331
#     4  10  21  38  58  84 115 150 188 232 283 338
#
# _framework density 18.528497000000002
#
# number of rings (size 3 to 8) (size 9 to 14) (size 15 to 20)
#    0.000    1.625    2.500    2.250    0.000    7.750 
#    0.000    0.625    0.000    0.000    0.000    0.000 
#    0.000    0.000    0.000    0.000    0.000    0.000 
#
# Total GULP energy -178458.654702 kJ/mol
# GULP energy per Si atom -5576.832959 kJ/mol
# Density = 1.848633 g / cm^3
# Si number density = 18.528497 Si / 1000 Ang^3
#
#
#
# Elastic Constant Matrix: (Units=GPa)
#
#
# Indices 1 2 3 4 5 6 
#
# 1 105.6496 56.9239 9.8966 0.0000 -2.3939 0.0000
# 2 56.9239 108.5614 18.8815 0.0000 -7.0029 0.0000
# 3 9.8966 18.8815 39.6934 0.0000 2.9619 0.0000
# 4 0.0000 0.0000 0.0000 19.2021 0.0000 -2.3094
# 5 -2.3939 -7.0029 2.9619 0.0000 23.5779 0.0000
# 6 0.0000 0.0000 0.0000 -2.3094 0.0000 32.7756
#
#
#
# Elastic Compliance Matrix: (Units=1/GPa)
#
#
# Indices 1 2 3 4 5 6 
#
# 1 0.013205 -0.006987 0.000087 0.000000 -0.000745 0.000000
# 2 -0.006987 0.014054 -0.005251 0.000000 0.004125 0.000000
# 3 0.000087 -0.005251 0.028048 0.000000 -0.005074 0.000000
# 4 0.000000 0.000000 0.000000 0.052523 0.000000 0.003701
# 5 -0.000745 0.004125 -0.005074 0.000000 0.044199 0.000000
# 6 0.000000 0.000000 0.000000 0.003701 0.000000 0.030771
#
#
# Mechanical properties :
#
#
# Convention : Reuss Voigt Hill
#
# Bulk Modulus (GPa) = 32.25324 47.25647 39.75486
# Shear Modulus (GPa) = 22.99503 26.32461 24.65982
#
# Velocity S-wave (km/s) = 3.52669 3.77339 3.65213
# Velocity P-wave (km/s) = 5.83340 6.67419 6.26791
#
# Compressibility (1/GPa) = 0.03100464
#
# Stress axis : x y z
#
# Youngs Moduli (GPa) = 75.72948 71.15181 35.65319
#
# Poissons Ratio (x) = 0.49715 -0.00310
# Poissons Ratio (y) = 0.52914 0.18722
# Poissons Ratio (z) = -0.00659 0.37363
#
# Static dielectric constant tensor:
#      x y z
#    x 1.854390 0.000000 -0.033510 
#    y 0.000000 1.650620 0.000000 
#    z -0.033510 0.000000 1.668440 
# 
# From -- ./inp_files/295676.got.cif
#   From: 2010.05.17/outbox.cif.g08.bks.cpg/sg12_148_cif.got.tgz:295676.got - 2010.06.03 13:09:07.
