data_PCOD9196664
_publ_section_title
;
Structure prediction by ZEFSAII (Michael W. Deem and Ramdas Pophale) SiO2 
 PCOD9196664
Probable space group: C 2/M
;
_chemical_formula_sum "Si O2"
_cell_formula_units_Z 64
_cell_length_a 16.104883
_cell_length_b 7.621408
_cell_length_c 24.372251
_cell_angle_alpha 90.000000
_cell_angle_beta 90.403682
_cell_angle_gamma 90.000000
_cell_volume 2991.421759
_symmetry_space_group_name_H-M "C 2/M"
_symmetry_group_IT_number 12
_symmetry_cell_setting 'monoclinic'
loop_
_space_group_symop_operation_xyz
x,y,z
-x,y,-z
-x,-y,-z
x,-y,z
1/2+x,1/2+y,z
1/2-x,1/2+y,-z
1/2-x,1/2-y,-z
1/2+x,1/2-y,z
loop_
_atom_site_type_symbol
_atom_site_label
_atom_site_fract_x
_atom_site_fract_y
_atom_site_fract_z
Si Si1 0.469226 0.714501 0.059327
Si Si2 0.116268 0.712130 0.759726
Si Si3 0.221615 0.789194 0.437853
Si Si4 0.222607 0.796985 0.177200
Si Si5 0.954196 0.790206 0.828158
Si Si6 0.220644 0.791293 0.938576
Si Si7 0.033095 0.789307 0.441215
Si Si8 0.875597 0.288859 0.365299
O O1 0.470800 0.500000 0.058951
O O2 0.522553 0.777002 0.111100
O O3 0.374359 0.768546 0.067513
O O4 0.500000 0.773080 0.000000
O O5 0.118251 0.500000 0.759400
O O6 0.194379 0.779797 0.795712
O O7 0.030615 0.760647 0.788376
O O8 0.122013 0.774638 0.697244
O O9 0.250000 0.750000 0.500000
O O10 0.126744 0.724255 0.429114
O O11 0.294527 0.722487 0.397996
O O12 0.219281 0.000000 0.431336
O O13 0.228541 0.789811 0.111211
O O14 0.133880 0.718062 0.192505
O O15 0.222316 0.000000 0.194728
O O16 0.944259 0.000000 0.833807
O O17 0.223742 0.000000 0.931299
O O18 0.250000 0.750000 0.000000
O O19 0.000000 0.722494 0.500000
O O20 0.961407 0.751983 0.396874
O O21 0.039843 0.000000 0.445749
O O22 0.868961 0.500000 0.363760
#
# Coordination Sequence:
#
# PCOD9196664 Si02
#       8
#     8   8   8   8   8   8   8   8
#     4   9  17  31  52  79 110 141 180 229 276 332
#     4  10  22  40  58  82 118 152 190 240 285 331
#     4  10  20  35  57  84 117 152 189 233 285 340
#     4  10  21  38  61  84 112 150 191 236 288 344
#     4  10  20  37  61  85 109 150 196 231 284 348
#     4  11  21  34  55  83 117 151 188 235 288 346
#     4  10  20  35  57  87 118 148 189 240 286 329
#     4  10  22  38  57  83 116 157 194 229 283 345
#
# _framework density 21.39451
#
# number of rings (size 3 to 8) (size 9 to 14) (size 15 to 20)
#    0.000    2.000    2.500    1.125    0.000    4.750 
#    0.000    2.500    0.000    1.875    0.000    0.000 
#    0.000    0.000    0.000    0.000    0.000    0.000 
#
# Total GULP energy -178732.902324 kJ/mol
# GULP energy per Si atom -5585.403198 kJ/mol
# Density = 2.134582 g / cm^3
# Si number density = 21.394510 Si / 1000 Ang^3
#
#
#
# Elastic Constant Matrix: (Units=GPa)
#
#
# Indices 1 2 3 4 5 6 
#
# 1 218.7269 3.5579 84.0238 0.0000 -9.7924 0.0000
# 2 3.5579 43.1861 -11.3097 0.0000 0.0493 0.0000
# 3 84.0238 -11.3097 135.1109 0.0000 -9.3479 0.0000
# 4 0.0000 0.0000 0.0000 16.4403 0.0000 -0.1941
# 5 -9.7924 0.0493 -9.3479 0.0000 30.8862 0.0000
# 6 0.0000 0.0000 0.0000 -0.1941 0.0000 12.2147
#
#
#
# Elastic Compliance Matrix: (Units=1/GPa)
#
#
# Indices 1 2 3 4 5 6 
#
# 1 0.006122 -0.001522 -0.003881 0.000000 0.000769 0.000000
# 2 -0.001522 0.024063 0.002987 0.000000 0.000383 0.000000
# 3 -0.003881 0.002987 0.010193 0.000000 0.001850 0.000000
# 4 0.000000 0.000000 0.000000 0.060838 0.000000 0.000967
# 5 0.000769 0.000383 0.001850 0.000000 0.033180 0.000000
# 6 0.000000 0.000000 0.000000 0.000967 0.000000 0.081884
#
#
# Mechanical properties :
#
#
# Convention : Reuss Voigt Hill
#
# Bulk Modulus (GPa) = 28.13271 61.06310 44.59791
# Shear Modulus (GPa) = 21.46288 33.29171 27.37729
#
# Velocity S-wave (km/s) = 3.17076 3.94901 3.58109
# Velocity P-wave (km/s) = 5.15587 7.02825 6.16358
#
# Compressibility (1/GPa) = 0.03554581
#
# Stress axis : x y z
#
# Youngs Moduli (GPa) = 163.34129 41.55797 98.10477
#
# Poissons Ratio (x) = 0.06324 0.38079
# Poissons Ratio (y) = 0.24856 -0.29305
# Poissons Ratio (z) = 0.63401 -0.12414
#
# Static dielectric constant tensor:
#      x y z
#    x 1.790590 0.000000 0.001000 
#    y 0.000000 1.805680 0.000000 
#    z 0.001000 0.000000 1.741730 
# 
# From -- ./inp_files/338742.got.cif
#   From: 2010.05.17/outbox.cif.g08.bks.cpg/sg12_170_cif.got.tgz:338742.got - 2010.06.03 13:09:07.
