data_PCOD9196598
_publ_section_title
;
Structure prediction by ZEFSAII (Michael W. Deem and Ramdas Pophale) SiO2 
 PCOD9196598
Probable space group: C 2/M
;
_chemical_formula_sum "Si O2"
_cell_formula_units_Z 32
_cell_length_a 28.781237
_cell_length_b 9.605541
_cell_length_c 5.088726
_cell_angle_alpha 90.000000
_cell_angle_beta 78.398344
_cell_angle_gamma 90.000000
_cell_volume 1378.083648
_symmetry_space_group_name_H-M "C 2/M"
_symmetry_group_IT_number 12
_symmetry_cell_setting 'monoclinic'
loop_
_space_group_symop_operation_xyz
x,y,z
-x,y,-z
-x,-y,-z
x,-y,z
1/2+x,1/2+y,z
1/2-x,1/2+y,-z
1/2-x,1/2-y,-z
1/2+x,1/2-y,z
loop_
_atom_site_type_symbol
_atom_site_label
_atom_site_fract_x
_atom_site_fract_y
_atom_site_fract_z
Si Si1 0.088354 0.664417 0.819837
Si Si2 0.274039 0.649271 0.677532
Si Si3 0.055240 0.836653 0.358860
Si Si4 0.323795 0.147282 0.923532
O O1 0.074015 0.500000 0.824032
O O2 0.080194 0.743894 0.556703
O O3 0.142574 0.665008 0.865057
O O4 0.062004 0.753449 0.077781
O O5 0.284878 0.500000 0.545332
O O6 0.250000 0.750000 0.500000
O O7 0.230979 0.632031 0.932116
O O8 0.320397 0.717003 0.750655
O O9 0.000000 0.839018 0.500000
O O10 0.070766 0.000000 0.324784
O O11 0.338310 0.000000 0.775734
#
# Coordination Sequence:
#
# PCOD9196598 Si02
#       4
#     8   8   8   8
#     4  11  24  42  68  98 129 168 216 267 317 381
#     4  10  20  35  57  83 117 159 202 250 303 363
#     4  11  25  45  67  95 132 169 208 263 327 387
#     4   9  21  39  56  82 119 158 202 254 308 361
#
# _framework density 23.220654
#
# number of rings (size 3 to 8) (size 9 to 14) (size 15 to 20)
#    0.000    1.750    0.000    3.000    3.500    8.000 
#    0.000    0.000    0.000    0.000    0.000    0.000 
#    0.000    0.000    0.000    0.000    0.000    0.000 
#
# Total GULP energy -89317.783311 kJ/mol
# GULP energy per Si atom -5582.361457 kJ/mol
# Density = 2.316780 g / cm^3
# Si number density = 23.220654 Si / 1000 Ang^3
#
#
#
# Elastic Constant Matrix: (Units=GPa)
#
#
# Indices 1 2 3 4 5 6 
#
# 1 73.5871 36.3840 0.9920 0.0000 3.5445 0.0000
# 2 36.3840 227.4817 46.4376 0.0000 21.5003 0.0000
# 3 0.9920 46.4376 66.7278 0.0000 -3.4886 0.0000
# 4 0.0000 0.0000 0.0000 27.8974 0.0000 4.2300
# 5 3.5445 21.5003 -3.4886 0.0000 36.8663 0.0000
# 6 0.0000 0.0000 0.0000 4.2300 0.0000 26.3492
#
#
#
# Elastic Compliance Matrix: (Units=1/GPa)
#
#
# Indices 1 2 3 4 5 6 
#
# 1 0.014920 -0.002771 0.001725 0.000000 0.000345 0.000000
# 2 -0.002771 0.006084 -0.004386 0.000000 -0.003697 0.000000
# 3 0.001725 -0.004386 0.018228 0.000000 0.004117 0.000000
# 4 0.000000 0.000000 0.000000 0.036740 0.000000 -0.005898
# 5 0.000345 -0.003697 0.004117 0.000000 0.029637 0.000000
# 6 0.000000 0.000000 0.000000 -0.005898 0.000000 0.038899
#
#
# Mechanical properties :
#
#
# Convention : Reuss Voigt Hill
#
# Bulk Modulus (GPa) = 35.25235 59.49155 47.37195
# Shear Modulus (GPa) = 30.33466 37.15477 33.74472
#
# Velocity S-wave (km/s) = 3.61829 4.00443 3.81625
# Velocity P-wave (km/s) = 5.71581 6.85976 6.31375
#
# Compressibility (1/GPa) = 0.02836690
#
# Stress axis : x y z
#
# Youngs Moduli (GPa) = 67.02631 164.36870 54.86009
#
# Poissons Ratio (x) = 0.45545 -0.09461
# Poissons Ratio (y) = 0.18572 0.24062
# Poissons Ratio (z) = -0.11559 0.72092
#
# Static dielectric constant tensor:
#      x y z
#    x 1.867760 0.000000 -0.067300 
#    y 0.000000 1.962610 0.000000 
#    z -0.067300 0.000000 1.905750 
# 
# From -- ./inp_files/30053.got.cif
#   From: 2010.05.17/outbox.cif.g08.bks.cpg/sg12_16_cif.got.tgz:30053.got - 2010.06.03 13:09:07.
