data_PCOD9196447
_publ_section_title
;
Structure prediction by ZEFSAII (Michael W. Deem and Ramdas Pophale) SiO2 
 PCOD9196447
Probable space group: C 2/M
;
_chemical_formula_sum "Si O2"
_cell_formula_units_Z 58
_cell_length_a 18.088298
_cell_length_b 20.030127
_cell_length_c 16.732680
_cell_angle_alpha 90.000000
_cell_angle_beta 149.752530
_cell_angle_gamma 90.000000
_cell_volume 3053.864458
_symmetry_space_group_name_H-M "C 2/M"
_symmetry_group_IT_number 12
_symmetry_cell_setting 'monoclinic'
loop_
_space_group_symop_operation_xyz
x,y,z
-x,y,-z
-x,-y,-z
x,-y,z
1/2+x,1/2+y,z
1/2-x,1/2+y,-z
1/2-x,1/2-y,-z
1/2+x,1/2-y,z
loop_
_atom_site_type_symbol
_atom_site_label
_atom_site_fract_x
_atom_site_fract_y
_atom_site_fract_z
Si Si1 0.346606 0.259779 0.375118
Si Si2 0.500000 0.000000 0.500000
Si Si3 0.744171 0.766856 0.101833
Si Si4 0.525589 0.580374 0.116808
Si Si5 0.642512 0.881147 0.529230
Si Si6 0.022206 0.424144 0.255006
Si Si7 0.215566 0.864665 0.985639
Si Si8 0.945198 0.331225 0.857899
O O1 0.500000 0.296296 0.500000
O O2 0.282567 0.248143 0.227427
O O3 0.381692 0.191412 0.454340
O O4 0.215898 0.299570 0.295081
O O5 0.452407 0.059589 0.519373
O O6 0.783382 0.701710 0.088828
O O7 0.820351 0.833272 0.135484
O O8 0.569611 0.781950 0.938115
O O9 0.510839 0.500000 0.103925
O O10 0.688892 0.600361 0.294790
O O11 0.500000 0.602059 0.000000
O O12 0.411846 0.610586 0.074680
O O13 0.603189 0.881872 0.399200
O O14 0.069683 0.500000 0.307553
O O15 0.052871 0.395530 0.196145
O O16 0.846604 0.417274 0.103047
O O17 0.000000 0.344011 0.000000
#
# Coordination Sequence:
#
# PCOD9196447 Si02
#       8
#     8   2   8   8   8   8   8   8
#     4  11  21  34  58  85 109 150 189 239 286 342
#     4  12  24  40  54  84 122 168 190 238 278 368
#     4   9  19  36  55  80 110 146 185 237 291 337
#     4  11  23  34  51  80 114 155 195 235 281 340
#     4  12  24  37  57  82 121 158 195 231 289 348
#     4  11  23  39  61  86 116 156 195 241 289 348
#     4  10  20  35  57  80 109 145 192 239 286 339
#     4   9  21  41  61  86 117 148 196 243 295 347
#
# _framework density 18.992329000000002
#
# number of rings (size 3 to 8) (size 9 to 14) (size 15 to 20)
#    0.000    1.517    2.069    2.897    1.931    3.034 
#    0.000    0.000    0.000    0.414    0.000    0.000 
#    0.000    0.000    0.000    0.000    0.000    0.000 
#
# Total GULP energy -161444.114736 kJ/mol
# GULP energy per Si atom -5567.038439 kJ/mol
# Density = 1.894910 g / cm^3
# Si number density = 18.992329 Si / 1000 Ang^3
#
#
#
# Elastic Constant Matrix: (Units=GPa)
#
#
# Indices 1 2 3 4 5 6 
#
# 1 105.9160 34.5208 19.6043 0.0000 1.0898 0.0000
# 2 34.5208 47.9461 24.4602 0.0000 -1.6151 0.0000
# 3 19.6043 24.4602 34.2326 0.0001 -6.1512 0.0001
# 4 0.0000 0.0000 0.0001 19.6466 0.0000 -5.0224
# 5 1.0898 -1.6151 -6.1512 0.0000 24.6949 0.0000
# 6 0.0000 0.0000 0.0001 -5.0224 0.0000 31.9478
#
#
#
# Elastic Compliance Matrix: (Units=1/GPa)
#
#
# Indices 1 2 3 4 5 6 
#
# 1 0.012414 -0.008224 -0.001494 0.000000 -0.001458 0.000000
# 2 -0.008224 0.038626 -0.023419 0.000000 -0.002944 0.000000
# 3 -0.001494 -0.023419 0.048718 0.000000 0.010670 0.000000
# 4 0.000000 0.000000 0.000000 0.053031 0.000000 0.008337
# 5 -0.001458 -0.002944 0.010670 0.000000 0.043024 0.000000
# 6 0.000000 0.000000 0.000000 0.008337 0.000000 0.032612
#
#
# Mechanical properties :
#
#
# Convention : Reuss Voigt Hill
#
# Bulk Modulus (GPa) = 29.86577 38.36281 34.11429
# Shear Modulus (GPa) = 16.34731 22.55848 19.45289
#
# Velocity S-wave (km/s) = 2.93701 3.45014 3.20386
# Velocity P-wave (km/s) = 5.22117 6.00951 5.62916
#
# Compressibility (1/GPa) = 0.03348314
#
# Stress axis : x y z
#
# Youngs Moduli (GPa) = 80.55678 25.88900 20.52613
#
# Poissons Ratio (x) = 0.21292 0.03067
# Poissons Ratio (y) = 0.66253 0.48070
# Poissons Ratio (z) = 0.12038 0.60629
#
# Static dielectric constant tensor:
#      x y z
#    x 1.726000 0.000000 -0.018140 
#    y 0.000000 1.650860 0.000000 
#    z -0.018140 0.000000 1.693450 
# 
# From -- ./inp_files/278828.got.cif
#   From: 2010.05.17/outbox.cif.g08.bks.cpg/sg12_140_cif.got.tgz:278828.got - 2010.06.03 13:09:07.
