data_PCOD9196577
_publ_section_title
;
Structure prediction by ZEFSAII (Michael W. Deem and Ramdas Pophale) SiO2 
 PCOD9196577
Probable space group: C 2/M
;
_chemical_formula_sum "Si O2"
_cell_formula_units_Z 64
_cell_length_a 27.940542
_cell_length_b 7.779402
_cell_length_c 14.707816
_cell_angle_alpha 90.000000
_cell_angle_beta 64.708867
_cell_angle_gamma 90.000000
_cell_volume 2890.474081
_symmetry_space_group_name_H-M "C 2/M"
_symmetry_group_IT_number 12
_symmetry_cell_setting 'monoclinic'
loop_
_space_group_symop_operation_xyz
x,y,z
-x,y,-z
-x,-y,-z
x,-y,z
1/2+x,1/2+y,z
1/2-x,1/2+y,-z
1/2-x,1/2-y,-z
1/2+x,1/2-y,z
loop_
_atom_site_type_symbol
_atom_site_label
_atom_site_fract_x
_atom_site_fract_y
_atom_site_fract_z
Si Si1 0.587094 0.708740 0.760986
Si Si2 0.165182 0.801536 0.844966
Si Si3 0.730603 0.300163 0.333795
Si Si4 0.642909 0.703190 0.535581
Si Si5 0.979027 0.704981 0.920359
Si Si6 0.939903 0.707137 0.552601
Si Si7 0.150472 0.707823 0.241098
Si Si8 0.866068 0.298393 0.944759
O O1 0.588847 0.500000 0.759435
O O2 0.615321 0.772397 0.830253
O O3 0.621190 0.773052 0.647972
O O4 0.526353 0.763659 0.811050
O O5 0.215139 0.787830 0.738189
O O6 0.155049 0.000000 0.872014
O O7 0.172072 0.717662 0.937585
O O8 0.742065 0.500000 0.341790
O O9 0.696324 0.226044 0.445556
O O10 0.692319 0.285836 0.277185
O O11 0.652226 0.500000 0.540377
O O12 0.596171 0.724935 0.500031
O O13 0.972536 0.500000 0.937266
O O14 0.922898 0.774495 0.931011
O O15 0.000000 0.776965 0.000000
O O16 0.940934 0.500000 0.543271
O O17 0.907772 0.746508 0.670883
O O18 0.000000 0.770490 0.500000
O O19 0.158222 0.500000 0.239324
O O20 0.154364 0.771023 0.134586
O O21 0.874772 0.500000 0.919733
#
# Coordination Sequence:
#
# PCOD9196577 Si02
#       8
#     8   8   8   8   8   8   8   8
#     4  10  22  38  56  82 115 149 185 225 273 331
#     4  11  23  38  58  82 110 144 186 231 279 331
#     4  10  21  39  61  81 108 143 184 233 281 327
#     4   9  20  38  56  79 111 146 183 225 273 327
#     4  10  20  35  57  83 114 148 185 229 273 321
#     4   9  18  32  53  81 111 143 182 226 272 322
#     4   9  19  36  56  80 112 146 182 226 274 326
#     4  10  21  37  57  83 114 148 186 226 271 326
#
# _framework density 22.141698000000002
#
# number of rings (size 3 to 8) (size 9 to 14) (size 15 to 20)
#    0.000    2.250    1.250    0.750    1.750    4.000 
#    0.000    0.000    0.000    0.000    0.000    0.000 
#    0.000    0.000    0.000    0.000    0.000    0.000 
#
# Total GULP energy -178668.142864 kJ/mol
# GULP energy per Si atom -5583.379464 kJ/mol
# Density = 2.209130 g / cm^3
# Si number density = 22.141698 Si / 1000 Ang^3
#
#
#
# Elastic Constant Matrix: (Units=GPa)
#
#
# Indices 1 2 3 4 5 6 
#
# 1 19.6788 -5.1250 -1.0409 0.0000 -17.2172 0.0000
# 2 -5.1250 32.4726 -4.4563 0.0000 2.0780 0.0000
# 3 -1.0409 -4.4563 100.0257 0.0000 0.0792 0.0000
# 4 0.0000 0.0000 0.0000 6.8192 0.0000 35.6697
# 5 -17.2172 2.0780 0.0792 0.0000 36.1781 0.0000
# 6 0.0000 0.0000 0.0000 35.6697 0.0000 -98.7796
#
#
#
# Elastic Compliance Matrix: (Units=1/GPa)
#
#
# Indices 1 2 3 4 5 6 
#
# 1 0.091479 0.011895 0.001448 0.000000 0.042848 0.000000
# 2 0.011895 0.032647 0.001575 0.000000 0.003782 0.000000
# 3 0.001448 0.001575 0.010082 0.000000 0.000577 0.000000
# 4 0.000000 0.000000 0.000000 0.050762 0.000000 0.018331
# 5 0.042848 0.003782 0.000577 0.000000 0.047814 0.000000
# 6 0.000000 0.000000 0.000000 0.018331 0.000000 -0.003504
#
#
# Mechanical properties :
#
#
# Convention : Reuss Voigt Hill
#
# Bulk Modulus (GPa) = 6.09596 14.54808 10.32202
# Shear Modulus (GPa) = 19.67532 -0.30317 9.68607
#
# Velocity S-wave (km/s) = 2.98419 -0.37043 2.09382
# Velocity P-wave (km/s) = 3.82531 2.53017 3.24305
#
# Compressibility (1/GPa) = 0.16404316
#
# Stress axis : x y z
#
# Youngs Moduli (GPa) = 10.93148 30.63104 99.18452
#
# Poissons Ratio (x) = -0.36434 -0.14361
# Poissons Ratio (y) = -0.13002 -0.15624
# Poissons Ratio (z) = -0.01583 -0.04825
#
# Static dielectric constant tensor:
#      x y z
#    x 1.798920 0.000000 -0.002950 
#    y 0.000000 1.814560 0.000000 
#    z -0.002950 0.000000 1.838420 
# 
# From -- ./inp_files/249072.got.cif
#   From: 2010.05.17/outbox.cif.g08.bks.cpg/sg12_125_cif.got.tgz:249072.got - 2010.06.03 13:09:07.
