data_PCOD9196062
_publ_section_title
;
Structure prediction by ZEFSAII (Michael W. Deem and Ramdas Pophale) SiO2 
 PCOD9196062
Probable space group: C 2/M
;
_chemical_formula_sum "Si O2"
_cell_formula_units_Z 56
_cell_length_a 15.291361
_cell_length_b 14.659315
_cell_length_c 15.848500
_cell_angle_alpha 90.000000
_cell_angle_beta 50.079301
_cell_angle_gamma 90.000000
_cell_volume 2724.617967
_symmetry_space_group_name_H-M "C 2/M"
_symmetry_group_IT_number 12
_symmetry_cell_setting 'monoclinic'
loop_
_space_group_symop_operation_xyz
x,y,z
-x,y,-z
-x,-y,-z
x,-y,z
1/2+x,1/2+y,z
1/2-x,1/2+y,-z
1/2-x,1/2-y,-z
1/2+x,1/2-y,z
loop_
_atom_site_type_symbol
_atom_site_label
_atom_site_fract_x
_atom_site_fract_y
_atom_site_fract_z
Si Si1 0.168993 0.895468 0.246309
Si Si2 0.390033 0.670202 0.897946
Si Si3 0.219692 0.305755 0.663406
Si Si4 0.356874 0.397254 0.252462
Si Si5 0.989971 0.337444 0.745207
Si Si6 0.754919 0.900949 0.128563
Si Si7 0.046617 0.198641 0.562236
O O1 0.174819 0.865087 0.145544
O O2 0.236986 0.830944 0.269344
O O3 0.035835 0.882112 0.355199
O O4 0.203026 0.000000 0.235530
O O5 0.506206 0.611921 0.836579
O O6 0.436701 0.769930 0.847836
O O7 0.313002 0.668136 0.028089
O O8 0.187932 0.197207 0.676946
O O9 0.322870 0.325257 0.535418
O O10 0.110054 0.367267 0.709237
O O11 0.328935 0.500000 0.303424
O O12 0.304424 0.392061 0.191208
O O13 0.881842 0.396223 0.785762
O O14 0.026464 0.277754 0.641768
O O15 0.789328 0.000000 0.073205
O O16 0.000000 0.229056 0.500000
#
# Coordination Sequence:
#
# PCOD9196062 Si02
#       7
#     8   8   8   8   8   8   8
#     4  10  20  35  57  83 108 138 180 223 262 311
#     4  10  20  36  57  78 104 138 180 226 267 306
#     4  10  21  36  55  79 110 143 175 217 265 315
#     4  10  20  35  56  81 105 135 180 226 267 313
#     4  10  21  36  54  78 108 143 177 212 262 323
#     4  11  21  34  53  78 109 141 174 217 268 319
#     4   9  18  34  56  78 104 136 175 220 266 306
#
# _framework density 20.553339999999999
#
# number of rings (size 3 to 8) (size 9 to 14) (size 15 to 20)
#    0.000    2.000    0.000    5.143    0.000    4.286 
#    0.000    2.857    0.000   11.143    0.000    0.000 
#    0.000    0.000    0.000    0.000    0.000    0.000 
#
# Total GULP energy -156142.511935 kJ/mol
# GULP energy per Si atom -5576.518283 kJ/mol
# Density = 2.050656 g / cm^3
# Si number density = 20.553340 Si / 1000 Ang^3
#
#
#
# Elastic Constant Matrix: (Units=GPa)
#
#
# Indices 1 2 3 4 5 6 
#
# 1 95.0391 12.5568 25.2130 0.0000 -8.2513 0.0000
# 2 12.5568 52.7590 -4.7054 0.0000 -4.6112 0.0000
# 3 25.2130 -4.7054 48.0983 0.0000 -3.7713 0.0000
# 4 0.0000 0.0000 0.0000 9.0953 0.0000 -3.4903
# 5 -8.2513 -4.6112 -3.7713 0.0000 23.5353 0.0000
# 6 0.0000 0.0000 0.0000 -3.4903 0.0000 -75.0261
#
#
#
# Elastic Compliance Matrix: (Units=1/GPa)
#
#
# Indices 1 2 3 4 5 6 
#
# 1 0.013076 -0.003491 -0.006978 0.000000 0.002782 0.000000
# 2 -0.003491 0.020451 0.004101 0.000000 0.003440 0.000000
# 3 -0.006978 0.004101 0.025035 0.000000 0.002369 0.000000
# 4 0.000000 0.000000 0.000000 0.108018 0.000000 -0.005025
# 5 0.002782 0.003440 0.002369 0.000000 0.044518 0.000000
# 6 0.000000 0.000000 0.000000 -0.005025 0.000000 -0.013095
#
#
# Mechanical properties :
#
#
# Convention : Reuss Voigt Hill
#
# Bulk Modulus (GPa) = 21.82174 29.11391 25.46782
# Shear Modulus (GPa) = 22.12228 2.37638 12.24933
#
# Velocity S-wave (km/s) = 3.28431 1.07643 2.44391
# Velocity P-wave (km/s) = 5.00225 3.96746 4.51460
#
# Compressibility (1/GPa) = 0.04582586
#
# Stress axis : x y z
#
# Youngs Moduli (GPa) = 76.47617 48.89629 39.94342
#
# Poissons Ratio (x) = 0.17071 0.27872
# Poissons Ratio (y) = 0.26700 -0.16379
# Poissons Ratio (z) = 0.53364 -0.20050
#
# Static dielectric constant tensor:
#      x y z
#    x 1.771170 0.000000 -0.021240 
#    y 0.000000 1.788730 0.000000 
#    z -0.021240 0.000000 1.715480 
# 
# From -- ./inp_files/270215.got.cif
#   From: 2010.05.17/outbox.cif.g08.bks.cpg/sg12_136_cif.got.tgz:270215.got - 2010.06.03 13:09:07.
