data_PCOD9196899
_publ_section_title
;
Structure prediction by ZEFSAII (Michael W. Deem and Ramdas Pophale) SiO2 
 PCOD9196899
Probable space group: C 2/M
;
_chemical_formula_sum "Si O2"
_cell_formula_units_Z 48
_cell_length_a 18.975924
_cell_length_b 13.770066
_cell_length_c 17.920441
_cell_angle_alpha 90.000000
_cell_angle_beta 32.745484
_cell_angle_gamma 90.000000
_cell_volume 2532.860062
_symmetry_space_group_name_H-M "C 2/M"
_symmetry_group_IT_number 12
_symmetry_cell_setting 'monoclinic'
loop_
_space_group_symop_operation_xyz
x,y,z
-x,y,-z
-x,-y,-z
x,-y,z
1/2+x,1/2+y,z
1/2-x,1/2+y,-z
1/2-x,1/2-y,-z
1/2+x,1/2-y,z
loop_
_atom_site_type_symbol
_atom_site_label
_atom_site_fract_x
_atom_site_fract_y
_atom_site_fract_z
Si Si1 0.581158 0.234244 0.002700
Si Si2 0.779144 0.886927 0.920316
Si Si3 0.221081 0.392437 0.146524
Si Si4 0.207124 0.615384 0.519145
Si Si5 0.535618 0.280295 0.735759
Si Si6 0.049153 0.611814 0.530156
O O1 0.497864 0.279313 0.146160
O O2 0.500000 0.212294 0.000000
O O3 0.666071 0.147588 0.964744
O O4 0.690759 0.315373 0.889611
O O5 0.903124 0.813719 0.811251
O O6 0.815018 0.000000 0.875621
O O7 0.727641 0.879674 0.051476
O O8 0.272885 0.500000 0.116545
O O9 0.073633 0.389491 0.305625
O O10 0.186957 0.500000 0.544403
O O11 0.356806 0.644417 0.391152
O O12 0.107040 0.677117 0.657966
O O13 0.169131 0.650580 0.469261
O O14 0.084863 0.500000 0.479060
O O15 0.000000 0.663010 0.500000
#
# Coordination Sequence:
#
# PCOD9196899 Si02
#       6
#     8   8   8   8   8   8
#     4  11  23  35  54  84 116 147 185 235 282 333
#     4  10  20  38  60  78 107 148 193 237 276 326
#     4   9  18  34  55  78 108 148 184 223 279 336
#     4  10  20  35  58  83 112 146 185 230 273 329
#     4  10  21  38  57  85 110 147 192 231 272 333
#     4   9  17  28  47  76 107 139 172 211 269 333
#
# _framework density 18.950908999999999
#
# number of rings (size 3 to 8) (size 9 to 14) (size 15 to 20)
#    0.000    2.167    0.000    4.500    2.333    3.333 
#    0.000    0.000    0.000    0.000    0.000    3.500 
#    0.000    0.000    0.000    0.000    0.000    0.000 
#
# Total GULP energy -133614.435911 kJ/mol
# GULP energy per Si atom -5567.268163 kJ/mol
# Density = 1.890778 g / cm^3
# Si number density = 18.950909 Si / 1000 Ang^3
#
#
#
# Elastic Constant Matrix: (Units=GPa)
#
#
# Indices 1 2 3 4 5 6 
#
# 1 106.7914 14.2677 21.9181 0.0000 -12.6930 0.0000
# 2 14.2677 96.4171 22.2434 0.0000 -9.5198 0.0000
# 3 21.9181 22.2434 45.9893 0.0000 -14.2390 0.0000
# 4 0.0000 0.0000 0.0000 14.3079 0.0000 1.3481
# 5 -12.6930 -9.5198 -14.2390 0.0000 17.9094 0.0000
# 6 0.0000 0.0000 0.0000 1.3481 0.0000 11.7276
#
#
#
# Elastic Compliance Matrix: (Units=1/GPa)
#
#
# Indices 1 2 3 4 5 6 
#
# 1 0.010674 -0.000315 -0.003508 0.000000 0.004608 0.000000
# 2 -0.000315 0.011754 -0.004868 0.000000 0.002154 0.000000
# 3 -0.003508 -0.004868 0.032102 0.000000 0.020449 0.000000
# 4 0.000000 0.000000 0.000000 0.070657 0.000000 -0.008122
# 5 0.004608 0.002154 0.020449 0.000000 0.076506 0.000000
# 6 0.000000 0.000000 0.000000 -0.008122 0.000000 0.086203
#
#
# Mechanical properties :
#
#
# Convention : Reuss Voigt Hill
#
# Bulk Modulus (GPa) = 26.91929 40.67294 33.79611
# Shear Modulus (GPa) = 15.74012 21.50687 18.62349
#
# Velocity S-wave (km/s) = 2.88509 3.37244 3.13824
# Velocity P-wave (km/s) = 5.03328 6.05585 5.56809
#
# Compressibility (1/GPa) = 0.03714809
#
# Stress axis : x y z
#
# Youngs Moduli (GPa) = 93.68681 85.07783 31.15102
#
# Poissons Ratio (x) = 0.02682 0.10927
# Poissons Ratio (y) = 0.02953 0.15163
# Poissons Ratio (z) = 0.32863 0.41413
#
# Static dielectric constant tensor:
#      x y z
#    x 1.703060 0.000000 0.004550 
#    y 0.000000 1.697440 0.000000 
#    z 0.004550 0.000000 1.657030 
# 
# From -- ./inp_files/278025.got.cif
#   From: 2010.05.17/outbox.cif.g08.bks.cpg/sg12_140_cif.got.tgz:278025.got - 2010.06.03 13:09:07.
