data_PCOD9196728
_publ_section_title
;
Structure prediction by ZEFSAII (Michael W. Deem and Ramdas Pophale) SiO2 
 PCOD9196728
Probable space group: C 2/M
;
_chemical_formula_sum "Si O2"
_cell_formula_units_Z 56
_cell_length_a 9.201104
_cell_length_b 19.608424
_cell_length_c 17.503719
_cell_angle_alpha 90.000000
_cell_angle_beta 115.167701
_cell_angle_gamma 90.000000
_cell_volume 2858.206868
_symmetry_space_group_name_H-M "C 2/M"
_symmetry_group_IT_number 12
_symmetry_cell_setting 'monoclinic'
loop_
_space_group_symop_operation_xyz
x,y,z
-x,y,-z
-x,-y,-z
x,-y,z
1/2+x,1/2+y,z
1/2-x,1/2+y,-z
1/2-x,1/2-y,-z
1/2+x,1/2-y,z
loop_
_atom_site_type_symbol
_atom_site_label
_atom_site_fract_x
_atom_site_fract_y
_atom_site_fract_z
Si Si1 0.169209 0.778884 0.559332
Si Si2 0.661487 0.922781 0.948376
Si Si3 0.115676 0.076642 0.855420
Si Si4 0.972585 0.727899 0.078692
Si Si5 0.688660 0.712826 0.816946
Si Si6 0.739890 0.921900 0.787476
Si Si7 0.022068 0.305932 0.665276
O O1 0.250000 0.750000 0.500000
O O2 0.102590 0.720909 0.603514
O O3 0.328949 0.817317 0.625630
O O4 0.000000 0.816004 0.500000
O O5 0.560366 0.853260 0.935687
O O6 0.718803 0.918444 0.874107
O O7 0.588429 0.000000 0.941261
O O8 0.803442 0.919163 0.042673
O O9 0.193211 0.131993 0.818218
O O10 0.927135 0.092591 0.815362
O O11 0.138959 0.000000 0.833495
O O12 0.135938 0.739827 0.161666
O O13 0.843116 0.764538 0.102360
O O14 0.000000 0.755973 0.000000
O O15 0.561136 0.744361 0.732024
O O16 0.621412 0.870036 0.719181
O O17 0.707910 0.000000 0.756659
#
# Coordination Sequence:
#
# PCOD9196728 Si02
#       7
#     8   8   8   8   8   8   8
#     4   9  20  38  64  91 114 144 173 218 281 362
#     4  10  21  37  54  73 110 162 212 250 286 333
#     4  10  21  36  53  76 111 160 210 248 285 330
#     4  12  24  37  50  77 111 156 200 248 296 334
#     4  12  24  36  56  83 114 148 193 252 297 335
#     4  10  20  35  57  85 117 155 198 242 289 333
#     4  11  20  37  61  89 120 141 185 234 290 345
#
# _framework density 19.592704000000001
#
# number of rings (size 3 to 8) (size 9 to 14) (size 15 to 20)
#    0.000    1.429    2.857    3.429    0.000    2.571 
#    0.000    0.000    0.000    4.286    0.000    4.000 
#    0.000    0.000    0.000    0.000    0.000    0.000 
#
# Total GULP energy -156115.451979 kJ/mol
# GULP energy per Si atom -5575.551856 kJ/mol
# Density = 1.954811 g / cm^3
# Si number density = 19.592704 Si / 1000 Ang^3
#
#
#
# Elastic Constant Matrix: (Units=GPa)
#
#
# Indices 1 2 3 4 5 6 
#
# 1 87.8947 10.0623 25.7703 0.0000 14.1432 0.0000
# 2 10.0623 77.4002 23.3085 0.0000 4.9485 0.0000
# 3 25.7703 23.3085 73.4824 0.0000 15.9026 0.0000
# 4 0.0000 0.0000 0.0000 16.1909 0.0000 5.2596
# 5 14.1432 4.9485 15.9026 0.0000 42.0564 0.0000
# 6 0.0000 0.0000 0.0000 5.2596 0.0000 22.7712
#
#
#
# Elastic Compliance Matrix: (Units=1/GPa)
#
#
# Indices 1 2 3 4 5 6 
#
# 1 0.013003 -0.000355 -0.003823 0.000000 -0.002885 0.000000
# 2 -0.000355 0.014294 -0.004434 0.000000 0.000114 0.000000
# 3 -0.003823 -0.004434 0.017388 0.000000 -0.004767 0.000000
# 4 0.000000 0.000000 0.000000 0.066773 0.000000 -0.015423
# 5 -0.002885 0.000114 -0.004767 0.000000 0.026537 0.000000
# 6 0.000000 0.000000 0.000000 -0.015423 0.000000 0.047478
#
#
# Mechanical properties :
#
#
# Convention : Reuss Voigt Hill
#
# Bulk Modulus (GPa) = 36.41604 39.67328 38.04466
# Shear Modulus (GPa) = 23.60149 28.17943 25.89046
#
# Velocity S-wave (km/s) = 3.47451 3.79656 3.63910
# Velocity P-wave (km/s) = 5.89264 6.28581 6.09240
#
# Compressibility (1/GPa) = 0.02746043
#
# Stress axis : x y z
#
# Youngs Moduli (GPa) = 76.90465 69.95914 57.51159
#
# Poissons Ratio (x) = 0.02481 0.21988
# Poissons Ratio (y) = 0.02727 0.25503
# Poissons Ratio (z) = 0.29403 0.31023
#
# Static dielectric constant tensor:
#      x y z
#    x 1.708970 0.000000 0.023000 
#    y 0.000000 1.698880 0.000000 
#    z 0.023000 0.000000 1.731710 
# 
# From -- ./inp_files/258245.got.cif
#   From: 2010.05.17/outbox.cif.g08.bks.cpg/sg12_130_cif.got.tgz:258245.got - 2010.06.03 13:09:07.
