data_PCOD9196917
_publ_section_title
;
Structure prediction by ZEFSAII (Michael W. Deem and Ramdas Pophale) SiO2 
 PCOD9196917
Probable space group: C 2/M
;
_chemical_formula_sum "Si O2"
_cell_formula_units_Z 64
_cell_length_a 24.855270
_cell_length_b 13.327601
_cell_length_c 8.535589
_cell_angle_alpha 90.000000
_cell_angle_beta 79.071752
_cell_angle_gamma 90.000000
_cell_volume 2776.232945
_symmetry_space_group_name_H-M "C 2/M"
_symmetry_group_IT_number 12
_symmetry_cell_setting 'monoclinic'
loop_
_space_group_symop_operation_xyz
x,y,z
-x,y,-z
-x,-y,-z
x,-y,z
1/2+x,1/2+y,z
1/2-x,1/2+y,-z
1/2-x,1/2-y,-z
1/2+x,1/2-y,z
loop_
_atom_site_type_symbol
_atom_site_label
_atom_site_fract_x
_atom_site_fract_y
_atom_site_fract_z
Si Si1 0.678654 0.310884 0.550194
Si Si2 0.571363 0.324744 0.769908
Si Si3 0.720166 0.115896 0.656437
Si Si4 0.167192 0.618611 0.028183
Si Si5 0.062447 0.384503 0.910512
Si Si6 0.767683 0.120959 0.153926
Si Si7 0.874367 0.880554 0.929456
Si Si8 0.533344 0.617409 0.336566
O O1 0.616733 0.346915 0.610738
O O2 0.686708 0.191186 0.561912
O O3 0.715551 0.356621 0.393411
O O4 0.710613 0.346473 0.690080
O O5 0.567494 0.203804 0.781892
O O6 0.512755 0.372681 0.772103
O O7 0.594323 0.362480 0.923220
O O8 0.698217 0.130998 0.844292
O O9 0.712760 0.000000 0.618052
O O10 0.162976 0.500000 0.060160
O O11 0.104940 0.648382 0.024152
O O12 0.207269 0.656046 0.141394
O O13 0.076513 0.500000 0.855728
O O14 0.000000 0.384582 0.000000
O O15 0.768385 0.000000 0.150969
O O16 0.813149 0.155484 0.001909
O O17 0.910246 0.840273 0.764719
O O18 0.871079 0.000000 0.907217
O O19 0.500000 0.665092 0.500000
O O20 0.542628 0.500000 0.368579
#
# Coordination Sequence:
#
# PCOD9196917 Si02
#       8
#     8   8   8   8   8   8   8   8
#     4  10  21  34  55  85 108 148 191 224 275 337
#     4  11  20  35  58  81 109 145 191 232 273 326
#     4  10  20  36  54  76 113 149 184 228 277 335
#     4   9  18  34  56  81 110 145 179 226 284 325
#     4  10  20  35  58  84 108 141 189 236 276 326
#     4   9  18  33  54  82 115 143 178 228 277 332
#     4   9  18  33  52  80 113 147 184 223 273 332
#     4  10  21  35  54  81 114 148 185 231 282 331
#
# _framework density 23.052820000000001
#
# number of rings (size 3 to 8) (size 9 to 14) (size 15 to 20)
#    0.000    2.250    1.250    1.875    0.000    4.000 
#    0.000    2.500    5.500    0.375    0.000    0.000 
#    0.000    0.000    0.000    0.000    0.000    0.000 
#
# Total GULP energy -178642.847157 kJ/mol
# GULP energy per Si atom -5582.588974 kJ/mol
# Density = 2.300035 g / cm^3
# Si number density = 23.052820 Si / 1000 Ang^3
#
#
#
# Elastic Constant Matrix: (Units=GPa)
#
#
# Indices 1 2 3 4 5 6 
#
# 1 107.7009 2.3810 23.3302 0.0000 -17.4136 0.0000
# 2 2.3810 75.3613 11.0744 0.0000 -3.9584 0.0000
# 3 23.3302 11.0744 48.7087 0.0000 -15.3567 0.0000
# 4 0.0000 0.0000 0.0000 21.3607 0.0000 -7.6268
# 5 -17.4136 -3.9584 -15.3567 0.0000 33.7958 0.0000
# 6 0.0000 0.0000 0.0000 -7.6268 0.0000 9.7159
#
#
#
# Elastic Compliance Matrix: (Units=1/GPa)
#
#
# Indices 1 2 3 4 5 6 
#
# 1 0.010764 0.000456 -0.004078 0.000000 0.003747 0.000000
# 2 0.000456 0.013749 -0.003225 0.000000 0.000380 0.000000
# 3 -0.004078 -0.003225 0.026187 0.000000 0.009420 0.000000
# 4 0.000000 0.000000 0.000000 0.065046 0.000000 0.051060
# 5 0.003747 0.000380 0.009420 0.000000 0.035845 0.000000
# 6 0.000000 0.000000 0.000000 0.051060 0.000000 0.143005
#
#
# Mechanical properties :
#
#
# Convention : Reuss Voigt Hill
#
# Bulk Modulus (GPa) = 27.02257 33.92692 30.47474
# Shear Modulus (GPa) = 15.59462 25.97352 20.78407
#
# Velocity S-wave (km/s) = 2.60373 3.36027 3.00590
# Velocity P-wave (km/s) = 4.55924 5.45932 5.02946
#
# Compressibility (1/GPa) = 0.03700610
#
# Stress axis : x y z
#
# Youngs Moduli (GPa) = 92.90151 72.73359 38.18745
#
# Poissons Ratio (x) = -0.03317 0.15574
# Poissons Ratio (y) = -0.04236 0.12314
# Poissons Ratio (z) = 0.37887 0.23453
#
# Static dielectric constant tensor:
#      x y z
#    x 1.899590 0.000000 -0.015930 
#    y 0.000000 1.912820 0.000000 
#    z -0.015930 0.000000 1.887910 
# 
# From -- ./inp_files/104566.got.cif
#   From: 2010.05.17/outbox.cif.g08.bks.cpg/sg12_53_cif.got.tgz:104566.got - 2010.06.03 13:09:07.
