data_PCOD9196861
_publ_section_title
;
Structure prediction by ZEFSAII (Michael W. Deem and Ramdas Pophale) SiO2 
 PCOD9196861
Probable space group: C 2/M
;
_chemical_formula_sum "Si O2"
_cell_formula_units_Z 52
_cell_length_a 12.804732
_cell_length_b 18.950706
_cell_length_c 23.012867
_cell_angle_alpha 90.000000
_cell_angle_beta 149.718913
_cell_angle_gamma 90.000000
_cell_volume 2815.828132
_symmetry_space_group_name_H-M "C 2/M"
_symmetry_group_IT_number 12
_symmetry_cell_setting 'monoclinic'
loop_
_space_group_symop_operation_xyz
x,y,z
-x,y,-z
-x,-y,-z
x,-y,z
1/2+x,1/2+y,z
1/2-x,1/2+y,-z
1/2-x,1/2-y,-z
1/2+x,1/2-y,z
loop_
_atom_site_type_symbol
_atom_site_label
_atom_site_fract_x
_atom_site_fract_y
_atom_site_fract_z
Si Si1 0.575494 0.418017 0.380449
Si Si2 0.032049 0.418464 0.646715
Si Si3 0.562798 0.418615 0.234833
Si Si4 0.559363 0.731180 0.867767
Si Si5 0.541975 0.187806 0.297192
Si Si6 0.108798 0.778432 0.675801
Si Si7 0.000000 0.793961 0.500000
O O1 0.534367 0.500000 0.375613
O O2 0.806576 0.399521 0.513193
O O3 0.568190 0.412362 0.307064
O O4 0.418319 0.362644 0.333783
O O5 0.024986 0.500000 0.658875
O O6 0.073927 0.374222 0.724883
O O7 0.208925 0.410303 0.683347
O O8 0.494436 0.500000 0.188413
O O9 0.439802 0.351391 0.150217
O O10 0.552867 0.779763 0.806632
O O11 0.342045 0.750963 0.794625
O O12 0.750000 0.750000 0.000000
O O13 0.533581 0.249131 0.341498
O O14 0.780984 0.166581 0.401312
O O15 0.034228 0.752793 0.576582
#
# Coordination Sequence:
#
# PCOD9196861 Si02
#       7
#     8   8   8   8   8   8   4
#     4  10  20  35  57  90 126 158 189 233 297 366
#     4  10  20  35  57  90 126 158 189 233 297 366
#     4  10  20  38  61  89 120 152 195 247 297 345
#     4  11  25  42  60  87 114 154 209 259 293 332
#     4  11  21  37  58  85 119 155 194 242 293 358
#     4  11  21  37  58  85 119 155 194 242 293 358
#     4  10  22  32  53  88 119 148 188 232 294 358
#
# _framework density 18.467036
#
# number of rings (size 3 to 8) (size 9 to 14) (size 15 to 20)
#    0.000    1.538    4.615    0.923    0.000    2.462 
#    0.000    5.385    0.000    3.692    0.000    0.000 
#    0.000    0.000    0.000    0.000    0.000    0.000 
#
# Total GULP energy -144937.947616 kJ/mol
# GULP energy per Si atom -5574.536447 kJ/mol
# Density = 1.842500 g / cm^3
# Si number density = 18.467036 Si / 1000 Ang^3
#
#
#
# Elastic Constant Matrix: (Units=GPa)
#
#
# Indices 1 2 3 4 5 6 
#
# 1 84.2124 32.6864 37.2876 -0.0008 -7.8557 0.0001
# 2 32.6864 129.8032 50.1740 0.0008 -6.3426 0.0000
# 3 37.2876 50.1740 103.7692 0.0023 -9.3390 -0.0002
# 4 -0.0008 0.0008 0.0023 21.2266 0.0000 0.0999
# 5 -7.8557 -6.3426 -9.3390 0.0000 14.8961 -0.0001
# 6 0.0001 0.0000 -0.0002 0.0999 -0.0001 32.8560
#
#
#
# Elastic Compliance Matrix: (Units=1/GPa)
#
#
# Indices 1 2 3 4 5 6 
#
# 1 0.014816 -0.001980 -0.003963 0.000001 0.004486 0.000000
# 2 -0.001980 0.009761 -0.003951 0.000000 0.000635 0.000000
# 3 -0.003963 -0.003951 0.013387 -0.000001 0.004621 0.000000
# 4 0.000001 0.000000 -0.000001 0.047111 0.000000 -0.000143
# 5 0.004486 0.000635 0.004621 0.000000 0.072665 0.000000
# 6 0.000000 0.000000 0.000000 -0.000143 0.000000 0.030436
#
#
# Mechanical properties :
#
#
# Convention : Reuss Voigt Hill
#
# Bulk Modulus (GPa) = 55.01588 62.00898 58.51243
# Shear Modulus (GPa) = 23.36199 26.97153 25.16676
#
# Velocity S-wave (km/s) = 3.56063 3.82583 3.69561
# Velocity P-wave (km/s) = 6.83814 7.29157 7.06849
#
# Compressibility (1/GPa) = 0.01817657
#
# Stress axis : x y z
#
# Youngs Moduli (GPa) = 67.49256 102.45126 74.69965
#
# Poissons Ratio (x) = 0.20285 0.29603
# Poissons Ratio (y) = 0.13363 0.29513
# Poissons Ratio (z) = 0.26747 0.40477
#
# Static dielectric constant tensor:
#      x y z
#    x 1.647860 0.000000 0.000660 
#    y 0.000000 1.712510 0.000000 
#    z 0.000660 0.000000 1.605070 
# 
# From -- ./inp_files/306932.got.cif
#   From: 2010.05.17/outbox.cif.g08.bks.cpg/sg12_154_cif.got.tgz:306932.got - 2010.06.03 13:09:07.
