data_PCOD9196904
_publ_section_title
;
Structure prediction by ZEFSAII (Michael W. Deem and Ramdas Pophale) SiO2 
 PCOD9196904
Probable space group: C 2/M
;
_chemical_formula_sum "Si O2"
_cell_formula_units_Z 58
_cell_length_a 25.421865
_cell_length_b 21.980780
_cell_length_c 5.093989
_cell_angle_alpha 90.000000
_cell_angle_beta 80.617210
_cell_angle_gamma 90.000000
_cell_volume 2808.399861
_symmetry_space_group_name_H-M "C 2/M"
_symmetry_group_IT_number 12
_symmetry_cell_setting 'monoclinic'
loop_
_space_group_symop_operation_xyz
x,y,z
-x,y,-z
-x,-y,-z
x,-y,z
1/2+x,1/2+y,z
1/2-x,1/2+y,-z
1/2-x,1/2-y,-z
1/2+x,1/2-y,z
loop_
_atom_site_type_symbol
_atom_site_label
_atom_site_fract_x
_atom_site_fract_y
_atom_site_fract_z
Si Si1 0.500000 0.000000 0.000000
Si Si2 0.938016 0.251062 0.020578
Si Si3 0.201269 0.427260 0.675806
Si Si4 0.732424 0.426665 0.867249
Si Si5 0.061668 0.667530 0.481046
Si Si6 0.104050 0.432704 0.099200
Si Si7 0.115995 0.125181 0.938048
Si Si8 0.438329 0.571842 0.516194
O O1 0.453345 0.052056 0.983681
O O2 0.930163 0.304099 0.240913
O O3 0.898910 0.195108 0.098906
O O4 0.930575 0.278895 0.738607
O O5 0.000000 0.230699 0.000000
O O6 0.195605 0.500000 0.656723
O O7 0.222646 0.406033 0.378040
O O8 0.246644 0.415322 0.856871
O O9 0.146335 0.407507 0.857088
O O10 0.724332 0.500000 0.845063
O O11 0.677392 0.392695 0.858522
O O12 0.095803 0.611016 0.351209
O O13 0.000000 0.648197 0.500000
O O14 0.123524 0.500000 0.175142
O O15 0.081882 0.086456 0.757562
O O16 0.096808 0.107656 0.244670
O O17 0.500000 0.589612 0.500000
O O18 0.433537 0.500000 0.572433
#
# Coordination Sequence:
#
# PCOD9196904 Si02
#       8
#     2   8   8   8   8   8   8   8
#     4   8  20  36  66 104 130 156 186 228 302 388
#     4  10  22  38  57  81 113 162 201 244 296 350
#     4   9  19  37  56  84 119 157 190 236 299 362
#     4  10  20  35  58  83 113 154 206 252 299 345
#     4  10  22  38  59  84 120 155 194 234 291 367
#     4   9  20  38  63  96 128 155 185 237 302 367
#     4  12  22  37  59  82 115 157 214 257 289 356
#     4  11  22  34  53  84 120 151 186 251 332 377
#
# _framework density 20.652331
#
# number of rings (size 3 to 8) (size 9 to 14) (size 15 to 20)
#    0.414    1.517    0.000    4.138    2.897    4.690 
#    0.000    2.069    0.000    5.379    0.000    0.000 
#    0.000    0.000    0.000    0.000    0.000    0.000 
#
# Total GULP energy -161827.035437 kJ/mol
# GULP energy per Si atom -5580.242601 kJ/mol
# Density = 2.060533 g / cm^3
# Si number density = 20.652331 Si / 1000 Ang^3
#
#
#
# Elastic Constant Matrix: (Units=GPa)
#
#
# Indices 1 2 3 4 5 6 
#
# 1 90.2976 26.2826 8.6300 0.0000 -10.9135 0.0000
# 2 26.2826 49.2655 6.7072 0.0000 -17.0416 0.0000
# 3 8.6300 6.7072 64.0748 0.0000 -6.7589 0.0000
# 4 0.0000 0.0000 0.0000 35.6613 0.0000 -11.1897
# 5 -10.9135 -17.0416 -6.7589 0.0000 28.2344 0.0000
# 6 0.0000 0.0000 0.0000 -11.1897 0.0000 18.7811
#
#
#
# Elastic Compliance Matrix: (Units=1/GPa)
#
#
# Indices 1 2 3 4 5 6 
#
# 1 0.013197 -0.006601 -0.000994 0.000000 0.000879 0.000000
# 2 -0.006601 0.029029 -0.000585 0.000000 0.014830 0.000000
# 3 -0.000994 -0.000585 0.016131 0.000000 0.003124 0.000000
# 4 0.000000 0.000000 0.000000 0.034489 0.000000 0.020549
# 5 0.000879 0.014830 0.003124 0.000000 0.045456 0.000000
# 6 0.000000 0.000000 0.000000 0.020549 0.000000 0.065488
#
#
# Mechanical properties :
#
#
# Convention : Reuss Voigt Hill
#
# Bulk Modulus (GPa) = 23.81105 31.87528 27.84316
# Shear Modulus (GPa) = 21.35375 27.33657 24.34516
#
# Velocity S-wave (km/s) = 3.21902 3.64215 3.43710
# Velocity P-wave (km/s) = 5.03692 5.75802 5.40950
#
# Compressibility (1/GPa) = 0.04199731
#
# Stress axis : x y z
#
# Youngs Moduli (GPa) = 75.77444 34.44787 61.99080
#
# Poissons Ratio (x) = 0.22740 0.06160
# Poissons Ratio (y) = 0.50020 0.03629
# Poissons Ratio (z) = 0.07530 0.02016
#
# Static dielectric constant tensor:
#      x y z
#    x 1.752920 0.000000 0.004280 
#    y 0.000000 1.723320 0.000000 
#    z 0.004280 0.000000 1.746210 
# 
# From -- ./inp_files/26026.got.cif
#   From: 2010.05.17/outbox.cif.g08.bks.cpg/sg12_14_cif.got.tgz:26026.got - 2010.06.03 13:09:07.
