data_PCOD9196237
_publ_section_title
;
Structure prediction by ZEFSAII (Michael W. Deem and Ramdas Pophale) SiO2 
 PCOD9196237
Probable space group: C 2/M
;
_chemical_formula_sum "Si O2"
_cell_formula_units_Z 64
_cell_length_a 27.859356
_cell_length_b 7.569702
_cell_length_c 15.649944
_cell_angle_alpha 90.000000
_cell_angle_beta 120.279755
_cell_angle_gamma 90.000000
_cell_volume 2850.113039
_symmetry_space_group_name_H-M "C 2/M"
_symmetry_group_IT_number 12
_symmetry_cell_setting 'monoclinic'
loop_
_space_group_symop_operation_xyz
x,y,z
-x,y,-z
-x,-y,-z
x,-y,z
1/2+x,1/2+y,z
1/2-x,1/2+y,-z
1/2-x,1/2-y,-z
1/2+x,1/2-y,z
loop_
_atom_site_type_symbol
_atom_site_label
_atom_site_fract_x
_atom_site_fract_y
_atom_site_fract_z
Si Si1 0.614073 0.713559 0.233986
Si Si2 0.701725 0.211603 0.888861
Si Si3 0.917730 0.286238 0.153831
Si Si4 0.059872 0.703018 0.530398
Si Si5 0.736448 0.288449 0.390388
Si Si6 0.943599 0.291764 0.988340
Si Si7 0.461576 0.291474 0.677233
Si Si8 0.318584 0.216929 0.316814
O O1 0.612961 0.500000 0.233897
O O2 0.674781 0.777461 0.314655
O O3 0.600641 0.770948 0.126174
O O4 0.568233 0.773434 0.262520
O O5 0.641342 0.278127 0.864889
O O6 0.709255 0.271276 0.797722
O O7 0.698243 0.000000 0.881984
O O8 0.750000 0.250000 0.000000
O O9 0.915235 0.500000 0.151327
O O10 0.972430 0.237728 0.256233
O O11 0.927044 0.219835 0.065449
O O12 0.057628 0.500000 0.559841
O O13 0.062564 0.705934 0.429958
O O14 0.117299 0.777717 0.618791
O O15 0.000000 0.785488 0.500000
O O16 0.734852 0.500000 0.378618
O O17 0.750000 0.250000 0.500000
O O18 0.782528 0.222428 0.365176
O O19 0.953406 0.500000 0.011283
O O20 0.000000 0.212880 0.000000
O O21 0.450852 0.500000 0.660589
O O22 0.320214 0.000000 0.320898
#
# Coordination Sequence:
#
# PCOD9196237 Si02
#       8
#     8   8   8   8   8   8   8   8
#     4  10  22  36  53  80 114 148 184 228 287 346
#     4  10  22  40  61  85 114 149 192 237 281 334
#     4  10  21  38  58  81 114 151 190 236 280 332
#     4  10  20  36  60  84 107 143 188 230 279 336
#     4  10  21  38  58  82 112 149 189 231 280 336
#     4  10  20  35  56  83 112 146 190 236 280 332
#     4  11  22  35  54  84 116 145 180 229 287 343
#     4   9  19  37  59  82 110 148 191 229 275 340
#
# _framework density 22.455248000000001
#
# number of rings (size 3 to 8) (size 9 to 14) (size 15 to 20)
#    0.000    2.000    1.250    1.875    1.750    4.500 
#    0.000    1.250    0.000    0.000    0.000    0.000 
#    0.000    0.000    0.000    0.000    0.000    0.000 
#
# Total GULP energy -178840.986652 kJ/mol
# GULP energy per Si atom -5588.780833 kJ/mol
# Density = 2.240414 g / cm^3
# Si number density = 22.455248 Si / 1000 Ang^3
#
#
#
# Elastic Constant Matrix: (Units=GPa)
#
#
# Indices 1 2 3 4 5 6 
#
# 1 123.0030 6.5819 53.9874 0.0000 5.1578 0.0000
# 2 6.5819 52.7193 -14.1691 0.0000 -2.2586 0.0000
# 3 53.9874 -14.1691 157.5695 0.0000 5.4716 0.0000
# 4 0.0000 0.0000 0.0000 12.3591 0.0000 -7.9547
# 5 5.1578 -2.2586 5.4716 0.0000 43.1422 0.0000
# 6 0.0000 0.0000 0.0000 -7.9547 0.0000 -1.9695
#
#
#
# Elastic Compliance Matrix: (Units=1/GPa)
#
#
# Indices 1 2 3 4 5 6 
#
# 1 0.009838 -0.002216 -0.003541 0.000000 -0.000843 0.000000
# 2 -0.002216 0.019965 0.002520 0.000000 0.000991 0.000000
# 3 -0.003541 0.002520 0.007801 0.000000 -0.000434 0.000000
# 4 0.000000 0.000000 0.000000 0.022478 0.000000 -0.090788
# 5 -0.000843 0.000991 -0.000434 0.000000 0.023387 0.000000
# 6 0.000000 0.000000 0.000000 -0.090788 0.000000 -0.141056
#
#
# Mechanical properties :
#
#
# Convention : Reuss Voigt Hill
#
# Bulk Modulus (GPa) = 32.12245 47.34357 39.73301
# Shear Modulus (GPa) = -122.73698 29.83247 -46.45226
#
# Velocity S-wave (km/s) = -7.40116 3.64885 -4.55319
# Velocity P-wave (km/s) = 7.66160 6.23550 3.14790
#
# Compressibility (1/GPa) = 0.03113088
#
# Stress axis : x y z
#
# Youngs Moduli (GPa) = 101.64800 50.08810 128.18480
#
# Poissons Ratio (x) = 0.11099 0.45386
# Poissons Ratio (y) = 0.22525 -0.32304
# Poissons Ratio (z) = 0.35991 -0.12623
#
# Static dielectric constant tensor:
#      x y z
#    x 1.833100 0.000000 -0.004330 
#    y 0.000000 1.861400 0.000000 
#    z -0.004330 0.000000 1.817530 
# 
# From -- ./inp_files/249924.got.cif
#   From: 2010.05.17/outbox.cif.g08.bks.cpg/sg12_125_cif.got.tgz:249924.got - 2010.06.03 13:09:07.
