data_PCOD9196803
_publ_section_title
;
Structure prediction by ZEFSAII (Michael W. Deem and Ramdas Pophale) SiO2 
 PCOD9196803
Probable space group: C 2/M
;
_chemical_formula_sum "Si O2"
_cell_formula_units_Z 64
_cell_length_a 16.350707
_cell_length_b 14.114681
_cell_length_c 22.634099
_cell_angle_alpha 90.000000
_cell_angle_beta 31.368914
_cell_angle_gamma 90.000000
_cell_volume 2719.132125
_symmetry_space_group_name_H-M "C 2/M"
_symmetry_group_IT_number 12
_symmetry_cell_setting 'monoclinic'
loop_
_space_group_symop_operation_xyz
x,y,z
-x,y,-z
-x,-y,-z
x,-y,z
1/2+x,1/2+y,z
1/2-x,1/2+y,-z
1/2-x,1/2-y,-z
1/2+x,1/2-y,z
loop_
_atom_site_type_symbol
_atom_site_label
_atom_site_fract_x
_atom_site_fract_y
_atom_site_fract_z
Si Si1 0.133646 0.701015 0.826315
Si Si2 0.336213 0.613442 0.800278
Si Si3 0.165456 0.849199 0.540190
Si Si4 0.238073 0.303958 0.637594
Si Si5 0.867873 0.602671 0.518623
Si Si6 0.710151 0.109417 0.252908
Si Si7 0.697538 0.113593 0.003932
Si Si8 0.404189 0.112915 0.809701
O O1 0.195684 0.657513 0.848904
O O2 0.240698 0.668050 0.704393
O O3 0.159286 0.813846 0.811443
O O4 0.960216 0.665970 0.919325
O O5 0.330874 0.500000 0.798544
O O6 0.494699 0.648108 0.672646
O O7 0.327147 0.638461 0.875235
O O8 0.250000 0.750000 0.500000
O O9 0.162248 0.862475 0.472029
O O10 0.279608 0.909060 0.510606
O O11 0.291433 0.194191 0.596984
O O12 0.060230 0.326429 0.725990
O O13 0.849043 0.500000 0.560776
O O14 0.049902 0.621195 0.390009
O O15 0.662545 0.129309 0.214080
O O16 0.760027 0.000000 0.226779
O O17 0.715813 0.133027 0.062228
O O18 0.672739 0.000000 0.014053
O O19 0.444759 0.000000 0.787772
#
# Coordination Sequence:
#
# PCOD9196803 Si02
#       8
#     8   8   8   8   8   8   8   8
#     4  11  22  37  60  89 126 164 204 252 311 365
#     4  11  23  38  62  94 124 159 203 249 308 374
#     4  10  20  36  59  86 123 157 194 246 302 359
#     4  10  21  35  58  88 124 163 202 248 302 373
#     4  10  20  35  57  86 125 164 198 251 311 365
#     4  10  21  37  61  91 122 164 213 255 306 364
#     4   9  20  41  66  90 122 161 204 255 311 372
#     4   9  18  36  63  90 120 160 206 256 310 365
#
# _framework density 23.536923000000002
#
# number of rings (size 3 to 8) (size 9 to 14) (size 15 to 20)
#    0.000    2.000    1.250    2.625    1.750    4.500 
#    0.000    2.500    5.500    1.500    0.000    0.000 
#    0.000    0.000    0.000    0.000    0.000    0.000 
#
# Total GULP energy -178835.678880 kJ/mol
# GULP energy per Si atom -5588.614965 kJ/mol
# Density = 2.348335 g / cm^3
# Si number density = 23.536923 Si / 1000 Ang^3
#
#
#
# Elastic Constant Matrix: (Units=GPa)
#
#
# Indices 1 2 3 4 5 6 
#
# 1 62.3981 22.8638 17.0700 0.0000 25.5086 -0.0001
# 2 22.8638 70.3802 24.8763 -0.0001 2.6914 0.0004
# 3 17.0700 24.8763 110.7562 0.0006 36.6543 0.0001
# 4 0.0000 -0.0001 0.0006 42.8400 0.0005 -3.6211
# 5 25.5086 2.6914 36.6543 0.0005 36.7940 -0.0001
# 6 -0.0001 0.0004 0.0001 -3.6211 -0.0001 28.2771
#
#
#
# Elastic Compliance Matrix: (Units=1/GPa)
#
#
# Indices 1 2 3 4 5 6 
#
# 1 0.028497 -0.010534 0.006351 0.000000 -0.025313 0.000000
# 2 -0.010534 0.019630 -0.007052 0.000000 0.012893 0.000000
# 3 0.006351 -0.007052 0.016292 0.000000 -0.020117 0.000000
# 4 0.000000 0.000000 0.000000 0.023598 0.000000 0.003022
# 5 -0.025313 0.012893 -0.020117 0.000000 0.063825 0.000000
# 6 0.000000 0.000000 0.000000 0.003022 0.000000 0.035751
#
#
# Mechanical properties :
#
#
# Convention : Reuss Voigt Hill
#
# Bulk Modulus (GPa) = 23.83918 41.46163 32.65041
# Shear Modulus (GPa) = 22.31678 33.49717 27.90697
#
# Velocity S-wave (km/s) = 3.08256 3.77659 3.44709
# Velocity P-wave (km/s) = 4.77703 6.05563 5.45393
#
# Compressibility (1/GPa) = 0.04194776
#
# Stress axis : x y z
#
# Youngs Moduli (GPa) = 35.09190 50.94132 61.38109
#
# Poissons Ratio (x) = 0.53663 -0.38985
# Poissons Ratio (y) = 0.36967 0.43288
# Poissons Ratio (z) = -0.22288 0.35926
#
# Static dielectric constant tensor:
#      x y z
#    x 1.891110 0.000000 0.074320 
#    y 0.000000 1.911770 0.000000 
#    z 0.074320 0.000000 1.890230 
# 
# From -- ./inp_files/344050.got.cif
#   From: 2010.05.17/outbox.cif.g08.bks.cpg/sg12_173_cif.got.tgz:344050.got - 2010.06.03 13:09:07.
