data_PCOD9196359
_publ_section_title
;
Structure prediction by ZEFSAII (Michael W. Deem and Ramdas Pophale) SiO2 
 PCOD9196359
Probable space group: C 2/M
;
_chemical_formula_sum "Si O2"
_cell_formula_units_Z 56
_cell_length_a 20.743959
_cell_length_b 7.704422
_cell_length_c 32.895525
_cell_angle_alpha 90.000000
_cell_angle_beta 34.879628
_cell_angle_gamma 90.000000
_cell_volume 3006.449162
_symmetry_space_group_name_H-M "C 2/M"
_symmetry_group_IT_number 12
_symmetry_cell_setting 'monoclinic'
loop_
_space_group_symop_operation_xyz
x,y,z
-x,y,-z
-x,-y,-z
x,-y,z
1/2+x,1/2+y,z
1/2-x,1/2+y,-z
1/2-x,1/2-y,-z
1/2+x,1/2-y,z
loop_
_atom_site_type_symbol
_atom_site_label
_atom_site_fract_x
_atom_site_fract_y
_atom_site_fract_z
Si Si1 0.813368 0.500000 0.585543
Si Si2 0.624883 0.207282 0.793503
Si Si3 0.184469 0.210617 0.908154
Si Si4 0.856471 0.301644 0.308422
Si Si5 0.429139 0.298286 0.754506
Si Si6 0.621362 0.290237 0.312819
Si Si7 0.504346 0.705936 0.934832
Si Si8 0.475241 0.000000 0.580520
O O1 0.735020 0.670152 0.626336
O O2 0.886025 0.500000 0.589537
O O3 0.901642 0.500000 0.503078
O O4 0.613991 0.263208 0.752511
O O5 0.748301 0.259223 0.746010
O O6 0.530714 0.262323 0.874386
O O7 0.622429 0.000000 0.794600
O O8 0.310633 0.276423 0.838836
O O9 0.108675 0.270379 0.908733
O O10 0.190769 0.000000 0.904240
O O11 0.112337 0.268125 0.984821
O O12 0.813252 0.500000 0.327856
O O13 0.969402 0.299923 0.276519
O O14 0.461003 0.500000 0.738437
O O15 0.408241 0.248486 0.718473
O O16 0.609709 0.500000 0.324997
O O17 0.547846 0.171435 0.380668
O O18 0.503343 0.500000 0.941589
#
# Coordination Sequence:
#
# PCOD9196359 Si02
#       8
#     4   8   8   8   8   8   8   4
#     4  11  24  44  64 100 121 150 208 237 297 381
#     4  10  20  35  56  85 115 154 201 246 297 353
#     4   9  18  32  49  83 119 156 200 247 306 354
#     4  11  24  42  63  87 124 164 197 250 304 354
#     4  11  22  37  61  88 120 159 211 251 293 363
#     4  10  22  38  60  95 122 152 205 250 293 357
#     4   9  18  30  52  81 118 157 198 251 303 350
#     4  11  24  40  72  94 122 158 187 254 305 351
#
# _framework density 18.626626000000002
#
# number of rings (size 3 to 8) (size 9 to 14) (size 15 to 20)
#    0.000    1.857    3.571    1.286    4.000    1.143 
#    0.000    4.286    0.000    0.000    0.000    0.000 
#    0.000    0.000    0.000    0.000    0.000    0.000 
#
# Total GULP energy -156251.975792 kJ/mol
# GULP energy per Si atom -5580.427707 kJ/mol
# Density = 1.858423 g / cm^3
# Si number density = 18.626626 Si / 1000 Ang^3
#
#
#
# Elastic Constant Matrix: (Units=GPa)
#
#
# Indices 1 2 3 4 5 6 
#
# 1 90.9305 24.9540 51.0621 -0.0165 3.8536 0.0385
# 2 24.9540 60.7365 41.8264 -0.1152 1.7049 0.0169
# 3 51.0621 41.8264 153.0155 0.0067 7.5798 0.0093
# 4 -0.0165 -0.1152 0.0067 -12.2907 -0.0065 -3.6474
# 5 3.8536 1.7049 7.5798 -0.0065 23.5003 0.0033
# 6 0.0385 0.0169 0.0093 -3.6474 0.0033 20.9174
#
#
#
# Elastic Compliance Matrix: (Units=1/GPa)
#
#
# Indices 1 2 3 4 5 6 
#
# 1 0.014015 -0.003132 -0.003778 0.000015 -0.000852 -0.000019
# 2 -0.003132 0.020985 -0.004716 -0.000183 0.000512 -0.000041
# 3 -0.003778 -0.004716 0.009184 0.000051 -0.002001 0.000016
# 4 0.000015 -0.000183 0.000051 -0.077358 -0.000025 -0.013489
# 5 -0.000852 0.000512 -0.002001 -0.000025 0.043301 -0.000009
# 6 -0.000019 -0.000041 0.000016 -0.013489 -0.000009 0.045455
#
#
# Mechanical properties :
#
#
# Convention : Reuss Voigt Hill
#
# Bulk Modulus (GPa) = 47.77773 60.04082 53.90928
# Shear Modulus (GPa) = 58.26697 18.88141 38.57419
#
# Velocity S-wave (km/s) = 5.59906 3.18729 4.55567
# Velocity P-wave (km/s) = 8.21615 6.77118 7.52842
#
# Compressibility (1/GPa) = 0.02093025
#
# Stress axis : x y z
#
# Youngs Moduli (GPa) = 71.35269 47.65416 108.87967
#
# Poissons Ratio (x) = 0.14926 0.41140
# Poissons Ratio (y) = 0.22348 0.51350
# Poissons Ratio (z) = 0.26960 0.22475
#
# Static dielectric constant tensor:
#      x y z
#    x 1.639530 0.000000 0.016560 
#    y 0.000000 1.672280 -0.000020 
#    z 0.016560 -0.000020 1.635570 
# 
# From -- ./inp_files/380694.got.cif
#   From: 2010.05.17/outbox.cif.g08.bks.cpg/sg12_191_cif.got.tgz:380694.got - 2010.06.03 13:09:07.
