data_PCOD9196241
_publ_section_title
;
Structure prediction by ZEFSAII (Michael W. Deem and Ramdas Pophale) SiO2 
 PCOD9196241
Probable space group: C 2/M
;
_chemical_formula_sum "Si O2"
_cell_formula_units_Z 56
_cell_length_a 29.446123
_cell_length_b 9.110399
_cell_length_c 19.300769
_cell_angle_alpha 90.000000
_cell_angle_beta 146.097880
_cell_angle_gamma 90.000000
_cell_volume 2888.017469
_symmetry_space_group_name_H-M "C 2/M"
_symmetry_group_IT_number 12
_symmetry_cell_setting 'monoclinic'
loop_
_space_group_symop_operation_xyz
x,y,z
-x,y,-z
-x,-y,-z
x,-y,z
1/2+x,1/2+y,z
1/2-x,1/2+y,-z
1/2-x,1/2-y,-z
1/2+x,1/2-y,z
loop_
_atom_site_type_symbol
_atom_site_label
_atom_site_fract_x
_atom_site_fract_y
_atom_site_fract_z
Si Si1 0.178836 0.676023 0.865713
Si Si2 0.260601 0.174846 0.208447
Si Si3 0.166502 0.673561 0.548945
Si Si4 0.030973 0.174122 0.183132
Si Si5 0.181251 0.669790 0.316493
Si Si6 0.894746 0.670056 0.934097
Si Si7 0.512713 0.824124 0.731239
O O1 0.186055 0.500000 0.881206
O O2 0.191721 0.711976 0.801181
O O3 0.090747 0.717177 0.784311
O O4 0.250000 0.750000 0.000000
O O5 0.311481 0.203151 0.342880
O O6 0.177878 0.266828 0.110442
O O7 0.241234 0.000000 0.182893
O O8 0.180048 0.500000 0.554086
O O9 0.229757 0.762291 0.581646
O O10 0.072897 0.706501 0.414845
O O11 0.121155 0.240664 0.289670
O O12 0.990196 0.237285 0.200803
O O13 0.033546 0.000000 0.186039
O O14 0.974258 0.234938 0.049653
O O15 0.185087 0.500000 0.342332
O O16 0.139099 0.678511 0.186885
O O17 0.912684 0.500000 0.972278
O O18 0.516339 0.000000 0.749180
#
# Coordination Sequence:
#
# PCOD9196241 Si02
#       7
#     8   8   8   8   8   8   8
#     4  10  21  36  56  83 113 145 181 222 270 324
#     4   9  18  34  57  84 112 143 181 226 273 320
#     4   9  19  37  59  82 109 142 183 228 272 321
#     4  12  24  36  54  80 110 146 186 229 276 323
#     4  10  21  37  58  82 110 144 181 224 274 329
#     4  10  20  35  56  83 113 144 180 223 274 330
#     4  10  22  39  57  79 110 147 185 226 272 324
#
# _framework density 19.390464999999999
#
# number of rings (size 3 to 8) (size 9 to 14) (size 15 to 20)
#    0.000    2.000    0.000    3.429    0.000    8.571 
#    0.000    2.857    0.000    0.000    0.000    6.000 
#    0.000    0.000    0.000    0.000    0.000    0.000 
#
# Total GULP energy -156480.907234 kJ/mol
# GULP energy per Si atom -5588.603830 kJ/mol
# Density = 1.934633 g / cm^3
# Si number density = 19.390465 Si / 1000 Ang^3
#
#
#
# Elastic Constant Matrix: (Units=GPa)
#
#
# Indices 1 2 3 4 5 6 
#
# 1 97.7428 44.3777 22.5018 0.0000 28.7996 0.0000
# 2 44.3777 71.6914 42.7470 0.0000 15.2034 0.0000
# 3 22.5018 42.7470 92.2752 0.0000 23.3621 0.0000
# 4 0.0000 0.0000 0.0000 26.3434 0.0000 3.8668
# 5 28.7996 15.2034 23.3621 0.0000 31.8396 0.0000
# 6 0.0000 0.0000 0.0000 3.8668 0.0000 24.3901
#
#
#
# Elastic Compliance Matrix: (Units=1/GPa)
#
#
# Indices 1 2 3 4 5 6 
#
# 1 0.018514 -0.010877 0.004236 0.000000 -0.014660 0.000000
# 2 -0.010877 0.025941 -0.010709 0.000000 0.005309 0.000000
# 3 0.004236 -0.010709 0.017735 0.000000 -0.011731 0.000000
# 4 0.000000 0.000000 0.000000 0.038865 0.000000 -0.006162
# 5 -0.014660 0.005309 -0.011731 0.000000 0.050740 0.000000
# 6 0.000000 0.000000 0.000000 -0.006162 0.000000 0.041977
#
#
# Mechanical properties :
#
#
# Convention : Reuss Voigt Hill
#
# Bulk Modulus (GPa) = 36.37728 53.44028 44.90878
# Shear Modulus (GPa) = 21.04058 26.65348 23.84703
#
# Velocity S-wave (km/s) = 3.29766 3.71154 3.51070
# Velocity P-wave (km/s) = 5.77066 6.78139 6.29634
#
# Compressibility (1/GPa) = 0.02748969
#
# Stress axis : x y z
#
# Youngs Moduli (GPa) = 54.01379 38.54883 56.38471
#
# Poissons Ratio (x) = 0.41929 -0.23883
# Poissons Ratio (y) = 0.58750 0.60383
# Poissons Ratio (z) = -0.22879 0.41283
#
# Static dielectric constant tensor:
#      x y z
#    x 1.675950 0.000000 -0.020860 
#    y 0.000000 1.648320 0.000000 
#    z -0.020860 0.000000 1.681900 
# 
# From -- ./inp_files/288256.got.cif
#   From: 2010.05.17/outbox.cif.g08.bks.cpg/sg12_145_cif.got.tgz:288256.got - 2010.06.03 13:09:07.
