data_PCOD9196675
_publ_section_title
;
Structure prediction by ZEFSAII (Michael W. Deem and Ramdas Pophale) SiO2 
 PCOD9196675
Probable space group: C 2/M
;
_chemical_formula_sum "Si O2"
_cell_formula_units_Z 50
_cell_length_a 27.073303
_cell_length_b 12.909393
_cell_length_c 10.492147
_cell_angle_alpha 90.000000
_cell_angle_beta 136.038699
_cell_angle_gamma 90.000000
_cell_volume 2545.533079
_symmetry_space_group_name_H-M "C 2/M"
_symmetry_group_IT_number 12
_symmetry_cell_setting 'monoclinic'
loop_
_space_group_symop_operation_xyz
x,y,z
-x,y,-z
-x,-y,-z
x,-y,z
1/2+x,1/2+y,z
1/2-x,1/2+y,-z
1/2-x,1/2-y,-z
1/2+x,1/2-y,z
loop_
_atom_site_type_symbol
_atom_site_label
_atom_site_fract_x
_atom_site_fract_y
_atom_site_fract_z
Si Si1 0.979933 0.614220 0.813517
Si Si2 0.361950 0.380476 0.118237
Si Si3 0.000000 0.000000 0.000000
Si Si4 0.000298 0.840195 0.235169
Si Si5 0.782594 0.234191 0.745044
Si Si6 0.325604 0.883585 0.617683
Si Si7 0.840371 0.878031 0.371548
O O1 0.001229 0.500000 0.802636
O O2 0.894081 0.621696 0.654018
O O3 0.009299 0.717425 0.804853
O O4 0.000000 0.615455 0.000000
O O5 0.339747 0.500000 0.060960
O O6 0.445692 0.373296 0.243470
O O7 0.344839 0.349467 0.230714
O O8 0.322650 0.311651 0.939987
O O9 0.985315 0.091083 0.082028
O O10 0.082035 0.860996 0.423741
O O11 0.745154 0.144921 0.591704
O O12 0.832023 0.300168 0.741993
O O13 0.719100 0.310205 0.669935
O O14 0.322110 0.000000 0.662843
O O15 0.823427 0.000000 0.350890
#
# Coordination Sequence:
#
# PCOD9196675 Si02
#       7
#     8   8   2   8   8   8   8
#     4  10  20  35  57  84 121 161 197 243 311 377
#     4  11  24  41  62  89 122 167 212 257 309 372
#     4  12  24  32  68 100 128 156 196 266 328 388
#     4  12  22  40  62  96 128 157 207 262 316 374
#     4  11  22  38  60  88 121 162 202 255 304 377
#     4  10  21  36  57  87 121 155 194 252 316 364
#     4  11  23  41  63  88 124 167 209 257 311 369
#
# _framework density 19.642251999999999
#
# number of rings (size 3 to 8) (size 9 to 14) (size 15 to 20)
#    0.000    1.120    4.000    2.880    0.000    1.280 
#    2.880    0.800    0.000    4.800    0.000    0.000 
#    0.000    0.000    0.000    0.000    0.000    0.000 
#
# Total GULP energy -139421.929902 kJ/mol
# GULP energy per Si atom -5576.877196 kJ/mol
# Density = 1.959755 g / cm^3
# Si number density = 19.642252 Si / 1000 Ang^3
#
#
#
# Elastic Constant Matrix: (Units=GPa)
#
#
# Indices 1 2 3 4 5 6 
#
# 1 41.9581 3.3919 -2.3940 0.0000 -2.4131 0.0000
# 2 3.3919 98.4210 9.1714 0.0000 -5.1859 0.0000
# 3 -2.3940 9.1714 26.1671 0.0000 4.8119 0.0000
# 4 0.0000 0.0000 0.0000 19.0686 0.0000 -7.8884
# 5 -2.4131 -5.1859 4.8119 0.0000 25.8565 0.0000
# 6 0.0000 0.0000 0.0000 -7.8884 0.0000 26.0862
#
#
#
# Elastic Compliance Matrix: (Units=1/GPa)
#
#
# Indices 1 2 3 4 5 6 
#
# 1 0.024133 -0.000954 0.002240 0.000000 0.001644 0.000000
# 2 -0.000954 0.010754 -0.004387 0.000000 0.002884 0.000000
# 3 0.002240 -0.004387 0.041502 0.000000 -0.008394 0.000000
# 4 0.000000 0.000000 0.000000 0.059941 0.000000 0.018126
# 5 0.001644 0.002884 -0.008394 0.000000 0.040969 0.000000
# 6 0.000000 0.000000 0.000000 0.018126 0.000000 0.043816
#
#
# Mechanical properties :
#
#
# Convention : Reuss Voigt Hill
#
# Bulk Modulus (GPa) = 14.24759 20.76497 17.50628
# Shear Modulus (GPa) = 19.94321 24.62739 22.28530
#
# Velocity S-wave (km/s) = 3.18987 3.54474 3.37198
# Velocity P-wave (km/s) = 4.56468 5.22954 4.90838
#
# Compressibility (1/GPa) = 0.07018729
#
# Stress axis : x y z
#
# Youngs Moduli (GPa) = 41.43742 92.98804 24.09518
#
# Poissons Ratio (x) = 0.08869 -0.05397
# Poissons Ratio (y) = 0.03952 0.10570
# Poissons Ratio (z) = -0.09281 0.40793
#
# Static dielectric constant tensor:
#      x y z
#    x 1.670160 0.000000 0.024620 
#    y 0.000000 1.693860 0.000000 
#    z 0.024620 0.000000 1.701110 
# 
# From -- ./inp_files/188774.got.cif
#   From: 2010.05.17/outbox.cif.g08.bks.cpg/sg12_95_cif.got.tgz:188774.got - 2010.06.03 13:09:07.
