data_PCOD9196114
_publ_section_title
;
Structure prediction by ZEFSAII (Michael W. Deem and Ramdas Pophale) SiO2 
 PCOD9196114
Probable space group: C 2/M
;
_chemical_formula_sum "Si O2"
_cell_formula_units_Z 58
_cell_length_a 8.031753
_cell_length_b 11.767708
_cell_length_c 28.327719
_cell_angle_alpha 90.000000
_cell_angle_beta 86.896400
_cell_angle_gamma 90.000000
_cell_volume 2673.476514
_symmetry_space_group_name_H-M "C 2/M"
_symmetry_group_IT_number 12
_symmetry_cell_setting 'monoclinic'
loop_
_space_group_symop_operation_xyz
x,y,z
-x,y,-z
-x,-y,-z
x,-y,z
1/2+x,1/2+y,z
1/2-x,1/2+y,-z
1/2-x,1/2-y,-z
1/2+x,1/2-y,z
loop_
_atom_site_type_symbol
_atom_site_label
_atom_site_fract_x
_atom_site_fract_y
_atom_site_fract_z
Si Si1 0.000000 0.500000 0.000000
Si Si2 0.638527 0.629268 0.457076
Si Si3 0.324590 0.195432 0.729156
Si Si4 0.482202 0.375890 0.896297
Si Si5 0.853878 0.622690 0.327889
Si Si6 0.000964 0.370548 0.568676
Si Si7 0.294848 0.186118 0.951066
Si Si8 0.504264 0.623681 0.787082
O O1 0.064912 0.597827 0.036221
O O2 0.500000 0.626255 0.500000
O O3 0.622180 0.500000 0.434548
O O4 0.834946 0.634328 0.467831
O O5 0.602029 0.752713 0.433489
O O6 0.261189 0.275017 0.687375
O O7 0.482459 0.127987 0.707627
O O8 0.386010 0.278741 0.769588
O O9 0.169559 0.128364 0.752643
O O10 0.399843 0.500000 0.901757
O O11 0.358558 0.277056 0.912530
O O12 0.632851 0.370860 0.931031
O O13 0.543221 0.361912 0.841736
O O14 0.770195 0.500000 0.323177
O O15 0.915796 0.632762 0.380474
O O16 0.925850 0.500000 0.565293
O O17 0.250000 0.250000 0.000000
O O18 0.423445 0.500000 0.783047
#
# Coordination Sequence:
#
# PCOD9196114 Si02
#       8
#     2   8   8   8   8   8   8   8
#     4  12  24  40  60  84 116 144 186 226 272 324
#     4  10  21  37  56  80 114 153 193 239 289 342
#     4  10  20  36  58  80 111 143 182 221 276 332
#     4  11  24  39  61  84 114 146 182 227 274 320
#     4  10  20  35  56  81 110 145 181 231 280 330
#     4  10  21  36  55  83 114 146 193 238 285 341
#     4  12  24  40  60  85 113 146 185 225 271 327
#     4  10  21  38  57  83 110 143 181 223 268 328
#
# _framework density 21.694599
#
# number of rings (size 3 to 8) (size 9 to 14) (size 15 to 20)
#    0.000    1.517    2.069    2.897    0.966    1.379 
#    0.000    3.448    1.517    0.000    0.000    0.000 
#    0.000    0.000    0.000    0.000    0.000    0.000 
#
# Total GULP energy -161573.844040 kJ/mol
# GULP energy per Si atom -5571.511863 kJ/mol
# Density = 2.164522 g / cm^3
# Si number density = 21.694599 Si / 1000 Ang^3
#
#
#
# Elastic Constant Matrix: (Units=GPa)
#
#
# Indices 1 2 3 4 5 6 
#
# 1 28.8397 24.4127 -17.0880 0.0000 -2.5947 0.0000
# 2 24.4127 173.2059 32.1912 0.0000 5.7246 0.0000
# 3 -17.0880 32.1912 67.2456 0.0000 3.7429 0.0000
# 4 0.0000 0.0000 0.0000 20.9637 0.0000 16.4279
# 5 -2.5947 5.7246 3.7429 0.0000 30.2546 0.0000
# 6 0.0000 0.0000 0.0000 16.4279 0.0000 -34.9628
#
#
#
# Elastic Compliance Matrix: (Units=1/GPa)
#
#
# Indices 1 2 3 4 5 6 
#
# 1 0.056935 -0.011876 0.019893 0.000000 0.004669 0.000000
# 2 -0.011876 0.008835 -0.007147 0.000000 -0.001806 0.000000
# 3 0.019893 -0.007147 0.023338 0.000000 0.000171 0.000000
# 4 0.000000 0.000000 0.000000 0.034864 0.000000 0.016382
# 5 0.004669 -0.001806 0.000171 0.000000 0.033774 0.000000
# 6 0.000000 0.000000 0.000000 0.016382 0.000000 -0.020905
#
#
# Mechanical properties :
#
#
# Convention : Reuss Voigt Hill
#
# Bulk Modulus (GPa) = 11.00740 38.70256 24.85498
# Shear Modulus (GPa) = 30.23264 18.56946 24.40105
#
# Velocity S-wave (km/s) = 3.73709 2.92883 3.35737
# Velocity P-wave (km/s) = 4.86887 5.41441 5.14887
#
# Compressibility (1/GPa) = 0.09084799
#
# Stress axis : x y z
#
# Youngs Moduli (GPa) = 17.56394 113.18118 42.84896
#
# Poissons Ratio (x) = 1.34418 -0.85241
# Poissons Ratio (y) = 0.20859 0.30624
# Poissons Ratio (z) = -0.34940 0.80890
#
# Static dielectric constant tensor:
#      x y z
#    x 1.772790 0.000000 -0.015900 
#    y 0.000000 1.795600 0.000000 
#    z -0.015900 0.000000 1.748650 
# 
# From -- ./inp_files/355815.got.cif
#   From: 2010.05.17/outbox.cif.g08.bks.cpg/sg12_178_cif.got.tgz:355815.got - 2010.06.03 13:09:07.
