data_PCOD9196872
_publ_section_title
;
Structure prediction by ZEFSAII (Michael W. Deem and Ramdas Pophale) SiO2 
 PCOD9196872
Probable space group: C 2/M
;
_chemical_formula_sum "Si O2"
_cell_formula_units_Z 56
_cell_length_a 9.534930
_cell_length_b 19.116964
_cell_length_c 30.779142
_cell_angle_alpha 90.000000
_cell_angle_beta 149.223094
_cell_angle_gamma 90.000000
_cell_volume 2870.816783
_symmetry_space_group_name_H-M "C 2/M"
_symmetry_group_IT_number 12
_symmetry_cell_setting 'monoclinic'
loop_
_space_group_symop_operation_xyz
x,y,z
-x,y,-z
-x,-y,-z
x,-y,z
1/2+x,1/2+y,z
1/2-x,1/2+y,-z
1/2-x,1/2-y,-z
1/2+x,1/2-y,z
loop_
_atom_site_type_symbol
_atom_site_label
_atom_site_fract_x
_atom_site_fract_y
_atom_site_fract_z
Si Si1 0.817896 0.808375 0.573041
Si Si2 0.213496 0.418464 0.715111
Si Si3 0.728741 0.180044 0.798491
Si Si4 0.837716 0.416807 0.852630
Si Si5 0.266860 0.148814 0.541405
Si Si6 0.303783 0.821945 0.764252
Si Si7 0.805603 0.321877 0.989279
O O1 0.500000 0.808010 0.500000
O O2 0.838030 0.855328 0.535647
O O3 0.887448 0.727719 0.579609
O O4 0.009401 0.831219 0.663172
O O5 0.205588 0.500000 0.724137
O O6 0.129909 0.371288 0.734025
O O7 0.524661 0.400348 0.784007
O O8 0.004386 0.402205 0.620437
O O9 0.515919 0.188306 0.781189
O O10 0.789281 0.254008 0.791304
O O11 0.014002 0.152155 0.893892
O O12 0.874611 0.500000 0.864152
O O13 0.876855 0.386193 0.814826
O O14 0.043138 0.376720 0.939398
O O15 0.000000 0.141139 0.500000
O O16 0.750000 0.250000 0.000000
O O17 0.000000 0.307527 0.000000
#
# Coordination Sequence:
#
# PCOD9196872 Si02
#       7
#     8   8   8   8   8   8   8
#     4  10  21  34  61  92 127 163 214 266 318 373
#     4  11  23  42  65  92 132 175 217 265 325 387
#     4  12  24  40  66  99 126 167 220 265 326 377
#     4  11  26  45  66  94 131 175 215 263 324 387
#     4  10  20  35  57  92 125 163 214 265 319 376
#     4  12  24  41  68  95 134 169 215 275 314 388
#     4  12  24  42  69 100 128 162 213 268 318 385
#
# _framework density 19.506644000000001
#
# number of rings (size 3 to 8) (size 9 to 14) (size 15 to 20)
#    0.000    0.857    4.286    3.429    4.000    1.714 
#    0.000    1.429    0.000    2.571    0.000    0.000 
#    0.000    0.000    0.000    0.000    0.000    0.000 
#
# Total GULP energy -156572.329548 kJ/mol
# GULP energy per Si atom -5591.868912 kJ/mol
# Density = 1.946225 g / cm^3
# Si number density = 19.506644 Si / 1000 Ang^3
#
#
#
# Elastic Constant Matrix: (Units=GPa)
#
#
# Indices 1 2 3 4 5 6 
#
# 1 123.9769 43.1199 30.4464 0.0002 -1.4519 0.0012
# 2 43.1199 81.4542 32.7841 -0.0003 -4.4582 0.0006
# 3 30.4464 32.7841 132.7854 0.0022 -10.4718 0.0014
# 4 0.0002 -0.0003 0.0022 29.4478 0.0013 -2.7906
# 5 -1.4519 -4.4582 -10.4718 0.0013 31.2609 0.0020
# 6 0.0012 0.0006 0.0014 -2.7906 0.0020 13.0019
#
#
#
# Elastic Compliance Matrix: (Units=1/GPa)
#
#
# Indices 1 2 3 4 5 6 
#
# 1 0.010040 -0.004888 -0.001144 0.000000 -0.000614 0.000000
# 2 -0.004888 0.016033 -0.002748 0.000000 0.001139 0.000000
# 3 -0.001144 -0.002748 0.008665 -0.000001 0.002458 -0.000001
# 4 0.000000 0.000000 -0.000001 0.034663 -0.000002 0.007440
# 5 -0.000614 0.001139 0.002458 -0.000002 0.032946 -0.000006
# 6 0.000000 0.000000 -0.000001 0.007440 -0.000006 0.078508
#
#
# Mechanical properties :
#
#
# Convention : Reuss Voigt Hill
#
# Bulk Modulus (GPa) = 58.21079 61.21301 59.71190
# Shear Modulus (GPa) = 24.49283 30.19987 27.34635
#
# Velocity S-wave (km/s) = 3.54731 3.93896 3.74826
# Velocity P-wave (km/s) = 6.83258 7.22053 7.02923
#
# Compressibility (1/GPa) = 0.01717895
#
# Stress axis : x y z
#
# Youngs Moduli (GPa) = 99.60354 62.37214 115.40139
#
# Poissons Ratio (x) = 0.30489 0.13197
# Poissons Ratio (y) = 0.48688 0.31710
# Poissons Ratio (z) = 0.11390 0.17139
#
# Static dielectric constant tensor:
#      x y z
#    x 1.671960 0.000000 -0.012000 
#    y 0.000000 1.667630 0.000000 
#    z -0.012000 0.000000 1.692480 
# 
# From -- ./inp_files/257033.got.cif
#   From: 2010.05.17/outbox.cif.g08.bks.cpg/sg12_129_cif.got.tgz:257033.got - 2010.06.03 13:09:07.
