data_PCOD9196672
_publ_section_title
;
Structure prediction by ZEFSAII (Michael W. Deem and Ramdas Pophale) SiO2 
 PCOD9196672
Probable space group: C 2/M
;
_chemical_formula_sum "Si O2"
_cell_formula_units_Z 60
_cell_length_a 33.182705
_cell_length_b 9.504065
_cell_length_c 10.393500
_cell_angle_alpha 90.000000
_cell_angle_beta 76.078016
_cell_angle_gamma 90.000000
_cell_volume 3181.516176
_symmetry_space_group_name_H-M "C 2/M"
_symmetry_group_IT_number 12
_symmetry_cell_setting 'monoclinic'
loop_
_space_group_symop_operation_xyz
x,y,z
-x,y,-z
-x,-y,-z
x,-y,z
1/2+x,1/2+y,z
1/2-x,1/2+y,-z
1/2-x,1/2-y,-z
1/2+x,1/2-y,z
loop_
_atom_site_type_symbol
_atom_site_label
_atom_site_fract_x
_atom_site_fract_y
_atom_site_fract_z
Si Si1 0.021960 0.833100 0.619980
Si Si2 0.605166 0.168795 0.625260
Si Si3 0.754464 0.844372 0.318761
Si Si4 0.685508 0.334812 0.484001
Si Si5 0.761721 0.000000 0.941957
Si Si6 0.888846 0.332185 0.072130
Si Si7 0.466674 0.664219 0.911127
Si Si8 0.199020 0.237548 0.969322
O O1 0.062647 0.738823 0.609036
O O2 0.000000 0.809538 0.500000
O O3 0.989711 0.802985 0.759984
O O4 0.032973 0.000000 0.620827
O O5 0.643994 0.244084 0.526339
O O6 0.609329 0.197134 0.775720
O O7 0.605747 0.000000 0.606243
O O8 0.718879 0.728536 0.359012
O O9 0.789526 0.819328 0.399816
O O10 0.777020 0.841362 0.165754
O O11 0.736488 0.000000 0.356735
O O12 0.677735 0.500000 0.468679
O O13 0.725138 0.122085 0.971315
O O14 0.797215 0.125704 0.920252
O O15 0.889965 0.500000 0.055966
O O16 0.846664 0.273495 0.043555
O O17 0.927794 0.260688 0.973368
O O18 0.453944 0.500000 0.918535
O O19 0.500000 0.680851 0.000000
#
# Coordination Sequence:
#
# PCOD9196672 Si02
#       8
#     8   8   8   8   4   8   8   8
#     4  10  22  43  67  90 126 166 202 251 318 385
#     4  11  22  37  61  94 123 157 205 255 314 371
#     4  10  20  35  57  84 119 154 197 249 311 357
#     4  10  21  34  56  90 118 152 197 251 300 363
#     4  10  24  38  60  80 120 158 212 246 314 380
#     4  11  23  37  63  95 125 158 209 271 311 369
#     4  10  21  38  64  99 126 160 208 263 315 374
#     4  11  21  41  60  88 115 169 207 259 311 377
#
# _framework density 18.858931999999999
#
# number of rings (size 3 to 8) (size 9 to 14) (size 15 to 20)
#    0.000    1.600    4.000    0.800    1.867    2.133 
#    0.000    2.667    2.933    0.000    0.000    0.000 
#    0.000    0.000    0.000    0.000    0.000    0.000 
#
# Total GULP energy -167006.565429 kJ/mol
# GULP energy per Si atom -5566.885514 kJ/mol
# Density = 1.881601 g / cm^3
# Si number density = 18.858932 Si / 1000 Ang^3
#
#
#
# Elastic Constant Matrix: (Units=GPa)
#
#
# Indices 1 2 3 4 5 6 
#
# 1 131.2610 80.3687 32.4307 0.0000 -12.3444 0.0000
# 2 80.3687 126.7819 25.5196 0.0000 -10.7353 0.0000
# 3 32.4307 25.5196 65.8754 0.0000 -6.9353 0.0000
# 4 0.0000 0.0000 0.0000 23.4006 0.0000 -5.7078
# 5 -12.3444 -10.7353 -6.9353 0.0000 27.7058 0.0000
# 6 0.0000 0.0000 0.0000 -5.7078 0.0000 35.3635
#
#
#
# Elastic Compliance Matrix: (Units=1/GPa)
#
#
# Indices 1 2 3 4 5 6 
#
# 1 0.013284 -0.007558 -0.003386 0.000000 0.002143 0.000000
# 2 -0.007558 0.013034 -0.001182 0.000000 0.001387 0.000000
# 3 -0.003386 -0.001182 0.017561 0.000000 0.002429 0.000000
# 4 0.000000 0.000000 0.000000 0.044485 0.000000 0.007180
# 5 0.002143 0.001387 0.002429 0.000000 0.038194 0.000000
# 6 0.000000 0.000000 0.000000 0.007180 0.000000 0.029437
#
#
# Mechanical properties :
#
#
# Convention : Reuss Voigt Hill
#
# Bulk Modulus (GPa) = 50.95350 66.72848 58.84099
# Shear Modulus (GPa) = 26.76794 29.66725 28.21760
#
# Velocity S-wave (km/s) = 3.77155 3.97055 3.87233
# Velocity P-wave (km/s) = 6.78550 7.51533 7.15972
#
# Compressibility (1/GPa) = 0.01962574
#
# Stress axis : x y z
#
# Youngs Moduli (GPa) = 75.27745 76.72183 56.94399
#
# Poissons Ratio (x) = 0.57986 0.19284
# Poissons Ratio (y) = 0.56894 0.06733
# Poissons Ratio (z) = 0.25492 0.09072
#
# Static dielectric constant tensor:
#      x y z
#    x 1.631580 0.000000 0.045460 
#    y 0.000000 1.644080 0.000000 
#    z 0.045460 0.000000 1.706950 
# 
# From -- ./inp_files/187362.got.cif
#   From: 2010.05.17/outbox.cif.g08.bks.cpg/sg12_94_cif.got.tgz:187362.got - 2010.06.03 13:09:07.
