data_PCOD9196169
_publ_section_title
;
Structure prediction by ZEFSAII (Michael W. Deem and Ramdas Pophale) SiO2 
 PCOD9196169
Probable space group: C 2/M
;
_chemical_formula_sum "Si O2"
_cell_formula_units_Z 40
_cell_length_a 14.201594
_cell_length_b 9.334637
_cell_length_c 14.901698
_cell_angle_alpha 90.000000
_cell_angle_beta 91.223027
_cell_angle_gamma 90.000000
_cell_volume 1975.019258
_symmetry_space_group_name_H-M "C 2/M"
_symmetry_group_IT_number 12
_symmetry_cell_setting 'monoclinic'
loop_
_space_group_symop_operation_xyz
x,y,z
-x,y,-z
-x,-y,-z
x,-y,z
1/2+x,1/2+y,z
1/2-x,1/2+y,-z
1/2-x,1/2-y,-z
1/2+x,1/2-y,z
loop_
_atom_site_type_symbol
_atom_site_label
_atom_site_fract_x
_atom_site_fract_y
_atom_site_fract_z
Si Si1 0.098382 0.167372 0.744645
Si Si2 0.878433 0.664209 0.431681
Si Si3 0.044999 0.829726 0.096535
Si Si4 0.181218 0.668983 0.215218
Si Si5 0.651301 0.335193 0.394350
O O1 0.081087 0.260858 0.655981
O O2 0.206386 0.188899 0.777722
O O3 0.030935 0.197726 0.826573
O O4 0.089023 0.000000 0.719994
O O5 0.908399 0.500000 0.440033
O O6 0.764390 0.663454 0.415017
O O7 0.893937 0.752653 0.522920
O O8 0.135605 0.738872 0.126552
O O9 0.066631 0.000000 0.096857
O O10 0.000000 0.793113 0.000000
O O11 0.161166 0.500000 0.220377
O O12 0.140127 0.751580 0.301032
O O13 0.620028 0.500000 0.387177
#
# Coordination Sequence:
#
# PCOD9196169 Si02
#       5
#     8   8   8   8   8
#     4   9  19  36  56  79 110 146 180 218 269 324
#     4   9  16  27  48  79 111 143 180 220 261 310
#     4  10  22  40  59  79 106 141 181 225 274 328
#     4  10  20  35  56  82 111 142 179 224 270 317
#     4   9  16  28  49  77 110 147 181 214 260 318
#
# _framework density 20.252967999999999
#
# number of rings (size 3 to 8) (size 9 to 14) (size 15 to 20)
#    0.000    2.600    0.000    1.800    0.000    7.600 
#    0.000    1.000    0.000    6.000    0.000    0.000 
#    0.000    0.000    0.000    0.000    0.000    0.000 
#
# Total GULP energy -111807.383051 kJ/mol
# GULP energy per Si atom -5590.369153 kJ/mol
# Density = 2.020687 g / cm^3
# Si number density = 20.252968 Si / 1000 Ang^3
#
#
#
# Elastic Constant Matrix: (Units=GPa)
#
#
# Indices 1 2 3 4 5 6 
#
# 1 69.8503 32.2932 36.5825 0.0000 10.5687 0.0000
# 2 32.2932 85.4376 46.8495 0.0000 10.0889 0.0000
# 3 36.5825 46.8495 89.7990 0.0000 25.3367 0.0000
# 4 0.0000 0.0000 0.0000 36.1380 0.0000 5.9540
# 5 10.5687 10.0889 25.3367 0.0000 32.6534 0.0000
# 6 0.0000 0.0000 0.0000 5.9540 0.0000 7.6683
#
#
#
# Elastic Compliance Matrix: (Units=1/GPa)
#
#
# Indices 1 2 3 4 5 6 
#
# 1 0.019211 -0.004196 -0.005439 0.000000 -0.000701 0.000000
# 2 -0.004196 0.017415 -0.007991 0.000000 0.002178 0.000000
# 3 -0.005439 -0.007991 0.020904 0.000000 -0.011991 0.000000
# 4 0.000000 0.000000 0.000000 0.031731 0.000000 -0.024637
# 5 -0.000701 0.002178 -0.011991 0.000000 0.039483 0.000000
# 6 0.000000 0.000000 0.000000 -0.024637 0.000000 0.149535
#
#
# Mechanical properties :
#
#
# Convention : Reuss Voigt Hill
#
# Bulk Modulus (GPa) = 44.88761 52.94858 48.91810
# Shear Modulus (GPa) = 15.57845 23.91606 19.74726
#
# Velocity S-wave (km/s) = 2.77644 3.44010 3.12593
# Velocity P-wave (km/s) = 5.69998 6.47915 6.10202
#
# Compressibility (1/GPa) = 0.02227786
#
# Stress axis : x y z
#
# Youngs Moduli (GPa) = 52.05365 57.42206 47.83786
#
# Poissons Ratio (x) = 0.24093 0.26021
# Poissons Ratio (y) = 0.21840 0.38226
# Poissons Ratio (z) = 0.28314 0.45885
#
# Static dielectric constant tensor:
#      x y z
#    x 1.774750 0.000000 0.019550 
#    y 0.000000 1.682020 0.000000 
#    z 0.019550 0.000000 1.668230 
# 
# From -- ./inp_files/151856.got.cif
#   From: 2010.05.17/outbox.cif.g08.bks.cpg/sg12_76_cif.got.tgz:151856.got - 2010.06.03 13:09:07.
