data_PCOD9196649
_publ_section_title
;
Structure prediction by ZEFSAII (Michael W. Deem and Ramdas Pophale) SiO2 
 PCOD9196649
Probable space group: C 2/M
;
_chemical_formula_sum "Si O2"
_cell_formula_units_Z 48
_cell_length_a 28.964564
_cell_length_b 8.840297
_cell_length_c 17.753476
_cell_angle_alpha 90.000000
_cell_angle_beta 35.470641
_cell_angle_gamma 90.000000
_cell_volume 2637.904874
_symmetry_space_group_name_H-M "C 2/M"
_symmetry_group_IT_number 12
_symmetry_cell_setting 'monoclinic'
loop_
_space_group_symop_operation_xyz
x,y,z
-x,y,-z
-x,-y,-z
x,-y,z
1/2+x,1/2+y,z
1/2-x,1/2+y,-z
1/2-x,1/2-y,-z
1/2+x,1/2-y,z
loop_
_atom_site_type_symbol
_atom_site_label
_atom_site_fract_x
_atom_site_fract_y
_atom_site_fract_z
Si Si1 0.037691 0.317101 0.870309
Si Si2 0.337554 0.681248 0.873706
Si Si3 0.904802 0.676272 0.632448
Si Si4 0.279373 0.818136 0.383265
Si Si5 0.132125 0.817622 0.477624
Si Si6 0.484484 0.317416 0.783080
O O1 0.033212 0.500000 0.871262
O O2 0.130148 0.270924 0.749795
O O3 0.997595 0.250296 0.848520
O O4 0.000000 0.270908 0.000000
O O5 0.332371 0.500000 0.882188
O O6 0.373024 0.734576 0.746824
O O7 0.401791 0.727727 0.852559
O O8 0.250000 0.750000 0.000000
O O9 0.883447 0.500000 0.668782
O O10 0.873336 0.743288 0.596348
O O11 0.000000 0.688537 0.500000
O O12 0.250000 0.750000 0.500000
O O13 0.215260 0.774529 0.405714
O O14 0.278022 0.000000 0.389740
O O15 0.058391 0.772664 0.630136
O O16 0.128329 0.000000 0.475262
O O17 0.486005 0.500000 0.786315
#
# Coordination Sequence:
#
# PCOD9196649 Si02
#       6
#     8   8   8   8   8   8
#     4  10  22  38  57  85 121 156 193 238 292 351
#     4  11  24  42  63  88 122 159 200 248 304 361
#     4  11  23  38  60  91 122 155 202 249 295 352
#     4  10  20  35  57  84 114 150 194 240 288 344
#     4  10  20  36  59  87 119 156 201 246 298 351
#     4  10  21  38  61  87 116 154 196 241 297 356
#
# _framework density 18.196259000000001
#
# number of rings (size 3 to 8) (size 9 to 14) (size 15 to 20)
#    0.000    1.667    3.333    1.000    0.000    5.000 
#    0.000    1.667    0.000    0.000    0.000    0.000 
#    0.000    0.000    0.000    0.000    0.000    0.000 
#
# Total GULP energy -134025.275255 kJ/mol
# GULP energy per Si atom -5584.386469 kJ/mol
# Density = 1.815484 g / cm^3
# Si number density = 18.196259 Si / 1000 Ang^3
#
#
#
# Elastic Constant Matrix: (Units=GPa)
#
#
# Indices 1 2 3 4 5 6 
#
# 1 212.1203 54.2229 93.2352 -0.0034 3.1365 0.0024
# 2 54.2229 30.9330 38.8438 -0.0079 -2.2669 0.0068
# 3 93.2352 38.8438 139.5259 -0.0047 -2.0674 0.0042
# 4 -0.0034 -0.0079 -0.0047 30.5281 0.0045 5.6753
# 5 3.1365 -2.2669 -2.0674 0.0045 30.0937 -0.0021
# 6 0.0024 0.0068 0.0042 5.6753 -0.0021 33.2353
#
#
#
# Elastic Compliance Matrix: (Units=1/GPa)
#
#
# Indices 1 2 3 4 5 6 
#
# 1 0.009215 -0.013126 -0.002535 -0.000003 -0.002123 0.000003
# 2 -0.013126 0.068636 -0.010251 0.000016 0.005834 -0.000014
# 3 -0.002535 -0.010251 0.011719 -0.000001 0.000297 0.000001
# 4 -0.000003 0.000016 -0.000001 0.033831 -0.000004 -0.005777
# 5 -0.002123 0.005834 0.000297 -0.000004 0.033911 0.000002
# 6 0.000003 -0.000014 0.000001 -0.005777 0.000002 0.031075
#
#
# Mechanical properties :
#
#
# Convention : Reuss Voigt Hill
#
# Bulk Modulus (GPa) = 26.49194 83.90922 55.20058
# Shear Modulus (GPa) = 19.77910 31.85659 25.81784
#
# Velocity S-wave (km/s) = 3.30053 4.18870 3.77085
# Velocity P-wave (km/s) = 5.39585 8.34309 7.02575
#
# Compressibility (1/GPa) = 0.03774733
#
# Stress axis : x y z
#
# Youngs Moduli (GPa) = 108.51617 14.56967 85.32844
#
# Poissons Ratio (x) = 0.19123 0.21632
# Poissons Ratio (y) = 1.42433 0.87468
# Poissons Ratio (z) = 0.27511 0.14935
#
# Static dielectric constant tensor:
#      x y z
#    x 1.554780 0.000000 0.011940 
#    y 0.000000 1.618990 0.000000 
#    z 0.011940 0.000000 1.578050 
# 
# From -- ./inp_files/244648.got.cif
#   From: 2010.05.17/outbox.cif.g08.bks.cpg/sg12_123_cif.got.tgz:244648.got - 2010.06.03 13:09:07.
