data_PCOD9196217
_publ_section_title
;
Structure prediction by ZEFSAII (Michael W. Deem and Ramdas Pophale) SiO2 
 PCOD9196217
Probable space group: C 2/M
;
_chemical_formula_sum "Si O2"
_cell_formula_units_Z 52
_cell_length_a 18.633781
_cell_length_b 19.364952
_cell_length_c 13.557325
_cell_angle_alpha 90.000000
_cell_angle_beta 36.040628
_cell_angle_gamma 90.000000
_cell_volume 2878.284057
_symmetry_space_group_name_H-M "C 2/M"
_symmetry_group_IT_number 12
_symmetry_cell_setting 'monoclinic'
loop_
_space_group_symop_operation_xyz
x,y,z
-x,y,-z
-x,-y,-z
x,-y,z
1/2+x,1/2+y,z
1/2-x,1/2+y,-z
1/2-x,1/2-y,-z
1/2+x,1/2-y,z
loop_
_atom_site_type_symbol
_atom_site_label
_atom_site_fract_x
_atom_site_fract_y
_atom_site_fract_z
Si Si1 0.749219 0.000000 0.697735
Si Si2 0.281015 0.234775 0.578024
Si Si3 0.567536 0.638420 0.819221
Si Si4 0.771778 0.352053 0.031106
Si Si5 0.857778 0.355112 0.157522
Si Si6 0.209617 0.000000 0.108484
Si Si7 0.054942 0.000000 0.698019
Si Si8 0.544648 0.267217 0.228012
O O1 0.670037 0.931106 0.770703
O O2 0.792272 0.000000 0.767158
O O3 0.851051 0.000000 0.498887
O O4 0.250000 0.250000 0.500000
O O5 0.205983 0.165268 0.685735
O O6 0.217794 0.296720 0.705041
O O7 0.426668 0.243311 0.420958
O O8 0.567543 0.568413 0.753376
O O9 0.501666 0.697967 0.824104
O O10 0.500000 0.630742 0.000000
O O11 0.809949 0.353614 0.100935
O O12 0.775225 0.431398 0.996061
O O13 0.633460 0.324978 0.174908
O O14 0.866682 0.298830 0.878533
O O15 0.000000 0.339905 0.000000
O O16 0.075592 0.000000 0.210913
#
# Coordination Sequence:
#
# PCOD9196217 Si02
#       8
#     4   8   8   8   8   4   4   8
#     4  10  22  35  59  86 118 156 190 240 304 359
#     4  10  20  35  56  82 115 152 192 244 291 339
#     4  11  22  38  61  85 117 157 198 249 297 347
#     4  10  21  36  58  84 117 158 192 237 302 351
#     4  11  21  36  56  86 122 152 191 238 298 362
#     4  10  21  38  58  85 120 155 193 244 302 351
#     4  12  22  39  57  87 116 154 205 252 288 356
#     4  10  20  37  58  86 117 152 201 243 292 353
#
# _framework density 18.066320000000001
#
# number of rings (size 3 to 8) (size 9 to 14) (size 15 to 20)
#    0.000    1.538    1.538    5.769    0.000    0.615 
#    0.000    0.769    0.000    0.000    0.000    1.077 
#    0.000    0.000    0.000    0.000    0.000    0.000 
#
# Total GULP energy -144852.773112 kJ/mol
# GULP energy per Si atom -5571.260504 kJ/mol
# Density = 1.802520 g / cm^3
# Si number density = 18.066320 Si / 1000 Ang^3
#
#
#
# Elastic Constant Matrix: (Units=GPa)
#
#
# Indices 1 2 3 4 5 6 
#
# 1 46.4216 18.8524 33.5545 0.0001 -23.1712 -0.0001
# 2 18.8524 119.0593 50.6493 0.0000 -15.4778 0.0000
# 3 33.5545 50.6493 112.7169 0.0001 -21.7408 -0.0001
# 4 0.0001 0.0000 0.0001 42.4880 -0.0001 -0.7542
# 5 -23.1712 -15.4778 -21.7408 -0.0001 23.0700 0.0001
# 6 -0.0001 0.0000 -0.0001 -0.7542 0.0001 39.9221
#
#
#
# Elastic Compliance Matrix: (Units=1/GPa)
#
#
# Indices 1 2 3 4 5 6 
#
# 1 0.046205 0.000623 -0.006114 0.000000 0.041064 0.000000
# 2 0.000623 0.010582 -0.004217 0.000000 0.003751 0.000000
# 3 -0.006114 -0.004217 0.013268 0.000000 0.003534 0.000000
# 4 0.000000 0.000000 0.000000 0.023544 0.000000 0.000445
# 5 0.041064 0.003751 0.003534 0.000000 0.090437 0.000000
# 6 0.000000 0.000000 0.000000 0.000445 0.000000 0.025057
#
#
# Mechanical properties :
#
#
# Convention : Reuss Voigt Hill
#
# Bulk Modulus (GPa) = 19.74760 53.81225 36.77993
# Shear Modulus (GPa) = 20.37575 32.77212 26.57393
#
# Velocity S-wave (km/s) = 3.36196 4.26372 3.83941
# Velocity P-wave (km/s) = 5.10144 7.35457 6.32908
#
# Compressibility (1/GPa) = 0.05063906
#
# Stress axis : x y z
#
# Youngs Moduli (GPa) = 21.64273 94.49863 75.36693
#
# Poissons Ratio (x) = -0.05888 0.46081
# Poissons Ratio (y) = -0.01349 0.31782
# Poissons Ratio (z) = 0.13233 0.39850
#
# Static dielectric constant tensor:
#      x y z
#    x 1.633750 0.000000 -0.035950 
#    y 0.000000 1.671460 0.000000 
#    z -0.035950 0.000000 1.634560 
# 
# From -- ./inp_files/216910.got.cif
#   From: 2010.05.17/outbox.cif.g08.bks.cpg/sg12_109_cif.got.tgz:216910.got - 2010.06.03 13:09:07.
