data_PCOD9196152
_publ_section_title
;
Structure prediction by ZEFSAII (Michael W. Deem and Ramdas Pophale) SiO2 
 PCOD9196152
Probable space group: C 2/M
;
_chemical_formula_sum "Si O2"
_cell_formula_units_Z 58
_cell_length_a 22.560840
_cell_length_b 27.141062
_cell_length_c 5.078044
_cell_angle_alpha 90.000000
_cell_angle_beta 101.318716
_cell_angle_gamma 90.000000
_cell_volume 3048.937850
_symmetry_space_group_name_H-M "C 2/M"
_symmetry_group_IT_number 12
_symmetry_cell_setting 'monoclinic'
loop_
_space_group_symop_operation_xyz
x,y,z
-x,y,-z
-x,-y,-z
x,-y,z
1/2+x,1/2+y,z
1/2-x,1/2+y,-z
1/2-x,1/2-y,-z
1/2+x,1/2-y,z
loop_
_atom_site_type_symbol
_atom_site_label
_atom_site_fract_x
_atom_site_fract_y
_atom_site_fract_z
Si Si1 0.938548 0.557806 0.589230
Si Si2 0.381204 0.898628 0.053272
Si Si3 0.544772 0.197320 0.789622
Si Si4 0.061361 0.912983 0.883519
Si Si5 0.253873 0.058602 0.870022
Si Si6 0.675636 0.557300 0.318043
Si Si7 0.500000 0.500000 0.500000
Si Si8 0.956753 0.805309 0.215510
O O1 0.943940 0.500000 0.649005
O O2 0.923464 0.583950 0.848571
O O3 0.000000 0.574844 0.500000
O O4 0.889252 0.567987 0.321078
O O5 0.313315 0.908298 0.898721
O O6 0.404447 0.844673 0.153308
O O7 0.500000 0.192323 0.500000
O O8 0.574798 0.251967 0.821304
O O9 0.500000 0.193160 0.000000
O O10 0.074449 0.858349 0.784916
O O11 0.046219 0.956223 0.661311
O O12 0.114905 0.923039 0.134730
O O13 0.000000 0.912087 0.000000
O O14 0.203006 0.075515 0.616552
O O15 0.267806 0.000000 0.830458
O O16 0.226699 0.062004 0.138016
O O17 0.662992 0.500000 0.351178
O O18 0.000000 0.801910 0.500000
O O19 0.000000 0.807226 0.000000
#
# Coordination Sequence:
#
# PCOD9196152 Si02
#       8
#     8   8   8   8   8   8   2   8
#     4  11  22  33  50  79 111 139 172 231 302 347
#     4  12  21  35  56  75 106 145 196 233 269 328
#     4  10  20  35  56  82 108 141 184 236 283 323
#     4  11  23  35  58  89 121 146 175 217 278 334
#     4  10  22  37  52  73 103 151 190 225 267 318
#     4  10  22  36  54  76 111 145 183 219 265 328
#     4  12  22  32  60  94 124 144 174 212 270 358
#     4   9  19  35  54  80 114 145 177 215 274 336
#
# _framework density 19.023019999999999
#
# number of rings (size 3 to 8) (size 9 to 14) (size 15 to 20)
#    0.000    1.517    1.379    4.759    1.931    2.207 
#    0.000    0.000    0.000    1.655    0.000    0.000 
#    0.000    0.000    0.000    0.000    0.000    0.000 
#
# Total GULP energy -161540.174320 kJ/mol
# GULP energy per Si atom -5570.350839 kJ/mol
# Density = 1.897972 g / cm^3
# Si number density = 19.023020 Si / 1000 Ang^3
#
#
#
# Elastic Constant Matrix: (Units=GPa)
#
#
# Indices 1 2 3 4 5 6 
#
# 1 50.7584 28.3263 5.0255 0.0000 11.5318 0.0000
# 2 28.3263 119.8240 17.9300 0.0000 4.2649 0.0000
# 3 5.0255 17.9300 94.2296 0.0000 -6.5062 0.0000
# 4 0.0000 0.0000 0.0000 21.9789 0.0000 5.5024
# 5 11.5318 4.2649 -6.5062 0.0000 29.0296 0.0000
# 6 0.0000 0.0000 0.0000 5.5024 0.0000 8.7976
#
#
#
# Elastic Compliance Matrix: (Units=1/GPa)
#
#
# Indices 1 2 3 4 5 6 
#
# 1 0.024938 -0.005423 -0.000942 0.000000 -0.009321 0.000000
# 2 -0.005423 0.009848 -0.001560 0.000000 0.000358 0.000000
# 3 -0.000942 -0.001560 0.011174 0.000000 0.003108 0.000000
# 4 0.000000 0.000000 0.000000 0.053945 0.000000 -0.033739
# 5 -0.009321 0.000358 0.003108 0.000000 0.038794 0.000000
# 6 0.000000 0.000000 0.000000 -0.033739 0.000000 0.134769
#
#
# Mechanical properties :
#
#
# Convention : Reuss Voigt Hill
#
# Bulk Modulus (GPa) = 33.20993 40.81953 37.01473
# Shear Modulus (GPa) = 16.70258 26.19658 21.44958
#
# Velocity S-wave (km/s) = 2.96635 3.71495 3.36156
# Velocity P-wave (km/s) = 5.40629 6.31710 5.87936
#
# Compressibility (1/GPa) = 0.03011148
#
# Stress axis : x y z
#
# Youngs Moduli (GPa) = 40.09908 101.54142 89.49334
#
# Poissons Ratio (x) = 0.55063 0.08428
# Poissons Ratio (y) = 0.21745 0.13961
# Poissons Ratio (z) = 0.03776 0.15841
#
# Static dielectric constant tensor:
#      x y z
#    x 1.678980 0.000000 0.011580 
#    y 0.000000 1.737210 0.000000 
#    z 0.011580 0.000000 1.723420 
# 
# From -- ./inp_files/22353.got.cif
#   From: 2010.05.17/outbox.cif.g08.bks.cpg/sg12_12_cif.got.tgz:22353.got - 2010.06.03 13:09:07.
