data_PCOD9196227
_publ_section_title
;
Structure prediction by ZEFSAII (Michael W. Deem and Ramdas Pophale) SiO2 
 PCOD9196227
Probable space group: C 2/M
;
_chemical_formula_sum "Si O2"
_cell_formula_units_Z 64
_cell_length_a 24.959948
_cell_length_b 20.692330
_cell_length_c 16.973451
_cell_angle_alpha 90.000000
_cell_angle_beta 158.411424
_cell_angle_gamma 90.000000
_cell_volume 3225.516266
_symmetry_space_group_name_H-M "C 2/M"
_symmetry_group_IT_number 12
_symmetry_cell_setting 'monoclinic'
loop_
_space_group_symop_operation_xyz
x,y,z
-x,y,-z
-x,-y,-z
x,-y,z
1/2+x,1/2+y,z
1/2-x,1/2+y,-z
1/2-x,1/2-y,-z
1/2+x,1/2-y,z
loop_
_atom_site_type_symbol
_atom_site_label
_atom_site_fract_x
_atom_site_fract_y
_atom_site_fract_z
Si Si1 0.612204 0.242004 0.461515
Si Si2 0.154362 0.923971 0.464723
Si Si3 0.389086 0.146740 0.677461
Si Si4 0.608975 0.573946 0.584470
Si Si5 0.830073 0.682861 0.130816
Si Si6 0.086606 0.157713 0.910769
Si Si7 0.902479 0.741345 0.942845
Si Si8 0.135239 0.428266 0.945616
O O1 0.673211 0.195369 0.474686
O O2 0.500036 0.200756 0.361526
O O3 0.514276 0.294812 0.281910
O O4 0.739204 0.269733 0.689344
O O5 0.275128 0.880482 0.584928
O O6 0.129955 0.905498 0.523218
O O7 0.001101 0.908682 0.212720
O O8 0.193177 0.000000 0.514532
O O9 0.470862 0.088373 0.745477
O O10 0.520398 0.186735 0.898484
O O11 0.500000 0.606161 0.500000
O O12 0.552995 0.500000 0.498772
O O13 0.763613 0.572873 0.838994
O O14 0.810897 0.628317 0.038031
O O15 0.750000 0.750000 0.000000
O O16 0.747261 0.657083 0.093894
O O17 0.093437 0.192521 0.003175
O O18 0.000000 0.746457 0.000000
O O19 0.147874 0.500000 0.928046
#
# Coordination Sequence:
#
# PCOD9196227 Si02
#       8
#     8   8   8   8   8   8   8   8
#     4   9  20  39  60  83 116 152 192 251 307 353
#     4  11  22  36  57  83 120 162 196 244 295 352
#     4  10  22  37  56  88 120 151 206 241 289 367
#     4   9  19  33  49  76 110 151 197 231 283 359
#     4   9  19  38  58  84 118 151 201 256 296 356
#     4  10  21  37  57  86 114 146 204 244 295 369
#     4  11  22  36  60  85 114 158 195 247 307 352
#     4  10  20  35  56  82 119 159 191 240 304 360
#
# _framework density 19.841785999999999
#
# number of rings (size 3 to 8) (size 9 to 14) (size 15 to 20)
#    0.000    2.125    0.000    3.375    3.500    4.000 
#    0.000    1.875    0.000    6.375    0.000    4.375 
#    0.000    0.000    0.000    0.000    0.000    0.000 
#
# Total GULP energy -178440.969198 kJ/mol
# GULP energy per Si atom -5576.280287 kJ/mol
# Density = 1.979663 g / cm^3
# Si number density = 19.841786 Si / 1000 Ang^3
#
#
#
# Elastic Constant Matrix: (Units=GPa)
#
#
# Indices 1 2 3 4 5 6 
#
# 1 -234.4033 92.6258 -47.2406 0.0000 37.5068 0.0000
# 2 92.6258 79.1883 27.7606 0.0000 -2.5973 0.0000
# 3 -47.2406 27.7606 45.9668 0.0000 4.8826 0.0000
# 4 0.0000 0.0000 0.0000 20.6601 0.0000 -4.1709
# 5 37.5068 -2.5973 4.8826 0.0000 22.8431 0.0000
# 6 0.0000 0.0000 0.0000 -4.1709 0.0000 24.1230
#
#
#
# Elastic Compliance Matrix: (Units=1/GPa)
#
#
# Indices 1 2 3 4 5 6 
#
# 1 -0.001543 0.003329 -0.003996 0.000000 0.003766 0.000000
# 2 0.003329 0.009198 -0.001703 0.000000 -0.004056 0.000000
# 3 -0.003996 -0.001703 0.018418 0.000000 0.002431 0.000000
# 4 0.000000 0.000000 0.000000 0.050153 0.000000 0.008672
# 5 0.003766 -0.004056 0.002431 0.000000 0.036613 0.000000
# 6 0.000000 0.000000 0.000000 0.008672 0.000000 0.042954
#
#
# Mechanical properties :
#
#
# Convention : Reuss Voigt Hill
#
# Bulk Modulus (GPa) = 46.87411 4.11594 25.49502
# Shear Modulus (GPa) = 29.82488 1.36561 15.59524
#
# Velocity S-wave (km/s) = 3.88123 0.83051 2.80657
# Velocity P-wave (km/s) = 6.61517 1.73163 4.83524
#
# Compressibility (1/GPa) = 0.02133374
#
# Stress axis : x y z
#
# Youngs Moduli (GPa) = -648.17485 108.71616 54.29341
#
# Poissons Ratio (x) = -0.36191 0.21696
# Poissons Ratio (y) = 2.15775 0.09246
# Poissons Ratio (z) = -2.59011 0.18515
#
# Static dielectric constant tensor:
#      x y z
#    x 1.719170 0.000000 0.028860 
#    y 0.000000 1.756980 0.000000 
#    z 0.028860 0.000000 1.712530 
# 
# From -- ./inp_files/294169.got.cif
#   From: 2010.05.17/outbox.cif.g08.bks.cpg/sg12_148_cif.got.tgz:294169.got - 2010.06.03 13:09:07.
