data_PCOD9196242
_publ_section_title
;
Structure prediction by ZEFSAII (Michael W. Deem and Ramdas Pophale) SiO2 
 PCOD9196242
Probable space group: C 2/M
;
_chemical_formula_sum "Si O2"
_cell_formula_units_Z 56
_cell_length_a 29.878440
_cell_length_b 8.904295
_cell_length_c 22.209290
_cell_angle_alpha 90.000000
_cell_angle_beta 149.163463
_cell_angle_gamma 90.000000
_cell_volume 3028.744902
_symmetry_space_group_name_H-M "C 2/M"
_symmetry_group_IT_number 12
_symmetry_cell_setting 'monoclinic'
loop_
_space_group_symop_operation_xyz
x,y,z
-x,y,-z
-x,-y,-z
x,-y,z
1/2+x,1/2+y,z
1/2-x,1/2+y,-z
1/2-x,1/2-y,-z
1/2+x,1/2-y,z
loop_
_atom_site_type_symbol
_atom_site_label
_atom_site_fract_x
_atom_site_fract_y
_atom_site_fract_z
Si Si1 0.912928 0.319934 0.129447
Si Si2 0.458016 0.321296 0.516693
Si Si3 0.231807 0.321252 0.696674
Si Si4 0.882517 0.679791 0.634645
Si Si5 0.780108 0.819461 0.887710
Si Si6 0.233566 0.321310 0.385129
Si Si7 0.873924 0.819963 0.210285
O O1 0.903003 0.500000 0.117498
O O2 0.869886 0.251663 0.139737
O O3 0.015716 0.282979 0.249612
O O4 0.865630 0.248324 0.017529
O O5 0.500000 0.287340 0.500000
O O6 0.439762 0.500000 0.497359
O O7 0.368339 0.233990 0.421097
O O8 0.531128 0.287520 0.651050
O O9 0.233985 0.500000 0.693955
O O10 0.270189 0.278773 0.806114
O O11 0.280448 0.249423 0.696162
O O12 0.873201 0.500000 0.615505
O O13 0.839200 0.718719 0.649042
O O14 0.824944 0.761568 0.517834
O O15 0.698588 0.750531 0.830035
O O16 0.778977 0.000000 0.891747
O O17 0.237224 0.500000 0.384337
O O18 0.862776 0.000000 0.194703
#
# Coordination Sequence:
#
# PCOD9196242 Si02
#       7
#     8   8   8   8   8   8   8
#     4  11  23  39  59  81 110 147 189 234 279 329
#     4  10  20  35  56  83 113 145 184 228 275 329
#     4  11  23  37  56  83 116 152 188 229 281 335
#     4   9  20  39  61  88 116 144 183 230 280 334
#     4  11  24  40  56  78 111 151 194 233 275 329
#     4  10  20  36  62  90 116 146 181 226 281 337
#     4  11  22  37  58  83 113 148 187 231 280 331
#
# _framework density 18.489507
#
# number of rings (size 3 to 8) (size 9 to 14) (size 15 to 20)
#    0.000    1.571    1.429    3.429    0.000    7.143 
#    0.000    0.714    0.000    4.286    0.000    0.000 
#    0.000    0.000    0.000    0.000    0.000    0.000 
#
# Total GULP energy -156531.265342 kJ/mol
# GULP energy per Si atom -5590.402334 kJ/mol
# Density = 1.844742 g / cm^3
# Si number density = 18.489507 Si / 1000 Ang^3
#
#
#
# Elastic Constant Matrix: (Units=GPa)
#
#
# Indices 1 2 3 4 5 6 
#
# 1 105.5377 42.2303 51.6956 0.0000 -28.1671 0.0000
# 2 42.2303 48.4538 41.0451 0.0000 -12.6915 0.0000
# 3 51.6956 41.0451 80.5190 0.0000 -17.0406 0.0000
# 4 0.0000 0.0000 0.0000 30.1040 0.0000 -2.8366
# 5 -28.1671 -12.6915 -17.0406 0.0000 20.4088 0.0000
# 6 0.0000 0.0000 0.0000 -2.8366 0.0000 31.2172
#
#
#
# Elastic Compliance Matrix: (Units=1/GPa)
#
#
# Indices 1 2 3 4 5 6 
#
# 1 0.020214 -0.008954 -0.004479 0.000000 0.018590 0.000000
# 2 -0.008954 0.041594 -0.015299 0.000000 0.000734 0.000000
# 3 -0.004479 -0.015299 0.024016 0.000000 0.004357 0.000000
# 4 0.000000 0.000000 0.000000 0.033505 0.000000 0.003044
# 5 0.018590 0.000734 0.004357 0.000000 0.078749 0.000000
# 6 0.000000 0.000000 0.000000 0.003044 0.000000 0.032310
#
#
# Mechanical properties :
#
#
# Convention : Reuss Voigt Hill
#
# Bulk Modulus (GPa) = 35.26118 56.05028 45.65573
# Shear Modulus (GPa) = 16.81779 22.98196 19.89988
#
# Velocity S-wave (km/s) = 3.01921 3.52941 3.28423
# Velocity P-wave (km/s) = 5.59164 6.85488 6.25523
#
# Compressibility (1/GPa) = 0.02835980
#
# Stress axis : x y z
#
# Youngs Moduli (GPa) = 49.47185 24.04211 41.63912
#
# Poissons Ratio (x) = 0.21527 0.18651
# Poissons Ratio (y) = 0.44296 0.63702
# Poissons Ratio (z) = 0.22160 0.36781
#
# Static dielectric constant tensor:
#      x y z
#    x 1.633380 0.000000 -0.007200 
#    y 0.000000 1.613230 0.000000 
#    z -0.007200 0.000000 1.621990 
# 
# From -- ./inp_files/238945.got.cif
#   From: 2010.05.17/outbox.cif.g08.bks.cpg/sg12_120_cif.got.tgz:238945.got - 2010.06.03 13:09:07.
