data_PCOD9196390
_publ_section_title
;
Structure prediction by ZEFSAII (Michael W. Deem and Ramdas Pophale) SiO2 
 PCOD9196390
Probable space group: C 2/M
;
_chemical_formula_sum "Si O2"
_cell_formula_units_Z 64
_cell_length_a 15.200425
_cell_length_b 27.033870
_cell_length_c 16.851649
_cell_angle_alpha 90.000000
_cell_angle_beta 155.246750
_cell_angle_gamma 90.000000
_cell_volume 2899.485799
_symmetry_space_group_name_H-M "C 2/M"
_symmetry_group_IT_number 12
_symmetry_cell_setting 'monoclinic'
loop_
_space_group_symop_operation_xyz
x,y,z
-x,y,-z
-x,-y,-z
x,-y,z
1/2+x,1/2+y,z
1/2-x,1/2+y,-z
1/2-x,1/2-y,-z
1/2+x,1/2-y,z
loop_
_atom_site_type_symbol
_atom_site_label
_atom_site_fract_x
_atom_site_fract_y
_atom_site_fract_z
Si Si1 0.742215 0.650586 0.194497
Si Si2 0.659864 0.701953 0.520501
Si Si3 0.889034 0.400442 0.091855
Si Si4 0.954223 0.945804 0.696762
Si Si5 0.340087 0.411020 0.440273
Si Si6 0.384776 0.794225 0.149113
Si Si7 0.992265 0.559577 0.353736
Si Si8 0.739498 0.245065 0.227185
O O1 0.789441 0.680229 0.150361
O O2 0.872667 0.600392 0.308154
O O3 0.772470 0.697148 0.277498
O O4 0.500000 0.636165 0.000000
O O5 0.638215 0.642834 0.500013
O O6 0.427778 0.726517 0.322974
O O7 0.728127 0.714602 0.666472
O O8 0.866080 0.716718 0.639107
O O9 0.886926 0.341350 0.092568
O O10 0.923083 0.424734 0.207416
O O11 0.097788 0.416639 0.216083
O O12 0.663287 0.415370 0.877061
O O13 0.893764 0.947614 0.555010
O O14 0.740367 0.929010 0.563769
O O15 0.002587 0.000000 0.768198
O O16 0.500000 0.414521 0.500000
O O17 0.250000 0.750000 0.000000
O O18 0.960181 0.500000 0.339727
O O19 0.500000 0.239850 0.000000
#
# Coordination Sequence:
#
# PCOD9196390 Si02
#       8
#     8   8   8   8   8   8   8   8
#     4  10  21  36  56  85 117 149 190 239 293 344
#     4  10  21  38  57  82 115 158 195 229 285 343
#     4   9  20  36  58  82 111 148 190 234 285 340
#     4  10  21  37  60  85 109 147 194 238 289 339
#     4  10  20  37  53  82 118 149 189 237 278 339
#     4  10  20  35  56  86 116 149 195 240 283 345
#     4   9  19  38  60  81 111 146 187 241 287 338
#     4  10  20  36  57  83 117 153 189 236 284 339
#
# _framework density 22.072880000000001
#
# number of rings (size 3 to 8) (size 9 to 14) (size 15 to 20)
#    0.000    2.250    1.250    2.625    0.000    6.000 
#    0.000    3.125    0.000    0.000    0.000    9.625 
#    0.000    0.000    0.000    0.000    0.000    0.000 
#
# Total GULP energy -178461.139697 kJ/mol
# GULP energy per Si atom -5576.910616 kJ/mol
# Density = 2.202264 g / cm^3
# Si number density = 22.072880 Si / 1000 Ang^3
#
#
#
# Elastic Constant Matrix: (Units=GPa)
#
#
# Indices 1 2 3 4 5 6 
#
# 1 48.8513 8.2904 36.0670 0.0001 28.9703 0.0000
# 2 8.2904 129.6635 79.0565 0.0001 20.6159 -0.0002
# 3 36.0670 79.0565 183.1199 0.0008 39.4700 -0.0008
# 4 0.0001 0.0001 0.0008 27.8633 0.0004 17.3438
# 5 28.9703 20.6159 39.4700 0.0004 35.9720 -0.0004
# 6 0.0000 -0.0002 -0.0008 17.3438 -0.0004 -10.4968
#
#
#
# Elastic Compliance Matrix: (Units=1/GPa)
#
#
# Indices 1 2 3 4 5 6 
#
# 1 0.041104 0.004341 -0.003010 0.000000 -0.032288 0.000001
# 2 0.004341 0.010977 -0.004564 0.000000 -0.004780 0.000000
# 3 -0.003010 -0.004564 0.009087 0.000000 -0.004930 0.000000
# 4 0.000000 0.000000 0.000000 0.017693 0.000000 0.029234
# 5 -0.032288 -0.004780 -0.004930 0.000000 0.061952 -0.000001
# 6 0.000001 0.000000 0.000000 0.029234 -0.000001 -0.046964
#
#
# Mechanical properties :
#
#
# Convention : Reuss Voigt Hill
#
# Bulk Modulus (GPa) = 18.28103 67.60694 42.94399
# Shear Modulus (GPa) = 42.17674 26.54909 34.36291
#
# Velocity S-wave (km/s) = 4.37601 3.47189 3.94990
# Velocity P-wave (km/s) = 5.81659 6.83868 6.34823
#
# Compressibility (1/GPa) = 0.05470150
#
# Stress axis : x y z
#
# Youngs Moduli (GPa) = 24.32850 91.09716 110.04882
#
# Poissons Ratio (x) = -0.39546 0.33130
# Poissons Ratio (y) = -0.10561 0.50225
# Poissons Ratio (z) = 0.07324 0.41576
#
# Static dielectric constant tensor:
#      x y z
#    x 1.871630 0.000000 0.035940 
#    y 0.000000 1.812580 0.000000 
#    z 0.035940 0.000000 1.849600 
# 
# From -- ./inp_files/318592.got.cif
#   From: 2010.05.17/outbox.cif.g08.bks.cpg/sg12_160_cif.got.tgz:318592.got - 2010.06.03 13:09:07.
