data_PCOD9196029
_publ_section_title
;
Structure prediction by ZEFSAII (Michael W. Deem and Ramdas Pophale) SiO2 
 PCOD9196029
Probable space group: C 2/M
;
_chemical_formula_sum "Si O2"
_cell_formula_units_Z 40
_cell_length_a 8.599360
_cell_length_b 11.364522
_cell_length_c 23.495550
_cell_angle_alpha 90.000000
_cell_angle_beta 59.737048
_cell_angle_gamma 90.000000
_cell_volume 1983.246524
_symmetry_space_group_name_H-M "C 2/M"
_symmetry_group_IT_number 12
_symmetry_cell_setting 'monoclinic'
loop_
_space_group_symop_operation_xyz
x,y,z
-x,y,-z
-x,-y,-z
x,-y,z
1/2+x,1/2+y,z
1/2-x,1/2+y,-z
1/2-x,1/2-y,-z
1/2+x,1/2-y,z
loop_
_atom_site_type_symbol
_atom_site_label
_atom_site_fract_x
_atom_site_fract_y
_atom_site_fract_z
Si Si1 0.267245 0.868789 0.869767
Si Si2 0.189504 0.863881 0.548543
Si Si3 0.941798 0.309801 0.951570
Si Si4 0.097452 0.633913 0.279815
Si Si5 0.707883 0.277115 0.363957
O O1 0.402425 0.869815 0.898478
O O2 0.367137 0.837649 0.792699
O O3 0.101019 0.782925 0.911374
O O4 0.192186 0.000000 0.877330
O O5 0.250000 0.750000 0.500000
O O6 0.273234 0.829991 0.594472
O O7 0.973078 0.850075 0.591196
O O8 0.234771 0.000000 0.523887
O O9 0.750000 0.250000 0.000000
O O10 0.000000 0.371804 0.000000
O O11 0.156169 0.500000 0.278764
O O12 0.197521 0.722350 0.303191
O O13 0.887941 0.646997 0.334475
#
# Coordination Sequence:
#
# PCOD9196029 Si02
#       5
#     8   8   8   8   8
#     4  10  20  35  56  80 108 143 183 228 278 330
#     4  11  24  40  60  87 118 153 193 238 287 343
#     4   9  19  34  52  77 109 142 181 226 271 329
#     4  10  20  36  58  82 109 144 184 228 280 336
#     4  10  22  38  59  83 115 148 185 233 283 340
#
# _framework density 20.168951
#
# number of rings (size 3 to 8) (size 9 to 14) (size 15 to 20)
#    0.000    2.000    0.000    3.000    0.000   10.400 
#    0.000    3.000    0.000   16.800    0.000    0.000 
#    0.000    0.000    0.000    0.000    0.000    0.000 
#
# Total GULP energy -111465.582615 kJ/mol
# GULP energy per Si atom -5573.279131 kJ/mol
# Density = 2.012305 g / cm^3
# Si number density = 20.168951 Si / 1000 Ang^3
#
#
#
# Elastic Constant Matrix: (Units=GPa)
#
#
# Indices 1 2 3 4 5 6 
#
# 1 65.3190 21.7262 7.9439 0.0000 8.3362 0.0000
# 2 21.7262 114.6792 41.9713 0.0000 1.8776 0.0000
# 3 7.9439 41.9713 82.9190 0.0000 16.8052 0.0000
# 4 0.0000 0.0000 0.0000 -425.6411 0.0000 22.8918
# 5 8.3362 1.8776 16.8052 0.0000 33.8780 0.0000
# 6 0.0000 0.0000 0.0000 22.8918 0.0000 9.0362
#
#
#
# Elastic Compliance Matrix: (Units=1/GPa)
#
#
# Indices 1 2 3 4 5 6 
#
# 1 0.016926 -0.003527 0.001076 0.000000 -0.004503 0.000000
# 2 -0.003527 0.011605 -0.006206 0.000000 0.003303 0.000000
# 3 0.001076 -0.006206 0.016768 0.000000 -0.008239 0.000000
# 4 0.000000 0.000000 0.000000 -0.002068 0.000000 0.005238
# 5 -0.004503 0.003303 -0.008239 0.000000 0.034530 0.000000
# 6 0.000000 0.000000 0.000000 0.005238 0.000000 0.097396
#
#
# Mechanical properties :
#
#
# Convention : Reuss Voigt Hill
#
# Bulk Modulus (GPa) = 35.73121 45.13332 40.43227
# Shear Modulus (GPa) = 24.77704 -63.79367 -19.50832
#
# Velocity S-wave (km/s) = 3.50876 -5.63013 -3.11343
# Velocity P-wave (km/s) = 5.84548 4.45401 2.67688
#
# Compressibility (1/GPa) = 0.02798674
#
# Stress axis : x y z
#
# Youngs Moduli (GPa) = 59.07911 86.16706 59.63802
#
# Poissons Ratio (x) = 0.30391 -0.06419
# Poissons Ratio (y) = 0.20837 0.37011
# Poissons Ratio (z) = -0.06359 0.53474
#
# Static dielectric constant tensor:
#      x y z
#    x 1.701830 0.000000 0.041160 
#    y 0.000000 1.720640 0.000000 
#    z 0.041160 0.000000 1.741200 
# 
# From -- ./inp_files/254606.got.cif
#   From: 2010.05.17/outbox.cif.g08.bks.cpg/sg12_128_cif.got.tgz:254606.got - 2010.06.03 13:09:07.
