data_PCOD9196071
_publ_section_title
;
Structure prediction by ZEFSAII (Michael W. Deem and Ramdas Pophale) SiO2 
 PCOD9196071
Probable space group: C 2/M
;
_chemical_formula_sum "Si O2"
_cell_formula_units_Z 64
_cell_length_a 14.141033
_cell_length_b 9.398111
_cell_length_c 22.584136
_cell_angle_alpha 90.000000
_cell_angle_beta 76.961939
_cell_angle_gamma 90.000000
_cell_volume 2924.033967
_symmetry_space_group_name_H-M "C 2/M"
_symmetry_group_IT_number 12
_symmetry_cell_setting 'monoclinic'
loop_
_space_group_symop_operation_xyz
x,y,z
-x,y,-z
-x,-y,-z
x,-y,z
1/2+x,1/2+y,z
1/2-x,1/2+y,-z
1/2-x,1/2-y,-z
1/2+x,1/2-y,z
loop_
_atom_site_type_symbol
_atom_site_label
_atom_site_fract_x
_atom_site_fract_y
_atom_site_fract_z
Si Si1 0.676146 0.336535 0.320460
Si Si2 0.960211 0.335178 0.734099
Si Si3 0.306600 0.163680 0.041956
Si Si4 0.858071 0.660982 0.215945
Si Si5 0.594071 0.837723 0.525108
Si Si6 0.624887 0.339168 0.147493
Si Si7 0.777401 0.161783 0.409627
Si Si8 0.443015 0.665153 0.097759
O O1 0.659694 0.500000 0.339348
O O2 0.578639 0.257577 0.314482
O O3 0.748584 0.333447 0.253712
O O4 0.733187 0.253709 0.363025
O O5 0.937665 0.500000 0.726737
O O6 0.905794 0.277328 0.800649
O O7 0.072493 0.321832 0.736446
O O8 0.233742 0.166000 0.108815
O O9 0.403269 0.240633 0.050222
O O10 0.321914 0.000000 0.022459
O O11 0.250000 0.250000 0.000000
O O12 0.878250 0.500000 0.189793
O O13 0.888636 0.778771 0.164620
O O14 0.500000 0.792023 0.500000
O O15 0.688008 0.843682 0.469023
O O16 0.630229 0.736059 0.572505
O O17 0.574494 0.000000 0.549092
O O18 0.604592 0.500000 0.173540
O O19 0.555240 0.320678 0.100107
O O20 0.799627 0.000000 0.388362
O O21 0.421965 0.500000 0.089147
#
# Coordination Sequence:
#
# PCOD9196071 Si02
#       8
#     8   8   8   8   8   8   8   8
#     4  11  22  36  54  77 112 150 178 212 264 319
#     4  10  20  35  56  81 107 137 179 223 259 305
#     4  11  23  38  55  77 106 138 174 216 264 318
#     4   9  20  37  55  77 107 144 179 212 258 316
#     4   9  19  38  61  80 104 142 181 218 267 322
#     4   9  20  38  57  77 106 142 174 210 264 323
#     4  10  21  36  55  82 111 138 178 226 265 308
#     4  10  20  36  58  81 105 136 175 218 263 313
#
# _framework density 21.887571000000001
#
# number of rings (size 3 to 8) (size 9 to 14) (size 15 to 20)
#    0.000    2.125    0.000    2.625    0.000    8.250 
#    0.000    7.500    0.000    0.000    0.000    0.000 
#    0.000    0.000    0.000    0.000    0.000    0.000 
#
# Total GULP energy -178864.812430 kJ/mol
# GULP energy per Si atom -5589.525388 kJ/mol
# Density = 2.183775 g / cm^3
# Si number density = 21.887571 Si / 1000 Ang^3
#
#
#
# Elastic Constant Matrix: (Units=GPa)
#
#
# Indices 1 2 3 4 5 6 
#
# 1 113.8444 59.5394 14.8831 0.0000 38.0733 0.0000
# 2 59.5394 155.7394 41.9517 0.0000 39.5510 0.0000
# 3 14.8831 41.9517 43.9416 0.0000 25.9533 0.0000
# 4 0.0000 0.0000 0.0000 32.6870 0.0000 14.9068
# 5 38.0733 39.5510 25.9533 0.0000 46.3199 0.0000
# 6 0.0000 0.0000 0.0000 14.9068 0.0000 29.0886
#
#
#
# Elastic Compliance Matrix: (Units=1/GPa)
#
#
# Indices 1 2 3 4 5 6 
#
# 1 0.013874 -0.004006 0.005741 0.000000 -0.011200 0.000000
# 2 -0.004006 0.010361 -0.007854 0.000000 -0.001154 0.000000
# 3 0.005741 -0.007854 0.040560 0.000000 -0.020739 0.000000
# 4 0.000000 0.000000 0.000000 0.039924 0.000000 -0.020459
# 5 -0.011200 -0.001154 -0.020739 0.000000 0.043400 0.000000
# 6 0.000000 0.000000 0.000000 -0.020459 0.000000 0.044862
#
#
# Mechanical properties :
#
#
# Convention : Reuss Voigt Hill
#
# Bulk Modulus (GPa) = 19.02709 60.69708 39.86209
# Shear Modulus (GPa) = 22.44786 34.76252 28.60519
#
# Velocity S-wave (km/s) = 3.20597 3.98959 3.61905
# Velocity P-wave (km/s) = 4.73459 7.00099 5.97621
#
# Compressibility (1/GPa) = 0.05255664
#
# Stress axis : x y z
#
# Youngs Moduli (GPa) = 72.07611 96.51517 24.65487
#
# Poissons Ratio (x) = 0.38666 -0.14153
# Poissons Ratio (y) = 0.28875 0.19363
# Poissons Ratio (z) = -0.41375 0.75799
#
# Static dielectric constant tensor:
#      x y z
#    x 1.796900 0.000000 0.007990 
#    y 0.000000 1.767590 0.000000 
#    z 0.007990 0.000000 1.836290 
# 
# From -- ./inp_files/338685.got.cif
#   From: 2010.05.17/outbox.cif.g08.bks.cpg/sg12_170_cif.got.tgz:338685.got - 2010.06.03 13:09:07.
