data_PCOD9196541
_publ_section_title
;
Structure prediction by ZEFSAII (Michael W. Deem and Ramdas Pophale) SiO2 
 PCOD9196541
Probable space group: C 2/M
;
_chemical_formula_sum "Si O2"
_cell_formula_units_Z 52
_cell_length_a 11.407713
_cell_length_b 19.280164
_cell_length_c 26.753804
_cell_angle_alpha 90.000000
_cell_angle_beta 150.549500
_cell_angle_gamma 90.000000
_cell_volume 2893.142572
_symmetry_space_group_name_H-M "C 2/M"
_symmetry_group_IT_number 12
_symmetry_cell_setting 'monoclinic'
loop_
_space_group_symop_operation_xyz
x,y,z
-x,y,-z
-x,-y,-z
x,-y,z
1/2+x,1/2+y,z
1/2-x,1/2+y,-z
1/2-x,1/2-y,-z
1/2+x,1/2-y,z
loop_
_atom_site_type_symbol
_atom_site_label
_atom_site_fract_x
_atom_site_fract_y
_atom_site_fract_z
Si Si1 0.427061 0.152855 0.530385
Si Si2 0.101965 0.648828 0.756390
Si Si3 0.316805 0.000000 0.523224
Si Si4 0.459813 0.256495 0.346974
Si Si5 0.562990 0.000000 0.322533
Si Si6 0.901322 0.202087 0.017951
Si Si7 0.941012 0.640412 0.808407
Si Si8 0.786741 0.000000 0.294261
O O1 0.500000 0.153534 0.500000
O O2 0.581758 0.206911 0.620635
O O3 0.160624 0.186406 0.434511
O O4 0.437800 0.073716 0.554154
O O5 0.972688 0.701104 0.670533
O O6 0.370824 0.671979 0.868660
O O7 0.090012 0.570295 0.732517
O O8 0.966300 0.649410 0.758395
O O9 0.069272 0.000000 0.401665
O O10 0.277650 0.000000 0.568480
O O11 0.231896 0.297023 0.241253
O O12 0.696778 0.000000 0.318808
O O13 0.750000 0.250000 0.000000
O O14 0.703914 0.145446 0.928554
O O15 0.000000 0.230631 0.000000
O O16 0.815390 0.567659 0.770330
#
# Coordination Sequence:
#
# PCOD9196541 Si02
#       8
#     8   8   4   8   4   8   8   4
#     4  11  24  36  53  80 110 146 187 231 277 337
#     4  10  20  35  57  83 110 143 183 230 281 332
#     4  12  20  38  54  76 108 152 186 226 274 338
#     4  11  20  37  56  78 112 141 182 231 280 334
#     4  10  21  36  55  81 110 142 186 232 279 329
#     4  10  20  35  59  89 117 147 186 234 286 336
#     4  10  20  35  57  83 110 143 183 230 281 332
#     4  10  21  36  55  81 110 142 186 232 279 329
#
# _framework density 17.973535999999999
#
# number of rings (size 3 to 8) (size 9 to 14) (size 15 to 20)
#    0.000    1.538    4.615    1.385    0.000    0.615 
#    0.000    3.077    0.000    0.000    0.000    1.077 
#    0.000    0.000    0.000    0.000    0.000    0.000 
#
# Total GULP energy -144816.023077 kJ/mol
# GULP energy per Si atom -5569.847041 kJ/mol
# Density = 1.793263 g / cm^3
# Si number density = 17.973536 Si / 1000 Ang^3
#
#
#
# Elastic Constant Matrix: (Units=GPa)
#
#
# Indices 1 2 3 4 5 6 
#
# 1 38.1208 22.6407 -9.2523 0.0003 -4.7531 0.0001
# 2 22.6407 122.8845 14.5512 0.0004 -1.9105 0.0002
# 3 -9.2523 14.5512 33.7563 0.0014 -3.5427 0.0009
# 4 0.0003 0.0004 0.0014 18.9834 0.0007 -3.3893
# 5 -4.7531 -1.9105 -3.5427 0.0007 24.9444 0.0003
# 6 0.0001 0.0002 0.0009 -3.3893 0.0003 21.9042
#
#
#
# Elastic Compliance Matrix: (Units=1/GPa)
#
#
# Indices 1 2 3 4 5 6 
#
# 1 0.035447 -0.008068 0.014047 -0.000002 0.008131 -0.000001
# 2 -0.008068 0.010412 -0.006880 0.000001 -0.001717 0.000000
# 3 0.014047 -0.006880 0.037220 -0.000003 0.007436 -0.000002
# 4 -0.000002 0.000001 -0.000003 0.054174 -0.000002 0.008383
# 5 0.008131 -0.001717 0.007436 -0.000002 0.042563 -0.000001
# 6 -0.000001 0.000000 -0.000002 0.008383 -0.000001 0.046950
#
#
# Mechanical properties :
#
#
# Convention : Reuss Voigt Hill
#
# Bulk Modulus (GPa) = 12.30341 27.84896 20.07619
# Shear Modulus (GPa) = 19.55709 24.28787 21.92248
#
# Velocity S-wave (km/s) = 3.30222 3.68001 3.49622
# Velocity P-wave (km/s) = 4.62598 5.79523 5.24330
#
# Compressibility (1/GPa) = 0.08127826
#
# Stress axis : x y z
#
# Youngs Moduli (GPa) = 28.21089 96.04170 26.86709
#
# Poissons Ratio (x) = 0.77485 -0.37740
# Poissons Ratio (y) = 0.22760 0.18484
# Poissons Ratio (z) = -0.39628 0.66075
#
# Static dielectric constant tensor:
#      x y z
#    x 1.624460 0.000000 -0.006570 
#    y 0.000000 1.626680 0.000000 
#    z -0.006570 0.000000 1.611380 
# 
# From -- ./inp_files/265149.got.cif
#   From: 2010.05.17/outbox.cif.g08.bks.cpg/sg12_133_cif.got.tgz:265149.got - 2010.06.03 13:09:07.
