data_PCOD9196088
_publ_section_title
;
Structure prediction by ZEFSAII (Michael W. Deem and Ramdas Pophale) SiO2 
 PCOD9196088
Probable space group: C 2/M
;
_chemical_formula_sum "Si O2"
_cell_formula_units_Z 48
_cell_length_a 32.695902
_cell_length_b 7.712331
_cell_length_c 16.301303
_cell_angle_alpha 90.000000
_cell_angle_beta 33.615663
_cell_angle_gamma 90.000000
_cell_volume 2275.686674
_symmetry_space_group_name_H-M "C 2/M"
_symmetry_group_IT_number 12
_symmetry_cell_setting 'monoclinic'
loop_
_space_group_symop_operation_xyz
x,y,z
-x,y,-z
-x,-y,-z
x,-y,z
1/2+x,1/2+y,z
1/2-x,1/2+y,-z
1/2-x,1/2-y,-z
1/2+x,1/2-y,z
loop_
_atom_site_type_symbol
_atom_site_label
_atom_site_fract_x
_atom_site_fract_y
_atom_site_fract_z
Si Si1 0.431665 0.701485 0.563464
Si Si2 0.730504 0.708677 0.126003
Si Si3 0.146244 0.203943 0.602739
Si Si4 0.638158 0.212553 0.974574
Si Si5 0.187780 0.709940 0.712733
Si Si6 0.518816 0.799571 0.695957
O O1 0.500000 0.779907 0.500000
O O2 0.426652 0.500000 0.597940
O O3 0.350908 0.777677 0.715998
O O4 0.450411 0.708846 0.436370
O O5 0.729318 0.500000 0.137707
O O6 0.794527 0.771076 0.080249
O O7 0.750000 0.750000 0.000000
O O8 0.145847 0.230691 0.701106
O O9 0.226769 0.268706 0.438079
O O10 0.078997 0.289029 0.667383
O O11 0.142573 0.000000 0.590673
O O12 0.652516 0.267204 0.857055
O O13 0.637215 0.000000 0.975652
O O14 0.559676 0.270339 0.141619
O O15 0.188743 0.500000 0.709736
O O16 0.507783 0.000000 0.691329
#
# Coordination Sequence:
#
# PCOD9196088 Si02
#       6
#     8   8   8   8   8   8
#     4  10  21  37  57  81 110 142 175 218 274 323
#     4  10  20  36  57  80 108 141 177 217 263 315
#     4  10  20  35  56  81 109 139 174 221 273 319
#     4   9  19  35  54  76 104 141 181 219 261 311
#     4   9  18  36  59  78 102 140 182 220 262 318
#     4  11  22  35  54  79 107 141 182 222 260 313
#
# _framework density 21.092534000000001
#
# number of rings (size 3 to 8) (size 9 to 14) (size 15 to 20)
#    0.000    2.167    0.000    3.000    0.000    5.000 
#    0.000    6.667    0.000    0.000    0.000    0.000 
#    0.000    0.000    0.000    0.000    0.000    0.000 
#
# Total GULP energy -134092.867663 kJ/mol
# GULP energy per Si atom -5587.202819 kJ/mol
# Density = 2.104453 g / cm^3
# Si number density = 21.092534 Si / 1000 Ang^3
#
#
#
# Elastic Constant Matrix: (Units=GPa)
#
#
# Indices 1 2 3 4 5 6 
#
# 1 146.1844 -10.5111 92.7218 0.0000 -14.7524 0.0001
# 2 -10.5111 32.8335 -6.7143 0.0001 -6.7418 -0.0003
# 3 92.7218 -6.7143 176.9099 0.0002 -1.8992 -0.0002
# 4 0.0000 0.0001 0.0002 9.3935 -0.0001 7.8289
# 5 -14.7524 -6.7418 -1.8992 -0.0001 35.3713 0.0000
# 6 0.0001 -0.0003 -0.0002 7.8289 0.0000 20.6600
#
#
#
# Elastic Compliance Matrix: (Units=1/GPa)
#
#
# Indices 1 2 3 4 5 6 
#
# 1 0.011203 0.003456 -0.005687 0.000000 0.005026 0.000000
# 2 0.003456 0.033050 -0.000474 -0.000001 0.007715 0.000001
# 3 -0.005687 -0.000474 0.008594 0.000000 -0.002001 0.000000
# 4 0.000000 -0.000001 0.000000 0.155599 0.000000 -0.058963
# 5 0.005026 0.007715 -0.002001 0.000000 0.031731 0.000000
# 6 0.000000 0.000001 0.000000 -0.058963 0.000000 0.070746
#
#
# Mechanical properties :
#
#
# Convention : Reuss Voigt Hill
#
# Bulk Modulus (GPa) = 21.08060 56.32450 38.70255
# Shear Modulus (GPa) = 15.05361 31.78038 23.41699
#
# Velocity S-wave (km/s) = 2.67440 3.88585 3.33559
# Velocity P-wave (km/s) = 4.42183 6.84796 5.76399
#
# Compressibility (1/GPa) = 0.04743698
#
# Stress axis : x y z
#
# Youngs Moduli (GPa) = 89.25897 30.25702 116.36469
#
# Poissons Ratio (x) = -0.10456 0.66174
# Poissons Ratio (y) = -0.30845 0.05515
# Poissons Ratio (z) = 0.50760 0.01434
#
# Static dielectric constant tensor:
#      x y z
#    x 1.718840 0.000000 -0.022740 
#    y 0.000000 1.802000 0.000000 
#    z -0.022740 0.000000 1.734990 
# 
# From -- ./inp_files/248808.got.cif
#   From: 2010.05.17/outbox.cif.g08.bks.cpg/sg12_125_cif.got.tgz:248808.got - 2010.06.03 13:09:07.
