data_PCOD9196674
_publ_section_title
;
Structure prediction by ZEFSAII (Michael W. Deem and Ramdas Pophale) SiO2 
 PCOD9196674
Probable space group: C 2/M
;
_chemical_formula_sum "Si O2"
_cell_formula_units_Z 40
_cell_length_a 15.311347
_cell_length_b 17.191412
_cell_length_c 14.369993
_cell_angle_alpha 90.000000
_cell_angle_beta 32.434210
_cell_angle_gamma 90.000000
_cell_volume 2028.683351
_symmetry_space_group_name_H-M "C 2/M"
_symmetry_group_IT_number 12
_symmetry_cell_setting 'monoclinic'
loop_
_space_group_symop_operation_xyz
x,y,z
-x,y,-z
-x,-y,-z
x,-y,z
1/2+x,1/2+y,z
1/2-x,1/2+y,-z
1/2-x,1/2-y,-z
1/2+x,1/2-y,z
loop_
_atom_site_type_symbol
_atom_site_label
_atom_site_fract_x
_atom_site_fract_y
_atom_site_fract_z
Si Si1 0.904511 0.346201 0.500064
Si Si2 0.438213 0.253490 0.802877
Si Si3 0.864903 0.913112 0.391374
Si Si4 0.369825 0.232113 0.185046
Si Si5 0.310088 0.412987 0.656173
O O1 0.780171 0.397836 0.551373
O O2 0.788198 0.282703 0.653267
O O3 0.000000 0.384999 0.500000
O O4 0.019049 0.298532 0.325473
O O5 0.506781 0.341851 0.729357
O O6 0.542564 0.220611 0.795284
O O7 0.250000 0.250000 0.000000
O O8 0.792066 0.911621 0.560832
O O9 0.935090 0.000000 0.314217
O O10 0.307182 0.151783 0.197370
O O11 0.500000 0.271015 0.000000
O O12 0.500000 0.394362 0.500000
O O13 0.280693 0.500000 0.718168
#
# Coordination Sequence:
#
# PCOD9196674 Si02
#       5
#     8   8   8   8   8
#     4  11  21  39  62  87 119 157 203 247 293 348
#     4  11  22  38  60  90 117 155 203 250 292 350
#     4  10  21  40  61  86 122 159 195 245 303 353
#     4  11  21  35  58  87 118 153 198 249 294 350
#     4  10  20  35  57  84 120 158 190 237 304 359
#
# _framework density 19.717222
#
# number of rings (size 3 to 8) (size 9 to 14) (size 15 to 20)
#    0.000    1.400    4.000    3.000    2.800    0.800 
#    0.000    2.000    0.000   20.400    0.000    0.000 
#    0.000    0.000    0.000    0.000    0.000    0.000 
#
# Total GULP energy -111630.003093 kJ/mol
# GULP energy per Si atom -5581.500155 kJ/mol
# Density = 1.967234 g / cm^3
# Si number density = 19.717222 Si / 1000 Ang^3
#
#
#
# Elastic Constant Matrix: (Units=GPa)
#
#
# Indices 1 2 3 4 5 6 
#
# 1 87.3265 -9.8053 -19.3295 -0.0006 3.3932 -0.0001
# 2 -9.8053 70.7500 10.6364 0.0003 -6.1123 0.0001
# 3 -19.3295 10.6364 72.3439 -0.0005 9.8381 0.0007
# 4 -0.0006 0.0003 -0.0005 7.4463 0.0007 4.6340
# 5 3.3932 -6.1123 9.8381 0.0007 28.1322 -0.0002
# 6 -0.0001 0.0001 0.0007 4.6340 -0.0002 5.0166
#
#
#
# Elastic Compliance Matrix: (Units=1/GPa)
#
#
# Indices 1 2 3 4 5 6 
#
# 1 0.012439 0.000977 0.003523 0.000004 -0.002520 -0.000004
# 2 0.000977 0.014990 -0.002488 -0.000003 0.004009 0.000003
# 3 0.003523 -0.002488 0.016023 0.000008 -0.006569 -0.000010
# 4 0.000004 -0.000003 0.000008 0.315889 -0.000014 -0.291799
# 5 -0.002520 0.004009 -0.006569 -0.000014 0.039019 0.000016
# 6 -0.000004 0.000003 -0.000010 -0.291799 0.000016 0.468885
#
#
# Mechanical properties :
#
#
# Convention : Reuss Voigt Hill
#
# Bulk Modulus (GPa) = 21.06431 21.49152 21.27791
# Shear Modulus (GPa) = 5.68798 24.71360 15.20079
#
# Velocity S-wave (km/s) = 1.70031 3.54418 2.77959
# Velocity P-wave (km/s) = 3.81590 5.26040 4.59527
#
# Compressibility (1/GPa) = 0.04747367
#
# Stress axis : x y z
#
# Youngs Moduli (GPa) = 80.39516 66.71089 62.40953
#
# Poissons Ratio (x) = -0.06515 -0.21984
# Poissons Ratio (y) = -0.07851 0.15529
# Poissons Ratio (z) = -0.28320 0.16599
#
# Static dielectric constant tensor:
#      x y z
#    x 1.739650 0.000000 -0.010610 
#    y 0.000000 1.717890 0.000000 
#    z -0.010610 0.000000 1.678600 
# 
# From -- ./inp_files/60825.got.cif
#   From: 2010.05.17/outbox.cif.g08.bks.cpg/sg12_31_cif.got.tgz:60825.got - 2010.06.03 13:09:07.
