data_PCOD9196615
_publ_section_title
;
Structure prediction by ZEFSAII (Michael W. Deem and Ramdas Pophale) SiO2 
 PCOD9196615
Probable space group: C 2/M
;
_chemical_formula_sum "Si O2"
_cell_formula_units_Z 56
_cell_length_a 16.460168
_cell_length_b 8.969453
_cell_length_c 26.824241
_cell_angle_alpha 90.000000
_cell_angle_beta 141.037797
_cell_angle_gamma 90.000000
_cell_volume 2490.264262
_symmetry_space_group_name_H-M "C 2/M"
_symmetry_group_IT_number 12
_symmetry_cell_setting 'monoclinic'
loop_
_space_group_symop_operation_xyz
x,y,z
-x,y,-z
-x,-y,-z
x,-y,z
1/2+x,1/2+y,z
1/2-x,1/2+y,-z
1/2-x,1/2-y,-z
1/2+x,1/2-y,z
loop_
_atom_site_type_symbol
_atom_site_label
_atom_site_fract_x
_atom_site_fract_y
_atom_site_fract_z
Si Si1 0.837821 0.320891 0.470447
Si Si2 0.803927 0.174912 0.904821
Si Si3 0.218034 0.822613 0.766913
Si Si4 0.877193 0.323658 0.036472
Si Si5 0.010566 0.672996 0.805519
Si Si6 0.244388 0.823323 0.322083
Si Si7 0.563181 0.321942 0.387385
O O1 0.850912 0.500000 0.478603
O O2 0.836696 0.277654 0.411973
O O3 0.694688 0.278527 0.422336
O O4 0.933262 0.250688 0.556154
O O5 0.803800 0.248624 0.850585
O O6 0.655090 0.193748 0.853427
O O7 0.830873 0.000000 0.914644
O O8 0.891480 0.248490 0.989529
O O9 0.237015 0.764125 0.720135
O O10 0.066816 0.782868 0.703805
O O11 0.234820 0.000000 0.776932
O O12 0.857488 0.500000 0.020291
O O13 0.980551 0.305423 0.130045
O O14 0.750000 0.250000 0.000000
O O15 0.973907 0.500000 0.778726
O O16 0.903616 0.784616 0.733851
O O17 0.258932 0.000000 0.321266
O O18 0.564873 0.500000 0.394024
#
# Coordination Sequence:
#
# PCOD9196615 Si02
#       7
#     8   8   8   8   8   8   8
#     4   9  19  36  57  81 107 136 174 221 270 318
#     4  10  20  35  57  84 111 141 181 225 272 325
#     4  11  23  38  55  77 110 147 183 224 270 322
#     4   9  17  31  53  82 112 141 178 224 272 320
#     4   9  19  35  56  82 110 141 178 221 269 320
#     4  11  23  37  54  78 110 146 184 224 268 321
#     4   9  19  36  58  82 105 136 178 220 267 322
#
# _framework density 22.487573999999999
#
# number of rings (size 3 to 8) (size 9 to 14) (size 15 to 20)
#    0.000    2.286    0.000    3.429    0.000    7.429 
#    0.000    6.429    0.000    4.286    0.000    0.000 
#    0.000    0.000    0.000    0.000    0.000    0.000 
#
# Total GULP energy -156498.726467 kJ/mol
# GULP energy per Si atom -5589.240231 kJ/mol
# Density = 2.243639 g / cm^3
# Si number density = 22.487574 Si / 1000 Ang^3
#
#
#
# Elastic Constant Matrix: (Units=GPa)
#
#
# Indices 1 2 3 4 5 6 
#
# 1 78.2006 16.0340 29.0788 0.0000 -23.9996 0.0000
# 2 16.0340 44.2119 52.4249 0.0000 -17.6210 0.0000
# 3 29.0788 52.4249 132.4671 0.0000 -33.7432 0.0000
# 4 0.0000 0.0000 0.0000 33.4593 0.0000 -8.8952
# 5 -23.9996 -17.6210 -33.7432 0.0000 44.4735 0.0000
# 6 0.0000 0.0000 0.0000 -8.8952 0.0000 23.3520
#
#
#
# Elastic Compliance Matrix: (Units=1/GPa)
#
#
# Indices 1 2 3 4 5 6 
#
# 1 0.015659 -0.001741 -0.000956 0.000000 0.007035 0.000000
# 2 -0.001741 0.043754 -0.015813 0.000000 0.004398 0.000000
# 3 -0.000956 -0.015813 0.015234 0.000000 0.004777 0.000000
# 4 0.000000 0.000000 0.000000 0.033255 0.000000 0.012667
# 5 0.007035 0.004398 0.004777 0.000000 0.031649 0.000000
# 6 0.000000 0.000000 0.000000 0.012667 0.000000 0.047648
#
#
# Mechanical properties :
#
#
# Convention : Reuss Voigt Hill
#
# Bulk Modulus (GPa) = 26.57796 49.99500 38.28648
# Shear Modulus (GPa) = 21.11831 30.74642 25.93237
#
# Velocity S-wave (km/s) = 3.06782 3.70166 3.39954
# Velocity P-wave (km/s) = 4.93895 6.36791 5.69840
#
# Compressibility (1/GPa) = 0.03762516
#
# Stress axis : x y z
#
# Youngs Moduli (GPa) = 63.86001 22.85531 65.64258
#
# Poissons Ratio (x) = 0.03979 0.06278
# Poissons Ratio (y) = 0.11119 1.03802
# Poissons Ratio (z) = 0.06108 0.36142
#
# Static dielectric constant tensor:
#      x y z
#    x 1.920230 0.000000 0.042440 
#    y 0.000000 1.738520 0.000000 
#    z 0.042440 0.000000 1.851350 
# 
# From -- ./inp_files/363216.got.cif
#   From: 2010.05.17/outbox.cif.g08.bks.cpg/sg12_182_cif.got.tgz:363216.got - 2010.06.03 13:09:07.
