data_PCOD9196859
_publ_section_title
;
Structure prediction by ZEFSAII (Michael W. Deem and Ramdas Pophale) SiO2 
 PCOD9196859
Probable space group: C 2/M
;
_chemical_formula_sum "Si O2"
_cell_formula_units_Z 48
_cell_length_a 14.996692
_cell_length_b 18.558469
_cell_length_c 9.819567
_cell_angle_alpha 90.000000
_cell_angle_beta 50.268971
_cell_angle_gamma 90.000000
_cell_volume 2101.776421
_symmetry_space_group_name_H-M "C 2/M"
_symmetry_group_IT_number 12
_symmetry_cell_setting 'monoclinic'
loop_
_space_group_symop_operation_xyz
x,y,z
-x,y,-z
-x,-y,-z
x,-y,z
1/2+x,1/2+y,z
1/2-x,1/2+y,-z
1/2-x,1/2-y,-z
1/2+x,1/2-y,z
loop_
_atom_site_type_symbol
_atom_site_label
_atom_site_fract_x
_atom_site_fract_y
_atom_site_fract_z
Si Si1 0.612309 0.699055 0.585473
Si Si2 0.694340 0.913668 0.132686
Si Si3 0.638078 0.297432 0.075672
Si Si4 0.668071 0.206919 0.782752
Si Si5 0.035763 0.416486 0.798709
Si Si6 0.748205 0.918137 0.384735
O O1 0.638597 0.765817 0.659691
O O2 0.691989 0.701205 0.371945
O O3 0.657442 0.630951 0.631250
O O4 0.474081 0.703238 0.719967
O O5 0.811478 0.878036 0.964351
O O6 0.580543 0.887259 0.162541
O O7 0.702475 0.891203 0.283212
O O8 0.693136 0.000000 0.128156
O O9 0.619282 0.263056 0.941868
O O10 0.750000 0.250000 0.000000
O O11 0.603695 0.129718 0.848825
O O12 0.013300 0.500000 0.854937
O O13 0.134673 0.420041 0.587302
O O14 0.792508 0.000000 0.324125
#
# Coordination Sequence:
#
# PCOD9196859 Si02
#       6
#     8   8   8   8   8   8
#     4  10  21  38  59  86 119 157 200 247 301 366
#     4  10  20  35  57  90 125 159 198 246 305 362
#     4  12  25  40  59  87 123 162 203 254 305 363
#     4  10  21  39  61  86 117 158 203 247 302 359
#     4   9  18  35  60  89 120 158 204 249 297 358
#     4   9  17  32  58  90 122 156 195 248 306 360
#
# _framework density 22.837824000000001
#
# number of rings (size 3 to 8) (size 9 to 14) (size 15 to 20)
#    0.000    2.000    1.667    2.000    0.000    3.333 
#    3.000    2.500    0.000    4.000    0.000    5.833 
#    0.000    0.000    0.000    0.000    0.000    0.000 
#
# Total GULP energy -133767.444593 kJ/mol
# GULP energy per Si atom -5573.643525 kJ/mol
# Density = 2.278584 g / cm^3
# Si number density = 22.837824 Si / 1000 Ang^3
#
#
#
# Elastic Constant Matrix: (Units=GPa)
#
#
# Indices 1 2 3 4 5 6 
#
# 1 99.7013 31.0858 39.2457 0.0000 -24.1447 0.0000
# 2 31.0858 74.7358 0.8899 0.0000 -12.7295 0.0000
# 3 39.2457 0.8899 129.5166 0.0000 -36.8260 0.0000
# 4 0.0000 0.0000 0.0000 18.4813 0.0000 -15.7815
# 5 -24.1447 -12.7295 -36.8260 0.0000 27.1482 0.0000
# 6 0.0000 0.0000 0.0000 -15.7815 0.0000 26.8829
#
#
#
# Elastic Compliance Matrix: (Units=1/GPa)
#
#
# Indices 1 2 3 4 5 6 
#
# 1 0.014107 -0.004552 -0.002088 0.000000 0.007579 0.000000
# 2 -0.004552 0.016760 0.003821 0.000000 0.008994 0.000000
# 3 -0.002088 0.003821 0.013526 0.000000 0.018282 0.000000
# 4 0.000000 0.000000 0.000000 0.108498 0.000000 0.063694
# 5 0.007579 0.008994 0.018282 0.000000 0.072592 0.000000
# 6 0.000000 0.000000 0.000000 0.063694 0.000000 0.074590
#
#
# Mechanical properties :
#
#
# Convention : Reuss Voigt Hill
#
# Bulk Modulus (GPa) = 25.80291 49.59962 37.70126
# Shear Modulus (GPa) = 15.69230 30.01796 22.85513
#
# Velocity S-wave (km/s) = 2.62414 3.62939 3.16691
# Velocity P-wave (km/s) = 4.52817 6.27126 5.46960
#
# Compressibility (1/GPa) = 0.03875532
#
# Stress axis : x y z
#
# Youngs Moduli (GPa) = 70.88898 59.66513 73.93307
#
# Poissons Ratio (x) = 0.27158 0.15440
# Poissons Ratio (y) = 0.32267 -0.28253
# Poissons Ratio (z) = 0.14804 -0.22801
#
# Static dielectric constant tensor:
#      x y z
#    x 1.964410 0.000000 -0.004950 
#    y 0.000000 1.974730 0.000000 
#    z -0.004950 0.000000 1.933140 
# 
# From -- ./inp_files/147933.got.cif
#   From: 2010.05.17/outbox.cif.g08.bks.cpg/sg12_74_cif.got.tgz:147933.got - 2010.06.03 13:09:07.
