data_PCOD9196930
_publ_section_title
;
Structure prediction by ZEFSAII (Michael W. Deem and Ramdas Pophale) SiO2 
 PCOD9196930
Probable space group: C 2/M
;
_chemical_formula_sum "Si O2"
_cell_formula_units_Z 40
_cell_length_a 17.572888
_cell_length_b 13.794620
_cell_length_c 14.758327
_cell_angle_alpha 90.000000
_cell_angle_beta 145.977996
_cell_angle_gamma 90.000000
_cell_volume 2001.699279
_symmetry_space_group_name_H-M "C 2/M"
_symmetry_group_IT_number 12
_symmetry_cell_setting 'monoclinic'
loop_
_space_group_symop_operation_xyz
x,y,z
-x,y,-z
-x,-y,-z
x,-y,z
1/2+x,1/2+y,z
1/2-x,1/2+y,-z
1/2-x,1/2-y,-z
1/2+x,1/2-y,z
loop_
_atom_site_type_symbol
_atom_site_label
_atom_site_fract_x
_atom_site_fract_y
_atom_site_fract_z
Si Si1 0.880994 0.108942 0.106332
Si Si2 0.098728 0.614723 0.519741
Si Si3 0.399971 0.315958 0.815083
Si Si4 0.963816 0.391813 0.857432
Si Si5 0.897350 0.322826 0.177652
O O1 0.878726 0.206856 0.164328
O O2 0.011570 0.126734 0.171994
O O3 0.885515 0.000000 0.148930
O O4 0.734458 0.122894 0.911843
O O5 0.083894 0.500000 0.503531
O O6 0.254899 0.638578 0.689547
O O7 0.000000 0.655663 0.500000
O O8 0.036551 0.652067 0.364586
O O9 0.372854 0.204312 0.758827
O O10 0.500000 0.314008 0.000000
O O11 0.914976 0.500000 0.783969
O O12 0.086228 0.362567 0.909514
O O13 0.000000 0.396402 0.000000
#
# Coordination Sequence:
#
# PCOD9196930 Si02
#       5
#     8   8   8   8   8
#     4  10  20  35  58  84 111 146 187 233 282 329
#     4  11  23  38  58  83 114 151 186 228 286 342
#     4  10  21  36  56  84 114 145 190 241 281 329
#     4   9  18  34  57  82 110 148 189 228 276 333
#     4  10  21  37  57  83 116 151 189 231 276 336
#
# _framework density 19.983021000000001
#
# number of rings (size 3 to 8) (size 9 to 14) (size 15 to 20)
#    0.000    2.000    0.000    3.600    0.000    8.000 
#    0.000    3.000    0.000    1.200    0.000    0.000 
#    0.000    0.000    0.000    0.000    0.000    0.000 
#
# Total GULP energy -111349.058769 kJ/mol
# GULP energy per Si atom -5567.452938 kJ/mol
# Density = 1.993754 g / cm^3
# Si number density = 19.983021 Si / 1000 Ang^3
#
#
#
# Elastic Constant Matrix: (Units=GPa)
#
#
# Indices 1 2 3 4 5 6 
#
# 1 82.3244 13.7557 34.9017 0.0000 4.5674 0.0000
# 2 13.7557 145.1904 23.1939 0.0000 -8.4112 0.0000
# 3 34.9017 23.1939 89.9023 0.0000 17.2237 0.0000
# 4 0.0000 0.0000 0.0000 5.2127 0.0000 1.5788
# 5 4.5674 -8.4112 17.2237 0.0000 13.2027 0.0000
# 6 0.0000 0.0000 0.0000 1.5788 0.0000 18.3941
#
#
#
# Elastic Compliance Matrix: (Units=1/GPa)
#
#
# Indices 1 2 3 4 5 6 
#
# 1 0.014644 -0.000239 -0.006164 0.000000 0.002823 0.000000
# 2 -0.000239 0.008166 -0.004035 0.000000 0.010549 0.000000
# 3 -0.006164 -0.004035 0.019520 0.000000 -0.025903 0.000000
# 4 0.000000 0.000000 0.000000 0.196959 0.000001 -0.016905
# 5 0.002823 0.010549 -0.025903 0.000001 0.115277 0.000000
# 6 0.000000 0.000000 0.000000 -0.016905 0.000000 0.055816
#
#
# Mechanical properties :
#
#
# Convention : Reuss Voigt Hill
#
# Bulk Modulus (GPa) = 46.61349 51.23551 48.92450
# Shear Modulus (GPa) = 11.40489 23.73296 17.56892
#
# Velocity S-wave (km/s) = 2.39159 3.44998 2.96833
# Velocity P-wave (km/s) = 5.56807 6.44709 6.02364
#
# Compressibility (1/GPa) = 0.02145302
#
# Stress axis : x y z
#
# Youngs Moduli (GPa) = 68.28873 122.46173 51.23040
#
# Poissons Ratio (x) = 0.02928 0.31579
# Poissons Ratio (y) = 0.01633 0.20670
# Poissons Ratio (z) = 0.42094 0.49411
#
# Static dielectric constant tensor:
#      x y z
#    x 1.790720 0.000000 -0.034600 
#    y 0.000000 1.728880 0.000000 
#    z -0.034600 0.000000 1.711560 
# 
# From -- ./inp_files/225823.got.cif
#   From: 2010.05.17/outbox.cif.g08.bks.cpg/sg12_113_cif.got.tgz:225823.got - 2010.06.03 13:09:07.
