data_PCOD9196736
_publ_section_title
;
Structure prediction by ZEFSAII (Michael W. Deem and Ramdas Pophale) SiO2 
 PCOD9196736
Probable space group: C 2/M
;
_chemical_formula_sum "Si O2"
_cell_formula_units_Z 64
_cell_length_a 18.800790
_cell_length_b 13.534758
_cell_length_c 15.106406
_cell_angle_alpha 90.000000
_cell_angle_beta 119.858164
_cell_angle_gamma 90.000000
_cell_volume 3333.782892
_symmetry_space_group_name_H-M "C 2/M"
_symmetry_group_IT_number 12
_symmetry_cell_setting 'monoclinic'
loop_
_space_group_symop_operation_xyz
x,y,z
-x,y,-z
-x,-y,-z
x,-y,z
1/2+x,1/2+y,z
1/2-x,1/2+y,-z
1/2-x,1/2-y,-z
1/2+x,1/2-y,z
loop_
_atom_site_type_symbol
_atom_site_label
_atom_site_fract_x
_atom_site_fract_y
_atom_site_fract_z
Si Si1 0.085905 0.887255 0.004146
Si Si2 0.235336 0.117262 0.492217
Si Si3 0.913259 0.885939 0.476922
Si Si4 0.701440 0.209999 0.129379
Si Si5 0.943393 0.612641 0.050864
Si Si6 0.368951 0.615949 0.251956
Si Si7 0.324769 0.753761 0.681175
Si Si8 0.485826 0.291364 0.203405
O O1 0.058408 0.871872 0.886519
O O2 0.106541 0.000000 0.037782
O O3 0.159679 0.813201 0.073054
O O4 0.000000 0.861234 0.000000
O O5 0.149465 0.149787 0.487001
O O6 0.306815 0.158759 0.599970
O O7 0.233318 0.167598 0.394653
O O8 0.237667 0.000000 0.489134
O O9 0.862422 0.886204 0.354139
O O10 0.000000 0.840061 0.500000
O O11 0.932691 0.000000 0.515168
O O12 0.794668 0.181299 0.167345
O O13 0.691351 0.210633 0.229286
O O14 0.646641 0.129495 0.044536
O O15 0.958293 0.500000 0.086230
O O16 0.959400 0.688048 0.140917
O O17 0.000000 0.635558 0.000000
O O18 0.368165 0.500000 0.224835
O O19 0.450920 0.675063 0.275689
O O20 0.416687 0.711373 0.738191
#
# Coordination Sequence:
#
# PCOD9196736 Si02
#       8
#     8   8   8   8   8   8   8   8
#     4  10  20  35  57  85 118 156 194 238 293 347
#     4  10  22  36  55  85 116 146 193 247 294 347
#     4   9  17  32  52  79 113 148 186 232 288 343
#     4  11  20  38  57  85 118 153 198 241 289 345
#     4  10  20  35  59  88 117 153 195 242 292 341
#     4  11  23  36  58  87 119 159 193 236 297 352
#     4  11  21  36  59  84 114 151 195 246 291 340
#     4  11  21  38  56  87 118 152 197 243 289 343
#
# _framework density 19.197410000000001
#
# number of rings (size 3 to 8) (size 9 to 14) (size 15 to 20)
#    0.000    1.625    3.750    2.250    0.000    5.500 
#    0.000    1.875    0.000    0.000    0.000    0.875 
#    0.000    0.000    0.000    0.000    0.000    0.000 
#
# Total GULP energy -178252.345611 kJ/mol
# GULP energy per Si atom -5570.385800 kJ/mol
# Density = 1.915372 g / cm^3
# Si number density = 19.197410 Si / 1000 Ang^3
#
#
#
# Elastic Constant Matrix: (Units=GPa)
#
#
# Indices 1 2 3 4 5 6 
#
# 1 42.4854 8.4884 -7.7639 0.0000 10.7807 0.0000
# 2 8.4884 113.0479 17.4806 0.0000 3.5087 0.0000
# 3 -7.7639 17.4806 77.3819 0.0000 0.7985 0.0000
# 4 0.0000 0.0000 0.0000 7.0812 0.0000 -0.3959
# 5 10.7807 3.5087 0.7985 0.0000 34.0813 0.0000
# 6 0.0000 0.0000 0.0000 -0.3959 0.0000 20.8387
#
#
#
# Elastic Compliance Matrix: (Units=1/GPa)
#
#
# Indices 1 2 3 4 5 6 
#
# 1 0.026688 -0.002253 0.003272 0.000000 -0.008287 0.000000
# 2 -0.002253 0.009384 -0.002344 0.000000 -0.000199 0.000000
# 3 0.003272 -0.002344 0.013792 0.000000 -0.001117 0.000000
# 4 0.000000 0.000000 0.000000 0.141369 0.000000 0.002685
# 5 -0.008287 -0.000199 -0.001117 0.000000 0.032010 0.000000
# 6 0.000000 0.000000 0.000000 0.002685 0.000000 0.048039
#
#
# Mechanical properties :
#
#
# Convention : Reuss Voigt Hill
#
# Bulk Modulus (GPa) = 21.17953 29.92506 25.55229
# Shear Modulus (GPa) = 17.26114 26.71426 21.98770
#
# Velocity S-wave (km/s) = 3.00182 3.73440 3.38797
# Velocity P-wave (km/s) = 4.80323 5.84947 5.35197
#
# Compressibility (1/GPa) = 0.04721541
#
# Stress axis : x y z
#
# Youngs Moduli (GPa) = 37.46956 106.56978 72.50484
#
# Poissons Ratio (x) = 0.24007 -0.23724
# Poissons Ratio (y) = 0.08441 0.16993
# Poissons Ratio (z) = -0.12260 0.24977
#
# Static dielectric constant tensor:
#      x y z
#    x 1.760530 0.000000 -0.026330 
#    y 0.000000 1.666440 0.000000 
#    z -0.026330 0.000000 1.729170 
# 
# From -- ./inp_files/225298.got.cif
#   From: 2010.05.17/outbox.cif.g08.bks.cpg/sg12_113_cif.got.tgz:225298.got - 2010.06.03 13:09:07.
