data_PCOD9196309
_publ_section_title
;
Structure prediction by ZEFSAII (Michael W. Deem and Ramdas Pophale) SiO2 
 PCOD9196309
Probable space group: C 2/M
;
_chemical_formula_sum "Si O2"
_cell_formula_units_Z 56
_cell_length_a 21.036648
_cell_length_b 8.642313
_cell_length_c 18.030237
_cell_angle_alpha 90.000000
_cell_angle_beta 71.335464
_cell_angle_gamma 90.000000
_cell_volume 3105.598181
_symmetry_space_group_name_H-M "C 2/M"
_symmetry_group_IT_number 12
_symmetry_cell_setting 'monoclinic'
loop_
_space_group_symop_operation_xyz
x,y,z
-x,y,-z
-x,-y,-z
x,-y,z
1/2+x,1/2+y,z
1/2-x,1/2+y,-z
1/2-x,1/2-y,-z
1/2+x,1/2-y,z
loop_
_atom_site_type_symbol
_atom_site_label
_atom_site_fract_x
_atom_site_fract_y
_atom_site_fract_z
Si Si1 0.056462 0.684374 0.075889
Si Si2 0.317681 0.813066 0.250521
Si Si3 0.335716 0.686578 0.670199
Si Si4 0.931005 0.814665 0.770219
Si Si5 0.924673 0.313586 0.505445
Si Si6 0.574225 0.186740 0.665172
Si Si7 0.089520 0.184276 0.908737
O O1 0.057362 0.500000 0.070241
O O2 0.083488 0.740172 0.144721
O O3 0.979303 0.741825 0.097461
O O4 0.094247 0.757178 0.991388
O O5 0.241383 0.763991 0.293197
O O6 0.365789 0.772132 0.301608
O O7 0.349957 0.739400 0.165355
O O8 0.319059 0.000000 0.242264
O O9 0.336771 0.500000 0.667170
O O10 0.379224 0.734653 0.725563
O O11 0.371671 0.748147 0.583294
O O12 0.005138 0.762452 0.717673
O O13 0.929109 0.000000 0.777764
O O14 0.922982 0.500000 0.510321
O O15 0.911788 0.268634 0.425089
O O16 0.000000 0.263401 0.500000
O O17 0.565677 0.000000 0.670803
O O18 0.082740 0.000000 0.909934
#
# Coordination Sequence:
#
# PCOD9196309 Si02
#       7
#     8   8   8   8   8   8   8
#     4  11  21  35  58  86 115 151 190 230 283 340
#     4  10  21  39  58  81 116 156 194 228 285 349
#     4  10  23  39  57  82 116 155 190 237 290 341
#     4  11  21  35  56  85 115 145 192 243 285 330
#     4  10  20  35  56  84 114 147 193 242 287 339
#     4  10  20  35  58  82 110 150 193 237 284 341
#     4  11  21  35  57  88 119 147 187 237 283 328
#
# _framework density 18.031953000000001
#
# number of rings (size 3 to 8) (size 9 to 14) (size 15 to 20)
#    0.000    1.571    2.857    3.857    0.000    2.571 
#    0.000    0.714    0.000    0.000    0.000    0.000 
#    0.000    0.000    0.000    0.000    0.000    0.000 
#
# Total GULP energy -156435.305978 kJ/mol
# GULP energy per Si atom -5586.975213 kJ/mol
# Density = 1.799091 g / cm^3
# Si number density = 18.031953 Si / 1000 Ang^3
#
#
#
# Elastic Constant Matrix: (Units=GPa)
#
#
# Indices 1 2 3 4 5 6 
#
# 1 121.7409 32.4179 79.3496 0.0000 -5.2532 0.0000
# 2 32.4179 44.6197 36.1797 0.0000 0.9287 0.0000
# 3 79.3496 36.1797 169.6423 0.0000 0.4044 0.0000
# 4 0.0000 0.0000 0.0000 35.5497 0.0000 -1.1342
# 5 -5.2532 0.9287 0.4044 0.0000 31.5807 0.0000
# 6 0.0000 0.0000 0.0000 -1.1342 0.0000 15.5643
#
#
#
# Elastic Compliance Matrix: (Units=1/GPa)
#
#
# Indices 1 2 3 4 5 6 
#
# 1 0.012978 -0.005503 -0.004902 0.000000 0.002383 0.000000
# 2 -0.005503 0.029448 -0.003702 0.000000 -0.001734 0.000000
# 3 -0.004902 -0.003702 0.008979 0.000000 -0.000822 0.000000
# 4 0.000000 0.000000 0.000000 0.028195 0.000000 0.002055
# 5 0.002383 -0.001734 -0.000822 0.000000 0.032123 0.000000
# 6 0.000000 0.000000 0.000000 0.002055 0.000000 0.064400
#
#
# Mechanical properties :
#
#
# Convention : Reuss Voigt Hill
#
# Bulk Modulus (GPa) = 43.12294 70.21079 56.66687
# Shear Modulus (GPa) = 23.57735 29.07597 26.32666
#
# Velocity S-wave (km/s) = 3.61990 4.01991 3.82514
# Velocity P-wave (km/s) = 6.43726 7.78252 7.14164
#
# Compressibility (1/GPa) = 0.02318951
#
# Stress axis : x y z
#
# Youngs Moduli (GPa) = 77.05500 33.95819 111.36779
#
# Poissons Ratio (x) = 0.18689 0.54595
# Poissons Ratio (y) = 0.42407 0.41229
# Poissons Ratio (z) = 0.37774 0.12571
#
# Static dielectric constant tensor:
#      x y z
#    x 1.603070 0.000000 0.016180 
#    y 0.000000 1.611450 0.000000 
#    z 0.016180 0.000000 1.600950 
# 
# From -- ./inp_files/280913.got.cif
#   From: 2010.05.17/outbox.cif.g08.bks.cpg/sg12_141_cif.got.tgz:280913.got - 2010.06.03 13:09:07.
