data_PCOD9196345
_publ_section_title
;
Structure prediction by ZEFSAII (Michael W. Deem and Ramdas Pophale) SiO2 
 PCOD9196345
Probable space group: C 2/M
;
_chemical_formula_sum "Si O2"
_cell_formula_units_Z 56
_cell_length_a 18.260276
_cell_length_b 15.589398
_cell_length_c 14.351623
_cell_angle_alpha 90.000000
_cell_angle_beta 128.358813
_cell_angle_gamma 90.000000
_cell_volume 3203.547580
_symmetry_space_group_name_H-M "C 2/M"
_symmetry_group_IT_number 12
_symmetry_cell_setting 'monoclinic'
loop_
_space_group_symop_operation_xyz
x,y,z
-x,y,-z
-x,-y,-z
x,-y,z
1/2+x,1/2+y,z
1/2-x,1/2+y,-z
1/2-x,1/2-y,-z
1/2+x,1/2-y,z
loop_
_atom_site_type_symbol
_atom_site_label
_atom_site_fract_x
_atom_site_fract_y
_atom_site_fract_z
Si Si1 0.934273 0.213770 0.704171
Si Si2 0.210027 0.681545 0.294860
Si Si3 0.408376 0.000000 0.062791
Si Si4 0.089561 0.104126 0.502041
Si Si5 0.295978 0.283426 0.901339
Si Si6 0.623737 0.000000 0.173550
Si Si7 0.614826 0.822372 0.858010
Si Si8 0.456249 0.406162 0.066958
O O1 0.839843 0.262519 0.662775
O O2 0.927081 0.150147 0.610677
O O3 0.013924 0.285586 0.752317
O O4 0.979272 0.156976 0.822518
O O5 0.318653 0.655063 0.389330
O O6 0.191824 0.737798 0.187795
O O7 0.161684 0.588658 0.245545
O O8 0.390397 0.919089 0.113131
O O9 0.514637 0.000000 0.111205
O O10 0.354579 0.000000 0.920797
O O11 0.000000 0.114609 0.500000
O O12 0.105999 0.000000 0.507087
O O13 0.188007 0.301261 0.835175
O O14 0.341186 0.223140 0.015957
O O15 0.353569 0.369754 0.966153
O O16 0.452912 0.500000 0.108987
O O17 0.500000 0.411451 0.000000
#
# Coordination Sequence:
#
# PCOD9196345 Si02
#       8
#     8   8   4   8   8   4   8   8
#     4  11  22  39  61  86 117 156 198 245 295 352
#     4  12  21  40  62  89 116 153 198 248 295 355
#     4  11  20  34  58  88 127 156 192 242 294 351
#     4  11  25  43  63  87 116 153 198 252 304 351
#     4  10  21  35  54  85 119 160 193 235 293 349
#     4  11  22  34  61  92 118 152 198 246 294 340
#     4  10  21  34  54  85 123 155 194 238 291 353
#     4  10  20  35  56  84 119 155 195 235 282 349
#
# _framework density 17.480620999999999
#
# number of rings (size 3 to 8) (size 9 to 14) (size 15 to 20)
#    0.000    1.286    5.000    1.714    1.000    0.000 
#    0.000    0.000    0.000    0.000    0.000    2.000 
#    0.000    0.000    0.000    0.000    0.000    0.000 
#
# Total GULP energy -156000.339615 kJ/mol
# GULP energy per Si atom -5571.440701 kJ/mol
# Density = 1.744083 g / cm^3
# Si number density = 17.480621 Si / 1000 Ang^3
#
#
#
# Elastic Constant Matrix: (Units=GPa)
#
#
# Indices 1 2 3 4 5 6 
#
# 1 94.4873 40.9488 25.7446 0.0000 8.6861 0.0000
# 2 40.9488 108.9261 19.2930 0.0000 2.1576 0.0000
# 3 25.7446 19.2930 55.5885 0.0000 4.5263 0.0000
# 4 0.0000 0.0000 0.0000 33.5467 0.0000 -7.3693
# 5 8.6861 2.1576 4.5263 0.0000 28.8249 0.0000
# 6 0.0000 0.0000 0.0000 -7.3693 0.0000 32.7758
#
#
#
# Elastic Compliance Matrix: (Units=1/GPa)
#
#
# Indices 1 2 3 4 5 6 
#
# 1 0.014065 -0.004386 -0.004734 0.000000 -0.003167 0.000000
# 2 -0.004386 0.011151 -0.001903 0.000000 0.000786 0.000000
# 3 -0.004734 -0.001903 0.020983 0.000000 -0.001726 0.000000
# 4 0.000000 0.000000 0.000000 0.031358 0.000000 0.007050
# 5 -0.003167 0.000786 -0.001726 0.000000 0.035859 0.000000
# 6 0.000000 0.000000 0.000000 0.007050 0.000000 0.032096
#
#
# Mechanical properties :
#
#
# Convention : Reuss Voigt Hill
#
# Bulk Modulus (GPa) = 41.40256 47.88608 44.64432
# Shear Modulus (GPa) = 28.47251 30.56384 29.51818
#
# Velocity S-wave (km/s) = 4.04022 4.18597 4.11374
# Velocity P-wave (km/s) = 6.74543 7.12857 6.93964
#
# Compressibility (1/GPa) = 0.02415310
#
# Stress axis : x y z
#
# Youngs Moduli (GPa) = 71.09678 89.67830 47.65855
#
# Poissons Ratio (x) = 0.39337 0.22561
# Poissons Ratio (y) = 0.31186 0.09068
# Poissons Ratio (z) = 0.33656 0.17063
#
# Static dielectric constant tensor:
#      x y z
#    x 1.608610 0.000000 0.017180 
#    y 0.000000 1.605040 0.000000 
#    z 0.017180 0.000000 1.593470 
# 
# From -- ./inp_files/225433.got.cif
#   From: 2010.05.17/outbox.cif.g08.bks.cpg/sg12_113_cif.got.tgz:225433.got - 2010.06.03 13:09:07.
