data_PCOD9196346
_publ_section_title
;
Structure prediction by ZEFSAII (Michael W. Deem and Ramdas Pophale) SiO2 
 PCOD9196346
Probable space group: C 2/M
;
_chemical_formula_sum "Si O2"
_cell_formula_units_Z 56
_cell_length_a 20.887547
_cell_length_b 25.472627
_cell_length_c 5.490431
_cell_angle_alpha 90.000000
_cell_angle_beta 78.254115
_cell_angle_gamma 90.000000
_cell_volume 2860.071987
_symmetry_space_group_name_H-M "C 2/M"
_symmetry_group_IT_number 12
_symmetry_cell_setting 'monoclinic'
loop_
_space_group_symop_operation_xyz
x,y,z
-x,y,-z
-x,-y,-z
x,-y,z
1/2+x,1/2+y,z
1/2-x,1/2+y,-z
1/2-x,1/2-y,-z
1/2+x,1/2-y,z
loop_
_atom_site_type_symbol
_atom_site_label
_atom_site_fract_x
_atom_site_fract_y
_atom_site_fract_z
Si Si1 0.540654 0.721331 0.222522
Si Si2 0.329930 0.341057 0.879895
Si Si3 0.067018 0.337576 0.098303
Si Si4 0.165249 0.616383 0.665412
Si Si5 0.747929 0.059344 0.976586
Si Si6 0.734583 0.308529 0.584823
Si Si7 0.395637 0.059120 0.662568
O O1 0.500000 0.713308 0.500000
O O2 0.595330 0.676411 0.170050
O O3 0.570090 0.780778 0.223624
O O4 0.500000 0.720147 0.000000
O O5 0.305627 0.399242 0.978372
O O6 0.305109 0.330181 0.622315
O O7 0.297802 0.307896 0.124955
O O8 0.067458 0.391850 0.248002
O O9 0.130817 0.344794 0.881489
O O10 0.000000 0.336477 0.000000
O O11 0.218722 0.578701 0.742794
O O12 0.201069 0.654777 0.449732
O O13 0.110185 0.576905 0.611544
O O14 0.771502 0.000000 0.957801
O O15 0.681045 0.060553 0.190413
O O16 0.750000 0.250000 0.500000
O O17 0.419818 0.000000 0.683550
#
# Coordination Sequence:
#
# PCOD9196346 Si02
#       7
#     8   8   8   8   8   8   8
#     4  11  25  43  65  87 121 162 202 252 300 357
#     4  11  22  39  61  93 119 158 203 241 307 374
#     4  10  24  38  55  79 112 163 209 250 296 352
#     4  10  20  35  56  84 119 155 199 249 300 355
#     4   9  19  37  58  89 124 156 194 243 306 370
#     4  11  22  34  58  91 125 154 191 254 311 362
#     4  10  20  35  58  82 116 155 198 253 300 347
#
# _framework density 19.579927999999999
#
# number of rings (size 3 to 8) (size 9 to 14) (size 15 to 20)
#    0.000    1.714    1.429    2.571    6.000    0.857 
#    0.000    0.714    0.000    0.857    0.000    0.000 
#    0.000    0.000    0.000    0.000    0.000    0.000 
#
# Total GULP energy -155983.388333 kJ/mol
# GULP energy per Si atom -5570.835298 kJ/mol
# Density = 1.953536 g / cm^3
# Si number density = 19.579928 Si / 1000 Ang^3
#
#
#
# Elastic Constant Matrix: (Units=GPa)
#
#
# Indices 1 2 3 4 5 6 
#
# 1 55.5432 45.5948 11.9305 0.0000 2.0580 0.0000
# 2 45.5948 117.7133 -2.1390 0.0000 -6.5675 0.0000
# 3 11.9305 -2.1390 59.0593 0.0000 -7.3986 0.0000
# 4 0.0000 0.0000 0.0000 -0.6403 0.0000 -3.8049
# 5 2.0580 -6.5675 -7.3986 0.0000 23.8924 0.0000
# 6 0.0000 0.0000 0.0000 -3.8049 0.0000 27.3913
#
#
#
# Elastic Compliance Matrix: (Units=1/GPa)
#
#
# Indices 1 2 3 4 5 6 
#
# 1 0.029935 -0.012192 -0.007523 0.000000 -0.008260 0.000000
# 2 -0.012192 0.013616 0.003700 0.000000 0.005939 0.000000
# 3 -0.007523 0.003700 0.019553 0.000000 0.007720 0.000000
# 4 0.000000 0.000000 0.000000 -0.855532 0.000000 -0.118841
# 5 -0.008260 0.005939 0.007720 0.000000 0.046589 0.000000
# 6 0.000000 0.000000 0.000000 -0.118841 0.000000 0.020000
#
#
# Mechanical properties :
#
#
# Convention : Reuss Voigt Hill
#
# Bulk Modulus (GPa) = 32.18246 38.12092 35.15169
# Shear Modulus (GPa) = -7.31582 21.92399 7.30408
#
# Velocity S-wave (km/s) = -1.93507 3.34985 1.93352
# Velocity P-wave (km/s) = 3.38814 5.87142 4.79339
#
# Compressibility (1/GPa) = 0.03107283
#
# Stress axis : x y z
#
# Youngs Moduli (GPa) = 33.40623 73.44117 51.14297
#
# Poissons Ratio (x) = 0.89542 0.38477
# Poissons Ratio (y) = 0.40730 -0.18923
# Poissons Ratio (z) = 0.25133 -0.27174
#
# Static dielectric constant tensor:
#      x y z
#    x 1.650350 0.000000 -0.060770 
#    y 0.000000 1.705080 0.000000 
#    z -0.060770 0.000000 1.728610 
# 
# From -- ./inp_files/21681.got.cif
#   From: 2010.05.17/outbox.cif.g08.bks.cpg/sg12_11_cif.got.tgz:21681.got - 2010.06.03 13:09:07.
