data_PCOD9196286
_publ_section_title
;
Structure prediction by ZEFSAII (Michael W. Deem and Ramdas Pophale) SiO2 
 PCOD9196286
Probable space group: C 2/M
;
_chemical_formula_sum "Si O2"
_cell_formula_units_Z 56
_cell_length_a 26.802674
_cell_length_b 7.631190
_cell_length_c 19.171834
_cell_angle_alpha 90.000000
_cell_angle_beta 142.871685
_cell_angle_gamma 90.000000
_cell_volume 2366.926504
_symmetry_space_group_name_H-M "C 2/M"
_symmetry_group_IT_number 12
_symmetry_cell_setting 'monoclinic'
loop_
_space_group_symop_operation_xyz
x,y,z
-x,y,-z
-x,-y,-z
x,-y,z
1/2+x,1/2+y,z
1/2-x,1/2+y,-z
1/2-x,1/2-y,-z
1/2+x,1/2-y,z
loop_
_atom_site_type_symbol
_atom_site_label
_atom_site_fract_x
_atom_site_fract_y
_atom_site_fract_z
Si Si1 0.340404 0.211134 0.133582
Si Si2 0.634776 0.294184 0.347517
Si Si3 0.763523 0.794777 0.666723
Si Si4 0.947941 0.711729 0.123565
Si Si5 0.404395 0.297753 0.544948
Si Si6 0.946939 0.302196 0.376238
Si Si7 0.911775 0.288241 0.932783
O O1 0.405222 0.275253 0.146742
O O2 0.370155 0.273307 0.244453
O O3 0.346437 0.000000 0.144620
O O4 0.250000 0.250000 0.000000
O O5 0.653933 0.500000 0.374379
O O6 0.698706 0.217558 0.363432
O O7 0.541432 0.273638 0.216967
O O8 0.627803 0.222367 0.417561
O O9 0.677602 0.709042 0.593230
O O10 0.836268 0.773904 0.802681
O O11 0.747335 0.000000 0.640561
O O12 0.949614 0.500000 0.128558
O O13 0.901200 0.765266 0.001286
O O14 0.429938 0.500000 0.582438
O O15 0.480654 0.193137 0.600677
O O16 0.923947 0.500000 0.373828
O O17 0.000000 0.218620 0.500000
O O18 0.913023 0.500000 0.931749
O O19 0.000000 0.228249 0.000000
#
# Coordination Sequence:
#
# PCOD9196286 Si02
#       7
#     8   8   8   8   8   8   8
#     4  10  22  40  63  90 119 153 196 247 302 363
#     4  10  21  36  57  86 116 152 198 242 288 345
#     4  11  23  37  56  85 122 161 201 245 294 351
#     4  10  20  36  60  86 113 152 195 238 292 350
#     4  11  23  39  60  87 119 156 200 248 298 353
#     4  10  22  42  67  93 122 156 200 253 314 372
#     4  10  20  35  56  83 116 154 196 242 293 350
#
# _framework density 23.659376000000002
#
# number of rings (size 3 to 8) (size 9 to 14) (size 15 to 20)
#    0.000    1.714    2.857    1.286    0.000    4.571 
#    0.000    2.857    0.000    0.000    0.000    0.000 
#    0.000    0.000    0.000    0.000    0.000    0.000 
#
# Total GULP energy -156318.075050 kJ/mol
# GULP energy per Si atom -5582.788395 kJ/mol
# Density = 2.360553 g / cm^3
# Si number density = 23.659376 Si / 1000 Ang^3
#
#
#
# Elastic Constant Matrix: (Units=GPa)
#
#
# Indices 1 2 3 4 5 6 
#
# 1 37.1544 0.0971 26.6205 0.0000 -11.3657 0.0000
# 2 0.0971 58.9084 5.5389 0.0000 -8.6765 0.0000
# 3 26.6205 5.5389 141.5183 0.0000 -13.5364 0.0000
# 4 0.0000 0.0000 0.0000 -18.4407 0.0000 -27.2619
# 5 -11.3657 -8.6765 -13.5364 0.0000 43.1051 0.0000
# 6 0.0000 0.0000 0.0000 -27.2619 0.0000 -6.5798
#
#
#
# Elastic Compliance Matrix: (Units=1/GPa)
#
#
# Indices 1 2 3 4 5 6 
#
# 1 0.033154 0.001546 -0.005599 0.000000 0.007295 0.000000
# 2 0.001546 0.017584 -0.000620 0.000000 0.003752 0.000000
# 3 -0.005599 -0.000620 0.008238 0.000000 0.000986 0.000000
# 4 0.000000 0.000000 0.000000 0.010581 0.000000 -0.043838
# 5 0.007295 0.003752 0.000986 0.000000 0.026187 0.000000
# 6 0.000000 0.000000 0.000000 -0.043838 0.000000 0.029653
#
#
# Mechanical properties :
#
#
# Convention : Reuss Voigt Hill
#
# Bulk Modulus (GPa) = 20.14930 33.56601 26.85765
# Shear Modulus (GPa) = 33.04982 17.30523 25.17753
#
# Velocity S-wave (km/s) = 3.74157 2.70743 3.26570
# Velocity P-wave (km/s) = 5.21543 4.89812 5.05926
#
# Compressibility (1/GPa) = 0.04962952
#
# Stress axis : x y z
#
# Youngs Moduli (GPa) = 30.16241 56.87007 121.38808
#
# Poissons Ratio (x) = -0.08793 0.67968
# Poissons Ratio (y) = -0.04664 0.07528
# Poissons Ratio (z) = 0.16889 0.03527
#
# Static dielectric constant tensor:
#      x y z
#    x 1.889310 0.000000 -0.068130 
#    y 0.000000 1.914260 0.000000 
#    z -0.068130 0.000000 1.983650 
# 
# From -- ./inp_files/329727.got.cif
#   From: 2010.05.17/outbox.cif.g08.bks.cpg/sg12_165_cif.got.tgz:329727.got - 2010.06.03 13:09:07.
