data_PCOD9196272
_publ_section_title
;
Structure prediction by ZEFSAII (Michael W. Deem and Ramdas Pophale) SiO2 
 PCOD9196272
Probable space group: C 2/M
;
_chemical_formula_sum "Si O2"
_cell_formula_units_Z 56
_cell_length_a 19.790325
_cell_length_b 7.525773
_cell_length_c 19.265587
_cell_angle_alpha 90.000000
_cell_angle_beta 121.104224
_cell_angle_gamma 90.000000
_cell_volume 2456.836304
_symmetry_space_group_name_H-M "C 2/M"
_symmetry_group_IT_number 12
_symmetry_cell_setting 'monoclinic'
loop_
_space_group_symop_operation_xyz
x,y,z
-x,y,-z
-x,-y,-z
x,-y,z
1/2+x,1/2+y,z
1/2-x,1/2+y,-z
1/2-x,1/2-y,-z
1/2+x,1/2-y,z
loop_
_atom_site_type_symbol
_atom_site_label
_atom_site_fract_x
_atom_site_fract_y
_atom_site_fract_z
Si Si1 0.189186 0.285198 0.183543
Si Si2 0.227456 0.786239 0.908739
Si Si3 0.444549 0.296066 0.188623
Si Si4 0.600361 0.281722 0.348699
Si Si5 0.486863 0.784870 0.913918
Si Si6 0.263670 0.793138 0.365474
Si Si7 0.569016 0.704360 0.487928
O O1 0.188772 0.500000 0.183502
O O2 0.212556 0.225378 0.118873
O O3 0.100766 0.226638 0.153757
O O4 0.246680 0.224710 0.274760
O O5 0.140768 0.715055 0.842505
O O6 0.224265 0.000000 0.902118
O O7 0.250000 0.750000 0.000000
O O8 0.442053 0.500000 0.211568
O O9 0.524803 0.220338 0.263660
O O10 0.453503 0.290130 0.110373
O O11 0.603447 0.500000 0.347727
O O12 0.685156 0.222542 0.363341
O O13 0.584347 0.222041 0.418985
O O14 0.492528 0.000000 0.914078
O O15 0.500000 0.731989 0.000000
O O16 0.346344 0.707127 0.429677
O O17 0.271393 0.000000 0.387787
O O18 0.500000 0.783696 0.500000
O O19 0.544463 0.500000 0.462438
#
# Coordination Sequence:
#
# PCOD9196272 Si02
#       7
#     8   8   8   8   8   8   8
#     4  10  21  37  58  84 114 152 197 236 279 341
#     4  10  22  38  59  83 114 154 194 242 289 339
#     4  10  20  36  58  83 113 149 190 234 281 337
#     4   9  19  37  59  86 116 147 188 233 281 336
#     4  10  20  35  56  83 115 148 187 238 284 329
#     4  11  22  38  60  85 119 153 185 236 287 335
#     4  10  22  39  64  90 114 150 189 230 280 343
#
# _framework density 22.793541999999999
#
# number of rings (size 3 to 8) (size 9 to 14) (size 15 to 20)
#    0.000    2.000    1.429    1.714    2.000    2.857 
#    0.000    1.429    0.000    0.000    0.000    0.000 
#    0.000    0.000    0.000    0.000    0.000    0.000 
#
# Total GULP energy -156413.187593 kJ/mol
# GULP energy per Si atom -5586.185271 kJ/mol
# Density = 2.274166 g / cm^3
# Si number density = 22.793542 Si / 1000 Ang^3
#
#
#
# Elastic Constant Matrix: (Units=GPa)
#
#
# Indices 1 2 3 4 5 6 
#
# 1 117.1326 3.7362 21.5750 0.0000 -3.9275 0.0000
# 2 3.7362 58.5508 -10.4428 0.0000 0.7860 0.0000
# 3 21.5750 -10.4428 100.4890 0.0000 -5.3556 0.0000
# 4 0.0000 0.0000 0.0000 9.7811 0.0000 4.4408
# 5 -3.9275 0.7860 -5.3556 0.0000 39.9261 0.0000
# 6 0.0000 0.0000 0.0000 4.4408 0.0000 1.4190
#
#
#
# Elastic Compliance Matrix: (Units=1/GPa)
#
#
# Indices 1 2 3 4 5 6 
#
# 1 0.008954 -0.000934 -0.001986 0.000000 0.000633 0.000000
# 2 -0.000934 0.017500 0.002010 0.000000 -0.000167 -0.000001
# 3 -0.001986 0.002010 0.010650 0.000000 0.001194 0.000000
# 4 0.000000 0.000000 0.000000 -0.242947 0.000000 0.760297
# 5 0.000633 -0.000167 0.001194 0.000000 0.025272 0.000000
# 6 0.000000 -0.000001 0.000000 0.760297 0.000000 -1.674612
#
#
# Mechanical properties :
#
#
# Convention : Reuss Voigt Hill
#
# Bulk Modulus (GPa) = 28.34099 33.98993 31.16546
# Shear Modulus (GPa) = -2.71503 27.64552 12.46525
#
# Velocity S-wave (km/s) = -1.09258 3.48640 2.34108
# Velocity P-wave (km/s) = 3.29684 5.58132 4.58368
#
# Compressibility (1/GPa) = 0.03528459
#
# Stress axis : x y z
#
# Youngs Moduli (GPa) = 111.68054 57.14435 93.89497
#
# Poissons Ratio (x) = 0.05338 0.18646
# Poissons Ratio (y) = 0.10431 -0.18875
# Poissons Ratio (z) = 0.22177 -0.11487
#
# Static dielectric constant tensor:
#      x y z
#    x 1.832070 0.000000 0.002790 
#    y 0.000000 1.899800 0.000000 
#    z 0.002790 0.000000 1.818380 
# 
# From -- ./inp_files/275652.got.cif
#   From: 2010.05.17/outbox.cif.g08.bks.cpg/sg12_138_cif.got.tgz:275652.got - 2010.06.03 13:09:07.
