data_PCOD9196944
_publ_section_title
;
Structure prediction by ZEFSAII (Michael W. Deem and Ramdas Pophale) SiO2 
 PCOD9196944
Probable space group: C 2/M
;
_chemical_formula_sum "Si O2"
_cell_formula_units_Z 64
_cell_length_a 19.232695
_cell_length_b 8.422354
_cell_length_c 33.542327
_cell_angle_alpha 90.000000
_cell_angle_beta 142.895847
_cell_angle_gamma 90.000000
_cell_volume 3277.747750
_symmetry_space_group_name_H-M "C 2/M"
_symmetry_group_IT_number 12
_symmetry_cell_setting 'monoclinic'
loop_
_space_group_symop_operation_xyz
x,y,z
-x,y,-z
-x,-y,-z
x,-y,z
1/2+x,1/2+y,z
1/2-x,1/2+y,-z
1/2-x,1/2-y,-z
1/2+x,1/2-y,z
loop_
_atom_site_type_symbol
_atom_site_label
_atom_site_fract_x
_atom_site_fract_y
_atom_site_fract_z
Si Si1 0.969140 0.808934 0.802965
Si Si2 0.442010 0.809441 0.310049
Si Si3 0.617894 0.693903 0.034192
Si Si4 0.358514 0.807888 0.184820
Si Si5 0.122194 0.809000 0.946672
Si Si6 0.704644 0.689294 0.436375
Si Si7 0.865827 0.192045 0.437644
Si Si8 0.710255 0.690191 0.685552
O O1 0.841087 0.745684 0.750251
O O2 0.035285 0.749363 0.793865
O O3 0.042920 0.751697 0.874671
O O4 0.966842 0.000000 0.800989
O O5 0.378907 0.757755 0.240004
O O6 0.573753 0.749376 0.370336
O O7 0.372725 0.753898 0.317533
O O8 0.444401 0.000000 0.311271
O O9 0.623147 0.500000 0.037494
O O10 0.737434 0.747286 0.109521
O O11 0.500000 0.745238 0.000000
O O12 0.597152 0.744972 0.979561
O O13 0.357659 0.000000 0.183842
O O14 0.117290 0.000000 0.943525
O O15 0.250000 0.750000 0.000000
O O16 0.703714 0.500000 0.436716
O O17 0.750000 0.750000 0.500000
O O18 0.788326 0.744417 0.438580
O O19 0.823124 0.242938 0.374424
O O20 0.000000 0.238777 0.500000
O O21 0.860084 0.000000 0.437312
O O22 0.703217 0.500000 0.683362
#
# Coordination Sequence:
#
# PCOD9196944 Si02
#       8
#     8   8   8   8   8   8   8   8
#     4  11  23  37  58  87 121 158 202 256 308 362
#     4  11  24  41  63  92 126 161 206 255 304 362
#     4   9  18  33  57  83 111 150 199 248 301 364
#     4  10  21  38  61  86 117 161 204 249 306 369
#     4  10  20  35  58  84 113 150 198 252 305 366
#     4  12  25  42  67  96 129 167 206 249 302 357
#     4  10  22  42  67  94 125 161 205 253 302 359
#     4  11  24  41  63  91 124 164 205 249 306 365
#
# _framework density 19.525601999999999
#
# number of rings (size 3 to 8) (size 9 to 14) (size 15 to 20)
#    0.000    1.500    1.250    3.750    1.750    6.750 
#    0.000    0.000    0.000    0.750    0.000    0.000 
#    0.000    0.000    0.000    0.000    0.000    0.000 
#
# Total GULP energy -178681.465402 kJ/mol
# GULP energy per Si atom -5583.795794 kJ/mol
# Density = 1.948116 g / cm^3
# Si number density = 19.525602 Si / 1000 Ang^3
#
#
#
# Elastic Constant Matrix: (Units=GPa)
#
#
# Indices 1 2 3 4 5 6 
#
# 1 211.0366 34.0435 87.0860 -0.0001 -10.6335 0.0002
# 2 34.0435 35.1755 30.0231 -0.0002 -6.6765 0.0005
# 3 87.0860 30.0231 151.9623 0.0000 -10.3082 0.0001
# 4 -0.0001 -0.0002 0.0000 22.3606 0.0000 2.5403
# 5 -10.6335 -6.6765 -10.3082 0.0000 40.2875 -0.0001
# 6 0.0002 0.0005 0.0001 2.5403 -0.0001 30.5399
#
#
#
# Elastic Compliance Matrix: (Units=1/GPa)
#
#
# Indices 1 2 3 4 5 6 
#
# 1 0.006608 -0.003749 -0.003023 0.000000 0.000349 0.000000
# 2 -0.003749 0.036971 -0.004892 0.000000 0.003885 -0.000001
# 3 -0.003023 -0.004892 0.009332 0.000000 0.000779 0.000000
# 4 0.000000 0.000000 0.000000 0.045148 0.000000 -0.003755
# 5 0.000349 0.003885 0.000779 0.000000 0.025757 0.000000
# 6 0.000000 -0.000001 0.000000 -0.003755 0.000000 0.033056
#
#
# Mechanical properties :
#
#
# Convention : Reuss Voigt Hill
#
# Bulk Modulus (GPa) = 33.80324 77.83107 55.81716
# Shear Modulus (GPa) = 26.30727 35.10572 30.70650
#
# Velocity S-wave (km/s) = 3.67457 4.24480 3.96994
# Velocity P-wave (km/s) = 5.94585 7.99825 7.04717
#
# Compressibility (1/GPa) = 0.02958296
#
# Stress axis : x y z
#
# Youngs Moduli (GPa) = 151.32606 27.04855 107.15705
#
# Poissons Ratio (x) = 0.10142 0.32389
# Poissons Ratio (y) = 0.56739 0.52421
# Poissons Ratio (z) = 0.45739 0.13232
#
# Static dielectric constant tensor:
#      x y z
#    x 1.580310 0.000000 -0.017700 
#    y 0.000000 1.665440 0.000000 
#    z -0.017700 0.000000 1.678680 
# 
# From -- ./inp_files/378451.got.cif
#   From: 2010.05.17/outbox.cif.g08.bks.cpg/sg12_190_cif.got.tgz:378451.got - 2010.06.03 13:09:07.
