data_PCOD9196751
_publ_section_title
;
Structure prediction by ZEFSAII (Michael W. Deem and Ramdas Pophale) SiO2 
 PCOD9196751
Probable space group: C 2/M
;
_chemical_formula_sum "Si O2"
_cell_formula_units_Z 32
_cell_length_a 7.847190
_cell_length_b 12.822013
_cell_length_c 14.185073
_cell_angle_alpha 90.000000
_cell_angle_beta 72.688441
_cell_angle_gamma 90.000000
_cell_volume 1362.602673
_symmetry_space_group_name_H-M "C 2/M"
_symmetry_group_IT_number 12
_symmetry_cell_setting 'monoclinic'
loop_
_space_group_symop_operation_xyz
x,y,z
-x,y,-z
-x,-y,-z
x,-y,z
1/2+x,1/2+y,z
1/2-x,1/2+y,-z
1/2-x,1/2-y,-z
1/2+x,1/2-y,z
loop_
_atom_site_type_symbol
_atom_site_label
_atom_site_fract_x
_atom_site_fract_y
_atom_site_fract_z
Si Si1 0.923614 0.839474 0.372860
Si Si2 0.415597 0.192249 0.924408
Si Si3 0.209451 0.386059 0.599106
Si Si4 0.340392 0.613806 0.178979
O O1 0.916112 0.713787 0.374026
O O2 0.810277 0.876626 0.481644
O O3 0.835994 0.880477 0.292226
O O4 0.128238 0.874183 0.352729
O O5 0.541251 0.286145 0.868489
O O6 0.343216 0.127792 0.848158
O O7 0.500000 0.132842 0.000000
O O8 0.250000 0.250000 0.000000
O O9 0.126063 0.500000 0.621349
O O10 0.416980 0.500000 0.139695
#
# Coordination Sequence:
#
# PCOD9196751 Si02
#       4
#     8   8   8   8
#     4  10  20  35  57  86 112 147 195 228 266 333
#     4   9  21  39  57  83 112 139 183 230 276 343
#     4  10  20  37  56  78 119 156 182 228 278 318
#     4  11  21  37  61  83 111 147 184 231 280 326
#
# _framework density 23.484469000000001
#
# number of rings (size 3 to 8) (size 9 to 14) (size 15 to 20)
#    0.000    2.000    0.000    4.500    0.000    5.000 
#    0.000   20.000    0.000    0.000    0.000    0.000 
#    0.000    0.000    0.000    0.000    0.000    0.000 
#
# Total GULP energy -89434.555257 kJ/mol
# GULP energy per Si atom -5589.659704 kJ/mol
# Density = 2.343102 g / cm^3
# Si number density = 23.484469 Si / 1000 Ang^3
#
#
#
# Elastic Constant Matrix: (Units=GPa)
#
#
# Indices 1 2 3 4 5 6 
#
# 1 46.9369 12.7904 43.1790 0.0000 29.0097 0.0000
# 2 12.7904 170.6415 20.7827 0.0000 11.3833 0.0000
# 3 43.1790 20.7827 119.6562 0.0000 55.2096 0.0000
# 4 0.0000 0.0000 0.0000 -18.1017 0.0000 -2.3737
# 5 29.0097 11.3833 55.2096 0.0000 40.7856 0.0000
# 6 0.0000 0.0000 0.0000 -2.3737 0.0000 19.7424
#
#
#
# Elastic Compliance Matrix: (Units=1/GPa)
#
#
# Indices 1 2 3 4 5 6 
#
# 1 0.038676 -0.000980 -0.003249 0.000000 -0.022838 0.000000
# 2 -0.000980 0.006019 -0.000635 0.000000 -0.000124 0.000000
# 3 -0.003249 -0.000635 0.022620 0.000000 -0.028131 0.000000
# 4 0.000000 0.000000 0.000000 -0.054386 0.000000 -0.006539
# 5 -0.022838 -0.000124 -0.028131 0.000000 0.078877 0.000000
# 6 0.000000 0.000000 0.000000 -0.006539 0.000000 0.049866
#
#
# Mechanical properties :
#
#
# Convention : Reuss Voigt Hill
#
# Bulk Modulus (GPa) = 17.36467 54.52651 35.94559
# Shear Modulus (GPa) = 29.30897 25.85074 27.57986
#
# Velocity S-wave (km/s) = 3.53656 3.32137 3.43065
# Velocity P-wave (km/s) = 4.90780 6.16256 5.57062
#
# Compressibility (1/GPa) = 0.05758818
#
# Stress axis : x y z
#
# Youngs Moduli (GPa) = 25.85570 166.13373 44.20892
#
# Poissons Ratio (x) = 0.16277 0.14364
# Poissons Ratio (y) = 0.02533 0.02806
# Poissons Ratio (z) = 0.08401 0.10546
#
# Static dielectric constant tensor:
#      x y z
#    x 1.906770 0.000000 0.031730 
#    y 0.000000 1.849700 0.000000 
#    z 0.031730 0.000000 1.912300 
# 
# From -- ./inp_files/193095.got.cif
#   From: 2010.05.17/outbox.cif.g08.bks.cpg/sg12_97_cif.got.tgz:193095.got - 2010.06.03 13:09:07.
