data_PCOD9196020
_publ_section_title
;
Structure prediction by ZEFSAII (Michael W. Deem and Ramdas Pophale) SiO2 
 PCOD9196020
Probable space group: C 2/M
;
_chemical_formula_sum "Si O2"
_cell_formula_units_Z 44
_cell_length_a 14.457236
_cell_length_b 20.539039
_cell_length_c 8.203307
_cell_angle_alpha 90.000000
_cell_angle_beta 123.602569
_cell_angle_gamma 90.000000
_cell_volume 2028.828580
_symmetry_space_group_name_H-M "C 2/M"
_symmetry_group_IT_number 12
_symmetry_cell_setting 'monoclinic'
loop_
_space_group_symop_operation_xyz
x,y,z
-x,y,-z
-x,-y,-z
x,-y,z
1/2+x,1/2+y,z
1/2-x,1/2+y,-z
1/2-x,1/2-y,-z
1/2+x,1/2-y,z
loop_
_atom_site_type_symbol
_atom_site_label
_atom_site_fract_x
_atom_site_fract_y
_atom_site_fract_z
Si Si1 0.844791 0.171891 0.447696
Si Si2 0.819737 0.571303 0.317544
Si Si3 0.000000 0.365302 0.000000
Si Si4 0.573152 0.426584 0.226948
Si Si5 0.390354 0.188119 0.589560
Si Si6 0.725854 0.925168 0.109579
O O1 0.926486 0.126183 0.631481
O O2 0.728026 0.182122 0.430963
O O3 0.892453 0.244524 0.493325
O O4 0.810235 0.129780 0.256700
O O5 0.870049 0.500000 0.391545
O O6 0.700058 0.570774 0.289233
O O7 0.889797 0.627816 0.466858
O O8 0.795193 0.580570 0.103166
O O9 0.980760 0.321502 0.820219
O O10 0.891549 0.409659 0.918284
O O11 0.539456 0.500000 0.244409
O O12 0.500000 0.407876 0.000000
O O13 0.760326 0.000000 0.180035
#
# Coordination Sequence:
#
# PCOD9196020 Si02
#       6
#     8   8   4   8   8   8
#     4   9  18  33  53  76 105 140 175 215 262 318
#     4   9  19  35  54  77 108 141 173 216 269 315
#     4  10  21  34  54  80 107 138 182 222 257 316
#     4   9  17  31  54  80 103 136 179 218 259 312
#     4   9  19  34  52  77 105 142 175 215 264 312
#     4  10  20  35  56  80 108 141 177 221 266 313
#
# _framework density 21.687391000000002
#
# number of rings (size 3 to 8) (size 9 to 14) (size 15 to 20)
#    0.000    2.727    0.000    0.818    1.273    6.545 
#    0.000    2.727    4.000    4.364    0.000    0.000 
#    0.000    0.000    0.000    0.000    0.000    0.000 
#
# Total GULP energy -122843.696324 kJ/mol
# GULP energy per Si atom -5583.804378 kJ/mol
# Density = 2.163803 g / cm^3
# Si number density = 21.687391 Si / 1000 Ang^3
#
#
#
# Elastic Constant Matrix: (Units=GPa)
#
#
# Indices 1 2 3 4 5 6 
#
# 1 48.5192 19.3612 0.7629 0.0000 3.7082 0.0000
# 2 19.3612 183.8643 110.8046 0.0000 -16.7774 0.0000
# 3 0.7629 110.8046 121.5924 0.0000 4.2601 0.0000
# 4 0.0000 0.0000 0.0000 24.4893 0.0000 -7.5184
# 5 3.7082 -16.7774 4.2601 0.0000 20.9502 0.0000
# 6 0.0000 0.0000 0.0000 -7.5184 0.0000 -8.3581
#
#
#
# Elastic Compliance Matrix: (Units=1/GPa)
#
#
# Indices 1 2 3 4 5 6 
#
# 1 0.025079 -0.008976 0.008490 0.000000 -0.013353 0.000000
# 2 -0.008976 0.019245 -0.018207 0.000000 0.020703 0.000000
# 3 0.008490 -0.018207 0.025508 0.000000 -0.021270 0.000000
# 4 0.000000 0.000000 0.000000 0.031998 0.000000 -0.028783
# 5 -0.013353 0.020703 -0.021270 0.000000 0.071000 0.000000
# 6 0.000000 0.000000 0.000000 -0.028783 0.000000 -0.093753
#
#
# Mechanical properties :
#
#
# Convention : Reuss Voigt Hill
#
# Bulk Modulus (GPa) = 30.81979 68.42594 49.62287
# Shear Modulus (GPa) = 39.28392 22.28609 30.78501
#
# Velocity S-wave (km/s) = 4.26064 3.20911 3.77170
# Velocity P-wave (km/s) = 6.20047 6.73429 6.47289
#
# Compressibility (1/GPa) = 0.03244668
#
# Stress axis : x y z
#
# Youngs Moduli (GPa) = 39.87376 51.96046 39.20374
#
# Poissons Ratio (x) = 0.46638 -0.33283
# Poissons Ratio (y) = 0.35790 0.71378
# Poissons Ratio (z) = -0.33852 0.94604
#
# Static dielectric constant tensor:
#      x y z
#    x 1.816610 0.000000 -0.006090 
#    y 0.000000 1.781410 0.000000 
#    z -0.006090 0.000000 1.756240 
# 
# From -- ./inp_files/61235.got.cif
#   From: 2010.05.17/outbox.cif.g08.bks.cpg/sg12_31_cif.got.tgz:61235.got - 2010.06.03 13:09:07.
