data_PCOD9196466
_publ_section_title
;
Structure prediction by ZEFSAII (Michael W. Deem and Ramdas Pophale) SiO2 
 PCOD9196466
Probable space group: C 2/M
;
_chemical_formula_sum "Si O2"
_cell_formula_units_Z 64
_cell_length_a 26.518514
_cell_length_b 8.207993
_cell_length_c 16.132583
_cell_angle_alpha 90.000000
_cell_angle_beta 108.284533
_cell_angle_gamma 90.000000
_cell_volume 3334.185102
_symmetry_space_group_name_H-M "C 2/M"
_symmetry_group_IT_number 12
_symmetry_cell_setting 'monoclinic'
loop_
_space_group_symop_operation_xyz
x,y,z
-x,y,-z
-x,-y,-z
x,-y,z
1/2+x,1/2+y,z
1/2-x,1/2+y,-z
1/2-x,1/2-y,-z
1/2+x,1/2-y,z
loop_
_atom_site_type_symbol
_atom_site_label
_atom_site_fract_x
_atom_site_fract_y
_atom_site_fract_z
Si Si1 0.297005 0.194161 0.265440
Si Si2 0.361109 0.313526 0.445224
Si Si3 0.569387 0.191049 0.111082
Si Si4 0.460558 0.186595 0.413482
Si Si5 0.804827 0.304422 0.570465
Si Si6 0.903444 0.697398 0.224215
Si Si7 0.955226 0.189871 0.082331
Si Si8 0.684402 0.802953 0.232510
O O1 0.310847 0.284531 0.358975
O O2 0.344080 0.241962 0.225533
O O3 0.236654 0.238419 0.212450
O O4 0.300695 0.000000 0.279860
O O5 0.378470 0.500000 0.444805
O O6 0.404529 0.191911 0.431448
O O7 0.348595 0.272962 0.533003
O O8 0.518051 0.274673 0.125791
O O9 0.627331 0.251664 0.168589
O O10 0.566222 0.000000 0.130013
O O11 0.562601 0.214000 0.008950
O O12 0.500000 0.267077 0.500000
O O13 0.445657 0.256688 0.316006
O O14 0.478770 0.000000 0.409392
O O15 0.808282 0.500000 0.568879
O O16 0.750000 0.250000 0.500000
O O17 0.810580 0.252712 0.668519
O O18 0.905356 0.500000 0.224706
O O19 0.921335 0.761119 0.144798
O O20 0.948449 0.000000 0.061054
O O21 0.685823 0.000000 0.229489
#
# Coordination Sequence:
#
# PCOD9196466 Si02
#       8
#     8   8   8   8   8   8   8   8
#     4  10  20  35  57  81 110 148 188 230 275 328
#     4  11  21  33  50  74 108 148 188 228 272 327
#     4  10  21  40  63  85 112 149 182 227 286 343
#     4   9  19  36  56  78 107 144 187 234 279 326
#     4  11  21  34  52  78 109 146 187 228 274 326
#     4   9  19  36  58  83 109 147 189 225 277 340
#     4  11  22  38  61  88 114 143 184 235 282 334
#     4  10  22  37  57  84 114 146 188 234 283 338
#
# _framework density 19.195095999999999
#
# number of rings (size 3 to 8) (size 9 to 14) (size 15 to 20)
#    0.000    1.875    1.250    4.875    0.000    5.250 
#    0.000    5.625    0.000    0.000    0.000    0.000 
#    0.000    0.000    0.000    0.000    0.000    0.000 
#
# Total GULP energy -178480.169158 kJ/mol
# GULP energy per Si atom -5577.505286 kJ/mol
# Density = 1.915141 g / cm^3
# Si number density = 19.195096 Si / 1000 Ang^3
#
#
#
# Elastic Constant Matrix: (Units=GPa)
#
#
# Indices 1 2 3 4 5 6 
#
# 1 91.2667 1.6250 54.2942 0.0000 2.2528 0.0000
# 2 1.6250 38.6850 1.5822 0.0000 -0.7260 0.0000
# 3 54.2942 1.5822 71.0367 0.0000 1.4049 0.0000
# 4 0.0000 0.0000 0.0000 9.0032 0.0000 3.8169
# 5 2.2528 -0.7260 1.4049 0.0000 39.4996 0.0000
# 6 0.0000 0.0000 0.0000 3.8169 0.0000 24.4502
#
#
#
# Elastic Compliance Matrix: (Units=1/GPa)
#
#
# Indices 1 2 3 4 5 6 
#
# 1 0.020109 -0.000228 -0.015353 0.000000 -0.000605 0.000000
# 2 -0.000228 0.025886 -0.000412 0.000000 0.000503 0.000000
# 3 -0.015353 -0.000412 0.025822 0.000000 -0.000050 0.000000
# 4 0.000000 0.000000 0.000000 0.118944 0.000000 -0.018568
# 5 -0.000605 0.000503 -0.000050 0.000000 0.025362 0.000000
# 6 0.000000 0.000000 0.000000 -0.018568 0.000000 0.043798
#
#
# Mechanical properties :
#
#
# Convention : Reuss Voigt Hill
#
# Bulk Modulus (GPa) = 25.10627 35.11013 30.10820
# Shear Modulus (GPa) = 16.38360 24.15640 20.27000
#
# Velocity S-wave (km/s) = 2.92469 3.55134 3.25314
# Velocity P-wave (km/s) = 4.95106 5.92848 5.46168
#
# Compressibility (1/GPa) = 0.03983069
#
# Stress axis : x y z
#
# Youngs Moduli (GPa) = 49.72877 38.63132 38.72734
#
# Poissons Ratio (x) = 0.00881 0.59456
# Poissons Ratio (y) = 0.01134 0.01596
# Poissons Ratio (z) = 0.76346 0.01592
#
# Static dielectric constant tensor:
#      x y z
#    x 1.692800 0.000000 0.029360 
#    y 0.000000 1.683310 0.000000 
#    z 0.029360 0.000000 1.677720 
# 
# From -- ./inp_files/244251.got.cif
#   From: 2010.05.17/outbox.cif.g08.bks.cpg/sg12_123_cif.got.tgz:244251.got - 2010.06.03 13:09:07.
