data_PCOD9196256
_publ_section_title
;
Structure prediction by ZEFSAII (Michael W. Deem and Ramdas Pophale) SiO2 
 PCOD9196256
Probable space group: C 2/M
;
_chemical_formula_sum "Si O2"
_cell_formula_units_Z 64
_cell_length_a 24.507562
_cell_length_b 20.541186
_cell_length_c 15.179803
_cell_angle_alpha 90.000000
_cell_angle_beta 155.701951
_cell_angle_gamma 90.000000
_cell_volume 3144.444978
_symmetry_space_group_name_H-M "C 2/M"
_symmetry_group_IT_number 12
_symmetry_cell_setting 'monoclinic'
loop_
_space_group_symop_operation_xyz
x,y,z
-x,y,-z
-x,-y,-z
x,-y,z
1/2+x,1/2+y,z
1/2-x,1/2+y,-z
1/2-x,1/2-y,-z
1/2+x,1/2-y,z
loop_
_atom_site_type_symbol
_atom_site_label
_atom_site_fract_x
_atom_site_fract_y
_atom_site_fract_z
Si Si1 0.421595 0.573395 0.583108
Si Si2 0.857497 0.158026 0.331602
Si Si3 0.399122 0.188311 0.121062
Si Si4 0.273774 0.427569 0.554504
Si Si5 0.947361 0.655566 0.825631
Si Si6 0.396731 0.189813 0.426923
Si Si7 0.617382 0.330526 0.942903
Si Si8 0.902614 0.795079 0.774895
O O1 0.441741 0.500000 0.583160
O O2 0.339229 0.612844 0.389515
O O3 0.346117 0.572149 0.565842
O O4 0.560430 0.610114 0.803691
O O5 0.864254 0.232762 0.376677
O O6 0.000000 0.143140 0.500000
O O7 0.742209 0.152675 0.088794
O O8 0.445853 0.177179 0.089242
O O9 0.521205 0.171447 0.364693
O O10 0.367227 0.264506 0.090778
O O11 0.292229 0.500000 0.620838
O O12 0.123087 0.408884 0.312878
O O13 0.323132 0.361989 0.676347
O O14 0.850769 0.719893 0.689391
O O15 0.000000 0.643622 0.000000
O O16 0.500000 0.177405 0.500000
O O17 0.254449 0.157485 0.196573
O O18 0.496392 0.312105 0.830235
O O19 0.000000 0.787096 0.000000
#
# Coordination Sequence:
#
# PCOD9196256 Si02
#       8
#     8   8   8   8   8   8   8   8
#     4  10  20  37  57  79 111 152 194 230 269 332
#     4  10  21  34  58  85 114 142 185 235 287 331
#     4  10  20  35  56  87 117 144 180 235 290 337
#     4  10  21  35  54  79 109 149 184 224 276 331
#     4  10  20  35  56  83 114 147 184 230 281 338
#     4  10  21  33  58  87 116 145 180 235 295 342
#     4   9  19  34  54  82 112 144 189 226 282 336
#     4   9  19  33  53  81 107 142 184 231 272 323
#
# _framework density 20.353354
#
# number of rings (size 3 to 8) (size 9 to 14) (size 15 to 20)
#    0.000    2.250    1.250    1.125    3.500    3.250 
#    0.000    0.625    0.000    1.125    0.000    0.000 
#    0.000    0.000    0.000    0.000    0.000    0.000 
#
# Total GULP energy -178260.952976 kJ/mol
# GULP energy per Si atom -5570.654780 kJ/mol
# Density = 2.030703 g / cm^3
# Si number density = 20.353354 Si / 1000 Ang^3
#
#
#
# Elastic Constant Matrix: (Units=GPa)
#
#
# Indices 1 2 3 4 5 6 
#
# 1 27.7580 -2.5315 -8.7187 0.0000 -3.9208 0.0000
# 2 -2.5315 72.1170 11.9205 0.0000 4.2811 0.0000
# 3 -8.7187 11.9205 90.3202 0.0000 -0.9221 0.0000
# 4 0.0000 0.0000 0.0000 13.6273 0.0000 2.7735
# 5 -3.9208 4.2811 -0.9221 0.0000 20.6777 0.0000
# 6 0.0000 0.0000 0.0000 2.7735 0.0000 -5.6316
#
#
#
# Elastic Compliance Matrix: (Units=1/GPa)
#
#
# Indices 1 2 3 4 5 6 
#
# 1 0.038264 0.000289 0.003731 0.000000 0.007362 0.000000
# 2 0.000289 0.014369 -0.001899 0.000000 -0.003005 0.000000
# 3 0.003731 -0.001899 0.011699 0.000000 0.001622 0.000000
# 4 0.000000 0.000000 0.000000 0.066697 0.000000 0.032848
# 5 0.007362 -0.003005 0.001622 0.000000 0.050452 0.000000
# 6 0.000000 0.000000 0.000000 0.032848 0.000000 -0.161393
#
#
# Mechanical properties :
#
#
# Convention : Reuss Voigt Hill
#
# Bulk Modulus (GPa) = 14.58292 21.28176 17.93234
# Shear Modulus (GPa) = 129.18950 18.36968 73.77959
#
# Velocity S-wave (km/s) = 7.97566 3.00749 6.02728
# Velocity P-wave (km/s) = 9.59142 4.74751 7.56750
#
# Compressibility (1/GPa) = 0.06857337
#
# Stress axis : x y z
#
# Youngs Moduli (GPa) = 26.13447 69.59520 85.47701
#
# Poissons Ratio (x) = -0.02015 -0.31888
# Poissons Ratio (y) = -0.00757 0.16233
# Poissons Ratio (z) = -0.09750 0.13217
#
# Static dielectric constant tensor:
#      x y z
#    x 1.706310 0.000000 -0.002430 
#    y 0.000000 1.729270 0.000000 
#    z -0.002430 0.000000 1.781400 
# 
# From -- ./inp_files/297088.got.cif
#   From: 2010.05.17/outbox.cif.g08.bks.cpg/sg12_149_cif.got.tgz:297088.got - 2010.06.03 13:09:07.
