data_PCOD9196852
_publ_section_title
;
Structure prediction by ZEFSAII (Michael W. Deem and Ramdas Pophale) SiO2 
 PCOD9196852
Probable space group: C 2/M
;
_chemical_formula_sum "Si O2"
_cell_formula_units_Z 56
_cell_length_a 24.122375
_cell_length_b 26.093728
_cell_length_c 6.342258
_cell_angle_alpha 90.000000
_cell_angle_beta 137.222196
_cell_angle_gamma 90.000000
_cell_volume 2711.254520
_symmetry_space_group_name_H-M "C 2/M"
_symmetry_group_IT_number 12
_symmetry_cell_setting 'monoclinic'
loop_
_space_group_symop_operation_xyz
x,y,z
-x,y,-z
-x,-y,-z
x,-y,z
1/2+x,1/2+y,z
1/2-x,1/2+y,-z
1/2-x,1/2-y,-z
1/2+x,1/2-y,z
loop_
_atom_site_type_symbol
_atom_site_label
_atom_site_fract_x
_atom_site_fract_y
_atom_site_fract_z
Si Si1 0.924757 0.553698 0.631559
Si Si2 0.177996 0.558234 0.264028
Si Si3 0.755350 0.810208 0.050163
Si Si4 0.910305 0.359542 0.261827
Si Si5 0.812179 0.116347 0.842166
Si Si6 0.074623 0.058802 0.541480
Si Si7 0.411908 0.348641 0.747521
O O1 0.929670 0.500000 0.521101
O O2 0.846384 0.553129 0.560454
O O3 0.922275 0.604344 0.495276
O O4 0.000000 0.553302 0.000000
O O5 0.181461 0.500000 0.187101
O O6 0.262321 0.588412 0.515678
O O7 0.113469 0.597101 0.978539
O O8 0.836361 0.822223 0.414544
O O9 0.750000 0.750000 0.000000
O O10 0.671107 0.826753 0.930274
O O11 0.765314 0.842428 0.858581
O O12 0.000000 0.333441 0.500000
O O13 0.884430 0.142691 0.911711
O O14 0.846991 0.074382 0.100558
O O15 0.071935 0.099066 0.342167
O O16 0.000000 0.063685 0.500000
O O17 0.077636 0.000000 0.476617
O O18 0.500000 0.321075 0.000000
#
# Coordination Sequence:
#
# PCOD9196852 Si02
#       7
#     8   8   8   8   8   8   8
#     4  10  20  35  57  89 130 172 208 251 312 387
#     4  11  22  36  60  94 132 176 210 250 318 399
#     4  11  27  49  68  95 128 168 224 291 341 391
#     4  12  23  41  64  94 130 168 218 272 324 392
#     4  11  22  43  65  89 137 172 223 273 332 392
#     4  10  21  36  60  97 139 178 218 267 322 393
#     4  11  23  44  69  97 128 175 225 277 336 399
#
# _framework density 20.654643
#
# number of rings (size 3 to 8) (size 9 to 14) (size 15 to 20)
#    0.000    1.143    5.714    0.857    0.000    2.571 
#    2.571    0.714    0.000    0.000    0.000    0.000 
#    0.000    0.000    0.000    0.000    0.000    0.000 
#
# Total GULP energy -156048.626096 kJ/mol
# GULP energy per Si atom -5573.165218 kJ/mol
# Density = 2.060763 g / cm^3
# Si number density = 20.654643 Si / 1000 Ang^3
#
#
#
# Elastic Constant Matrix: (Units=GPa)
#
#
# Indices 1 2 3 4 5 6 
#
# 1 98.5174 33.6884 18.2477 0.0000 22.8357 0.0000
# 2 33.6884 111.9466 32.0000 0.0000 14.4778 0.0000
# 3 18.2477 32.0000 104.2075 0.0000 25.5598 0.0000
# 4 0.0000 0.0000 0.0000 9.6713 0.0000 21.1236
# 5 22.8357 14.4778 25.5598 0.0000 40.2952 0.0000
# 6 0.0000 0.0000 0.0000 21.1236 0.0000 -68.4140
#
#
#
# Elastic Compliance Matrix: (Units=1/GPa)
#
#
# Indices 1 2 3 4 5 6 
#
# 1 0.012585 -0.003059 0.000255 0.000000 -0.006195 0.000000
# 2 -0.003059 0.010661 -0.002634 0.000000 -0.000426 0.000000
# 3 0.000255 -0.002634 0.012036 0.000000 -0.006833 0.000000
# 4 0.000000 0.000000 0.000000 0.061753 0.000000 0.019067
# 5 -0.006195 -0.000426 -0.006833 0.000000 0.032815 0.000000
# 6 0.000000 0.000000 0.000000 0.019067 0.000000 -0.008730
#
#
# Mechanical properties :
#
#
# Convention : Reuss Voigt Hill
#
# Bulk Modulus (GPa) = 40.97077 53.61598 47.29337
# Shear Modulus (GPa) = 35.68045 11.69286 23.68666
#
# Velocity S-wave (km/s) = 4.16080 2.38189 3.39011
# Velocity P-wave (km/s) = 6.55456 5.79476 6.18633
#
# Compressibility (1/GPa) = 0.02440765
#
# Stress axis : x y z
#
# Youngs Moduli (GPa) = 79.45824 93.79660 83.08185
#
# Poissons Ratio (x) = 0.28693 -0.02119
# Poissons Ratio (y) = 0.24307 0.21881
# Poissons Ratio (z) = -0.02027 0.24703
#
# Static dielectric constant tensor:
#      x y z
#    x 1.840350 0.000000 0.057830 
#    y 0.000000 1.714100 0.000000 
#    z 0.057830 0.000000 1.807770 
# 
# From -- ./inp_files/26524.got.cif
#   From: 2010.05.17/outbox.cif.g08.bks.cpg/sg12_14_cif.got.tgz:26524.got - 2010.06.03 13:09:07.
