data_PCOD9196786
_publ_section_title
;
Structure prediction by ZEFSAII (Michael W. Deem and Ramdas Pophale) SiO2 
 PCOD9196786
Probable space group: C 2/M
;
_chemical_formula_sum "Si O2"
_cell_formula_units_Z 56
_cell_length_a 32.271852
_cell_length_b 8.605764
_cell_length_c 12.196513
_cell_angle_alpha 90.000000
_cell_angle_beta 56.076362
_cell_angle_gamma 90.000000
_cell_volume 2810.690798
_symmetry_space_group_name_H-M "C 2/M"
_symmetry_group_IT_number 12
_symmetry_cell_setting 'monoclinic'
loop_
_space_group_symop_operation_xyz
x,y,z
-x,y,-z
-x,-y,-z
x,-y,z
1/2+x,1/2+y,z
1/2-x,1/2+y,-z
1/2-x,1/2-y,-z
1/2+x,1/2-y,z
loop_
_atom_site_type_symbol
_atom_site_label
_atom_site_fract_x
_atom_site_fract_y
_atom_site_fract_z
Si Si1 0.505996 0.189562 0.866188
Si Si2 0.615166 0.684452 0.332335
Si Si3 0.588516 0.187764 0.139358
Si Si4 0.816004 0.686879 0.146756
Si Si5 0.726553 0.815220 0.146768
Si Si6 0.898142 0.688113 0.414134
Si Si7 0.194188 0.686287 0.589836
O O1 0.459397 0.237561 0.859944
O O2 0.557847 0.235653 0.733355
O O3 0.505597 0.000000 0.869392
O O4 0.500000 0.243172 0.000000
O O5 0.613781 0.500000 0.334684
O O6 0.589458 0.747311 0.260288
O O7 0.672464 0.742160 0.243971
O O8 0.592764 0.749607 0.477944
O O9 0.588630 0.000000 0.144643
O O10 0.638879 0.234043 0.999833
O O11 0.809710 0.500000 0.145741
O O12 0.765175 0.768373 0.184518
O O13 0.826848 0.721530 0.257629
O O14 0.721474 0.000000 0.147120
O O15 0.750000 0.750000 0.000000
O O16 0.897205 0.500000 0.419607
O O17 0.844789 0.742028 0.444362
O O18 0.196987 0.500000 0.576298
O O19 0.250000 0.750000 0.500000
#
# Coordination Sequence:
#
# PCOD9196786 Si02
#       7
#     8   8   8   8   8   8   8
#     4   9  18  36  65  96 120 149 197 251 301 357
#     4  12  25  40  58  84 121 161 204 249 298 357
#     4  10  20  36  61  89 117 152 196 247 299 355
#     4  10  20  35  57  86 120 155 196 244 296 353
#     4  12  23  37  58  86 120 158 199 242 295 353
#     4  10  21  39  62  88 121 158 200 249 301 356
#     4  10  21  36  56  84 116 153 194 242 294 351
#
# _framework density 19.923926999999999
#
# number of rings (size 3 to 8) (size 9 to 14) (size 15 to 20)
#    0.000    1.571    1.429    4.286    0.000    7.429 
#    0.000    3.571    0.000    3.429    0.000    0.000 
#    0.000    0.000    0.000    0.000    0.000    0.000 
#
# Total GULP energy -156533.772039 kJ/mol
# GULP energy per Si atom -5590.491859 kJ/mol
# Density = 1.987858 g / cm^3
# Si number density = 19.923927 Si / 1000 Ang^3
#
#
#
# Elastic Constant Matrix: (Units=GPa)
#
#
# Indices 1 2 3 4 5 6 
#
# 1 149.3303 28.1093 67.5623 0.0000 14.1455 0.0000
# 2 28.1093 33.2863 28.1011 0.0000 6.5692 0.0000
# 3 67.5623 28.1011 146.9388 0.0000 17.4182 0.0000
# 4 0.0000 0.0000 0.0000 17.3620 0.0000 0.8387
# 5 14.1455 6.5692 17.4182 0.0000 34.6155 0.0000
# 6 0.0000 0.0000 0.0000 0.8387 0.0000 20.9116
#
#
#
# Elastic Compliance Matrix: (Units=1/GPa)
#
#
# Indices 1 2 3 4 5 6 
#
# 1 0.009140 -0.004830 -0.003132 0.000000 -0.001243 0.000000
# 2 -0.004830 0.038797 -0.004849 0.000000 -0.002949 0.000000
# 3 -0.003132 -0.004849 0.009477 0.000000 -0.002569 0.000000
# 4 0.000000 0.000000 0.000000 0.057709 0.000000 -0.002315
# 5 -0.001243 -0.002949 -0.002569 0.000000 0.031249 0.000000
# 6 0.000000 0.000000 0.000000 -0.002315 0.000000 0.047913
#
#
# Mechanical properties :
#
#
# Convention : Reuss Voigt Hill
#
# Bulk Modulus (GPa) = 31.45335 64.12231 47.78783
# Shear Modulus (GPa) = 21.69153 28.29667 24.99410
#
# Velocity S-wave (km/s) = 3.30315 3.77269 3.54570
# Velocity P-wave (km/s) = 5.51078 7.15758 6.38748
#
# Compressibility (1/GPa) = 0.03179311
#
# Stress axis : x y z
#
# Youngs Moduli (GPa) = 109.40566 25.77527 105.51326
#
# Poissons Ratio (x) = 0.12448 0.33044
# Poissons Ratio (y) = 0.52838 0.51168
# Poissons Ratio (z) = 0.34263 0.12500
#
# Static dielectric constant tensor:
#      x y z
#    x 1.691630 0.000000 0.008920 
#    y 0.000000 1.677590 0.000000 
#    z 0.008920 0.000000 1.695330 
# 
# From -- ./inp_files/187219.got.cif
#   From: 2010.05.17/outbox.cif.g08.bks.cpg/sg12_94_cif.got.tgz:187219.got - 2010.06.03 13:09:07.
