data_PCOD9196440
_publ_section_title
;
Structure prediction by ZEFSAII (Michael W. Deem and Ramdas Pophale) SiO2 
 PCOD9196440
Probable space group: C 2/M
;
_chemical_formula_sum "Si O2"
_cell_formula_units_Z 40
_cell_length_a 22.298250
_cell_length_b 13.171110
_cell_length_c 7.191780
_cell_angle_alpha 90.000000
_cell_angle_beta 56.677984
_cell_angle_gamma 90.000000
_cell_volume 1764.924282
_symmetry_space_group_name_H-M "C 2/M"
_symmetry_group_IT_number 12
_symmetry_cell_setting 'monoclinic'
loop_
_space_group_symop_operation_xyz
x,y,z
-x,y,-z
-x,-y,-z
x,-y,z
1/2+x,1/2+y,z
1/2-x,1/2+y,-z
1/2-x,1/2-y,-z
1/2+x,1/2-y,z
loop_
_atom_site_type_symbol
_atom_site_label
_atom_site_fract_x
_atom_site_fract_y
_atom_site_fract_z
Si Si1 0.271459 0.332087 0.227367
Si Si2 0.928207 0.217672 0.049614
Si Si3 0.919130 0.612600 0.779955
Si Si4 0.748262 0.111345 0.841730
Si Si5 0.617585 0.109843 0.589486
O O1 0.352923 0.341392 0.158303
O O2 0.243102 0.214750 0.287480
O O3 0.204312 0.389729 0.429068
O O4 0.275901 0.364252 0.002596
O O5 0.910636 0.303754 0.230803
O O6 0.055060 0.284615 0.164500
O O7 0.000000 0.162865 0.000000
O O8 0.950870 0.500000 0.764692
O O9 0.912314 0.623199 0.569058
O O10 0.837308 0.605936 0.990104
O O11 0.774397 0.000000 0.734646
O O12 0.596173 0.000000 0.699852
#
# Coordination Sequence:
#
# PCOD9196440 Si02
#       5
#     8   8   8   8   8
#     4   9  17  32  52  77 106 136 176 220 258 307
#     4  11  22  33  48  75 111 146 172 206 260 318
#     4   8  16  31  48  70  99 130 169 211 254 307
#     4   8  14  28  54  80 100 130 173 223 269 302
#     4  10  20  35  57  80 102 135 179 223 263 304
#
# _framework density 22.663862000000002
#
# number of rings (size 3 to 8) (size 9 to 14) (size 15 to 20)
#    0.000    2.800    0.000    4.200    0.000    3.200 
#    0.000    2.000    0.000    2.400    0.000    1.400 
#    0.000    0.000    0.000    0.000    0.000    0.000 
#
# Total GULP energy -111622.132656 kJ/mol
# GULP energy per Si atom -5581.106633 kJ/mol
# Density = 2.261228 g / cm^3
# Si number density = 22.663862 Si / 1000 Ang^3
#
#
#
# Elastic Constant Matrix: (Units=GPa)
#
#
# Indices 1 2 3 4 5 6 
#
# 1 147.9491 11.3210 13.2235 0.0000 -25.9552 0.0000
# 2 11.3210 68.9187 6.2678 0.0000 -1.6164 0.0000
# 3 13.2235 6.2678 47.6626 0.0000 -6.1770 0.0000
# 4 0.0000 0.0000 0.0000 16.3738 0.0000 1.1275
# 5 -25.9552 -1.6164 -6.1770 0.0000 35.6399 0.0000
# 6 0.0000 0.0000 0.0000 1.1275 0.0000 2.8821
#
#
#
# Elastic Compliance Matrix: (Units=1/GPa)
#
#
# Indices 1 2 3 4 5 6 
#
# 1 0.007923 -0.001050 -0.001349 0.000000 0.005489 0.000000
# 2 -0.001050 0.014829 -0.001709 0.000000 -0.000388 0.000000
# 3 -0.001349 -0.001709 0.021935 0.000000 0.002742 0.000000
# 4 0.000000 0.000000 0.000000 0.062764 0.000000 -0.024553
# 5 0.005489 -0.000388 0.002742 0.000000 0.032513 0.000000
# 6 0.000000 0.000000 0.000000 -0.024553 0.000000 0.356570
#
#
# Mechanical properties :
#
#
# Convention : Reuss Voigt Hill
#
# Bulk Modulus (GPa) = 27.41905 36.23943 31.82924
# Shear Modulus (GPa) = 9.67293 26.56038 18.11665
#
# Velocity S-wave (km/s) = 2.06815 3.42705 2.83037
# Velocity P-wave (km/s) = 4.22225 5.62888 4.97552
#
# Compressibility (1/GPa) = 0.03647100
#
# Stress axis : x y z
#
# Youngs Moduli (GPa) = 126.21713 67.43695 45.58902
#
# Poissons Ratio (x) = 0.07081 0.06149
# Poissons Ratio (y) = 0.13254 0.07791
# Poissons Ratio (z) = 0.17023 0.11525
#
# Static dielectric constant tensor:
#      x y z
#    x 1.947310 0.000000 0.022310 
#    y 0.000000 1.958000 0.000000 
#    z 0.022310 0.000000 1.845600 
# 
# From -- ./inp_files/72849.got.cif
#   From: 2010.05.17/outbox.cif.g08.bks.cpg/sg12_37_cif.got.tgz:72849.got - 2010.06.03 13:09:07.
