data_PCOD9196433
_publ_section_title
;
Structure prediction by ZEFSAII (Michael W. Deem and Ramdas Pophale) SiO2 
 PCOD9196433
Probable space group: C 2/M
;
_chemical_formula_sum "Si O2"
_cell_formula_units_Z 64
_cell_length_a 18.695306
_cell_length_b 21.779479
_cell_length_c 22.117112
_cell_angle_alpha 90.000000
_cell_angle_beta 160.073130
_cell_angle_gamma 90.000000
_cell_volume 3069.263431
_symmetry_space_group_name_H-M "C 2/M"
_symmetry_group_IT_number 12
_symmetry_cell_setting 'monoclinic'
loop_
_space_group_symop_operation_xyz
x,y,z
-x,y,-z
-x,-y,-z
x,-y,z
1/2+x,1/2+y,z
1/2-x,1/2+y,-z
1/2-x,1/2-y,-z
1/2+x,1/2-y,z
loop_
_atom_site_type_symbol
_atom_site_label
_atom_site_fract_x
_atom_site_fract_y
_atom_site_fract_z
Si Si1 0.352259 0.928772 0.642451
Si Si2 0.677281 0.571398 0.183593
Si Si3 0.541603 0.398390 0.207279
Si Si4 0.815329 0.316892 0.901948
Si Si5 0.942268 0.571877 0.585052
Si Si6 0.322720 0.067597 0.994998
Si Si7 0.672251 0.706743 0.495150
Si Si8 0.962417 0.758827 0.130225
O O1 0.507259 0.924647 0.706828
O O2 0.216053 0.867106 0.526285
O O3 0.265559 0.000000 0.569630
O O4 0.467649 0.923505 0.798382
O O5 0.696163 0.500000 0.179880
O O6 0.624884 0.571815 0.211978
O O7 0.896132 0.598047 0.335058
O O8 0.500000 0.599501 0.000000
O O9 0.726738 0.394109 0.402907
O O10 0.354891 0.430139 0.094420
O O11 0.482507 0.330915 0.141094
O O12 0.784740 0.379433 0.916485
O O13 0.582323 0.291252 0.698654
O O14 0.917376 0.270062 0.030176
O O15 0.000000 0.327583 0.000000
O O16 0.896446 0.500000 0.536052
O O17 0.325036 0.000000 0.968768
O O18 0.750000 0.750000 0.500000
O O19 0.830261 0.730475 0.673442
O O20 0.750000 0.750000 0.000000
#
# Coordination Sequence:
#
# PCOD9196433 Si02
#       8
#     8   8   8   8   8   8   8   8
#     4  10  21  39  68 102 134 175 232 289 341 419
#     4  10  21  37  56  88 135 177 214 271 338 397
#     4  12  22  38  64  91 130 173 229 277 331 413
#     4  12  28  49  71 103 142 182 229 296 355 414
#     4  10  20  35  56  94 137 170 215 271 334 403
#     4  11  22  42  72 100 133 179 228 286 354 422
#     4  12  23  44  79 102 137 190 234 285 358 415
#     4  12  24  48  69  99 137 179 235 290 337 416
#
# _framework density 20.851908999999999
#
# number of rings (size 3 to 8) (size 9 to 14) (size 15 to 20)
#    0.000    0.875    3.750    3.750    0.000    5.750 
#    9.000    0.000    0.000    1.500    0.000    0.000 
#    0.000    0.000    0.000    0.000    0.000    0.000 
#
# Total GULP energy -178402.104637 kJ/mol
# GULP energy per Si atom -5575.065770 kJ/mol
# Density = 2.080445 g / cm^3
# Si number density = 20.851909 Si / 1000 Ang^3
#
#
#
# Elastic Constant Matrix: (Units=GPa)
#
#
# Indices 1 2 3 4 5 6 
#
# 1 65.5183 2.6803 27.4424 0.0317 3.1732 -0.0007
# 2 2.6803 95.5092 25.1873 0.0400 6.9613 0.0427
# 3 27.4424 25.1873 113.1318 0.1043 1.9971 0.0075
# 4 0.0317 0.0400 0.1043 24.6424 0.0186 -8.4509
# 5 3.1732 6.9613 1.9971 0.0186 23.3294 0.0112
# 6 -0.0007 0.0427 0.0075 -8.4509 0.0112 22.2945
#
#
#
# Elastic Compliance Matrix: (Units=1/GPa)
#
#
# Indices 1 2 3 4 5 6 
#
# 1 0.017137 0.000814 -0.004299 -0.000003 -0.002206 0.000000
# 2 0.000814 0.011392 -0.002676 -0.000014 -0.003281 -0.000025
# 3 -0.004299 -0.002676 0.010469 -0.000040 0.000487 -0.000014
# 4 -0.000003 -0.000014 -0.000040 0.046644 -0.000038 0.017681
# 5 -0.002206 -0.003281 0.000487 -0.000038 0.044102 -0.000030
# 6 0.000000 -0.000025 -0.000014 0.017681 -0.000030 0.051556
#
#
# Mechanical properties :
#
#
# Convention : Reuss Voigt Hill
#
# Bulk Modulus (GPa) = 37.48693 42.75324 40.12009
# Shear Modulus (GPa) = 24.68949 28.64322 26.66635
#
# Velocity S-wave (km/s) = 3.44472 3.71030 3.57997
# Velocity P-wave (km/s) = 5.81706 6.23722 6.03080
#
# Compressibility (1/GPa) = 0.02667596
#
# Stress axis : x y z
#
# Youngs Moduli (GPa) = 58.35277 87.77978 95.51782
#
# Poissons Ratio (x) = -0.07142 0.41065
# Poissons Ratio (y) = -0.04748 0.25558
# Poissons Ratio (z) = 0.25087 0.23487
#
# Static dielectric constant tensor:
#      x y z
#    x 1.770300 0.000000 0.029490 
#    y 0.000000 1.755200 -0.000090 
#    z 0.029490 -0.000090 1.835810 
# 
# From -- ./inp_files/318379.got.cif
#   From: 2010.05.17/outbox.cif.g08.bks.cpg/sg12_160_cif.got.tgz:318379.got - 2010.06.03 13:09:07.
