data_PCOD9196583
_publ_section_title
;
Structure prediction by ZEFSAII (Michael W. Deem and Ramdas Pophale) SiO2 
 PCOD9196583
Probable space group: C 2/M
;
_chemical_formula_sum "Si O2"
_cell_formula_units_Z 48
_cell_length_a 20.224384
_cell_length_b 7.582367
_cell_length_c 14.778649
_cell_angle_alpha 90.000000
_cell_angle_beta 109.427262
_cell_angle_gamma 90.000000
_cell_volume 2137.254488
_symmetry_space_group_name_H-M "C 2/M"
_symmetry_group_IT_number 12
_symmetry_cell_setting 'monoclinic'
loop_
_space_group_symop_operation_xyz
x,y,z
-x,y,-z
-x,-y,-z
x,-y,z
1/2+x,1/2+y,z
1/2-x,1/2+y,-z
1/2-x,1/2-y,-z
1/2+x,1/2-y,z
loop_
_atom_site_type_symbol
_atom_site_label
_atom_site_fract_x
_atom_site_fract_y
_atom_site_fract_z
Si Si1 0.679516 0.790292 0.913417
Si Si2 0.146917 0.205711 0.701666
Si Si3 0.973103 0.715521 0.087328
Si Si4 0.004768 0.787546 0.396724
Si Si5 0.756054 0.286872 0.608856
Si Si6 0.906075 0.702361 0.723397
O O1 0.685628 0.719578 0.814328
O O2 0.606020 0.724765 0.924166
O O3 0.673251 0.000000 0.904056
O O4 0.750000 0.750000 0.000000
O O5 0.068803 0.277919 0.677978
O O6 0.191251 0.280683 0.638989
O O7 0.135592 0.000000 0.674497
O O8 0.971315 0.500000 0.088931
O O9 0.031497 0.778188 0.186473
O O10 0.000000 0.766556 0.000000
O O11 0.000000 0.744936 0.500000
O O12 0.066953 0.706966 0.367383
O O13 0.012936 0.000000 0.392371
O O14 0.757457 0.500000 0.618140
O O15 0.750000 0.250000 0.500000
O O16 0.828672 0.217918 0.685001
O O17 0.898494 0.500000 0.750581
#
# Coordination Sequence:
#
# PCOD9196583 Si02
#       6
#     8   8   8   8   8   8
#     4  11  23  39  62  88 116 150 190 239 292 347
#     4  10  21  38  59  84 117 154 193 235 286 346
#     4   9  19  36  60  86 111 144 187 233 283 339
#     4  10  20  35  57  83 114 151 186 229 287 344
#     4  10  22  38  59  85 117 156 197 240 284 337
#     4  10  20  36  58  85 112 144 191 238 280 333
#
# _framework density 22.458722000000002
#
# number of rings (size 3 to 8) (size 9 to 14) (size 15 to 20)
#    0.000    2.000    1.667    1.500    2.333    3.000 
#    0.000    0.000    0.000    2.500    0.000    0.000 
#    0.000    0.000    0.000    0.000    0.000    0.000 
#
# Total GULP energy -134048.804555 kJ/mol
# GULP energy per Si atom -5585.366856 kJ/mol
# Density = 2.240761 g / cm^3
# Si number density = 22.458722 Si / 1000 Ang^3
#
#
#
# Elastic Constant Matrix: (Units=GPa)
#
#
# Indices 1 2 3 4 5 6 
#
# 1 98.0488 5.5461 8.6910 0.0000 -2.8549 0.0000
# 2 5.5461 50.8394 -11.9505 0.0000 2.2419 0.0000
# 3 8.6910 -11.9505 72.9180 0.0000 -0.1568 0.0000
# 4 0.0000 0.0000 0.0000 19.0953 0.0000 2.9200
# 5 -2.8549 2.2419 -0.1568 0.0000 43.8819 0.0000
# 6 0.0000 0.0000 0.0000 2.9200 0.0000 4.7209
#
#
#
# Elastic Compliance Matrix: (Units=1/GPa)
#
#
# Indices 1 2 3 4 5 6 
#
# 1 0.010439 -0.001523 -0.001492 0.000000 0.000752 0.000000
# 2 -0.001523 0.020727 0.003576 0.000000 -0.001145 0.000000
# 3 -0.001492 0.003576 0.014477 0.000000 -0.000228 0.000000
# 4 0.000000 0.000000 0.000000 0.057839 0.000000 -0.035775
# 5 0.000752 -0.001145 -0.000228 0.000000 0.022895 0.000000
# 6 0.000000 0.000000 0.000000 -0.035775 0.000000 0.233950
#
#
# Mechanical properties :
#
#
# Convention : Reuss Voigt Hill
#
# Bulk Modulus (GPa) = 21.38314 25.15326 23.26820
# Shear Modulus (GPa) = 13.34064 28.17427 20.75746
#
# Velocity S-wave (km/s) = 2.43987 3.54572 3.04344
# Velocity P-wave (km/s) = 4.18079 5.29027 4.76791
#
# Compressibility (1/GPa) = 0.04676581
#
# Stress axis : x y z
#
# Youngs Moduli (GPa) = 95.79202 48.24633 69.07292
#
# Poissons Ratio (x) = 0.07347 0.10307
# Poissons Ratio (y) = 0.14586 -0.24700
# Poissons Ratio (z) = 0.14294 -0.17253
#
# Static dielectric constant tensor:
#      x y z
#    x 1.816780 0.000000 0.017480 
#    y 0.000000 1.876800 0.000000 
#    z 0.017480 0.000000 1.800610 
# 
# From -- ./inp_files/230448.got.cif
#   From: 2010.05.17/outbox.cif.g08.bks.cpg/sg12_116_cif.got.tgz:230448.got - 2010.06.03 13:09:07.
