data_PCOD9196039
_publ_section_title
;
Structure prediction by ZEFSAII (Michael W. Deem and Ramdas Pophale) SiO2 
 PCOD9196039
Probable space group: C 2/M
;
_chemical_formula_sum "Si O2"
_cell_formula_units_Z 56
_cell_length_a 31.589325
_cell_length_b 8.682936
_cell_length_c 12.229784
_cell_angle_alpha 90.000000
_cell_angle_beta 63.741216
_cell_angle_gamma 90.000000
_cell_volume 3008.317823
_symmetry_space_group_name_H-M "C 2/M"
_symmetry_group_IT_number 12
_symmetry_cell_setting 'monoclinic'
loop_
_space_group_symop_operation_xyz
x,y,z
-x,y,-z
-x,-y,-z
x,-y,z
1/2+x,1/2+y,z
1/2-x,1/2+y,-z
1/2-x,1/2-y,-z
1/2+x,1/2-y,z
loop_
_atom_site_type_symbol
_atom_site_label
_atom_site_fract_x
_atom_site_fract_y
_atom_site_fract_z
Si Si1 0.234261 0.184150 0.807680
Si Si2 0.383997 0.182609 0.437399
Si Si3 0.338329 0.315949 0.702093
Si Si4 0.460327 0.685993 0.198493
Si Si5 0.701728 0.316714 0.604626
Si Si6 0.846415 0.188019 0.941670
Si Si7 0.565566 0.687319 0.013971
O O1 0.284338 0.266496 0.741836
O O2 0.204177 0.210275 0.731774
O O3 0.242709 0.000000 0.805194
O O4 0.202808 0.235561 0.946257
O O5 0.371425 0.245727 0.571396
O O6 0.432587 0.244165 0.331352
O O7 0.342463 0.241499 0.404650
O O8 0.383711 0.000000 0.439905
O O9 0.341658 0.500000 0.693140
O O10 0.350321 0.264024 0.811595
O O11 0.433064 0.500000 0.988925
O O12 0.435886 0.734408 0.111526
O O13 0.515279 0.729856 0.124646
O O14 0.699932 0.500000 0.588387
O O15 0.750000 0.250000 0.500000
O O16 0.846577 0.000000 0.943406
O O17 0.889974 0.240976 0.966773
O O18 0.457833 0.500000 0.207191
#
# Coordination Sequence:
#
# PCOD9196039 Si02
#       7
#     8   8   8   8   8   8   8
#     4  10  20  35  56  80 109 141 174 220 276 325
#     4  12  24  37  53  76 111 150 184 223 271 318
#     4  11  22  35  53  75 106 146 188 227 263 317
#     4   9  17  33  61  89 109 136 173 219 275 333
#     4  11  21  34  55  81 110 141 175 218 268 322
#     4   9  18  33  54  81 108 139 179 224 271 322
#     4   8  15  32  59  88 112 133 170 223 277 329
#
# _framework density 18.615054000000001
#
# number of rings (size 3 to 8) (size 9 to 14) (size 15 to 20)
#    0.000    2.000    1.429    4.286    0.000    2.857 
#    0.000    2.857    0.000    8.571    0.000    0.000 
#    0.000    0.000    0.000    0.000    0.000    0.000 
#
# Total GULP energy -156366.404652 kJ/mol
# GULP energy per Si atom -5584.514452 kJ/mol
# Density = 1.857269 g / cm^3
# Si number density = 18.615054 Si / 1000 Ang^3
#
#
#
# Elastic Constant Matrix: (Units=GPa)
#
#
# Indices 1 2 3 4 5 6 
#
# 1 29.0917 12.3191 34.1945 0.0000 -0.4610 0.0000
# 2 12.3191 43.9619 42.7645 0.0000 3.0396 0.0000
# 3 34.1945 42.7645 167.0704 0.0000 -8.0046 0.0000
# 4 0.0000 0.0000 0.0000 17.8413 0.0000 -4.5409
# 5 -0.4610 3.0396 -8.0046 0.0000 21.5252 0.0000
# 6 0.0000 0.0000 0.0000 -4.5409 0.0000 18.3515
#
#
#
# Elastic Compliance Matrix: (Units=1/GPa)
#
#
# Indices 1 2 3 4 5 6 
#
# 1 0.046107 -0.004762 -0.008286 0.000000 -0.001422 0.000000
# 2 -0.004762 0.031947 -0.007559 0.000000 -0.007424 0.000000
# 3 -0.008286 -0.007559 0.009834 0.000000 0.004547 0.000000
# 4 0.000000 0.000000 0.000000 0.059817 0.000000 0.014801
# 5 -0.001422 -0.007424 0.004547 0.000000 0.049166 0.000000
# 6 0.000000 0.000000 0.000000 0.014801 0.000000 0.058154
#
#
# Mechanical properties :
#
#
# Convention : Reuss Voigt Hill
#
# Bulk Modulus (GPa) = 21.42425 46.52002 33.97214
# Shear Modulus (GPa) = 16.03607 21.59998 18.81803
#
# Velocity S-wave (km/s) = 2.93824 3.41009 3.18292
# Velocity P-wave (km/s) = 4.80053 6.36787 5.63892
#
# Compressibility (1/GPa) = 0.04667607
#
# Stress axis : x y z
#
# Youngs Moduli (GPa) = 21.68846 31.30154 101.68760
#
# Poissons Ratio (x) = 0.14905 0.84260
# Poissons Ratio (y) = 0.10327 0.76862
# Poissons Ratio (z) = 0.17971 0.23660
#
# Static dielectric constant tensor:
#      x y z
#    x 1.623580 0.000000 0.008270 
#    y 0.000000 1.631110 0.000000 
#    z 0.008270 0.000000 1.646640 
# 
# From -- ./inp_files/187149.got.cif
#   From: 2010.05.17/outbox.cif.g08.bks.cpg/sg12_94_cif.got.tgz:187149.got - 2010.06.03 13:09:07.
