data_PCOD9196889
_publ_section_title
;
Structure prediction by ZEFSAII (Michael W. Deem and Ramdas Pophale) SiO2 
 PCOD9196889
Probable space group: C 2/M
;
_chemical_formula_sum "Si O2"
_cell_formula_units_Z 48
_cell_length_a 28.083047
_cell_length_b 7.819160
_cell_length_c 9.977131
_cell_angle_alpha 90.000000
_cell_angle_beta 80.232374
_cell_angle_gamma 90.000000
_cell_volume 2159.078115
_symmetry_space_group_name_H-M "C 2/M"
_symmetry_group_IT_number 12
_symmetry_cell_setting 'monoclinic'
loop_
_space_group_symop_operation_xyz
x,y,z
-x,y,-z
-x,-y,-z
x,-y,z
1/2+x,1/2+y,z
1/2-x,1/2+y,-z
1/2-x,1/2-y,-z
1/2+x,1/2-y,z
loop_
_atom_site_type_symbol
_atom_site_label
_atom_site_fract_x
_atom_site_fract_y
_atom_site_fract_z
Si Si1 0.703120 0.293800 0.611143
Si Si2 0.244759 0.293806 0.157588
Si Si3 0.102638 0.796978 0.535746
Si Si4 0.969108 0.791323 0.212958
Si Si5 0.071291 0.793667 0.050075
Si Si6 0.361554 0.799590 0.754864
O O1 0.699500 0.500000 0.615237
O O2 0.750000 0.250000 0.500000
O O3 0.714654 0.234074 0.757107
O O4 0.653230 0.227290 0.571720
O O5 0.244014 0.500000 0.166126
O O6 0.192429 0.226786 0.230586
O O7 0.250000 0.250000 0.000000
O O8 0.056631 0.730261 0.639856
O O9 0.103821 0.772574 0.376398
O O10 0.102869 0.000000 0.559543
O O11 0.023225 0.733766 0.152597
O O12 0.971867 0.000000 0.213143
O O13 0.935938 0.743717 0.100842
O O14 0.117512 0.731056 0.107904
O O15 0.072335 0.000000 0.052122
O O16 0.358732 0.000000 0.731600
#
# Coordination Sequence:
#
# PCOD9196889 Si02
#       6
#     8   8   8   8   8   8
#     4  10  20  36  57  80 109 144 180 222 268 319
#     4  10  23  39  55  80 112 144 180 224 269 319
#     4  10  20  35  58  83 106 142 188 227 267 319
#     4   8  17  35  59  86 108 134 182 235 273 312
#     4   9  18  36  61  83 108 142 180 226 275 322
#     4  11  23  38  53  79 117 147 177 222 272 323
#
# _framework density 22.231708999999999
#
# number of rings (size 3 to 8) (size 9 to 14) (size 15 to 20)
#    0.000    2.333    1.667    1.500    2.333    2.667 
#    0.000    6.667    0.000    0.000    0.000    0.000 
#    0.000    0.000    0.000    0.000    0.000    0.000 
#
# Total GULP energy -133997.936828 kJ/mol
# GULP energy per Si atom -5583.247368 kJ/mol
# Density = 2.218111 g / cm^3
# Si number density = 22.231709 Si / 1000 Ang^3
#
#
#
# Elastic Constant Matrix: (Units=GPa)
#
#
# Indices 1 2 3 4 5 6 
#
# 1 7.6089 0.0513 -16.9115 0.0000 6.3810 0.0000
# 2 0.0513 23.0088 -6.4638 0.0000 -2.4551 0.0000
# 3 -16.9115 -6.4638 68.0139 0.0000 -6.9181 0.0000
# 4 0.0000 0.0000 0.0000 12.0655 0.0000 11.2801
# 5 6.3810 -2.4551 -6.9181 0.0000 40.5172 0.0000
# 6 0.0000 0.0000 0.0000 11.2801 0.0000 8.1595
#
#
#
# Elastic Compliance Matrix: (Units=1/GPa)
#
#
# Indices 1 2 3 4 5 6 
#
# 1 0.357891 0.019251 0.086710 0.000000 -0.040392 0.000000
# 2 0.019251 0.046180 0.009313 0.000000 0.001357 0.000000
# 3 0.086710 0.009313 0.036450 0.000000 -0.006868 0.000000
# 4 0.000000 0.000000 0.000000 -0.283401 0.000000 0.391786
# 5 -0.040392 0.001357 -0.006868 0.000000 0.029952 0.000000
# 6 0.000000 0.000000 0.000000 0.391786 0.000000 -0.419066
#
#
# Mechanical properties :
#
#
# Convention : Reuss Voigt Hill
#
# Bulk Modulus (GPa) = 1.49016 5.77595 3.63305
# Shear Modulus (GPa) = -20.93338 20.27881 -0.32729
#
# Velocity S-wave (km/s) = -3.07188 3.02347 -0.38410
# Velocity P-wave (km/s) = 3.45111 3.84606 1.20042
#
# Compressibility (1/GPa) = 0.67106944
#
# Stress axis : x y z
#
# Youngs Moduli (GPa) = 2.79415 21.65451 27.43500
#
# Poissons Ratio (x) = -0.41687 -2.37889
# Poissons Ratio (y) = -0.05379 -0.25551
# Poissons Ratio (z) = -0.24228 -0.20168
#
# Static dielectric constant tensor:
#      x y z
#    x 1.821780 0.000000 -0.016800 
#    y 0.000000 1.823710 0.000000 
#    z -0.016800 0.000000 1.807190 
# 
# From -- ./inp_files/108584.got.cif
#   From: 2010.05.17/outbox.cif.g08.bks.cpg/sg12_55_cif.got.tgz:108584.got - 2010.06.03 13:09:07.
