data_PCOD9196692
_publ_section_title
;
Structure prediction by ZEFSAII (Michael W. Deem and Ramdas Pophale) SiO2 
 PCOD9196692
Probable space group: C 2/M
;
_chemical_formula_sum "Si O2"
_cell_formula_units_Z 48
_cell_length_a 13.131228
_cell_length_b 23.645651
_cell_length_c 13.524291
_cell_angle_alpha 90.000000
_cell_angle_beta 42.762158
_cell_angle_gamma 90.000000
_cell_volume 2851.104316
_symmetry_space_group_name_H-M "C 2/M"
_symmetry_group_IT_number 12
_symmetry_cell_setting 'monoclinic'
loop_
_space_group_symop_operation_xyz
x,y,z
-x,y,-z
-x,-y,-z
x,-y,z
1/2+x,1/2+y,z
1/2-x,1/2+y,-z
1/2-x,1/2-y,-z
1/2+x,1/2-y,z
loop_
_atom_site_type_symbol
_atom_site_label
_atom_site_fract_x
_atom_site_fract_y
_atom_site_fract_z
Si Si1 0.349147 0.564392 0.170135
Si Si2 0.110043 0.765405 0.165979
Si Si3 0.669462 0.715930 0.338625
Si Si4 0.015763 0.434553 0.370979
Si Si5 0.826199 0.176272 0.303382
Si Si6 0.132143 0.332015 0.632924
O O1 0.356387 0.500000 0.204095
O O2 0.193410 0.568078 0.220677
O O3 0.328871 0.612184 0.266559
O O4 0.500000 0.574436 0.000000
O O5 0.162655 0.796633 0.227752
O O6 0.996053 0.803300 0.185182
O O7 0.008262 0.711067 0.268268
O O8 0.250000 0.750000 0.000000
O O9 0.500000 0.712748 0.500000
O O10 0.730665 0.780407 0.304950
O O11 0.781184 0.677600 0.325221
O O12 0.966739 0.500000 0.398260
O O13 0.000000 0.418749 0.500000
O O14 0.927726 0.392631 0.361394
O O15 0.753561 0.184114 0.462840
#
# Coordination Sequence:
#
# PCOD9196692 Si02
#       6
#     8   8   8   8   8   8
#     4  10  22  36  54  83 117 150 185 235 293 340
#     4  11  24  36  54  83 112 150 190 232 288 341
#     4  11  20  37  55  78 113 151 190 229 279 343
#     4  10  20  35  57  85 114 145 187 237 284 339
#     4  11  21  33  56  81 109 149 185 228 280 339
#     4  11  21  35  57  82 110 148 186 230 286 337
#
# _framework density 16.835581999999999
#
# number of rings (size 3 to 8) (size 9 to 14) (size 15 to 20)
#    0.000    1.333    5.000    2.000    4.667    2.000 
#    0.000    0.000    0.000    1.500    0.000    1.167 
#    0.000    0.000    0.000    0.000    0.000    0.000 
#
# Total GULP energy -133826.076815 kJ/mol
# GULP energy per Si atom -5576.086534 kJ/mol
# Density = 1.679726 g / cm^3
# Si number density = 16.835582 Si / 1000 Ang^3
#
#
#
# Elastic Constant Matrix: (Units=GPa)
#
#
# Indices 1 2 3 4 5 6 
#
# 1 104.4861 43.4602 33.8272 0.0000 -11.7298 0.0000
# 2 43.4602 97.2784 25.9190 0.0000 -2.7575 0.0000
# 3 33.8272 25.9190 87.2855 0.0000 -24.2077 0.0000
# 4 0.0000 0.0000 0.0000 20.6418 0.0000 1.6655
# 5 -11.7298 -2.7575 -24.2077 0.0000 25.0073 0.0000
# 6 0.0000 0.0000 0.0000 1.6655 0.0000 24.6387
#
#
#
# Elastic Compliance Matrix: (Units=1/GPa)
#
#
# Indices 1 2 3 4 5 6 
#
# 1 0.012816 -0.004921 -0.002719 0.000000 0.002837 0.000000
# 2 -0.004921 0.013188 -0.003070 0.000000 -0.003826 0.000000
# 3 -0.002719 -0.003070 0.017736 0.000000 0.015555 0.000000
# 4 0.000000 0.000000 0.000000 0.048711 0.000000 -0.003293
# 5 0.002837 -0.003826 0.015555 0.000000 0.055955 0.000000
# 6 0.000000 0.000000 0.000000 -0.003293 0.000000 0.040809
#
#
# Mechanical properties :
#
#
# Convention : Reuss Voigt Hill
#
# Bulk Modulus (GPa) = 44.80204 55.05143 49.92673
# Shear Modulus (GPa) = 22.92791 26.44712 24.68751
#
# Velocity S-wave (km/s) = 3.69436 3.96777 3.83350
# Velocity P-wave (km/s) = 6.69828 7.33221 7.02240
#
# Compressibility (1/GPa) = 0.02232041
#
# Stress axis : x y z
#
# Youngs Moduli (GPa) = 78.02640 75.82769 56.38257
#
# Poissons Ratio (x) = 0.37314 0.15329
# Poissons Ratio (y) = 0.38396 0.17310
# Poissons Ratio (z) = 0.21214 0.23279
#
# Static dielectric constant tensor:
#      x y z
#    x 1.587470 0.000000 -0.005880 
#    y 0.000000 1.588560 0.000000 
#    z -0.005880 0.000000 1.577000 
# 
# From -- ./inp_files/50603.got.cif
#   From: 2010.05.17/outbox.cif.g08.bks.cpg/sg12_26_cif.got.tgz:50603.got - 2010.06.03 13:09:07.
