data_PCOD9196881
_publ_section_title
;
Structure prediction by ZEFSAII (Michael W. Deem and Ramdas Pophale) SiO2 
 PCOD9196881
Probable space group: C 2/M
;
_chemical_formula_sum "Si O2"
_cell_formula_units_Z 50
_cell_length_a 14.863769
_cell_length_b 10.287244
_cell_length_c 21.519144
_cell_angle_alpha 90.000000
_cell_angle_beta 60.347657
_cell_angle_gamma 90.000000
_cell_volume 2859.528351
_symmetry_space_group_name_H-M "C 2/M"
_symmetry_group_IT_number 12
_symmetry_cell_setting 'monoclinic'
loop_
_space_group_symop_operation_xyz
x,y,z
-x,y,-z
-x,-y,-z
x,-y,z
1/2+x,1/2+y,z
1/2-x,1/2+y,-z
1/2-x,1/2-y,-z
1/2+x,1/2-y,z
loop_
_atom_site_type_symbol
_atom_site_label
_atom_site_fract_x
_atom_site_fract_y
_atom_site_fract_z
Si Si1 0.379595 0.348884 0.406143
Si Si2 0.343183 0.245326 0.552325
Si Si3 0.000000 0.500000 0.500000
Si Si4 0.537548 0.348987 0.915961
Si Si5 0.775681 0.653118 0.169067
Si Si6 0.892920 0.155935 0.672296
Si Si7 0.314970 0.351112 0.937358
O O1 0.373767 0.500000 0.391222
O O2 0.373162 0.333621 0.483083
O O3 0.279616 0.279640 0.412064
O O4 0.492300 0.294584 0.348980
O O5 0.410034 0.114068 0.523501
O O6 0.368276 0.304244 0.610576
O O7 0.572360 0.500000 0.898921
O O8 0.625791 0.246748 0.868868
O O9 0.436377 0.331115 0.908001
O O10 0.500000 0.329262 0.000000
O O11 0.803373 0.500000 0.168843
O O12 0.697389 0.696278 0.249979
O O13 0.716401 0.661398 0.123537
O O14 0.898341 0.000000 0.673624
O O15 0.291654 0.500000 0.965151
O O16 0.250000 0.250000 0.000000
#
# Coordination Sequence:
#
# PCOD9196881 Si02
#       7
#     8   8   2   8   8   8   8
#     4  10  20  35  58  82 105 148 193 226 274 333
#     4  11  21  35  57  83 114 147 185 235 282 326
#     4  12  20  36  54  88 118 140 190 246 272 336
#     4  10  20  36  58  85 113 143 183 230 283 345
#     4  10  22  38  57  83 112 149 189 235 281 334
#     4  10  21  39  56  77 113 148 189 230 276 336
#     4  10  20  35  58  82 111 144 184 231 280 334
#
# _framework density 17.485401
#
# number of rings (size 3 to 8) (size 9 to 14) (size 15 to 20)
#    0.000    1.760    4.000    0.480    0.000    3.520 
#    1.440    1.600    0.000    0.000    0.000    0.000 
#    0.000    0.000    0.000    0.000    0.000    0.000 
#
# Total GULP energy -139185.054517 kJ/mol
# GULP energy per Si atom -5567.402181 kJ/mol
# Density = 1.744560 g / cm^3
# Si number density = 17.485401 Si / 1000 Ang^3
#
#
#
# Elastic Constant Matrix: (Units=GPa)
#
#
# Indices 1 2 3 4 5 6 
#
# 1 114.3793 40.7633 39.9277 0.0000 -27.2103 0.0000
# 2 40.7633 46.1176 26.8039 0.0000 -23.3553 0.0000
# 3 39.9277 26.8039 56.3824 0.0000 -28.1495 0.0000
# 4 0.0000 0.0000 0.0000 9.5322 0.0000 -8.3696
# 5 -27.2103 -23.3553 -28.1495 0.0000 24.7791 0.0000
# 6 0.0000 0.0000 0.0000 -8.3696 0.0000 28.7044
#
#
#
# Elastic Compliance Matrix: (Units=1/GPa)
#
#
# Indices 1 2 3 4 5 6 
#
# 1 0.013925 -0.008676 -0.005048 0.000000 0.001379 0.000000
# 2 -0.008676 0.046897 0.002683 0.000000 0.037723 0.000000
# 3 -0.005048 0.002683 0.042812 0.000000 0.045621 0.000000
# 4 0.000000 0.000000 0.000000 0.141008 0.000000 0.041115
# 5 0.001379 0.037723 0.045621 0.000000 0.129253 0.000000
# 6 0.000000 0.000000 0.000000 0.041115 0.000000 0.046826
#
#
# Mechanical properties :
#
#
# Convention : Reuss Voigt Hill
#
# Bulk Modulus (GPa) = 12.26207 47.98545 30.12376
# Shear Modulus (GPa) = 10.63858 19.89542 15.26700
#
# Velocity S-wave (km/s) = 2.46931 3.37683 2.95808
# Velocity P-wave (km/s) = 3.89332 6.53504 5.37888
#
# Compressibility (1/GPa) = 0.08155229
#
# Stress axis : x y z
#
# Youngs Moduli (GPa) = 71.81249 21.32327 23.35790
#
# Poissons Ratio (x) = 0.18500 0.11791
# Poissons Ratio (y) = 0.62304 -0.06267
# Poissons Ratio (z) = 0.36252 -0.05721
#
# Static dielectric constant tensor:
#      x y z
#    x 1.589830 0.000000 -0.010370 
#    y 0.000000 1.582710 0.000000 
#    z -0.010370 0.000000 1.584470 
# 
# From -- ./inp_files/337760.got.cif
#   From: 2010.05.17/outbox.cif.g08.bks.cpg/sg12_169_cif.got.tgz:337760.got - 2010.06.03 13:09:07.
