data_PCOD9196021
_publ_section_title
;
Structure prediction by ZEFSAII (Michael W. Deem and Ramdas Pophale) SiO2 
 PCOD9196021
Probable space group: C 2/M
;
_chemical_formula_sum "Si O2"
_cell_formula_units_Z 48
_cell_length_a 20.631066
_cell_length_b 8.894203
_cell_length_c 21.573718
_cell_angle_alpha 90.000000
_cell_angle_beta 135.716751
_cell_angle_gamma 90.000000
_cell_volume 2763.995233
_symmetry_space_group_name_H-M "C 2/M"
_symmetry_group_IT_number 12
_symmetry_cell_setting 'monoclinic'
loop_
_space_group_symop_operation_xyz
x,y,z
-x,y,-z
-x,-y,-z
x,-y,z
1/2+x,1/2+y,z
1/2-x,1/2+y,-z
1/2-x,1/2-y,-z
1/2+x,1/2-y,z
loop_
_atom_site_type_symbol
_atom_site_label
_atom_site_fract_x
_atom_site_fract_y
_atom_site_fract_z
Si Si1 0.744035 0.179124 0.063408
Si Si2 0.240629 0.679932 0.727997
Si Si3 0.601273 0.319732 0.729079
Si Si4 0.601775 0.820212 0.402640
Si Si5 0.746881 0.320219 0.596644
Si Si6 0.393699 0.680269 0.935496
O O1 0.833723 0.216832 0.167187
O O2 0.656134 0.241528 0.040955
O O3 0.738518 0.000000 0.054926
O O4 0.750000 0.250000 0.000000
O O5 0.230349 0.500000 0.716991
O O6 0.153863 0.749790 0.705838
O O7 0.250500 0.750190 0.667101
O O8 0.331095 0.713295 0.832204
O O9 0.596960 0.500000 0.719919
O O10 0.499563 0.251797 0.667518
O O11 0.662355 0.750962 0.499875
O O12 0.660450 0.788413 0.380215
O O13 0.595633 0.000000 0.405617
O O14 0.735543 0.500000 0.592255
O O15 0.391445 0.500000 0.943353
O O16 0.500000 0.727009 0.000000
#
# Coordination Sequence:
#
# PCOD9196021 Si02
#       6
#     8   8   8   8   8   8
#     4  10  21  36  55  79 108 142 179 220 264 313
#     4  10  20  35  56  80 108 141 178 220 264 315
#     4  10  21  37  56  79 108 141 178 220 266 314
#     4  10  21  37  57  81 108 139 177 219 264 315
#     4  10  21  37  56  79 109 141 175 218 265 315
#     4   9  19  36  56  79 108 141 177 219 267 316
#
# _framework density 17.366166
#
# number of rings (size 3 to 8) (size 9 to 14) (size 15 to 20)
#    0.000    2.167    0.000    2.500    0.000    7.000 
#    0.000    8.333    0.000    0.000    0.000    0.000 
#    0.000    0.000    0.000    0.000    0.000    0.000 
#
# Total GULP energy -134011.532045 kJ/mol
# GULP energy per Si atom -5583.813835 kJ/mol
# Density = 1.732664 g / cm^3
# Si number density = 17.366166 Si / 1000 Ang^3
#
#
#
# Elastic Constant Matrix: (Units=GPa)
#
#
# Indices 1 2 3 4 5 6 
#
# 1 178.1929 85.9159 130.0294 0.0000 -1.5177 0.0000
# 2 85.9159 74.8627 68.4716 0.0000 -2.4820 0.0000
# 3 130.0294 68.4716 112.1510 0.0000 0.8417 0.0000
# 4 0.0000 0.0000 0.0000 29.4901 0.0000 -2.9879
# 5 -1.5177 -2.4820 0.8417 0.0000 45.1322 0.0000
# 6 0.0000 0.0000 0.0000 -2.9879 0.0000 36.9100
#
#
#
# Elastic Compliance Matrix: (Units=1/GPa)
#
#
# Indices 1 2 3 4 5 6 
#
# 1 0.038366 -0.007430 -0.039958 0.000000 0.001627 0.000000
# 2 -0.007430 0.031871 -0.010857 0.000000 0.001705 0.000000
# 3 -0.039958 -0.010857 0.061896 0.000000 -0.003095 0.000000
# 4 0.000000 0.000000 0.000000 0.034190 0.000000 0.002768
# 5 0.001627 0.001705 -0.003095 0.000000 0.022363 0.000000
# 6 0.000000 0.000000 0.000000 0.002768 0.000000 0.027317
#
#
# Mechanical properties :
#
#
# Convention : Reuss Voigt Hill
#
# Bulk Modulus (GPa) = 63.92350 103.78227 83.85289
# Shear Modulus (GPa) = 14.80575 27.69244 21.24910
#
# Velocity S-wave (km/s) = 2.92304 3.99760 3.50178
# Velocity P-wave (km/s) = 6.94848 9.01103 8.04612
#
# Compressibility (1/GPa) = 0.01564370
#
# Stress axis : x y z
#
# Youngs Moduli (GPa) = 26.06498 31.37633 16.15616
#
# Poissons Ratio (x) = 0.23312 0.64556
# Poissons Ratio (y) = 0.19366 0.17541
# Poissons Ratio (z) = 1.04150 0.34065
#
# Static dielectric constant tensor:
#      x y z
#    x 1.557220 0.000000 0.004000 
#    y 0.000000 1.576830 0.000000 
#    z 0.004000 0.000000 1.568080 
# 
# From -- ./inp_files/229906.got.cif
#   From: 2010.05.17/outbox.cif.g08.bks.cpg/sg12_115_cif.got.tgz:229906.got - 2010.06.03 13:09:07.
