data_PCOD9196427
_publ_section_title
;
Structure prediction by ZEFSAII (Michael W. Deem and Ramdas Pophale) SiO2 
 PCOD9196427
Probable space group: C 2/M
;
_chemical_formula_sum "Si O2"
_cell_formula_units_Z 64
_cell_length_a 27.235885
_cell_length_b 18.303244
_cell_length_c 11.257841
_cell_angle_alpha 90.000000
_cell_angle_beta 146.783457
_cell_angle_gamma 90.000000
_cell_volume 3074.330153
_symmetry_space_group_name_H-M "C 2/M"
_symmetry_group_IT_number 12
_symmetry_cell_setting 'monoclinic'
loop_
_space_group_symop_operation_xyz
x,y,z
-x,y,-z
-x,-y,-z
x,-y,z
1/2+x,1/2+y,z
1/2-x,1/2+y,-z
1/2-x,1/2-y,-z
1/2+x,1/2-y,z
loop_
_atom_site_type_symbol
_atom_site_label
_atom_site_fract_x
_atom_site_fract_y
_atom_site_fract_z
Si Si1 0.781747 0.577450 0.458992
Si Si2 0.776449 0.268352 0.420716
Si Si3 0.525461 0.798281 0.264031
Si Si4 0.109242 0.421937 0.553112
Si Si5 0.424173 0.716952 0.245410
Si Si6 0.895211 0.582304 0.926338
Si Si7 0.705822 0.158501 0.079839
Si Si8 0.197733 0.085435 0.929556
O O1 0.732217 0.500000 0.352273
O O2 0.734505 0.650746 0.321131
O O3 0.862681 0.572359 0.528668
O O4 0.823630 0.586704 0.674456
O O5 0.750000 0.250000 0.500000
O O6 0.883203 0.274932 0.614698
O O7 0.742184 0.210909 0.256831
O O8 0.549748 0.850113 0.427830
O O9 0.470080 0.732673 0.210482
O O10 0.464314 0.850759 0.059507
O O11 0.068726 0.500000 0.508148
O O12 0.203228 0.412794 0.810268
O O13 0.500000 0.715694 0.500000
O O14 0.369701 0.641249 0.143853
O O15 0.355708 0.785936 0.121419
O O16 0.933452 0.500000 0.998461
O O17 0.849681 0.596647 0.962262
O O18 0.782873 0.120574 0.159924
O O19 0.170317 0.000000 0.871861
#
# Coordination Sequence:
#
# PCOD9196427 Si02
#       8
#     8   8   8   8   8   8   8   8
#     4   9  18  34  56  83 118 153 193 239 290 353
#     4  11  21  38  58  84 118 159 202 242 293 357
#     4  10  21  34  56  85 122 158 198 244 296 358
#     4   9  18  34  57  85 114 154 197 240 293 356
#     4  11  22  38  58  85 120 158 196 245 304 352
#     4  10  20  35  56  89 126 156 189 241 305 361
#     4  11  22  39  62  88 121 157 200 248 299 360
#     4  11  23  40  64  87 116 157 207 253 298 355
#
# _framework density 20.817544000000002
#
# number of rings (size 3 to 8) (size 9 to 14) (size 15 to 20)
#    0.000    1.750    1.250    4.125    0.000    2.750 
#    0.000    5.625    0.000    6.750    0.000    0.000 
#    0.000   13.250    0.000    0.000    0.000    0.000 
#
# Total GULP energy -178478.600551 kJ/mol
# GULP energy per Si atom -5577.456267 kJ/mol
# Density = 2.077016 g / cm^3
# Si number density = 20.817544 Si / 1000 Ang^3
#
#
#
# Elastic Constant Matrix: (Units=GPa)
#
#
# Indices 1 2 3 4 5 6 
#
# 1 91.2034 63.7349 27.2450 0.0000 3.5148 0.0000
# 2 63.7349 138.0677 37.2595 0.0000 -2.5954 0.0000
# 3 27.2450 37.2595 52.2631 0.0000 -6.5295 0.0000
# 4 0.0000 0.0000 0.0000 14.8693 0.0000 6.2734
# 5 3.5148 -2.5954 -6.5295 0.0000 23.7105 0.0000
# 6 0.0000 0.0000 0.0000 6.2734 0.0000 24.2991
#
#
#
# Elastic Compliance Matrix: (Units=1/GPa)
#
#
# Indices 1 2 3 4 5 6 
#
# 1 0.017312 -0.006794 -0.004758 0.000000 -0.004620 0.000000
# 2 -0.006794 0.011650 -0.004638 0.000000 0.001005 0.000000
# 3 -0.004758 -0.004638 0.025834 0.000000 0.007312 0.000000
# 4 0.000000 0.000000 0.000000 0.075474 0.000000 -0.019485
# 5 -0.004620 0.001005 0.007312 0.000000 0.044984 0.000000
# 6 0.000000 0.000000 0.000000 -0.019485 0.000000 0.046184
#
#
# Mechanical properties :
#
#
# Convention : Reuss Voigt Hill
#
# Bulk Modulus (GPa) = 44.61243 59.77923 52.19583
# Shear Modulus (GPa) = 19.13579 22.79544 20.96561
#
# Velocity S-wave (km/s) = 3.03514 3.31268 3.17695
# Velocity P-wave (km/s) = 5.81030 6.58862 6.21166
#
# Compressibility (1/GPa) = 0.02241528
#
# Stress axis : x y z
#
# Youngs Moduli (GPa) = 57.76325 85.83906 38.70813
#
# Poissons Ratio (x) = 0.58322 0.18418
# Poissons Ratio (y) = 0.39246 0.17952
# Poissons Ratio (z) = 0.27485 0.39810
#
# Static dielectric constant tensor:
#      x y z
#    x 1.754280 0.000000 -0.014230 
#    y 0.000000 1.835120 0.000000 
#    z -0.014230 0.000000 1.784390 
# 
# From -- ./inp_files/190067.got.cif
#   From: 2010.05.17/outbox.cif.g08.bks.cpg/sg12_96_cif.got.tgz:190067.got - 2010.06.03 13:09:07.
