data_PCOD9196009
_publ_section_title
;
Structure prediction by ZEFSAII (Michael W. Deem and Ramdas Pophale) SiO2 
 PCOD9196009
Probable space group: C 2/M
;
_chemical_formula_sum "Si O2"
_cell_formula_units_Z 44
_cell_length_a 19.825922
_cell_length_b 18.683775
_cell_length_c 6.338487
_cell_angle_alpha 90.000000
_cell_angle_beta 91.369772
_cell_angle_gamma 90.000000
_cell_volume 2347.250846
_symmetry_space_group_name_H-M "C 2/M"
_symmetry_group_IT_number 12
_symmetry_cell_setting 'monoclinic'
loop_
_space_group_symop_operation_xyz
x,y,z
-x,y,-z
-x,-y,-z
x,-y,z
1/2+x,1/2+y,z
1/2-x,1/2+y,-z
1/2-x,1/2-y,-z
1/2+x,1/2-y,z
loop_
_atom_site_type_symbol
_atom_site_label
_atom_site_fract_x
_atom_site_fract_y
_atom_site_fract_z
Si Si1 0.219829 0.828173 0.522585
Si Si2 0.400446 0.327630 0.158928
Si Si3 0.182320 0.918555 0.124508
Si Si4 0.310529 0.916718 0.819595
Si Si5 0.567987 0.192754 0.129248
Si Si6 0.000000 0.771300 0.500000
O O1 0.250000 0.750000 0.500000
O O2 0.163618 0.819911 0.695976
O O3 0.187875 0.861607 0.311518
O O4 0.276035 0.883480 0.609217
O O5 0.463222 0.320050 0.322015
O O6 0.382306 0.397852 0.023425
O O7 0.406372 0.261680 0.998661
O O8 0.177306 0.000000 0.200943
O O9 0.251393 0.912231 0.992468
O O10 0.375228 0.867931 0.871661
O O11 0.327852 0.000000 0.795373
O O12 0.548911 0.220239 0.363522
O O13 0.500000 0.169545 0.000000
#
# Coordination Sequence:
#
# PCOD9196009 Si02
#       6
#     8   8   8   8   8   4
#     4  11  20  33  57  83 107 141 183 226 271 320
#     4  10  20  35  56  80 107 140 182 227 271 319
#     4  10  21  36  55  82 115 145 175 219 275 329
#     4  10  21  36  54  81 115 147 179 220 271 324
#     4  10  21  37  56  80 109 144 187 228 267 316
#     4  10  20  36  58  80 106 142 188 234 266 308
#
# _framework density 18.745332999999999
#
# number of rings (size 3 to 8) (size 9 to 14) (size 15 to 20)
#    0.000    1.818    0.000    4.909    0.000    5.455 
#    0.000    0.909    0.000   10.364    0.000    0.000 
#    0.000    0.000    0.000    0.000    0.000    0.000 
#
# Total GULP energy -122736.863916 kJ/mol
# GULP energy per Si atom -5578.948360 kJ/mol
# Density = 1.870267 g / cm^3
# Si number density = 18.745333 Si / 1000 Ang^3
#
#
#
# Elastic Constant Matrix: (Units=GPa)
#
#
# Indices 1 2 3 4 5 6 
#
# 1 71.3012 47.6465 22.0382 0.0000 16.0317 0.0000
# 2 47.6465 107.5240 52.9533 0.0000 4.8000 0.0000
# 3 22.0382 52.9533 94.7941 0.0000 4.2991 0.0000
# 4 0.0000 0.0000 0.0000 14.2983 0.0000 0.4431
# 5 16.0317 4.8000 4.2991 0.0000 21.4604 0.0000
# 6 0.0000 0.0000 0.0000 0.4431 0.0000 27.2522
#
#
#
# Elastic Compliance Matrix: (Units=1/GPa)
#
#
# Indices 1 2 3 4 5 6 
#
# 1 0.024401 -0.010568 0.000959 0.000000 -0.016057 0.000000
# 2 -0.010568 0.017452 -0.007541 0.000000 0.005502 0.000000
# 3 0.000959 -0.007541 0.014628 0.000000 -0.001960 0.000000
# 4 0.000000 0.000000 0.000000 0.069974 0.000000 -0.001138
# 5 -0.016057 0.005502 -0.001960 0.000000 0.057755 0.000000
# 6 0.000000 0.000000 0.000000 -0.001138 0.000000 0.036713
#
#
# Mechanical properties :
#
#
# Convention : Reuss Voigt Hill
#
# Bulk Modulus (GPa) = 45.08716 57.65503 51.37110
# Shear Modulus (GPa) = 19.03924 22.66759 20.85341
#
# Velocity S-wave (km/s) = 3.19043 3.48118 3.33897
# Velocity P-wave (km/s) = 6.13812 6.85434 6.50609
#
# Compressibility (1/GPa) = 0.02217926
#
# Stress axis : x y z
#
# Youngs Moduli (GPa) = 40.98196 57.30166 68.36299
#
# Poissons Ratio (x) = 0.60557 -0.06555
# Poissons Ratio (y) = 0.43310 0.51554
# Poissons Ratio (z) = -0.03929 0.43213
#
# Static dielectric constant tensor:
#      x y z
#    x 1.667080 0.000000 0.020890 
#    y 0.000000 1.620560 0.000000 
#    z 0.020890 0.000000 1.673390 
# 
# From -- ./inp_files/20425.got.cif
#   From: 2010.05.17/outbox.cif.g08.bks.cpg/sg12_11_cif.got.tgz:20425.got - 2010.06.03 13:09:07.
