data_PCOD9196720
_publ_section_title
;
Structure prediction by ZEFSAII (Michael W. Deem and Ramdas Pophale) SiO2 
 PCOD9196720
Probable space group: C 2/M
;
_chemical_formula_sum "Si O2"
_cell_formula_units_Z 56
_cell_length_a 29.983904
_cell_length_b 7.992036
_cell_length_c 11.919627
_cell_angle_alpha 90.000000
_cell_angle_beta 69.232035
_cell_angle_gamma 90.000000
_cell_volume 2670.736669
_symmetry_space_group_name_H-M "C 2/M"
_symmetry_group_IT_number 12
_symmetry_cell_setting 'monoclinic'
loop_
_space_group_symop_operation_xyz
x,y,z
-x,y,-z
-x,-y,-z
x,-y,z
1/2+x,1/2+y,z
1/2-x,1/2+y,-z
1/2-x,1/2-y,-z
1/2+x,1/2-y,z
loop_
_atom_site_type_symbol
_atom_site_label
_atom_site_fract_x
_atom_site_fract_y
_atom_site_fract_z
Si Si1 0.263833 0.300056 0.612668
Si Si2 0.826624 0.299309 0.167342
Si Si3 0.476161 0.704453 0.847771
Si Si4 0.542801 0.300366 0.384922
Si Si5 0.352837 0.801624 0.670830
Si Si6 0.571637 0.298891 0.878783
Si Si7 0.194617 0.701886 0.057123
O O1 0.264901 0.500000 0.619640
O O2 0.250000 0.250000 0.500000
O O3 0.221736 0.235557 0.732121
O O4 0.314850 0.235585 0.607961
O O5 0.823107 0.500000 0.166421
O O6 0.874582 0.255636 0.190263
O O7 0.829501 0.237040 0.036533
O O8 0.474445 0.500000 0.849776
O O9 0.459470 0.765061 0.741177
O O10 0.530628 0.754103 0.828378
O O11 0.444790 0.760488 0.982378
O O12 0.500000 0.232954 0.500000
O O13 0.535958 0.500000 0.382631
O O14 0.594509 0.269415 0.390964
O O15 0.330086 0.733750 0.807799
O O16 0.357667 0.000000 0.677179
O O17 0.570711 0.500000 0.881217
O O18 0.192028 0.500000 0.062337
O O19 0.250000 0.750000 0.000000
#
# Coordination Sequence:
#
# PCOD9196720 Si02
#       7
#     8   8   8   8   8   8   8
#     4  11  24  42  61  81 114 155 194 238 286 345
#     4  10  21  36  54  83 118 148 182 232 288 339
#     4   8  16  33  53  78 109 141 186 237 282 329
#     4  10  21  37  58  82 111 151 196 240 289 346
#     4  11  23  39  61  89 119 152 193 243 297 353
#     4   9  17  31  55  80 106 144 186 231 278 334
#     4  10  20  35  57  85 117 150 189 236 288 348
#
# _framework density 20.967995999999999
#
# number of rings (size 3 to 8) (size 9 to 14) (size 15 to 20)
#    0.000    2.143    1.429    2.571    0.000    3.714 
#    0.000    3.571    0.000    0.000    0.000    0.000 
#    0.000    0.000    0.000    0.000    0.000    0.000 
#
# Total GULP energy -156376.214002 kJ/mol
# GULP energy per Si atom -5584.864786 kJ/mol
# Density = 2.092027 g / cm^3
# Si number density = 20.967996 Si / 1000 Ang^3
#
#
#
# Elastic Constant Matrix: (Units=GPa)
#
#
# Indices 1 2 3 4 5 6 
#
# 1 139.1782 -14.6397 40.9447 0.0000 -9.5898 0.0000
# 2 -14.6397 11.2295 2.1825 0.0000 0.8748 0.0000
# 3 40.9447 2.1825 66.2011 0.0000 1.9516 0.0000
# 4 0.0000 0.0000 0.0000 11.5540 0.0000 -1.2652
# 5 -9.5898 0.8748 1.9516 0.0000 34.5487 0.0000
# 6 0.0000 0.0000 0.0000 -1.2652 0.0000 28.9137
#
#
#
# Elastic Compliance Matrix: (Units=1/GPa)
#
#
# Indices 1 2 3 4 5 6 
#
# 1 0.011332 0.016010 -0.007630 0.000000 0.003171 0.000000
# 2 0.016010 0.112396 -0.013677 0.000000 0.002371 0.000000
# 3 -0.007630 -0.013677 0.020362 0.000000 -0.002922 0.000000
# 4 0.000000 0.000000 0.000000 0.086967 0.000000 0.003806
# 5 0.003171 0.002371 -0.002922 0.000000 0.029930 0.000000
# 6 0.000000 0.000000 0.000000 0.003806 0.000000 0.034752
#
#
# Mechanical properties :
#
#
# Convention : Reuss Voigt Hill
#
# Bulk Modulus (GPa) = 7.49094 30.39818 18.94456
# Shear Modulus (GPa) = 14.25182 27.54471 20.89826
#
# Velocity S-wave (km/s) = 2.60992 3.62837 3.16044
# Velocity P-wave (km/s) = 3.55845 5.66412 4.72995
#
# Compressibility (1/GPa) = 0.13349455
#
# Stress axis : x y z
#
# Youngs Moduli (GPa) = 88.24385 8.89713 49.11184
#
# Poissons Ratio (x) = -0.14244 0.37473
# Poissons Ratio (y) = -1.41274 0.67170
# Poissons Ratio (z) = 0.67331 0.12169
#
# Static dielectric constant tensor:
#      x y z
#    x 1.732960 0.000000 0.005010 
#    y 0.000000 1.747820 0.000000 
#    z 0.005010 0.000000 1.765700 
# 
# From -- ./inp_files/187266.got.cif
#   From: 2010.05.17/outbox.cif.g08.bks.cpg/sg12_94_cif.got.tgz:187266.got - 2010.06.03 13:09:07.
