data_PCOD9196665
_publ_section_title
;
Structure prediction by ZEFSAII (Michael W. Deem and Ramdas Pophale) SiO2 
 PCOD9196665
Probable space group: C 2/M
;
_chemical_formula_sum "Si O2"
_cell_formula_units_Z 58
_cell_length_a 24.526864
_cell_length_b 9.476386
_cell_length_c 21.990890
_cell_angle_alpha 90.000000
_cell_angle_beta 37.833127
_cell_angle_gamma 90.000000
_cell_volume 3135.058953
_symmetry_space_group_name_H-M "C 2/M"
_symmetry_group_IT_number 12
_symmetry_cell_setting 'monoclinic'
loop_
_space_group_symop_operation_xyz
x,y,z
-x,y,-z
-x,-y,-z
x,-y,z
1/2+x,1/2+y,z
1/2-x,1/2+y,-z
1/2-x,1/2-y,-z
1/2+x,1/2-y,z
loop_
_atom_site_type_symbol
_atom_site_label
_atom_site_fract_x
_atom_site_fract_y
_atom_site_fract_z
Si Si1 0.669618 0.166651 0.216705
Si Si2 0.626696 0.654989 0.480301
Si Si3 0.789615 0.333767 0.022146
Si Si4 0.500000 0.500000 0.500000
Si Si5 0.771678 0.665251 0.703714
Si Si6 0.497889 0.834176 0.171503
Si Si7 0.975036 0.668165 0.331377
Si Si8 0.433984 0.332203 0.111671
O O1 0.743795 0.263600 0.120690
O O2 0.668704 0.194654 0.289376
O O3 0.575453 0.192997 0.267429
O O4 0.691413 0.000000 0.189148
O O5 0.660136 0.500000 0.470345
O O6 0.546759 0.620146 0.503386
O O7 0.699422 0.739083 0.377654
O O8 0.590405 0.743806 0.568569
O O9 0.768749 0.500000 0.036424
O O10 0.750000 0.250000 0.000000
O O11 0.895609 0.318513 0.928254
O O12 0.781432 0.500000 0.679438
O O13 0.669453 0.689409 0.812637
O O14 0.471298 0.793084 0.263558
O O15 0.453999 0.744610 0.157093
O O16 0.477155 0.000000 0.182099
O O17 0.958896 0.500000 0.351118
O O18 0.448539 0.500000 0.106107
O O19 0.500000 0.282417 0.000000
#
# Coordination Sequence:
#
# PCOD9196665 Si02
#       8
#     8   8   8   2   8   8   8   8
#     4  10  20  35  57  84 117 152 194 238 295 354
#     4  10  21  36  56  84 122 152 195 242 292 346
#     4  11  21  35  53  81 117 152 190 237 291 356
#     4   8  20  36  54  84 126 156 180 252 288 346
#     4  10  21  38  61  87 115 157 200 242 293 356
#     4  10  22  39  58  84 119 154 198 243 296 357
#     4  10  20  37  59  84 117 158 195 240 296 362
#     4  10  22  41  64  89 117 152 200 249 291 348
#
# _framework density 18.500449
#
# number of rings (size 3 to 8) (size 9 to 14) (size 15 to 20)
#    0.414    1.517    1.379    2.483    0.000    4.690 
#    0.000    3.448    0.000    0.000    0.000    0.000 
#    0.000    0.000    0.000    0.000    0.000    0.000 
#
# Total GULP energy -161563.872327 kJ/mol
# GULP energy per Si atom -5571.168011 kJ/mol
# Density = 1.845834 g / cm^3
# Si number density = 18.500449 Si / 1000 Ang^3
#
#
#
# Elastic Constant Matrix: (Units=GPa)
#
#
# Indices 1 2 3 4 5 6 
#
# 1 75.8143 28.4895 19.7273 -0.0014 18.6683 0.0013
# 2 28.4895 53.7253 56.1674 -0.0041 15.6832 0.0051
# 3 19.7273 56.1674 109.0921 -0.0005 27.5081 0.0009
# 4 -0.0014 -0.0041 -0.0005 30.3443 0.0003 8.2127
# 5 18.6683 15.6832 27.5081 0.0003 18.0032 -0.0005
# 6 0.0013 0.0051 0.0009 8.2127 -0.0005 29.3373
#
#
#
# Elastic Compliance Matrix: (Units=1/GPa)
#
#
# Indices 1 2 3 4 5 6 
#
# 1 0.022574 -0.015097 0.010211 -0.000001 -0.025858 0.000001
# 2 -0.015097 0.050751 -0.026352 0.000008 0.011709 -0.000009
# 3 0.010211 -0.026352 0.028906 -0.000003 -0.031799 0.000004
# 4 -0.000001 0.000008 -0.000003 0.035657 -0.000002 -0.009982
# 5 -0.025858 0.011709 -0.031799 -0.000002 0.120747 0.000003
# 6 0.000001 -0.000009 0.000004 -0.009982 0.000003 0.036881
#
#
# Mechanical properties :
#
#
# Convention : Reuss Voigt Hill
#
# Bulk Modulus (GPa) = 25.15459 49.71110 37.43284
# Shear Modulus (GPa) = 13.46828 24.48683 18.97756
#
# Velocity S-wave (km/s) = 2.70107 3.64205 3.20627
# Velocity P-wave (km/s) = 4.83259 6.67942 5.82960
#
# Compressibility (1/GPa) = 0.03975418
#
# Stress axis : x y z
#
# Youngs Moduli (GPa) = 44.29951 19.70405 34.59476
#
# Poissons Ratio (x) = 0.29748 -0.35326
# Poissons Ratio (y) = 0.66881 0.91165
# Poissons Ratio (z) = -0.45235 0.51924
#
# Static dielectric constant tensor:
#      x y z
#    x 1.627530 0.000000 -0.007890 
#    y 0.000000 1.628310 0.000000 
#    z -0.007890 0.000000 1.632940 
# 
# From -- ./inp_files/324576.got.cif
#   From: 2010.05.17/outbox.cif.g08.bks.cpg/sg12_163_cif.got.tgz:324576.got - 2010.06.03 13:09:07.
