data_PCOD9196747
_publ_section_title
;
Structure prediction by ZEFSAII (Michael W. Deem and Ramdas Pophale) SiO2 
 PCOD9196747
Probable space group: C 2/M
;
_chemical_formula_sum "Si O2"
_cell_formula_units_Z 64
_cell_length_a 15.876325
_cell_length_b 8.028591
_cell_length_c 24.526998
_cell_angle_alpha 90.000000
_cell_angle_beta 90.305272
_cell_angle_gamma 90.000000
_cell_volume 3126.277653
_symmetry_space_group_name_H-M "C 2/M"
_symmetry_group_IT_number 12
_symmetry_cell_setting 'monoclinic'
loop_
_space_group_symop_operation_xyz
x,y,z
-x,y,-z
-x,-y,-z
x,-y,z
1/2+x,1/2+y,z
1/2-x,1/2+y,-z
1/2-x,1/2-y,-z
1/2+x,1/2-y,z
loop_
_atom_site_type_symbol
_atom_site_label
_atom_site_fract_x
_atom_site_fract_y
_atom_site_fract_z
Si Si1 0.709870 0.695488 0.056757
Si Si2 0.468582 0.700986 0.440291
Si Si3 0.786265 0.797186 0.168400
Si Si4 0.377731 0.798406 0.635595
Si Si5 0.022876 0.306669 0.060130
Si Si6 0.867563 0.303633 0.758747
Si Si7 0.528713 0.306207 0.823952
Si Si8 0.222664 0.201077 0.560755
O O1 0.690307 0.500000 0.055015
O O2 0.770680 0.732548 0.107456
O O3 0.623276 0.793255 0.066309
O O4 0.750000 0.750000 0.000000
O O5 0.500000 0.760208 0.500000
O O6 0.465836 0.500000 0.442315
O O7 0.537735 0.749556 0.396018
O O8 0.373031 0.760178 0.429053
O O9 0.710403 0.735786 0.206327
O O10 0.877896 0.745072 0.189739
O O11 0.785353 0.000000 0.166092
O O12 0.376294 0.735604 0.697731
O O13 0.294944 0.739273 0.602433
O O14 0.375386 0.000000 0.636265
O O15 0.996139 0.500000 0.062412
O O16 0.982724 0.214158 0.111104
O O17 0.000000 0.240720 0.000000
O O18 0.850611 0.500000 0.753051
O O19 0.952961 0.282817 0.792999
O O20 0.522343 0.500000 0.809739
O O21 0.250000 0.250000 0.500000
O O22 0.221413 0.000000 0.563869
#
# Coordination Sequence:
#
# PCOD9196747 Si02
#       8
#     8   8   8   8   8   8   8   8
#     4  12  24  38  60  90 124 158 201 250 302 364
#     4  10  20  35  57  87 121 157 195 244 306 357
#     4  10  22  41  64  88 120 160 201 248 307 365
#     4  10  22  38  59  88 118 159 207 247 294 355
#     4  11  23  39  60  88 123 161 199 247 309 364
#     4  10  22  42  63  84 120 164 204 248 302 362
#     4  11  23  39  63  93 119 156 206 252 302 361
#     4  10  20  35  57  85 120 157 198 243 299 360
#
# _framework density 20.471630999999999
#
# number of rings (size 3 to 8) (size 9 to 14) (size 15 to 20)
#    0.000    1.500    2.500    2.625    0.000    6.250 
#    0.000    2.500    0.000    0.000    0.000    0.000 
#    0.000    0.000    0.000    0.000    0.000    0.000 
#
# Total GULP energy -178837.273208 kJ/mol
# GULP energy per Si atom -5588.664788 kJ/mol
# Density = 2.042504 g / cm^3
# Si number density = 20.471631 Si / 1000 Ang^3
#
#
#
# Elastic Constant Matrix: (Units=GPa)
#
#
# Indices 1 2 3 4 5 6 
#
# 1 166.5189 0.9456 69.9028 0.0000 -10.3199 0.0000
# 2 0.9456 18.7613 3.8060 0.0000 -2.6780 0.0000
# 3 69.9028 3.8060 142.9460 0.0000 -9.9504 0.0000
# 4 0.0000 0.0000 0.0000 14.5615 0.0000 0.8259
# 5 -10.3199 -2.6780 -9.9504 0.0000 27.0112 0.0000
# 6 0.0000 0.0000 0.0000 0.8259 0.0000 17.2557
#
#
#
# Elastic Compliance Matrix: (Units=1/GPa)
#
#
# Indices 1 2 3 4 5 6 
#
# 1 0.007628 0.000586 -0.003632 0.000000 0.001634 0.000000
# 2 0.000586 0.054279 -0.001377 0.000000 0.005098 0.000000
# 3 -0.003632 -0.001377 0.008931 0.000000 0.001766 0.000000
# 4 0.000000 0.000000 0.000000 0.068861 0.000000 -0.003296
# 5 0.001634 0.005098 0.001766 0.000000 0.038802 0.000000
# 6 0.000000 0.000000 0.000000 -0.003296 0.000000 0.058110
#
#
# Mechanical properties :
#
#
# Convention : Reuss Voigt Hill
#
# Bulk Modulus (GPa) = 16.13117 53.05945 34.59531
# Shear Modulus (GPa) = 18.78844 28.67046 23.72945
#
# Velocity S-wave (km/s) = 3.03277 3.74638 3.40831
# Velocity P-wave (km/s) = 4.49004 6.68496 5.69426
#
# Compressibility (1/GPa) = 0.06199178
#
# Stress axis : x y z
#
# Youngs Moduli (GPa) = 131.09643 18.42345 111.96523
#
# Poissons Ratio (x) = -0.01079 0.40666
# Poissons Ratio (y) = -0.07678 0.15415
# Poissons Ratio (z) = 0.47614 0.02536
#
# Static dielectric constant tensor:
#      x y z
#    x 1.719200 0.000000 0.000750 
#    y 0.000000 1.750110 0.000000 
#    z 0.000750 0.000000 1.700780 
# 
# From -- ./inp_files/338798.got.cif
#   From: 2010.05.17/outbox.cif.g08.bks.cpg/sg12_170_cif.got.tgz:338798.got - 2010.06.03 13:09:07.
