data_PCOD9196958
_publ_section_title
;
Structure prediction by ZEFSAII (Michael W. Deem and Ramdas Pophale) SiO2 
 PCOD9196958
Probable space group: C 2/M
;
_chemical_formula_sum "Si O2"
_cell_formula_units_Z 56
_cell_length_a 12.694451
_cell_length_b 20.653965
_cell_length_c 12.591501
_cell_angle_alpha 90.000000
_cell_angle_beta 63.610265
_cell_angle_gamma 90.000000
_cell_volume 2957.343396
_symmetry_space_group_name_H-M "C 2/M"
_symmetry_group_IT_number 12
_symmetry_cell_setting 'monoclinic'
loop_
_space_group_symop_operation_xyz
x,y,z
-x,y,-z
-x,-y,-z
x,-y,z
1/2+x,1/2+y,z
1/2-x,1/2+y,-z
1/2-x,1/2-y,-z
1/2+x,1/2-y,z
loop_
_atom_site_type_symbol
_atom_site_label
_atom_site_fract_x
_atom_site_fract_y
_atom_site_fract_z
Si Si1 0.596969 0.075277 0.044453
Si Si2 0.870062 0.925336 0.870876
Si Si3 0.495078 0.299443 0.881602
Si Si4 0.560405 0.180893 0.239562
Si Si5 0.787931 0.663832 0.414192
Si Si6 0.610494 0.576691 0.383691
Si Si7 0.749003 0.197273 0.338175
O O1 0.588633 0.122153 0.148104
O O2 0.575208 0.000000 0.082697
O O3 0.500000 0.093764 0.000000
O O4 0.728908 0.079541 0.939943
O O5 0.928496 0.868223 0.911916
O O6 0.907481 0.912524 0.732790
O O7 0.901471 0.000000 0.885378
O O8 0.433295 0.247271 0.831881
O O9 0.625965 0.308095 0.776299
O O10 0.500000 0.274143 0.000000
O O11 0.427084 0.171649 0.338890
O O12 0.648076 0.182695 0.299068
O O13 0.730487 0.607742 0.370748
O O14 0.733986 0.729952 0.390231
O O15 0.755960 0.655408 0.552078
O O16 0.500000 0.603236 0.500000
O O17 0.616667 0.500000 0.397677
#
# Coordination Sequence:
#
# PCOD9196958 Si02
#       7
#     8   8   8   8   8   8   8
#     4  10  21  37  57  82 112 146 184 225 274 332
#     4  10  21  37  57  81 112 149 183 222 276 331
#     4  11  23  37  57  84 112 144 184 231 276 322
#     4  11  22  37  58  83 111 144 185 230 275 324
#     4  10  21  37  58  81 109 147 182 222 276 330
#     4  10  20  35  58  85 110 141 185 233 275 320
#     4  10  22  38  56  81 112 145 183 225 274 331
#
# _framework density 18.935912999999999
#
# number of rings (size 3 to 8) (size 9 to 14) (size 15 to 20)
#    0.000    1.714    0.000    4.286    0.000    8.857 
#    0.000    1.429    0.000    1.714    0.000    0.000 
#    0.000    0.000    0.000    0.000    0.000    0.000 
#
# Total GULP energy -156410.942883 kJ/mol
# GULP energy per Si atom -5586.105103 kJ/mol
# Density = 1.889281 g / cm^3
# Si number density = 18.935913 Si / 1000 Ang^3
#
#
#
# Elastic Constant Matrix: (Units=GPa)
#
#
# Indices 1 2 3 4 5 6 
#
# 1 76.3159 26.4252 5.3907 0.0000 16.9591 0.0000
# 2 26.4252 42.5627 17.2150 0.0000 10.8345 0.0000
# 3 5.3907 17.2150 69.6845 0.0000 1.9963 0.0000
# 4 0.0000 0.0000 0.0000 25.2116 0.0000 -0.8649
# 5 16.9591 10.8345 1.9963 0.0000 25.1116 0.0000
# 6 0.0000 0.0000 0.0000 -0.8649 0.0000 28.2385
#
#
#
# Elastic Compliance Matrix: (Units=1/GPa)
#
#
# Indices 1 2 3 4 5 6 
#
# 1 0.018201 -0.009708 0.001225 0.000000 -0.008201 0.000000
# 2 -0.009708 0.034554 -0.007563 0.000000 -0.007751 0.000000
# 3 0.001225 -0.007563 0.016091 0.000000 0.001157 0.000000
# 4 0.000000 0.000000 0.000000 0.039706 0.000000 0.001216
# 5 -0.008201 -0.007751 0.001157 0.000000 0.048613 0.000000
# 6 0.000000 0.000000 0.000000 0.001216 0.000000 0.035450
#
#
# Mechanical properties :
#
#
# Convention : Reuss Voigt Hill
#
# Bulk Modulus (GPa) = 27.20826 31.84723 29.52774
# Shear Modulus (GPa) = 21.10080 25.01450 23.05765
#
# Velocity S-wave (km/s) = 3.34178 3.63851 3.49330
# Velocity P-wave (km/s) = 5.41200 5.87423 5.64785
#
# Compressibility (1/GPa) = 0.03675355
#
# Stress axis : x y z
#
# Youngs Moduli (GPa) = 54.94268 28.94011 62.14683
#
# Poissons Ratio (x) = 0.28095 -0.07615
# Poissons Ratio (y) = 0.53339 0.47003
# Poissons Ratio (z) = -0.06732 0.21888
#
# Static dielectric constant tensor:
#      x y z
#    x 1.624330 0.000000 -0.014150 
#    y 0.000000 1.657170 0.000000 
#    z -0.014150 0.000000 1.658130 
# 
# From -- ./inp_files/133863.got.cif
#   From: 2010.05.17/outbox.cif.g08.bks.cpg/sg12_67_cif.got.tgz:133863.got - 2010.06.03 13:09:07.
