data_PCOD9196673
_publ_section_title
;
Structure prediction by ZEFSAII (Michael W. Deem and Ramdas Pophale) SiO2 
 PCOD9196673
Probable space group: C 2/M
;
_chemical_formula_sum "Si O2"
_cell_formula_units_Z 56
_cell_length_a 32.216242
_cell_length_b 8.931217
_cell_length_c 11.780196
_cell_angle_alpha 90.000000
_cell_angle_beta 120.582495
_cell_angle_gamma 90.000000
_cell_volume 2918.028222
_symmetry_space_group_name_H-M "C 2/M"
_symmetry_group_IT_number 12
_symmetry_cell_setting 'monoclinic'
loop_
_space_group_symop_operation_xyz
x,y,z
-x,y,-z
-x,-y,-z
x,-y,z
1/2+x,1/2+y,z
1/2-x,1/2+y,-z
1/2-x,1/2-y,-z
1/2+x,1/2-y,z
loop_
_atom_site_type_symbol
_atom_site_label
_atom_site_fract_x
_atom_site_fract_y
_atom_site_fract_z
Si Si1 0.050642 0.336238 0.012000
Si Si2 0.592843 0.322413 0.877858
Si Si3 0.686146 0.670973 0.158275
Si Si4 0.613090 0.663996 0.258807
Si Si5 0.766811 0.822016 0.401858
Si Si6 0.129803 0.325863 0.498552
Si Si7 0.943133 0.821952 0.426010
O O1 0.075712 0.500000 0.056067
O O2 0.054228 0.281556 0.888369
O O3 0.073344 0.198432 0.110937
O O4 0.000000 0.353033 0.000000
O O5 0.585737 0.500000 0.891071
O O6 0.583755 0.301212 0.732283
O O7 0.645430 0.285469 0.007826
O O8 0.701445 0.500000 0.153581
O O9 0.659954 0.667369 0.244895
O O10 0.730781 0.776829 0.248932
O O11 0.608625 0.500000 0.306125
O O12 0.610210 0.794865 0.345036
O O13 0.750000 0.750000 0.500000
O O14 0.819362 0.762016 0.437814
O O15 0.767694 0.000000 0.418596
O O16 0.138529 0.500000 0.531943
O O17 0.089919 0.261774 0.528432
O O18 0.000000 0.775998 0.500000
O O19 0.943319 0.000000 0.452099
#
# Coordination Sequence:
#
# PCOD9196673 Si02
#       7
#     8   8   8   8   8   8   8
#     4  10  21  34  52  83 120 155 196 252 310 367
#     4   9  20  39  61  85 117 160 206 252 304 368
#     4   9  18  35  59  88 122 158 197 246 304 365
#     4  10  20  35  57  84 119 159 199 248 301 365
#     4  12  23  37  61  93 128 164 203 251 310 375
#     4  12  25  40  61  90 126 163 206 257 311 372
#     4  10  23  44  67  91 120 163 215 262 308 364
#
# _framework density 19.191041999999999
#
# number of rings (size 3 to 8) (size 9 to 14) (size 15 to 20)
#    0.000    1.714    1.429    4.286    2.000    4.286 
#    0.000    0.714    0.000    0.000    0.000    0.000 
#    0.000    0.000    0.000    0.000    0.000    0.000 
#
# Total GULP energy -155935.609173 kJ/mol
# GULP energy per Si atom -5569.128899 kJ/mol
# Density = 1.914736 g / cm^3
# Si number density = 19.191042 Si / 1000 Ang^3
#
#
#
# Elastic Constant Matrix: (Units=GPa)
#
#
# Indices 1 2 3 4 5 6 
#
# 1 93.3694 48.7504 28.2116 0.0000 2.5117 0.0000
# 2 48.7504 89.9643 27.5841 0.0000 1.9917 0.0000
# 3 28.2116 27.5841 75.2676 0.0000 -8.9930 0.0000
# 4 0.0000 0.0000 0.0000 26.9151 0.0000 -6.2039
# 5 2.5117 1.9917 -8.9930 0.0000 12.0768 0.0000
# 6 0.0000 0.0000 0.0000 -6.2039 0.0000 39.4685
#
#
#
# Elastic Compliance Matrix: (Units=1/GPa)
#
#
# Indices 1 2 3 4 5 6 
#
# 1 0.015805 -0.007274 -0.003850 0.000000 -0.004954 0.000000
# 2 -0.007274 0.016282 -0.003711 0.000000 -0.003936 0.000000
# 3 -0.003850 -0.003711 0.017845 0.000000 0.014701 0.000000
# 4 0.000000 0.000000 0.000000 0.038551 0.000000 0.006060
# 5 -0.004954 -0.003936 0.014701 0.000000 0.095430 0.000000
# 6 0.000000 0.000000 0.000000 0.006060 0.000000 0.026289
#
#
# Mechanical properties :
#
#
# Convention : Reuss Voigt Hill
#
# Bulk Modulus (GPa) = 49.35269 51.96594 50.65931
# Shear Modulus (GPa) = 20.27355 25.96244 23.11800
#
# Velocity S-wave (km/s) = 3.25377 3.68209 3.47454
# Velocity P-wave (km/s) = 6.31572 6.72414 6.52313
#
# Compressibility (1/GPa) = 0.02026232
#
# Stress axis : x y z
#
# Youngs Moduli (GPa) = 63.27214 61.41658 56.03674
#
# Poissons Ratio (x) = 0.44676 0.21574
# Poissons Ratio (y) = 0.46026 0.20794
# Poissons Ratio (z) = 0.24360 0.22791
#
# Static dielectric constant tensor:
#      x y z
#    x 1.764590 0.000000 -0.018770 
#    y 0.000000 1.689670 0.000000 
#    z -0.018770 0.000000 1.747240 
# 
# From -- ./inp_files/187693.got.cif
#   From: 2010.05.17/outbox.cif.g08.bks.cpg/sg12_94_cif.got.tgz:187693.got - 2010.06.03 13:09:07.
