data_PCOD9196926
_publ_section_title
;
Structure prediction by ZEFSAII (Michael W. Deem and Ramdas Pophale) SiO2 
 PCOD9196926
Probable space group: C 2/M
;
_chemical_formula_sum "Si O2"
_cell_formula_units_Z 56
_cell_length_a 19.491559
_cell_length_b 8.920380
_cell_length_c 17.798376
_cell_angle_alpha 90.000000
_cell_angle_beta 118.998293
_cell_angle_gamma 90.000000
_cell_volume 2706.678916
_symmetry_space_group_name_H-M "C 2/M"
_symmetry_group_IT_number 12
_symmetry_cell_setting 'monoclinic'
loop_
_space_group_symop_operation_xyz
x,y,z
-x,y,-z
-x,-y,-z
x,-y,z
1/2+x,1/2+y,z
1/2-x,1/2+y,-z
1/2-x,1/2-y,-z
1/2+x,1/2-y,z
loop_
_atom_site_type_symbol
_atom_site_label
_atom_site_fract_x
_atom_site_fract_y
_atom_site_fract_z
Si Si1 0.583863 0.320021 0.878308
Si Si2 0.643766 0.818975 0.762866
Si Si3 0.494692 0.816998 0.584173
Si Si4 0.175644 0.324238 0.497620
Si Si5 0.257641 0.323890 0.693539
Si Si6 0.912635 0.676079 0.797338
Si Si7 0.094532 0.169305 0.051319
O O1 0.579856 0.500000 0.873931
O O2 0.636879 0.255324 0.840208
O O3 0.495185 0.255689 0.822709
O O4 0.615157 0.278995 0.978358
O O5 0.566793 0.771687 0.674380
O O6 0.718647 0.779048 0.751852
O O7 0.642510 0.000000 0.769259
O O8 0.500000 0.770150 0.500000
O O9 0.410017 0.765077 0.568802
O O10 0.494481 0.000000 0.583703
O O11 0.177105 0.500000 0.480670
O O12 0.250000 0.250000 0.500000
O O13 0.190464 0.308608 0.594884
O O14 0.278100 0.500000 0.707388
O O15 0.335765 0.234429 0.713505
O O16 0.922894 0.500000 0.793322
O O17 0.891278 0.721269 0.871982
O O18 0.125804 0.000000 0.081691
O O19 0.000000 0.156119 0.000000
#
# Coordination Sequence:
#
# PCOD9196926 Si02
#       7
#     8   8   8   8   8   8   8
#     4  10  21  37  58  84 115 146 179 224 278 336
#     4  10  20  35  58  84 110 145 189 231 273 326
#     4   9  16  33  58  80 104 140 185 227 270 321
#     4  10  21  36  56  81 111 144 183 229 275 327
#     4  10  21  38  56  78 114 154 186 224 279 336
#     4  11  22  35  57  85 112 144 186 234 274 321
#     4   8  16  34  57  80 109 145 179 219 277 335
#
# _framework density 20.689563
#
# number of rings (size 3 to 8) (size 9 to 14) (size 15 to 20)
#    0.000    2.286    1.429    2.571    2.000    4.286 
#    0.000    0.714    0.000    0.857    0.000    0.000 
#    0.000    0.000    0.000    0.000    0.000    0.000 
#
# Total GULP energy -156288.739712 kJ/mol
# GULP energy per Si atom -5581.740704 kJ/mol
# Density = 2.064247 g / cm^3
# Si number density = 20.689563 Si / 1000 Ang^3
#
#
#
# Elastic Constant Matrix: (Units=GPa)
#
#
# Indices 1 2 3 4 5 6 
#
# 1 78.6944 15.0141 -4.2944 0.0000 -12.4194 0.0000
# 2 15.0141 32.7813 -0.0478 0.0000 -0.6605 0.0000
# 3 -4.2944 -0.0478 20.5893 0.0000 -5.5495 0.0000
# 4 0.0000 0.0000 0.0000 15.1228 0.0000 -1.1606
# 5 -12.4194 -0.6605 -5.5495 0.0000 39.6184 0.0000
# 6 0.0000 0.0000 0.0000 -1.1606 0.0000 25.9757
#
#
#
# Elastic Compliance Matrix: (Units=1/GPa)
#
#
# Indices 1 2 3 4 5 6 
#
# 1 0.015080 -0.006794 0.004545 0.000000 0.005251 0.000000
# 2 -0.006794 0.033578 -0.001832 0.000000 -0.001827 0.000000
# 3 0.004545 -0.001832 0.051846 0.000000 0.008656 0.000000
# 4 0.000000 0.000000 0.000000 0.066353 0.000000 0.002965
# 5 0.005251 -0.001827 0.008656 0.000000 0.028069 0.000000
# 6 0.000000 0.000000 0.000000 0.002965 0.000000 0.038630
#
#
# Mechanical properties :
#
#
# Convention : Reuss Voigt Hill
#
# Bulk Modulus (GPa) = 10.82940 17.04544 13.93742
# Shear Modulus (GPa) = 18.34875 24.23626 21.29251
#
# Velocity S-wave (km/s) = 2.98125 3.42632 3.21151
# Velocity P-wave (km/s) = 4.13474 4.88973 4.52800
#
# Compressibility (1/GPa) = 0.09234120
#
# Stress axis : x y z
#
# Youngs Moduli (GPa) = 66.31141 29.78176 19.28799
#
# Poissons Ratio (x) = 0.20235 -0.08766
# Poissons Ratio (y) = 0.45055 0.03533
# Poissons Ratio (z) = -0.30137 0.05455
#
# Static dielectric constant tensor:
#      x y z
#    x 1.742820 0.000000 -0.011770 
#    y 0.000000 1.694300 0.000000 
#    z -0.011770 0.000000 1.802500 
# 
# From -- ./inp_files/281652.got.cif
#   From: 2010.05.17/outbox.cif.g08.bks.cpg/sg12_141_cif.got.tgz:281652.got - 2010.06.03 13:09:07.
