data_PCOD9196299
_publ_section_title
;
Structure prediction by ZEFSAII (Michael W. Deem and Ramdas Pophale) SiO2 
 PCOD9196299
Probable space group: C 2/M
;
_chemical_formula_sum "Si O2"
_cell_formula_units_Z 26
_cell_length_a 13.113534
_cell_length_b 10.739034
_cell_length_c 7.939756
_cell_angle_alpha 90.000000
_cell_angle_beta 107.168630
_cell_angle_gamma 90.000000
_cell_volume 1068.305821
_symmetry_space_group_name_H-M "C 2/M"
_symmetry_group_IT_number 12
_symmetry_cell_setting 'monoclinic'
loop_
_space_group_symop_operation_xyz
x,y,z
-x,y,-z
-x,-y,-z
x,-y,z
1/2+x,1/2+y,z
1/2-x,1/2+y,-z
1/2-x,1/2-y,-z
1/2+x,1/2-y,z
loop_
_atom_site_type_symbol
_atom_site_label
_atom_site_fract_x
_atom_site_fract_y
_atom_site_fract_z
Si Si1 0.890069 0.788329 0.231997
Si Si2 0.640546 0.139103 0.104041
Si Si3 0.664454 0.140779 0.483847
Si Si4 0.500000 0.500000 0.500000
O O1 0.769327 0.845851 0.177886
O O2 0.888145 0.674050 0.364753
O O3 0.968743 0.890820 0.345620
O O4 0.899639 0.740124 0.047008
O O5 0.600580 0.148149 0.277270
O O6 0.618328 0.000000 0.030793
O O7 0.750000 0.250000 0.500000
O O8 0.710314 0.000000 0.511654
#
# Coordination Sequence:
#
# PCOD9196299 Si02
#       4
#     8   8   8   2
#     4  10  20  35  56  83 120 156 191 244 295 352
#     4   9  17  35  60  84 107 149 202 247 287 348
#     4   9  18  33  58  89 116 149 200 252 291 341
#     4  12  24  40  56  88 132 160 192 246 308 360
#
# _framework density 24.337600999999999
#
# number of rings (size 3 to 8) (size 9 to 14) (size 15 to 20)
#    0.000    2.462    1.538    0.923    2.154    0.000 
#    2.769    6.154    0.000    3.692    0.000    0.000 
#    0.000    0.000    0.000    0.000    0.000    0.000 
#
# Total GULP energy -72368.690298 kJ/mol
# GULP energy per Si atom -5566.822331 kJ/mol
# Density = 2.428221 g / cm^3
# Si number density = 24.337601 Si / 1000 Ang^3
#
#
#
# Elastic Constant Matrix: (Units=GPa)
#
#
# Indices 1 2 3 4 5 6 
#
# 1 70.3389 15.9338 26.0437 0.0000 -17.2912 0.0000
# 2 15.9338 200.8105 86.9782 0.0000 -14.9701 0.0000
# 3 26.0437 86.9782 145.2699 0.0000 -25.6646 0.0000
# 4 0.0000 0.0000 0.0000 61.6048 0.0000 0.1119
# 5 -17.2912 -14.9701 -25.6646 0.0000 49.2843 0.0000
# 6 0.0000 0.0000 0.0000 0.1119 0.0000 5.4956
#
#
#
# Elastic Compliance Matrix: (Units=1/GPa)
#
#
# Indices 1 2 3 4 5 6 
#
# 1 0.016111 -0.000049 -0.002052 0.000000 0.004569 0.000000
# 2 -0.000049 0.006724 -0.004030 0.000000 -0.000073 0.000000
# 3 -0.002052 -0.004030 0.010265 0.000000 0.003402 0.000000
# 4 0.000000 0.000000 0.000000 0.016233 0.000000 -0.000331
# 5 0.004569 -0.000073 0.003402 0.000000 0.023643 0.000000
# 6 0.000000 0.000000 0.000000 -0.000331 0.000000 0.181971
#
#
# Mechanical properties :
#
#
# Convention : Reuss Voigt Hill
#
# Bulk Modulus (GPa) = 47.98787 74.92563 61.45675
# Shear Modulus (GPa) = 18.23792 42.44117 30.33954
#
# Velocity S-wave (km/s) = 2.74044 4.18048 3.53457
# Velocity P-wave (km/s) = 5.45653 7.35898 6.47798
#
# Compressibility (1/GPa) = 0.02083860
#
# Stress axis : x y z
#
# Youngs Moduli (GPa) = 62.06979 148.72678 97.41457
#
# Poissons Ratio (x) = 0.00730 0.19987
# Poissons Ratio (y) = 0.00304 0.39257
# Poissons Ratio (z) = 0.12735 0.59936
#
# Static dielectric constant tensor:
#      x y z
#    x 2.114390 0.000000 0.053750 
#    y 0.000000 1.846680 0.000000 
#    z 0.053750 0.000000 1.908410 
# 
# From -- ./inp_files/56022.got.cif
#   From: 2010.05.17/outbox.cif.g08.bks.cpg/sg12_29_cif.got.tgz:56022.got - 2010.06.03 13:09:07.
