data_PCOD9196073
_publ_section_title
;
Structure prediction by ZEFSAII (Michael W. Deem and Ramdas Pophale) SiO2 
 PCOD9196073
Probable space group: C 2/M
;
_chemical_formula_sum "Si O2"
_cell_formula_units_Z 48
_cell_length_a 31.754333
_cell_length_b 8.910275
_cell_length_c 9.470103
_cell_angle_alpha 90.000000
_cell_angle_beta 89.896187
_cell_angle_gamma 90.000000
_cell_volume 2679.465024
_symmetry_space_group_name_H-M "C 2/M"
_symmetry_group_IT_number 12
_symmetry_cell_setting 'monoclinic'
loop_
_space_group_symop_operation_xyz
x,y,z
-x,y,-z
-x,-y,-z
x,-y,z
1/2+x,1/2+y,z
1/2-x,1/2+y,-z
1/2-x,1/2-y,-z
1/2+x,1/2-y,z
loop_
_atom_site_type_symbol
_atom_site_label
_atom_site_fract_x
_atom_site_fract_y
_atom_site_fract_z
Si Si1 0.539867 0.680833 0.595151
Si Si2 0.540032 0.180815 0.905369
Si Si3 0.210688 0.178734 0.080267
Si Si4 0.881466 0.818175 0.599452
Si Si5 0.287623 0.322315 0.585222
Si Si6 0.621111 0.180320 0.090672
O O1 0.500000 0.726246 0.500000
O O2 0.539077 0.500000 0.608095
O O3 0.538230 0.750589 0.749931
O O4 0.582081 0.722675 0.509777
O O5 0.538691 0.000000 0.894074
O O6 0.500000 0.228343 0.000000
O O7 0.583066 0.221429 0.986382
O O8 0.216551 0.205721 0.247603
O O9 0.165888 0.252429 0.041887
O O10 0.208801 0.000000 0.056979
O O11 0.250000 0.250000 0.000000
O O12 0.835004 0.772011 0.546478
O O13 0.887991 0.745832 0.753210
O O14 0.881343 0.000000 0.617029
O O15 0.285733 0.500000 0.562423
O O16 0.250000 0.250000 0.500000
O O17 0.623915 0.000000 0.098454
#
# Coordination Sequence:
#
# PCOD9196073 Si02
#       6
#     8   8   8   8   8   8
#     4  10  21  36  56  82 108 137 178 224 269 322
#     4  10  22  38  55  79 111 144 180 223 270 323
#     4  10  21  37  56  80 110 143 180 223 270 320
#     4   9  19  36  54  76 107 139 174 219 269 318
#     4   9  19  34  52  75 104 137 173 214 259 310
#     4  10  20  35  56  81 107 140 183 224 267 322
#
# _framework density 17.914023
#
# number of rings (size 3 to 8) (size 9 to 14) (size 15 to 20)
#    0.000    2.333    0.000    3.000    0.000    7.333 
#    0.000    3.333    0.000    0.000    0.000    0.000 
#    0.000    0.000    0.000    0.000    0.000    0.000 
#
# Total GULP energy -133959.866443 kJ/mol
# GULP energy per Si atom -5581.661102 kJ/mol
# Density = 1.787325 g / cm^3
# Si number density = 17.914023 Si / 1000 Ang^3
#
#
#
# Elastic Constant Matrix: (Units=GPa)
#
#
# Indices 1 2 3 4 5 6 
#
# 1 214.8251 65.3664 125.7535 0.0000 0.3085 0.0000
# 2 65.3664 32.5684 49.7837 0.0000 0.1530 0.0000
# 3 125.7535 49.7837 125.1386 0.0000 1.6337 0.0000
# 4 0.0000 0.0000 0.0000 37.3877 0.0000 1.6301
# 5 0.3085 0.1530 1.6337 0.0000 40.0355 0.0000
# 6 0.0000 0.0000 0.0000 1.6301 0.0000 28.2522
#
#
#
# Elastic Compliance Matrix: (Units=1/GPa)
#
#
# Indices 1 2 3 4 5 6 
#
# 1 0.014284 -0.017156 -0.007533 0.000000 0.000263 0.000000
# 2 -0.017156 0.098994 -0.022151 0.000000 0.000658 0.000000
# 3 -0.007533 -0.022151 0.024384 0.000000 -0.000852 0.000000
# 4 0.000000 0.000000 0.000000 0.026814 0.000000 -0.001547
# 5 0.000263 0.000658 -0.000852 0.000000 0.025008 0.000000
# 6 0.000000 0.000000 0.000000 -0.001547 0.000000 0.035485
#
#
# Mechanical properties :
#
#
# Convention : Reuss Voigt Hill
#
# Bulk Modulus (GPa) = 22.73597 94.92661 58.83129
# Shear Modulus (GPa) = 15.00107 29.91030 22.45568
#
# Velocity S-wave (km/s) = 2.89691 4.09058 3.54436
# Velocity P-wave (km/s) = 4.88966 8.68422 7.04714
#
# Compressibility (1/GPa) = 0.04398316
#
# Stress axis : x y z
#
# Youngs Moduli (GPa) = 70.00746 10.10164 41.00997
#
# Poissons Ratio (x) = 0.17330 0.30892
# Poissons Ratio (y) = 1.20104 0.90841
# Poissons Ratio (z) = 0.52735 0.22376
#
# Static dielectric constant tensor:
#      x y z
#    x 1.620050 0.000000 0.015970 
#    y 0.000000 1.605310 0.000000 
#    z 0.015970 0.000000 1.620950 
# 
# From -- ./inp_files/108609.got.cif
#   From: 2010.05.17/outbox.cif.g08.bks.cpg/sg12_55_cif.got.tgz:108609.got - 2010.06.03 13:09:07.
