data_PCOD9196731
_publ_section_title
;
Structure prediction by ZEFSAII (Michael W. Deem and Ramdas Pophale) SiO2 
 PCOD9196731
Probable space group: C 2/M
;
_chemical_formula_sum "Si O2"
_cell_formula_units_Z 60
_cell_length_a 22.045811
_cell_length_b 17.769093
_cell_length_c 11.441377
_cell_angle_alpha 90.000000
_cell_angle_beta 136.512790
_cell_angle_gamma 90.000000
_cell_volume 3084.463652
_symmetry_space_group_name_H-M "C 2/M"
_symmetry_group_IT_number 12
_symmetry_cell_setting 'monoclinic'
loop_
_space_group_symop_operation_xyz
x,y,z
-x,y,-z
-x,-y,-z
x,-y,z
1/2+x,1/2+y,z
1/2-x,1/2+y,-z
1/2-x,1/2-y,-z
1/2+x,1/2-y,z
loop_
_atom_site_type_symbol
_atom_site_label
_atom_site_fract_x
_atom_site_fract_y
_atom_site_fract_z
Si Si1 0.498877 0.191043 0.201098
Si Si2 0.366652 0.088597 0.882045
Si Si3 0.849836 0.084470 0.752782
Si Si4 0.000000 0.189474 0.000000
Si Si5 0.436634 0.294439 0.298870
Si Si6 0.691725 0.173329 0.439214
Si Si7 0.441718 0.580702 0.628846
Si Si8 0.189142 0.085588 0.774742
O O1 0.514860 0.256375 0.128689
O O2 0.436292 0.220395 0.217938
O O3 0.599861 0.179383 0.381136
O O4 0.452606 0.123929 0.064305
O O5 0.336014 0.135990 0.724552
O O6 0.287961 0.094866 0.866514
O O7 0.377195 0.000000 0.867080
O O8 0.916346 0.138198 0.913151
O O9 0.754692 0.118827 0.600527
O O10 0.892032 0.084286 0.681610
O O11 0.849622 0.000000 0.798165
O O12 0.500000 0.281110 0.500000
O O13 0.490755 0.353968 0.297405
O O14 0.349087 0.341683 0.210352
O O15 0.750000 0.250000 0.500000
O O16 0.487597 0.500000 0.684713
O O17 0.371027 0.584156 0.426212
O O18 0.180867 0.000000 0.814887
#
# Coordination Sequence:
#
# PCOD9196731 Si02
#       8
#     8   8   8   4   8   8   8   8
#     4  12  24  39  60  90 123 164 198 252 315 361
#     4  11  23  40  62  92 125 160 207 258 307 362
#     4  11  21  34  57  86 120 161 198 239 301 374
#     4  12  21  40  53  88 126 158 190 248 315 366
#     4  10  20  35  57  85 118 152 207 247 303 364
#     4  12  21  37  61  86 123 160 202 250 304 364
#     4   9  15  28  52  82 115 148 188 239 292 352
#     4   9  18  33  57  86 116 154 198 252 300 350
#
# _framework density 19.452328000000001
#
# number of rings (size 3 to 8) (size 9 to 14) (size 15 to 20)
#    0.000    1.333    5.333    1.000    1.867    3.733 
#    0.000    0.000    0.000    0.400    0.000    0.000 
#    0.000    0.000    0.000    0.000    0.000    0.000 
#
# Total GULP energy -167267.182420 kJ/mol
# GULP energy per Si atom -5575.572747 kJ/mol
# Density = 1.940805 g / cm^3
# Si number density = 19.452328 Si / 1000 Ang^3
#
#
#
# Elastic Constant Matrix: (Units=GPa)
#
#
# Indices 1 2 3 4 5 6 
#
# 1 50.0584 19.3824 8.8247 0.0000 14.3793 0.0000
# 2 19.3824 95.4176 30.0885 0.0000 7.4797 0.0000
# 3 8.8247 30.0885 53.6203 0.0000 17.2475 0.0000
# 4 0.0000 0.0000 0.0000 56.0224 0.0000 -36.3425
# 5 14.3793 7.4797 17.2475 0.0000 25.6262 0.0000
# 6 0.0000 0.0000 0.0000 -36.3425 0.0000 57.3374
#
#
#
# Elastic Compliance Matrix: (Units=1/GPa)
#
#
# Indices 1 2 3 4 5 6 
#
# 1 0.025755 -0.005163 0.003602 0.000000 -0.015369 0.000000
# 2 -0.005163 0.013807 -0.008339 0.000000 0.004479 0.000000
# 3 0.003602 -0.008339 0.028849 0.000000 -0.019004 0.000000
# 4 0.000000 0.000000 0.000000 0.030315 0.000000 0.019215
# 5 -0.015369 0.004479 -0.019004 0.000000 0.059129 0.000000
# 6 0.000000 0.000000 0.000000 0.019215 0.000000 0.029620
#
#
# Mechanical properties :
#
#
# Convention : Reuss Voigt Hill
#
# Bulk Modulus (GPa) = 20.57107 35.07638 27.82373
# Shear Modulus (GPa) = 22.37345 37.18391 29.77868
#
# Velocity S-wave (km/s) = 3.39509 4.37686 3.91686
# Velocity P-wave (km/s) = 5.09578 6.60406 5.89833
#
# Compressibility (1/GPa) = 0.04861195
#
# Stress axis : x y z
#
# Youngs Moduli (GPa) = 38.82669 72.42471 34.66333
#
# Poissons Ratio (x) = 0.37391 -0.12485
# Poissons Ratio (y) = 0.20045 0.28906
# Poissons Ratio (z) = -0.13985 0.60395
#
# Static dielectric constant tensor:
#      x y z
#    x 1.712300 0.000000 -0.000950 
#    y 0.000000 1.732000 0.000000 
#    z -0.000950 0.000000 1.665740 
# 
# From -- ./inp_files/177386.got.cif
#   From: 2010.05.17/outbox.cif.g08.bks.cpg/sg12_89_cif.got.tgz:177386.got - 2010.06.03 13:09:07.
