data_PCOD9196780
_publ_section_title
;
Structure prediction by ZEFSAII (Michael W. Deem and Ramdas Pophale) SiO2 
 PCOD9196780
Probable space group: C 2/M
;
_chemical_formula_sum "Si O2"
_cell_formula_units_Z 56
_cell_length_a 9.146149
_cell_length_b 17.230424
_cell_length_c 20.124655
_cell_angle_alpha 90.000000
_cell_angle_beta 119.068801
_cell_angle_gamma 90.000000
_cell_volume 2771.995088
_symmetry_space_group_name_H-M "C 2/M"
_symmetry_group_IT_number 12
_symmetry_cell_setting 'monoclinic'
loop_
_space_group_symop_operation_xyz
x,y,z
-x,y,-z
-x,-y,-z
x,-y,z
1/2+x,1/2+y,z
1/2-x,1/2+y,-z
1/2-x,1/2-y,-z
1/2+x,1/2-y,z
loop_
_atom_site_type_symbol
_atom_site_label
_atom_site_fract_x
_atom_site_fract_y
_atom_site_fract_z
Si Si1 0.016425 0.848008 0.842243
Si Si2 0.820477 0.914782 0.997673
Si Si3 0.821666 0.090032 0.439569
Si Si4 0.807374 0.326645 0.472988
Si Si5 0.287297 0.409266 0.677310
Si Si6 0.813996 0.686296 0.143224
Si Si7 0.023186 0.592578 0.291409
O O1 0.936472 0.891965 0.761954
O O2 0.857761 0.822036 0.852811
O O3 0.134966 0.898159 0.916381
O O4 0.119675 0.773030 0.843732
O O5 0.742993 0.000000 0.971839
O O6 0.717967 0.848490 0.937116
O O7 0.000000 0.916708 0.000000
O O8 0.714062 0.101083 0.481935
O O9 0.704458 0.123000 0.355569
O O10 0.000000 0.124917 0.500000
O O11 0.849835 0.000000 0.429513
O O12 0.750000 0.250000 0.500000
O O13 0.711021 0.350941 0.384662
O O14 0.000000 0.316758 0.500000
O O15 0.292214 0.500000 0.657858
O O16 0.115144 0.396405 0.680847
O O17 0.950770 0.634516 0.211462
O O18 0.033826 0.500000 0.283124
#
# Coordination Sequence:
#
# PCOD9196780 Si02
#       7
#     8   8   8   8   8   8   8
#     4  10  21  35  58  86 119 151 190 235 289 340
#     4   9  17  33  59  88 115 149 196 237 275 331
#     4  10  21  39  60  84 114 149 192 244 293 347
#     4  12  25  39  59  85 114 151 194 241 298 354
#     4  10  21  38  61  85 112 151 199 244 287 344
#     4  10  20  35  57  86 119 152 188 234 287 338
#     4   9  18  35  60  85 112 149 197 239 285 344
#
# _framework density 20.202055999999999
#
# number of rings (size 3 to 8) (size 9 to 14) (size 15 to 20)
#    0.000    2.000    1.429    2.143    2.000    4.000 
#    2.571    0.000    0.000    3.429    0.000    0.000 
#    0.000    0.000    0.000    0.000    0.000    0.000 
#
# Total GULP energy -156194.460075 kJ/mol
# GULP energy per Si atom -5578.373574 kJ/mol
# Density = 2.015608 g / cm^3
# Si number density = 20.202056 Si / 1000 Ang^3
#
#
#
# Elastic Constant Matrix: (Units=GPa)
#
#
# Indices 1 2 3 4 5 6 
#
# 1 39.2474 9.3512 14.1666 0.0000 15.5740 0.0000
# 2 9.3512 59.7861 28.0903 0.0000 3.1190 0.0000
# 3 14.1666 28.0903 124.6372 0.0000 8.1423 0.0000
# 4 0.0000 0.0000 0.0000 35.0979 0.0000 -5.0733
# 5 15.5740 3.1190 8.1423 0.0000 21.2760 0.0000
# 6 0.0000 0.0000 0.0000 -5.0733 0.0000 17.2724
#
#
#
# Elastic Compliance Matrix: (Units=1/GPa)
#
#
# Indices 1 2 3 4 5 6 
#
# 1 0.037346 -0.003675 -0.001709 0.000000 -0.026145 0.000000
# 2 -0.003675 0.019097 -0.003979 0.000000 0.001413 0.000000
# 3 -0.001709 -0.003979 0.009225 0.000000 -0.001696 0.000000
# 4 0.000000 0.000000 0.000000 0.029755 0.000000 0.008740
# 5 -0.026145 0.001413 -0.001696 0.000000 0.066581 0.000000
# 6 0.000000 0.000000 0.000000 0.008740 0.000000 0.060463
#
#
# Mechanical properties :
#
#
# Convention : Reuss Voigt Hill
#
# Bulk Modulus (GPa) = 21.30186 36.32075 28.81130
# Shear Modulus (GPa) = 19.46744 26.20009 22.83376
#
# Velocity S-wave (km/s) = 3.10762 3.60516 3.36560
# Velocity P-wave (km/s) = 4.84187 5.94536 5.42176
#
# Compressibility (1/GPa) = 0.04694426
#
# Stress axis : x y z
#
# Youngs Moduli (GPa) = 26.77638 52.36516 108.40100
#
# Poissons Ratio (x) = 0.19242 0.18523
# Poissons Ratio (y) = 0.09839 0.43128
# Poissons Ratio (z) = 0.04575 0.20834
#
# Static dielectric constant tensor:
#      x y z
#    x 1.742840 0.000000 0.022100 
#    y 0.000000 1.721310 0.000000 
#    z 0.022100 0.000000 1.737850 
# 
# From -- ./inp_files/257204.got.cif
#   From: 2010.05.17/outbox.cif.g08.bks.cpg/sg12_129_cif.got.tgz:257204.got - 2010.06.03 13:09:07.
