data_PCOD9196204
_publ_section_title
;
Structure prediction by ZEFSAII (Michael W. Deem and Ramdas Pophale) SiO2 
 PCOD9196204
Probable space group: C 2/M
;
_chemical_formula_sum "Si O2"
_cell_formula_units_Z 56
_cell_length_a 20.132246
_cell_length_b 8.717955
_cell_length_c 28.690813
_cell_angle_alpha 90.000000
_cell_angle_beta 37.638997
_cell_angle_gamma 90.000000
_cell_volume 3075.150985
_symmetry_space_group_name_H-M "C 2/M"
_symmetry_group_IT_number 12
_symmetry_cell_setting 'monoclinic'
loop_
_space_group_symop_operation_xyz
x,y,z
-x,y,-z
-x,-y,-z
x,-y,z
1/2+x,1/2+y,z
1/2-x,1/2+y,-z
1/2-x,1/2-y,-z
1/2+x,1/2-y,z
loop_
_atom_site_type_symbol
_atom_site_label
_atom_site_fract_x
_atom_site_fract_y
_atom_site_fract_z
Si Si1 0.238907 0.683220 0.800673
Si Si2 0.087953 0.683603 0.798226
Si Si3 0.427462 0.314689 0.626463
Si Si4 0.776744 0.683251 0.630251
Si Si5 0.864980 0.816491 0.950358
Si Si6 0.819403 0.184547 0.504764
Si Si7 0.117138 0.183963 0.951428
O O1 0.242242 0.500000 0.803432
O O2 0.142189 0.722925 0.818198
O O3 0.348766 0.731663 0.713011
O O4 0.210987 0.753995 0.865758
O O5 0.092187 0.500000 0.790469
O O6 0.166581 0.760559 0.716740
O O7 0.965591 0.743636 0.866704
O O8 0.420298 0.500000 0.625451
O O9 0.375637 0.244058 0.608213
O O10 0.551875 0.274252 0.568103
O O11 0.781124 0.500000 0.626101
O O12 0.780942 0.751809 0.576123
O O13 0.868891 0.000000 0.943188
O O14 0.750000 0.750000 0.000000
O O15 0.874373 0.776140 0.999532
O O16 0.750000 0.250000 0.500000
O O17 0.811276 0.000000 0.508735
O O18 0.117563 0.000000 0.947026
O O19 0.000000 0.243494 0.000000
#
# Coordination Sequence:
#
# PCOD9196204 Si02
#       7
#     8   8   8   8   8   8   8
#     4   9  18  33  57  87 113 143 188 238 288 339
#     4  10  20  37  60  86 116 150 193 241 292 345
#     4   9  20  39  61  87 118 153 193 241 291 344
#     4  11  22  37  62  92 118 150 195 241 290 350
#     4  11  23  39  57  81 116 156 196 241 291 348
#     4  11  23  41  62  85 121 159 194 239 294 351
#     4  10  20  35  56  82 114 148 188 236 286 335
#
# _framework density 18.210487000000001
#
# number of rings (size 3 to 8) (size 9 to 14) (size 15 to 20)
#    0.000    1.857    1.429    3.857    0.000    6.571 
#    2.571    0.000    0.000    0.000    0.000    0.000 
#    0.000    0.000    0.000    0.000    0.000    0.000 
#
# Total GULP energy -156317.783934 kJ/mol
# GULP energy per Si atom -5582.777998 kJ/mol
# Density = 1.816904 g / cm^3
# Si number density = 18.210487 Si / 1000 Ang^3
#
#
#
# Elastic Constant Matrix: (Units=GPa)
#
#
# Indices 1 2 3 4 5 6 
#
# 1 122.8063 57.3958 83.9352 0.0000 -10.5345 -0.0004
# 2 57.3958 44.0897 46.4104 0.0001 -3.9147 -0.0004
# 3 83.9352 46.4104 139.7615 0.0000 -6.8841 0.0000
# 4 0.0000 0.0001 0.0000 29.6028 0.0000 4.7126
# 5 -10.5345 -3.9147 -6.8841 0.0000 29.0312 0.0000
# 6 -0.0004 -0.0004 0.0000 4.7126 0.0000 28.6605
#
#
#
# Elastic Compliance Matrix: (Units=1/GPa)
#
#
# Indices 1 2 3 4 5 6 
#
# 1 0.024258 -0.024745 -0.006154 0.000000 0.004006 0.000000
# 2 -0.024745 0.060225 -0.005241 0.000000 -0.002101 0.000001
# 3 -0.006154 -0.005241 0.012594 0.000000 0.000046 0.000000
# 4 0.000000 0.000000 0.000000 0.034689 0.000000 -0.005704
# 5 0.004006 -0.002101 0.000046 0.000000 0.035627 0.000000
# 6 0.000000 0.000001 0.000000 -0.005704 0.000000 0.035829
#
#
# Mechanical properties :
#
#
# Convention : Reuss Voigt Hill
#
# Bulk Modulus (GPa) = 40.32984 75.79336 58.06160
# Shear Modulus (GPa) = 17.62016 25.38665 21.50340
#
# Velocity S-wave (km/s) = 3.11397 3.73777 3.44004
# Velocity P-wave (km/s) = 5.92652 7.76782 6.90879
#
# Compressibility (1/GPa) = 0.02479553
#
# Stress axis : x y z
#
# Youngs Moduli (GPa) = 41.22419 16.60450 79.40595
#
# Poissons Ratio (x) = 0.41088 0.48865
# Poissons Ratio (y) = 1.02009 0.41619
# Poissons Ratio (z) = 0.25368 0.08703
#
# Static dielectric constant tensor:
#      x y z
#    x 1.559530 0.000000 0.009970 
#    y 0.000000 1.614700 0.000000 
#    z 0.009970 0.000000 1.616990 
# 
# From -- ./inp_files/362903.got.cif
#   From: 2010.05.17/outbox.cif.g08.bks.cpg/sg12_182_cif.got.tgz:362903.got - 2010.06.03 13:09:07.
