data_PCOD9196879
_publ_section_title
;
Structure prediction by ZEFSAII (Michael W. Deem and Ramdas Pophale) SiO2 
 PCOD9196879
Probable space group: C 2/M
;
_chemical_formula_sum "Si O2"
_cell_formula_units_Z 56
_cell_length_a 28.380468
_cell_length_b 13.829761
_cell_length_c 14.871539
_cell_angle_alpha 90.000000
_cell_angle_beta 150.951980
_cell_angle_gamma 90.000000
_cell_volume 2834.114354
_symmetry_space_group_name_H-M "C 2/M"
_symmetry_group_IT_number 12
_symmetry_cell_setting 'monoclinic'
loop_
_space_group_symop_operation_xyz
x,y,z
-x,y,-z
-x,-y,-z
x,-y,z
1/2+x,1/2+y,z
1/2-x,1/2+y,-z
1/2-x,1/2-y,-z
1/2+x,1/2-y,z
loop_
_atom_site_type_symbol
_atom_site_label
_atom_site_fract_x
_atom_site_fract_y
_atom_site_fract_z
Si Si1 0.789075 0.385326 0.555013
Si Si2 0.726100 0.111123 0.051126
Si Si3 0.884703 0.223207 0.823305
Si Si4 0.799119 0.795376 0.874878
Si Si5 0.880969 0.613627 0.519054
Si Si6 0.961123 0.314671 0.339913
Si Si7 0.406026 0.609190 0.221440
O O1 0.790938 0.500000 0.571726
O O2 0.835762 0.325641 0.714325
O O3 0.680607 0.350212 0.346591
O O4 0.855207 0.358561 0.578050
O O5 0.715629 0.186544 0.114338
O O6 0.830368 0.111629 0.177732
O O7 0.701908 0.000000 0.032590
O O8 0.650572 0.154980 0.852820
O O9 0.862669 0.201758 0.890589
O O10 0.000000 0.220551 0.000000
O O11 0.694591 0.835418 0.673034
O O12 0.848119 0.859974 0.034434
O O13 0.864509 0.500000 0.485935
O O14 0.986394 0.638455 0.658061
O O15 0.976320 0.199503 0.355606
O O16 0.000000 0.349212 0.500000
O O17 0.445324 0.500000 0.279745
#
# Coordination Sequence:
#
# PCOD9196879 Si02
#       7
#     8   8   8   8   8   8   8
#     4   9  21  41  60  86 121 155 198 249 298 349
#     4  10  21  36  55  82 113 146 188 234 278 337
#     4  10  22  38  63  89 119 159 200 245 296 355
#     4  10  20  37  59  82 113 148 189 234 285 338
#     4  10  20  35  58  81 110 148 187 235 288 340
#     4  11  21  33  53  82 111 144 186 230 285 335
#     4  10  21  37  56  79 111 149 188 230 280 341
#
# _framework density 19.759259
#
# number of rings (size 3 to 8) (size 9 to 14) (size 15 to 20)
#    0.000    2.000    0.000    4.286    4.000    4.286 
#    0.000    0.714    0.000    0.000    0.000    0.000 
#    0.000    0.000    0.000    0.000    0.000    0.000 
#
# Total GULP energy -156277.822924 kJ/mol
# GULP energy per Si atom -5581.350819 kJ/mol
# Density = 1.971429 g / cm^3
# Si number density = 19.759259 Si / 1000 Ang^3
#
#
#
# Elastic Constant Matrix: (Units=GPa)
#
#
# Indices 1 2 3 4 5 6 
#
# 1 38.7720 0.3786 16.2390 0.0000 10.4174 0.0000
# 2 0.3786 73.6236 -11.1635 0.0000 3.4955 0.0000
# 3 16.2390 -11.1635 30.7828 0.0000 6.0551 0.0000
# 4 0.0000 0.0000 0.0000 16.1084 0.0000 4.7082
# 5 10.4174 3.4955 6.0551 0.0000 17.1910 0.0000
# 6 0.0000 0.0000 0.0000 4.7082 0.0000 25.8559
#
#
#
# Elastic Compliance Matrix: (Units=1/GPa)
#
#
# Indices 1 2 3 4 5 6 
#
# 1 0.037394 -0.002047 -0.017292 0.000000 -0.016153 0.000000
# 2 -0.002047 0.014916 0.007351 0.000000 -0.004381 0.000000
# 3 -0.017292 0.007351 0.045671 0.000000 -0.007102 0.000000
# 4 0.000000 0.000000 0.000000 0.065569 0.000000 -0.011940
# 5 -0.016153 -0.004381 -0.007102 0.000000 0.071351 0.000000
# 6 0.000000 0.000000 0.000000 -0.011940 0.000000 0.040850
#
#
# Mechanical properties :
#
#
# Convention : Reuss Voigt Hill
#
# Bulk Modulus (GPa) = 13.51265 17.12075 15.31670
# Shear Modulus (GPa) = 15.41326 21.01268 18.21297
#
# Velocity S-wave (km/s) = 2.79597 3.26457 3.03932
# Velocity P-wave (km/s) = 4.15653 4.78470 4.48164
#
# Compressibility (1/GPa) = 0.07400474
#
# Stress axis : x y z
#
# Youngs Moduli (GPa) = 26.74191 67.04296 21.89586
#
# Poissons Ratio (x) = 0.13726 0.37862
# Poissons Ratio (y) = 0.05475 -0.16096
# Poissons Ratio (z) = 0.46242 -0.49284
#
# Static dielectric constant tensor:
#      x y z
#    x 1.690190 0.000000 0.008420 
#    y 0.000000 1.702280 0.000000 
#    z 0.008420 0.000000 1.714160 
# 
# From -- ./inp_files/246608.got.cif
#   From: 2010.05.17/outbox.cif.g08.bks.cpg/sg12_124_cif.got.tgz:246608.got - 2010.06.03 13:09:07.
