data_PCOD9196337
_publ_section_title
;
Structure prediction by ZEFSAII (Michael W. Deem and Ramdas Pophale) SiO2 
 PCOD9196337
Probable space group: C 2/M
;
_chemical_formula_sum "Si O2"
_cell_formula_units_Z 56
_cell_length_a 26.100195
_cell_length_b 8.880415
_cell_length_c 12.881588
_cell_angle_alpha 90.000000
_cell_angle_beta 110.078189
_cell_angle_gamma 90.000000
_cell_volume 2804.245718
_symmetry_space_group_name_H-M "C 2/M"
_symmetry_group_IT_number 12
_symmetry_cell_setting 'monoclinic'
loop_
_space_group_symop_operation_xyz
x,y,z
-x,y,-z
-x,-y,-z
x,-y,z
1/2+x,1/2+y,z
1/2-x,1/2+y,-z
1/2-x,1/2-y,-z
1/2+x,1/2-y,z
loop_
_atom_site_type_symbol
_atom_site_label
_atom_site_fract_x
_atom_site_fract_y
_atom_site_fract_z
Si Si1 0.953599 0.173457 0.664163
Si Si2 0.163394 0.179236 0.881848
Si Si3 0.167174 0.678036 0.107798
Si Si4 0.433911 0.824423 0.296511
Si Si5 0.631541 0.823472 0.533149
Si Si6 0.556153 0.324438 0.095491
Si Si7 0.769422 0.680970 0.262671
O O1 0.897099 0.228144 0.575372
O O2 0.951599 0.185678 0.786710
O O3 0.003769 0.273278 0.658583
O O4 0.963710 0.000000 0.642730
O O5 0.101495 0.225370 0.808115
O O6 0.200296 0.252115 0.817561
O O7 0.169558 0.000000 0.887253
O O8 0.177948 0.248680 0.002819
O O9 0.174957 0.500000 0.108165
O O10 0.105942 0.721825 0.095177
O O11 0.209363 0.750910 0.218429
O O12 0.406057 0.807036 0.389785
O O13 0.429150 0.000000 0.264002
O O14 0.692041 0.779377 0.612931
O O15 0.631744 0.000000 0.505176
O O16 0.568641 0.500000 0.077597
O O17 0.500000 0.283669 0.000000
O O18 0.768254 0.500000 0.254036
#
# Coordination Sequence:
#
# PCOD9196337 Si02
#       7
#     8   8   8   8   8   8   8
#     4  11  22  35  57  86 114 149 192 238 287 340
#     4  11  21  35  57  86 120 153 187 232 285 339
#     4  12  24  38  59  86 114 149 192 235 283 338
#     4  10  20  35  56  84 118 154 192 233 282 339
#     4   9  20  37  57  82 115 153 188 230 283 338
#     4  10  23  43  62  82 112 149 189 234 283 334
#     4  10  21  39  60  84 116 152 190 233 283 336
#
# _framework density 19.969718
#
# number of rings (size 3 to 8) (size 9 to 14) (size 15 to 20)
#    0.000    1.571    0.000    6.429    0.000    7.714 
#    0.000    0.714    0.000    0.000    0.000    0.000 
#    0.000    0.000    0.000    0.000    0.000    0.000 
#
# Total GULP energy -156578.776276 kJ/mol
# GULP energy per Si atom -5592.099153 kJ/mol
# Density = 1.992427 g / cm^3
# Si number density = 19.969718 Si / 1000 Ang^3
#
#
#
# Elastic Constant Matrix: (Units=GPa)
#
#
# Indices 1 2 3 4 5 6 
#
# 1 58.7040 34.0325 32.3804 0.0000 31.6431 0.0000
# 2 34.0325 106.2896 48.9240 0.0000 20.2165 0.0000
# 3 32.3804 48.9240 91.0929 0.0000 40.8615 0.0000
# 4 0.0000 0.0000 0.0000 27.6912 0.0000 4.5341
# 5 31.6431 20.2165 40.8615 0.0000 29.5717 0.0000
# 6 0.0000 0.0000 0.0000 4.5341 0.0000 30.7843
#
#
#
# Elastic Compliance Matrix: (Units=1/GPa)
#
#
# Indices 1 2 3 4 5 6 
#
# 1 0.060715 -0.014675 0.028780 0.000000 -0.094703 0.000000
# 2 -0.014675 0.016086 -0.014556 0.000000 0.024818 0.000000
# 3 0.028780 -0.014556 0.047124 0.000000 -0.085960 0.000000
# 4 0.000000 0.000000 0.000000 0.037005 0.000000 -0.005450
# 5 -0.094703 0.024818 -0.085960 0.000000 0.236963 0.000000
# 6 0.000000 0.000000 0.000000 -0.005450 0.000000 0.033287
#
#
# Mechanical properties :
#
#
# Convention : Reuss Voigt Hill
#
# Bulk Modulus (GPa) = 8.12845 54.08449 31.10647
# Shear Modulus (GPa) = 10.56884 26.99275 18.78079
#
# Velocity S-wave (km/s) = 2.30302 3.68051 3.07002
# Velocity P-wave (km/s) = 3.33933 6.72336 5.30824
#
# Compressibility (1/GPa) = 0.12302462
#
# Stress axis : x y z
#
# Youngs Moduli (GPa) = 16.47050 62.16444 21.22053
#
# Poissons Ratio (x) = 0.91224 -0.61073
# Poissons Ratio (y) = 0.24170 0.30889
# Poissons Ratio (z) = -0.47403 0.90487
#
# Static dielectric constant tensor:
#      x y z
#    x 1.713110 0.000000 0.025790 
#    y 0.000000 1.670010 0.000000 
#    z 0.025790 0.000000 1.700150 
# 
# From -- ./inp_files/181043.got.cif
#   From: 2010.05.17/outbox.cif.g08.bks.cpg/sg12_91_cif.got.tgz:181043.got - 2010.06.03 13:09:07.
