data_PCOD9196597
_publ_section_title
;
Structure prediction by ZEFSAII (Michael W. Deem and Ramdas Pophale) SiO2 
 PCOD9196597
Probable space group: C 2/M
;
_chemical_formula_sum "Si O2"
_cell_formula_units_Z 50
_cell_length_a 18.769852
_cell_length_b 7.443144
_cell_length_c 18.922355
_cell_angle_alpha 90.000000
_cell_angle_beta 55.849695
_cell_angle_gamma 90.000000
_cell_volume 2187.741624
_symmetry_space_group_name_H-M "C 2/M"
_symmetry_group_IT_number 12
_symmetry_cell_setting 'monoclinic'
loop_
_space_group_symop_operation_xyz
x,y,z
-x,y,-z
-x,-y,-z
x,-y,z
1/2+x,1/2+y,z
1/2-x,1/2+y,-z
1/2-x,1/2-y,-z
1/2+x,1/2-y,z
loop_
_atom_site_type_symbol
_atom_site_label
_atom_site_fract_x
_atom_site_fract_y
_atom_site_fract_z
Si Si1 0.000000 0.500000 0.000000
Si Si2 0.089199 0.719920 0.487119
Si Si3 0.724720 0.281240 0.841058
Si Si4 0.419801 0.214602 0.346467
Si Si5 0.100365 0.282636 0.182946
Si Si6 0.768045 0.215003 0.320912
Si Si7 0.081377 0.792562 0.032676
O O1 0.995644 0.658601 0.941106
O O2 0.089875 0.500000 0.486095
O O3 0.093450 0.779816 0.566217
O O4 0.174545 0.780328 0.398437
O O5 0.000000 0.774864 0.500000
O O6 0.721615 0.500000 0.844159
O O7 0.819417 0.226281 0.813864
O O8 0.708636 0.218702 0.770385
O O9 0.655219 0.223119 0.937875
O O10 0.509103 0.282344 0.263618
O O11 0.340306 0.249990 0.339074
O O12 0.428594 0.000000 0.346935
O O13 0.099741 0.500000 0.183258
O O14 0.111732 0.223101 0.096071
O O15 0.760859 0.000000 0.318562
O O16 0.060951 0.000000 0.030259
#
# Coordination Sequence:
#
# PCOD9196597 Si02
#       7
#     2   8   8   8   8   8   8
#     4  12  26  44  64  94 128 164 208 264 320 366
#     4   9  17  33  58  85 110 147 200 250 297 364
#     4   9  20  38  61  87 117 159 206 255 310 370
#     4  10  21  34  56  86 118 154 197 247 304 366
#     4  10  20  39  61  86 121 162 205 256 310 365
#     4  10  20  35  57  83 117 154 195 249 306 362
#     4  11  24  41  65  93 127 166 211 257 310 373
#
# _framework density 22.854617000000001
#
# number of rings (size 3 to 8) (size 9 to 14) (size 15 to 20)
#    0.000    2.080    0.800    2.160    2.240    4.480 
#    1.440    0.000    0.000    3.840    0.000    0.000 
#    0.000    0.000    0.000    0.000    0.000    0.000 
#
# Total GULP energy -139575.160239 kJ/mol
# GULP energy per Si atom -5583.006410 kJ/mol
# Density = 2.280260 g / cm^3
# Si number density = 22.854617 Si / 1000 Ang^3
#
#
#
# Elastic Constant Matrix: (Units=GPa)
#
#
# Indices 1 2 3 4 5 6 
#
# 1 100.6680 0.9955 47.0757 -0.0002 9.6318 -0.0002
# 2 0.9955 99.6585 3.2078 0.0003 0.5406 -0.0010
# 3 47.0757 3.2078 166.3744 -0.0003 7.5842 0.0000
# 4 -0.0002 0.0003 -0.0003 6.4559 0.0000 11.3225
# 5 9.6318 0.5406 7.5842 0.0000 48.6780 0.0001
# 6 -0.0002 -0.0010 0.0000 11.3225 0.0001 15.0643
#
#
#
# Elastic Compliance Matrix: (Units=1/GPa)
#
#
# Indices 1 2 3 4 5 6 
#
# 1 0.011602 -0.000003 -0.003201 0.000000 -0.001797 0.000000
# 2 -0.000003 0.010041 -0.000189 0.000005 -0.000081 -0.000003
# 3 -0.003201 -0.000189 0.006940 -0.000001 -0.000446 0.000001
# 4 0.000000 0.000005 -0.000001 -0.486802 -0.000001 0.365885
# 5 -0.001797 -0.000081 -0.000446 -0.000001 0.020969 0.000001
# 6 0.000000 -0.000003 0.000001 0.365885 0.000001 -0.208621
#
#
# Mechanical properties :
#
#
# Convention : Reuss Voigt Hill
#
# Bulk Modulus (GPa) = 45.87706 52.13988 49.00847
# Shear Modulus (GPa) = -7.91366 35.06777 13.57705
#
# Velocity S-wave (km/s) = -1.86283 3.92137 2.43998
# Velocity P-wave (km/s) = 3.93576 6.58530 5.42477
#
# Compressibility (1/GPa) = 0.02179739
#
# Stress axis : x y z
#
# Youngs Moduli (GPa) = 86.18852 99.59343 144.08770
#
# Poissons Ratio (x) = 0.00031 0.46122
# Poissons Ratio (y) = 0.00027 0.02723
# Poissons Ratio (z) = 0.27588 0.01882
#
# Static dielectric constant tensor:
#      x y z
#    x 1.863390 -0.000010 -0.023190 
#    y -0.000010 2.444330 -0.000010 
#    z -0.023190 -0.000010 1.845380 
# 
# From -- ./inp_files/274973.got.cif
#   From: 2010.05.17/outbox.cif.g08.bks.cpg/sg12_138_cif.got.tgz:274973.got - 2010.06.03 13:09:07.
