data_PCOD9196178
_publ_section_title
;
Structure prediction by ZEFSAII (Michael W. Deem and Ramdas Pophale) SiO2 
 PCOD9196178
Probable space group: C 2/M
;
_chemical_formula_sum "Si O2"
_cell_formula_units_Z 58
_cell_length_a 10.884802
_cell_length_b 13.631099
_cell_length_c 17.221182
_cell_angle_alpha 90.000000
_cell_angle_beta 112.889401
_cell_angle_gamma 90.000000
_cell_volume 2353.939727
_symmetry_space_group_name_H-M "C 2/M"
_symmetry_group_IT_number 12
_symmetry_cell_setting 'monoclinic'
loop_
_space_group_symop_operation_xyz
x,y,z
-x,y,-z
-x,-y,-z
x,-y,z
1/2+x,1/2+y,z
1/2-x,1/2+y,-z
1/2-x,1/2-y,-z
1/2+x,1/2-y,z
loop_
_atom_site_type_symbol
_atom_site_label
_atom_site_fract_x
_atom_site_fract_y
_atom_site_fract_z
Si Si1 0.042608 0.392704 0.642226
Si Si2 0.860919 0.766493 0.616975
Si Si3 0.500000 0.500000 0.000000
Si Si4 0.644284 0.613828 0.244565
Si Si5 0.510405 0.110228 0.815197
Si Si6 0.340989 0.388803 0.468476
Si Si7 0.642080 0.893114 0.076065
Si Si8 0.698404 0.324935 0.082975
O O1 0.012053 0.500000 0.600976
O O2 0.965506 0.298599 0.592340
O O3 0.201066 0.384905 0.689802
O O4 0.989544 0.389004 0.718392
O O5 0.923598 0.815942 0.709012
O O6 0.738482 0.691803 0.600862
O O7 0.813375 0.855001 0.550145
O O8 0.617006 0.411214 0.019186
O O9 0.599228 0.500000 0.232918
O O10 0.642182 0.654105 0.157075
O O11 0.383871 0.126061 0.838435
O O12 0.642443 0.166954 0.870089
O O13 0.553683 0.000000 0.844761
O O14 0.500000 0.388254 0.500000
O O15 0.295590 0.500000 0.441535
O O16 0.684340 0.787876 0.054999
O O17 0.711396 0.000000 0.085580
O O18 0.500000 0.904814 0.000000
#
# Coordination Sequence:
#
# PCOD9196178 Si02
#       8
#     8   8   2   8   8   8   8   8
#     4   9  18  33  54  80 105 140 186 224 269 328
#     4  11  20  34  59  82 107 146 185 227 270 320
#     4  12  20  36  58  92 106 152 188 238 270 364
#     4  10  20  35  56  82 112 139 178 238 284 314
#     4   9  18  35  56  76 106 145 182 227 284 335
#     4  10  22  38  54  80 115 149 182 215 272 337
#     4  10  21  35  52  75 104 141 180 226 277 330
#     4  11  20  37  58  82 112 143 191 229 281 343
#
# _framework density 24.639543
#
# number of rings (size 3 to 8) (size 9 to 14) (size 15 to 20)
#    0.000    1.931    2.069    3.310    0.000    0.552 
#    0.000    0.690    0.000   13.241    0.000    0.000 
#    0.000    0.000    0.000    0.000    0.000    0.000 
#
# Total GULP energy -161549.189941 kJ/mol
# GULP energy per Si atom -5570.661722 kJ/mol
# Density = 2.458346 g / cm^3
# Si number density = 24.639543 Si / 1000 Ang^3
#
#
#
# Elastic Constant Matrix: (Units=GPa)
#
#
# Indices 1 2 3 4 5 6 
#
# 1 38.6925 32.9676 9.7274 0.0000 6.9187 0.0000
# 2 32.9676 227.8529 14.8061 0.0000 -1.2397 0.0000
# 3 9.7274 14.8061 46.9406 0.0000 -13.8056 0.0000
# 4 0.0000 0.0000 0.0000 28.7701 0.0000 2.1754
# 5 6.9187 -1.2397 -13.8056 0.0000 36.6092 0.0000
# 6 0.0000 0.0000 0.0000 2.1754 0.0000 5.7990
#
#
#
# Elastic Compliance Matrix: (Units=1/GPa)
#
#
# Indices 1 2 3 4 5 6 
#
# 1 0.033362 -0.004335 -0.008372 0.000000 -0.009609 0.000000
# 2 -0.004335 0.005050 -0.000454 0.000000 0.000819 0.000000
# 3 -0.008372 -0.000454 0.026592 0.000000 0.011595 0.000000
# 4 0.000000 0.000000 0.000000 0.035773 0.000000 -0.013419
# 5 -0.009609 0.000819 0.011595 0.000000 0.033532 0.000000
# 6 0.000000 0.000000 0.000000 -0.013419 0.000000 0.177477
#
#
# Mechanical properties :
#
#
# Convention : Reuss Voigt Hill
#
# Bulk Modulus (GPa) = 25.85220 47.60982 36.73101
# Shear Modulus (GPa) = 14.24500 31.30133 22.77316
#
# Velocity S-wave (km/s) = 2.40705 3.56809 3.04345
# Velocity P-wave (km/s) = 4.27085 6.02823 5.22397
#
# Compressibility (1/GPa) = 0.03868143
#
# Stress axis : x y z
#
# Youngs Moduli (GPa) = 29.97453 198.02023 37.60586
#
# Poissons Ratio (x) = 0.85848 0.31484
# Poissons Ratio (y) = 0.12995 0.01706
# Poissons Ratio (z) = 0.25095 0.08981
#
# Static dielectric constant tensor:
#      x y z
#    x 2.070660 0.000000 -0.063970 
#    y 0.000000 2.267730 0.000000 
#    z -0.063970 0.000000 2.009630 
# 
# From -- ./inp_files/335316.got.cif
#   From: 2010.05.17/outbox.cif.g08.bks.cpg/sg12_168_cif.got.tgz:335316.got - 2010.06.03 13:09:07.
