data_PCOD9196079
_publ_section_title
;
Structure prediction by ZEFSAII (Michael W. Deem and Ramdas Pophale) SiO2 
 PCOD9196079
Probable space group: C 2/M
;
_chemical_formula_sum "Si O2"
_cell_formula_units_Z 40
_cell_length_a 16.494925
_cell_length_b 7.452557
_cell_length_c 15.895362
_cell_angle_alpha 90.000000
_cell_angle_beta 129.282577
_cell_angle_gamma 90.000000
_cell_volume 1512.465325
_symmetry_space_group_name_H-M "C 2/M"
_symmetry_group_IT_number 12
_symmetry_cell_setting 'monoclinic'
loop_
_space_group_symop_operation_xyz
x,y,z
-x,y,-z
-x,-y,-z
x,-y,z
1/2+x,1/2+y,z
1/2-x,1/2+y,-z
1/2-x,1/2-y,-z
1/2+x,1/2-y,z
loop_
_atom_site_type_symbol
_atom_site_label
_atom_site_fract_x
_atom_site_fract_y
_atom_site_fract_z
Si Si1 0.092104 0.207628 0.356116
Si Si2 0.130862 0.704650 0.028791
Si Si3 0.324037 0.791931 0.768919
Si Si4 0.628426 0.783130 0.841586
Si Si5 0.117231 0.220274 0.555245
O O1 0.966320 0.225736 0.279808
O O2 0.123748 0.290753 0.288290
O O3 0.139843 0.278724 0.474125
O O4 0.119211 0.000000 0.367397
O O5 0.090837 0.500000 0.998752
O O6 0.112236 0.784441 0.109609
O O7 0.258293 0.708803 0.107598
O O8 0.101447 0.783731 0.918825
O O9 0.208363 0.714603 0.676750
O O10 0.311361 0.000000 0.783637
O O11 0.635606 0.000000 0.847396
O O12 0.000000 0.276019 0.500000
O O13 0.119304 0.000000 0.557117
#
# Coordination Sequence:
#
# PCOD9196079 Si02
#       5
#     8   8   8   8   8
#     4  11  22  35  53  79 111 143 177 217 263 316
#     4   9  19  36  58  81 105 138 179 221 265 314
#     4  10  20  36  57  79 107 141 177 219 266 315
#     4  10  20  35  56  81 108 139 178 221 264 313
#     4   9  18  34  57  80 102 135 178 220 264 315
#
# _framework density 26.446885999999999
#
# number of rings (size 3 to 8) (size 9 to 14) (size 15 to 20)
#    0.000    2.200    0.000    3.000    0.000    5.600 
#    0.000    5.000    0.000    4.200    0.000    0.000 
#    0.000    0.000    0.000    0.000    0.000    0.000 
#
# Total GULP energy -111883.467904 kJ/mol
# GULP energy per Si atom -5594.173395 kJ/mol
# Density = 2.638669 g / cm^3
# Si number density = 26.446886 Si / 1000 Ang^3
#
#
#
# Elastic Constant Matrix: (Units=GPa)
#
#
# Indices 1 2 3 4 5 6 
#
# 1 79.3285 -4.8746 5.2646 0.0000 -2.9597 0.0000
# 2 -4.8746 106.1296 6.2348 0.0000 -6.5296 0.0000
# 3 5.2646 6.2348 166.4328 0.0000 -7.5303 0.0000
# 4 0.0000 0.0000 0.0000 8.4793 0.0000 -5.6226
# 5 -2.9597 -6.5296 -7.5303 0.0000 56.1185 0.0000
# 6 0.0000 0.0000 0.0000 -5.6226 0.0000 20.5204
#
#
#
# Elastic Compliance Matrix: (Units=1/GPa)
#
#
# Indices 1 2 3 4 5 6 
#
# 1 0.012698 0.000649 -0.000395 0.000000 0.000692 0.000000
# 2 0.000649 0.009539 -0.000328 0.000000 0.001100 0.000000
# 3 -0.000395 -0.000328 0.006067 0.000000 0.000755 0.000000
# 4 0.000000 0.000000 0.000000 0.144119 0.000000 0.039489
# 5 0.000692 0.001100 0.000755 0.000000 0.018085 0.000000
# 6 0.000000 0.000000 0.000000 0.039489 0.000000 0.059552
#
#
# Mechanical properties :
#
#
# Convention : Reuss Voigt Hill
#
# Bulk Modulus (GPa) = 35.51544 40.57117 38.04331
# Shear Modulus (GPa) = 19.26083 40.04137 29.65110
#
# Velocity S-wave (km/s) = 2.70160 3.89527 3.35200
# Velocity P-wave (km/s) = 4.81556 5.96698 5.42192
#
# Compressibility (1/GPa) = 0.02815676
#
# Stress axis : x y z
#
# Youngs Moduli (GPa) = 78.75435 104.83043 164.81599
#
# Poissons Ratio (x) = -0.06803 0.06504
# Poissons Ratio (y) = -0.05111 0.05408
# Poissons Ratio (z) = 0.03108 0.03440
#
# Static dielectric constant tensor:
#      x y z
#    x 2.104310 0.000000 -0.047830 
#    y 0.000000 2.041050 0.000000 
#    z -0.047830 0.000000 2.062710 
# 
# From -- ./inp_files/228917.got.cif
#   From: 2010.05.17/outbox.cif.g08.bks.cpg/sg12_115_cif.got.tgz:228917.got - 2010.06.03 13:09:07.
