data_PCOD9196154
_publ_section_title
;
Structure prediction by ZEFSAII (Michael W. Deem and Ramdas Pophale) SiO2 
 PCOD9196154
Probable space group: C 2/M
;
_chemical_formula_sum "Si O2"
_cell_formula_units_Z 36
_cell_length_a 22.337201
_cell_length_b 15.883676
_cell_length_c 7.705405
_cell_angle_alpha 90.000000
_cell_angle_beta 137.044278
_cell_angle_gamma 90.000000
_cell_volume 1862.937924
_symmetry_space_group_name_H-M "C 2/M"
_symmetry_group_IT_number 12
_symmetry_cell_setting 'monoclinic'
loop_
_space_group_symop_operation_xyz
x,y,z
-x,y,-z
-x,-y,-z
x,-y,z
1/2+x,1/2+y,z
1/2-x,1/2+y,-z
1/2-x,1/2-y,-z
1/2+x,1/2-y,z
loop_
_atom_site_type_symbol
_atom_site_label
_atom_site_fract_x
_atom_site_fract_y
_atom_site_fract_z
Si Si1 0.500000 0.294766 0.000000
Si Si2 0.547836 0.791028 0.439153
Si Si3 0.689148 0.331517 0.842772
Si Si4 0.822273 0.100395 0.558071
Si Si5 0.791552 0.402352 0.360743
O O1 0.509167 0.238433 0.845875
O O2 0.412899 0.350910 0.789848
O O3 0.500000 0.834221 0.500000
O O4 0.592707 0.707911 0.619702
O O5 0.625851 0.847687 0.525777
O O6 0.707464 0.375866 0.698716
O O7 0.750000 0.250000 0.000000
O O8 0.713410 0.390496 0.054381
O O9 0.748493 0.126038 0.540905
O O10 0.835490 0.000000 0.600978
O O11 0.816144 0.500000 0.423761
#
# Coordination Sequence:
#
# PCOD9196154 Si02
#       5
#     4   8   8   8   8
#     4  10  21  36  55  78 108 140 174 218 265 314
#     4  10  21  35  53  78 106 140 180 218 259 310
#     4   9  19  34  55  78 103 137 176 216 260 309
#     4  10  20  35  56  82 109 137 172 216 267 317
#     4  10  21  36  55  79 107 140 177 218 263 311
#
# _framework density 19.324316
#
# number of rings (size 3 to 8) (size 9 to 14) (size 15 to 20)
#    0.000    2.222    0.000    2.333    0.000   12.000 
#    0.000    0.556    0.000   10.667    0.000    0.000 
#    0.000    0.000    0.000    0.000    0.000    0.000 
#
# Total GULP energy -100397.553787 kJ/mol
# GULP energy per Si atom -5577.641877 kJ/mol
# Density = 1.928033 g / cm^3
# Si number density = 19.324316 Si / 1000 Ang^3
#
#
#
# Elastic Constant Matrix: (Units=GPa)
#
#
# Indices 1 2 3 4 5 6 
#
# 1 87.8351 20.8682 6.0888 0.0000 -18.7546 0.0000
# 2 20.8682 46.7393 2.3919 0.0000 -0.6879 0.0000
# 3 6.0888 2.3919 78.8528 0.0000 -12.2980 0.0000
# 4 0.0000 0.0000 0.0000 25.6070 0.0000 -5.9472
# 5 -18.7546 -0.6879 -12.2980 0.0000 23.2675 0.0000
# 6 0.0000 0.0000 0.0000 -5.9472 0.0000 23.7174
#
#
#
# Elastic Compliance Matrix: (Units=1/GPa)
#
#
# Indices 1 2 3 4 5 6 
#
# 1 0.015728 -0.006883 0.001024 0.000000 0.013016 0.000000
# 2 -0.006883 0.024443 -0.001049 0.000000 -0.005380 0.000000
# 3 0.001024 -0.001049 0.013905 0.000000 0.008144 0.000000
# 4 0.000000 0.000000 0.000000 0.041467 0.000000 0.010398
# 5 0.013016 -0.005380 0.008144 0.000000 0.057615 0.000000
# 6 0.000000 0.000000 0.000000 0.010398 0.000000 0.044770
#
#
# Mechanical properties :
#
#
# Convention : Reuss Voigt Hill
#
# Bulk Modulus (GPa) = 24.83851 30.23611 27.53731
# Shear Modulus (GPa) = 22.20599 26.79027 24.49813
#
# Velocity S-wave (km/s) = 3.39355 3.72741 3.56439
# Velocity P-wave (km/s) = 5.31378 5.84854 5.58756
#
# Compressibility (1/GPa) = 0.04026006
#
# Stress axis : x y z
#
# Youngs Moduli (GPa) = 63.57901 40.91140 71.91803
#
# Poissons Ratio (x) = 0.28161 -0.07366
# Poissons Ratio (y) = 0.43763 0.07544
# Poissons Ratio (z) = -0.06512 0.04292
#
# Static dielectric constant tensor:
#      x y z
#    x 1.703900 0.000000 0.000390 
#    y 0.000000 1.669880 0.000000 
#    z 0.000390 0.000000 1.689750 
# 
# From -- ./inp_files/10787.got.cif
#   From: 2010.05.17/outbox.cif.g08.bks.cpg/sg12_6_cif.got.tgz:10787.got - 2010.06.03 13:09:07.
