data_PCOD9196962
_publ_section_title
;
Structure prediction by ZEFSAII (Michael W. Deem and Ramdas Pophale) SiO2 
 PCOD9196962
Probable space group: C 2/M
;
_chemical_formula_sum "Si O2"
_cell_formula_units_Z 40
_cell_length_a 20.106611
_cell_length_b 7.489942
_cell_length_c 11.967027
_cell_angle_alpha 90.000000
_cell_angle_beta 71.926987
_cell_angle_gamma 90.000000
_cell_volume 1713.285412
_symmetry_space_group_name_H-M "C 2/M"
_symmetry_group_IT_number 12
_symmetry_cell_setting 'monoclinic'
loop_
_space_group_symop_operation_xyz
x,y,z
-x,y,-z
-x,-y,-z
x,-y,z
1/2+x,1/2+y,z
1/2-x,1/2+y,-z
1/2-x,1/2-y,-z
1/2+x,1/2-y,z
loop_
_atom_site_type_symbol
_atom_site_label
_atom_site_fract_x
_atom_site_fract_y
_atom_site_fract_z
Si Si1 0.700428 0.704120 0.189233
Si Si2 0.936546 0.296731 0.864805
Si Si3 0.921665 0.282301 0.311629
Si Si4 0.184364 0.287212 0.453467
Si Si5 0.855060 0.281455 0.113737
O O1 0.697047 0.500000 0.151979
O O2 0.634264 0.799092 0.169981
O O3 0.694496 0.706480 0.326473
O O4 0.777271 0.778604 0.121873
O O5 0.958802 0.500000 0.878657
O O6 0.000437 0.219688 0.760166
O O7 0.913162 0.217866 0.995710
O O8 0.921849 0.500000 0.318711
O O9 0.884417 0.221964 0.444258
O O10 0.874427 0.231914 0.229496
O O11 0.179356 0.500000 0.440140
O O12 0.250000 0.250000 0.500000
O O13 0.853707 0.500000 0.110778
#
# Coordination Sequence:
#
# PCOD9196962 Si02
#       5
#     8   8   8   8   8
#     4  11  22  37  56  81 117 150 182 225 274 327
#     4  10  20  35  58  85 111 143 186 230 276 325
#     4   9  18  34  58  85 110 140 183 234 276 320
#     4  11  21  37  60  84 110 142 186 230 274 327
#     4   9  17  33  58  84 109 144 187 228 270 324
#
# _framework density 23.346957
#
# number of rings (size 3 to 8) (size 9 to 14) (size 15 to 20)
#    0.000    2.000    2.000    2.400    0.000    3.200 
#    0.000    7.000    0.000    1.200    0.000    0.000 
#    0.000    0.000    0.000    0.000    0.000    0.000 
#
# Total GULP energy -111801.346029 kJ/mol
# GULP energy per Si atom -5590.067301 kJ/mol
# Density = 2.329382 g / cm^3
# Si number density = 23.346957 Si / 1000 Ang^3
#
#
#
# Elastic Constant Matrix: (Units=GPa)
#
#
# Indices 1 2 3 4 5 6 
#
# 1 83.5240 -3.2447 10.8253 0.0000 -32.8335 0.0000
# 2 -3.2447 75.7526 -1.6000 0.0000 -5.9424 0.0000
# 3 10.8253 -1.6000 108.5251 0.0000 -30.9429 0.0000
# 4 0.0000 0.0000 0.0000 12.1547 0.0000 3.9905
# 5 -32.8335 -5.9424 -30.9429 0.0000 49.6728 0.0000
# 6 0.0000 0.0000 0.0000 3.9905 0.0000 17.2386
#
#
#
# Elastic Compliance Matrix: (Units=1/GPa)
#
#
# Indices 1 2 3 4 5 6 
#
# 1 0.016672 0.001728 0.001901 0.000000 0.012411 0.000000
# 2 0.001728 0.013561 0.000992 0.000000 0.003382 0.000000
# 3 0.001901 0.000992 0.011469 0.000000 0.008519 0.000000
# 4 0.000000 0.000000 0.000000 0.089040 0.000000 -0.020612
# 5 0.012411 0.003382 0.008519 0.000000 0.034047 0.000000
# 6 0.000000 0.000000 0.000000 -0.020612 0.000000 0.062781
#
#
# Mechanical properties :
#
#
# Convention : Reuss Voigt Hill
#
# Bulk Modulus (GPa) = 19.62944 31.08477 25.35710
# Shear Modulus (GPa) = 21.24867 33.26796 27.25832
#
# Velocity S-wave (km/s) = 3.02010 3.77893 3.42062
# Velocity P-wave (km/s) = 4.53732 5.69066 5.14640
#
# Compressibility (1/GPa) = 0.05094389
#
# Stress axis : x y z
#
# Youngs Moduli (GPa) = 59.97995 73.74002 87.19513
#
# Poissons Ratio (x) = -0.12741 -0.16577
# Poissons Ratio (y) = -0.10364 -0.08649
# Poissons Ratio (z) = -0.11403 -0.07315
#
# Static dielectric constant tensor:
#      x y z
#    x 1.853800 0.000000 -0.033420 
#    y 0.000000 1.939910 0.000000 
#    z -0.033420 0.000000 1.872090 
# 
# From -- ./inp_files/151693.got.cif
#   From: 2010.05.17/outbox.cif.g08.bks.cpg/sg12_76_cif.got.tgz:151693.got - 2010.06.03 13:09:07.
