data_PCOD9196095
_publ_section_title
;
Structure prediction by ZEFSAII (Michael W. Deem and Ramdas Pophale) SiO2 
 PCOD9196095
Probable space group: C 2/M
;
_chemical_formula_sum "Si O2"
_cell_formula_units_Z 48
_cell_length_a 26.236203
_cell_length_b 8.510627
_cell_length_c 12.082650
_cell_angle_alpha 90.000000
_cell_angle_beta 90.346426
_cell_angle_gamma 90.000000
_cell_volume 2697.843770
_symmetry_space_group_name_H-M "C 2/M"
_symmetry_group_IT_number 12
_symmetry_cell_setting 'monoclinic'
loop_
_space_group_symop_operation_xyz
x,y,z
-x,y,-z
-x,-y,-z
x,-y,z
1/2+x,1/2+y,z
1/2-x,1/2+y,-z
1/2-x,1/2-y,-z
1/2+x,1/2-y,z
loop_
_atom_site_type_symbol
_atom_site_label
_atom_site_fract_x
_atom_site_fract_y
_atom_site_fract_z
Si Si1 0.344089 0.310034 0.231990
Si Si2 0.651196 0.311469 0.231193
Si Si3 0.254927 0.811367 0.624396
Si Si4 0.444682 0.308554 0.631084
Si Si5 0.060314 0.191546 0.622582
Si Si6 0.307915 0.813370 0.998940
O O1 0.345293 0.500000 0.224937
O O2 0.295169 0.266995 0.305796
O O3 0.395306 0.255903 0.294773
O O4 0.336060 0.243356 0.109939
O O5 0.650658 0.500000 0.225772
O O6 0.695895 0.258708 0.314563
O O7 0.597457 0.256318 0.281937
O O8 0.664147 0.246278 0.110751
O O9 0.250000 0.750000 0.500000
O O10 0.258434 0.000000 0.624087
O O11 0.444591 0.500000 0.631707
O O12 0.430608 0.261124 0.505105
O O13 0.502950 0.258943 0.653326
O O14 0.060907 0.000000 0.623268
O O15 0.305442 0.000000 0.996518
O O16 0.250000 0.750000 0.000000
#
# Coordination Sequence:
#
# PCOD9196095 Si02
#       6
#     8   8   8   8   8   8
#     4  10  20  35  56  81 109 143 184 229 274 323
#     4  11  21  35  56  82 111 143 182 228 277 330
#     4  11  22  34  52  80 113 144 179 224 276 332
#     4   8  15  29  53  84 113 143 178 221 273 322
#     4   8  14  29  54  83 113 142 178 224 270 319
#     4  12  24  39  57  77 105 146 188 229 277 332
#
# _framework density 17.791986999999999
#
# number of rings (size 3 to 8) (size 9 to 14) (size 15 to 20)
#    0.000    2.000    1.667    4.500    0.000    3.333 
#    0.000    0.833    0.000    7.000    0.000    7.000 
#    0.000    0.000    0.000    0.000    0.000    0.000 
#
# Total GULP energy -133992.573974 kJ/mol
# GULP energy per Si atom -5583.023916 kJ/mol
# Density = 1.775149 g / cm^3
# Si number density = 17.791987 Si / 1000 Ang^3
#
#
#
# Elastic Constant Matrix: (Units=GPa)
#
#
# Indices 1 2 3 4 5 6 
#
# 1 135.6627 26.7283 81.2377 0.0000 -20.8122 0.0000
# 2 26.7283 32.3127 28.1039 0.0000 -6.7892 0.0000
# 3 81.2377 28.1039 143.1695 0.0000 -25.2998 0.0000
# 4 0.0000 0.0000 0.0000 29.0900 0.0000 1.8176
# 5 -20.8122 -6.7892 -25.2998 0.0000 27.3846 0.0000
# 6 0.0000 0.0000 0.0000 1.8176 0.0000 19.1739
#
#
#
# Elastic Compliance Matrix: (Units=1/GPa)
#
#
# Indices 1 2 3 4 5 6 
#
# 1 0.011934 -0.004598 -0.005340 0.000000 0.002997 0.000000
# 2 -0.004598 0.039294 -0.004781 0.000000 0.001830 0.000000
# 3 -0.005340 -0.004781 0.011983 0.000000 0.005827 0.000000
# 4 0.000000 0.000000 0.000000 0.034581 0.000000 -0.003278
# 5 0.002997 0.001830 0.005827 0.000000 0.044632 0.000000
# 6 0.000000 0.000000 0.000000 -0.003278 0.000000 0.052465
#
#
# Mechanical properties :
#
#
# Convention : Reuss Voigt Hill
#
# Bulk Modulus (GPa) = 29.60867 64.80939 47.20903
# Shear Modulus (GPa) = 21.22389 26.80135 24.01262
#
# Velocity S-wave (km/s) = 3.45757 3.88541 3.67772
# Velocity P-wave (km/s) = 5.71117 7.52554 6.68024
#
# Compressibility (1/GPa) = 0.03377389
#
# Stress axis : x y z
#
# Youngs Moduli (GPa) = 83.79137 25.44944 83.45306
#
# Poissons Ratio (x) = 0.11702 0.44561
# Poissons Ratio (y) = 0.38527 0.39897
# Poissons Ratio (z) = 0.44742 0.12167
#
# Static dielectric constant tensor:
#      x y z
#    x 1.600540 0.000000 -0.005520 
#    y 0.000000 1.619890 0.000000 
#    z -0.005520 0.000000 1.578020 
# 
# From -- ./inp_files/172309.got.cif
#   From: 2010.05.17/outbox.cif.g08.bks.cpg/sg12_87_cif.got.tgz:172309.got - 2010.06.03 13:09:07.
