data_PCOD9196462
_publ_section_title
;
Structure prediction by ZEFSAII (Michael W. Deem and Ramdas Pophale) SiO2 
 PCOD9196462
Probable space group: C 2/M
;
_chemical_formula_sum "Si O2"
_cell_formula_units_Z 56
_cell_length_a 16.867438
_cell_length_b 12.018377
_cell_length_c 15.949588
_cell_angle_alpha 90.000000
_cell_angle_beta 115.639608
_cell_angle_gamma 90.000000
_cell_volume 2914.917980
_symmetry_space_group_name_H-M "C 2/M"
_symmetry_group_IT_number 12
_symmetry_cell_setting 'monoclinic'
loop_
_space_group_symop_operation_xyz
x,y,z
-x,y,-z
-x,-y,-z
x,-y,z
1/2+x,1/2+y,z
1/2-x,1/2+y,-z
1/2-x,1/2-y,-z
1/2+x,1/2-y,z
loop_
_atom_site_type_symbol
_atom_site_label
_atom_site_fract_x
_atom_site_fract_y
_atom_site_fract_z
Si Si1 0.993064 0.370426 0.589746
Si Si2 0.282685 0.131928 0.766477
Si Si3 0.123362 0.262463 0.778763
Si Si4 0.746333 0.372703 0.045111
Si Si5 0.409697 0.299752 0.911299
Si Si6 0.461217 0.624046 0.757577
Si Si7 0.825616 0.278594 0.601917
O O1 0.012639 0.500000 0.594119
O O2 0.897764 0.353904 0.587652
O O3 0.000000 0.321552 0.500000
O O4 0.066655 0.314828 0.679443
O O5 0.197103 0.183195 0.772321
O O6 0.363339 0.188838 0.853546
O O7 0.288749 0.167438 0.671135
O O8 0.284415 0.000000 0.773506
O O9 0.171370 0.356960 0.854765
O O10 0.051069 0.194468 0.797951
O O11 0.749405 0.500000 0.008352
O O12 0.657149 0.361943 0.057528
O O13 0.750000 0.250000 0.000000
O O14 0.426387 0.371796 0.836099
O O15 0.500000 0.276180 0.000000
O O16 0.481095 0.500000 0.738884
O O17 0.386101 0.676518 0.663495
O O18 0.750000 0.250000 0.500000
#
# Coordination Sequence:
#
# PCOD9196462 Si02
#       7
#     8   8   8   8   8   8   8
#     4  10  20  35  57  81 107 145 188 230 279 336
#     4  10  21  37  58  84 114 150 190 235 293 353
#     4  10  21  38  58  83 116 147 185 237 290 345
#     4  11  24  40  61  88 118 155 197 242 293 350
#     4  10  22  39  58  84 115 149 189 237 287 343
#     4  10  21  37  59  85 112 148 193 238 287 345
#     4  10  21  37  55  81 116 149 189 237 288 348
#
# _framework density 19.211518999999999
#
# number of rings (size 3 to 8) (size 9 to 14) (size 15 to 20)
#    0.000    1.857    0.000    3.429    0.000    6.571 
#    0.000    8.571    0.000    4.714    0.000    0.000 
#    0.000    0.000    0.000    0.000    0.000    0.000 
#
# Total GULP energy -156139.439963 kJ/mol
# GULP energy per Si atom -5576.408570 kJ/mol
# Density = 1.916779 g / cm^3
# Si number density = 19.211519 Si / 1000 Ang^3
#
#
#
# Elastic Constant Matrix: (Units=GPa)
#
#
# Indices 1 2 3 4 5 6 
#
# 1 87.9074 29.9906 33.7932 0.0000 10.6463 0.0000
# 2 29.9906 116.7353 28.0775 0.0000 6.3562 0.0000
# 3 33.7932 28.0775 82.3574 0.0000 15.2594 0.0000
# 4 0.0000 0.0000 0.0000 2.4176 0.0000 -0.9379
# 5 10.6463 6.3562 15.2594 0.0000 39.4462 0.0000
# 6 0.0000 0.0000 0.0000 -0.9379 0.0000 3.8017
#
#
#
# Elastic Compliance Matrix: (Units=1/GPa)
#
#
# Indices 1 2 3 4 5 6 
#
# 1 0.014209 -0.002431 -0.004700 0.000000 -0.001625 0.000000
# 2 -0.002431 0.009751 -0.002324 0.000000 -0.000016 0.000000
# 3 -0.004700 -0.002324 0.015683 0.000000 -0.004424 0.000000
# 4 0.000000 0.000000 0.000000 0.457405 0.000000 0.112843
# 5 -0.001625 -0.000016 -0.004424 0.000000 0.027503 0.000000
# 6 0.000000 0.000000 0.000000 0.112843 0.000000 0.290882
#
#
# Mechanical properties :
#
#
# Convention : Reuss Voigt Hill
#
# Bulk Modulus (GPa) = 48.23533 52.30252 50.26893
# Shear Modulus (GPa) = 5.94351 22.14235 14.04293
#
# Velocity S-wave (km/s) = 1.76081 3.39861 2.70657
# Velocity P-wave (km/s) = 5.41257 6.53333 5.99918
#
# Compressibility (1/GPa) = 0.02073169
#
# Stress axis : x y z
#
# Youngs Moduli (GPa) = 70.37927 102.55561 63.76486
#
# Poissons Ratio (x) = 0.24935 0.29971
# Poissons Ratio (y) = 0.17112 0.14817
# Poissons Ratio (z) = 0.33080 0.23830
#
# Static dielectric constant tensor:
#      x y z
#    x 1.673100 0.000000 -0.032900 
#    y 0.000000 1.685480 0.000000 
#    z -0.032900 0.000000 1.679900 
# 
# From -- ./inp_files/223745.got.cif
#   From: 2010.05.17/outbox.cif.g08.bks.cpg/sg12_112_cif.got.tgz:223745.got - 2010.06.03 13:09:07.
