data_PCOD9196526
_publ_section_title
;
Structure prediction by ZEFSAII (Michael W. Deem and Ramdas Pophale) SiO2 
 PCOD9196526
Probable space group: C 2/M
;
_chemical_formula_sum "Si O2"
_cell_formula_units_Z 58
_cell_length_a 30.959405
_cell_length_b 7.837874
_cell_length_c 24.468409
_cell_angle_alpha 90.000000
_cell_angle_beta 151.616498
_cell_angle_gamma 90.000000
_cell_volume 2822.469169
_symmetry_space_group_name_H-M "C 2/M"
_symmetry_group_IT_number 12
_symmetry_cell_setting 'monoclinic'
loop_
_space_group_symop_operation_xyz
x,y,z
-x,y,-z
-x,-y,-z
x,-y,z
1/2+x,1/2+y,z
1/2-x,1/2+y,-z
1/2-x,1/2-y,-z
1/2+x,1/2-y,z
loop_
_atom_site_type_symbol
_atom_site_label
_atom_site_fract_x
_atom_site_fract_y
_atom_site_fract_z
Si Si1 0.500000 0.500000 0.500000
Si Si2 0.692024 0.297382 0.103813
Si Si3 0.000216 0.207401 0.063560
Si Si4 0.979156 0.199814 0.721791
Si Si5 0.680816 0.294073 0.970663
Si Si6 0.824479 0.812756 0.345547
Si Si7 0.669270 0.710540 0.524838
Si Si8 0.359204 0.800749 0.689866
O O1 0.426837 0.354417 0.440458
O O2 0.681066 0.500000 0.087034
O O3 0.768222 0.268533 0.234015
O O4 0.594005 0.232511 0.014415
O O5 0.712294 0.230960 0.065522
O O6 0.084021 0.277560 0.191292
O O7 0.004758 0.000000 0.071448
O O8 0.000000 0.255768 0.000000
O O9 0.921474 0.270410 0.606867
O O10 0.915771 0.213530 0.704649
O O11 0.078967 0.272079 0.844784
O O12 0.993113 0.000000 0.725590
O O13 0.676238 0.500000 0.967999
O O14 0.750000 0.250000 0.000000
O O15 0.823397 0.730776 0.404271
O O16 0.779646 0.000000 0.303106
O O17 0.667486 0.500000 0.523536
O O18 0.757527 0.762849 0.588315
O O19 0.353803 0.000000 0.669899
#
# Coordination Sequence:
#
# PCOD9196526 Si02
#       8
#     2   8   8   8   8   8   8   8
#     4   8  20  36  62  84 110 140 198 236 278 350
#     4  10  20  37  57  84 119 148 185 236 288 340
#     4  10  20  35  57  82 114 156 195 228 278 352
#     4  10  20  39  60  79 112 159 193 236 285 344
#     4  10  22  39  59  85 114 150 195 242 292 344
#     4   9  19  37  58  86 113 142 195 238 281 343
#     4   9  19  35  57  83 115 149 192 240 286 337
#     4  11  21  33  53  84 119 150 188 239 288 340
#
# _framework density 20.549382000000001
#
# number of rings (size 3 to 8) (size 9 to 14) (size 15 to 20)
#    0.414    1.793    1.379    1.655    0.000    3.034 
#    2.483    2.414    0.000    0.000    0.000    0.000 
#    0.000    0.000    0.000    0.000    0.000    0.000 
#
# Total GULP energy -161497.802157 kJ/mol
# GULP energy per Si atom -5568.889730 kJ/mol
# Density = 2.050261 g / cm^3
# Si number density = 20.549382 Si / 1000 Ang^3
#
#
#
# Elastic Constant Matrix: (Units=GPa)
#
#
# Indices 1 2 3 4 5 6 
#
# 1 122.6611 4.0773 68.0307 0.0000 -10.4364 0.0000
# 2 4.0773 17.7565 2.9752 0.0000 0.5766 0.0000
# 3 68.0307 2.9752 121.1109 0.0000 -14.5804 0.0000
# 4 0.0000 0.0000 0.0000 12.0007 0.0000 -5.1960
# 5 -10.4364 0.5766 -14.5804 0.0000 36.8966 0.0000
# 6 0.0000 0.0000 0.0000 -5.1960 0.0000 16.3820
#
#
#
# Elastic Compliance Matrix: (Units=1/GPa)
#
#
# Indices 1 2 3 4 5 6 
#
# 1 0.011911 -0.001663 -0.006553 0.000000 0.000806 0.000000
# 2 -0.001663 0.056862 -0.000658 0.000000 -0.001619 0.000000
# 3 -0.006553 -0.000658 0.012318 0.000000 0.003025 0.000000
# 4 0.000000 0.000000 0.000000 0.096594 0.000000 0.030637
# 5 0.000806 -0.001619 0.003025 0.000000 0.028551 0.000000
# 6 0.000000 0.000000 0.000000 0.030637 0.000000 0.070760
#
#
# Mechanical properties :
#
#
# Convention : Reuss Voigt Hill
#
# Bulk Modulus (GPa) = 15.78685 45.74389 30.76537
# Shear Modulus (GPa) = 15.82995 25.48554 20.65775
#
# Velocity S-wave (km/s) = 2.77851 3.52548 3.17404
# Velocity P-wave (km/s) = 4.24176 6.23545 5.33261
#
# Compressibility (1/GPa) = 0.06334386
#
# Stress axis : x y z
#
# Youngs Moduli (GPa) = 83.95888 17.58644 81.18259
#
# Poissons Ratio (x) = 0.02925 0.53196
# Poissons Ratio (y) = 0.13964 0.05338
# Poissons Ratio (z) = 0.55015 0.01156
#
# Static dielectric constant tensor:
#      x y z
#    x 1.721810 0.000000 -0.024580 
#    y 0.000000 1.783420 0.000000 
#    z -0.024580 0.000000 1.730490 
# 
# From -- ./inp_files/353071.got.cif
#   From: 2010.05.17/outbox.cif.g08.bks.cpg/sg12_177_cif.got.tgz:353071.got - 2010.06.03 13:09:07.
