data_PCOD9196913
_publ_section_title
;
Structure prediction by ZEFSAII (Michael W. Deem and Ramdas Pophale) SiO2 
 PCOD9196913
Probable space group: C 2/M
;
_chemical_formula_sum "Si O2"
_cell_formula_units_Z 56
_cell_length_a 16.325578
_cell_length_b 9.451168
_cell_length_c 20.778341
_cell_angle_alpha 90.000000
_cell_angle_beta 126.628925
_cell_angle_gamma 90.000000
_cell_volume 2572.875802
_symmetry_space_group_name_H-M "C 2/M"
_symmetry_group_IT_number 12
_symmetry_cell_setting 'monoclinic'
loop_
_space_group_symop_operation_xyz
x,y,z
-x,y,-z
-x,-y,-z
x,-y,z
1/2+x,1/2+y,z
1/2-x,1/2+y,-z
1/2-x,1/2-y,-z
1/2+x,1/2-y,z
loop_
_atom_site_type_symbol
_atom_site_label
_atom_site_fract_x
_atom_site_fract_y
_atom_site_fract_z
Si Si1 0.334810 0.666150 0.461698
Si Si2 0.934657 0.669533 0.247310
Si Si3 0.149019 0.837006 0.671916
Si Si4 0.360231 0.840004 0.825639
Si Si5 0.376928 0.660777 0.955217
Si Si6 0.900670 0.334388 0.091055
Si Si7 0.373996 0.666170 0.622933
O O1 0.301994 0.500000 0.445177
O O2 0.386273 0.692856 0.417030
O O3 0.397243 0.681942 0.557080
O O4 0.238281 0.769608 0.421354
O O5 0.944039 0.500000 0.253766
O O6 0.885161 0.732071 0.288437
O O7 0.877015 0.705821 0.153564
O O8 0.044906 0.744291 0.299394
O O9 0.272991 0.829533 0.731163
O O10 0.121068 0.000000 0.675622
O O11 0.335538 0.736181 0.872464
O O12 0.475533 0.819091 0.856069
O O13 0.356111 0.000000 0.849991
O O14 0.342037 0.500000 0.943357
O O15 0.500000 0.661636 0.000000
O O16 0.357539 0.741690 0.012733
O O17 0.877080 0.500000 0.069788
O O18 0.377005 0.500000 0.640426
#
# Coordination Sequence:
#
# PCOD9196913 Si02
#       7
#     8   8   8   8   8   8   8
#     4   9  19  37  59  82 108 138 175 219 264 312
#     4  11  23  37  53  76 109 144 179 220 264 312
#     4  10  21  37  55  76 106 143 181 218 261 314
#     4   9  17  32  55  77  99 133 174 214 259 314
#     4   9  17  29  49  79 108 130 161 213 266 309
#     4   9  18  34  55  76 100 135 176 215 259 312
#     4  10  20  35  58  84 108 137 175 219 265 314
#
# _framework density 21.765526999999999
#
# number of rings (size 3 to 8) (size 9 to 14) (size 15 to 20)
#    0.000    2.429    0.000    2.143    0.000    7.429 
#    0.000    6.429    0.000    0.000    0.000    0.000 
#    0.000    0.000    0.000    0.000    0.000    0.000 
#
# Total GULP energy -156431.344577 kJ/mol
# GULP energy per Si atom -5586.833735 kJ/mol
# Density = 2.171599 g / cm^3
# Si number density = 21.765527 Si / 1000 Ang^3
#
#
#
# Elastic Constant Matrix: (Units=GPa)
#
#
# Indices 1 2 3 4 5 6 
#
# 1 59.2912 32.6084 15.7370 0.0000 -16.3937 0.0000
# 2 32.6084 92.0566 65.4904 0.0000 -29.8494 0.0000
# 3 15.7370 65.4904 121.5577 0.0000 -29.5761 0.0000
# 4 0.0000 0.0000 0.0000 30.1718 0.0000 -5.0488
# 5 -16.3937 -29.8494 -29.5761 0.0000 43.1279 0.0000
# 6 0.0000 0.0000 0.0000 -5.0488 0.0000 25.9840
#
#
#
# Elastic Compliance Matrix: (Units=1/GPa)
#
#
# Indices 1 2 3 4 5 6 
#
# 1 0.021912 -0.008215 0.002679 0.000000 0.004481 0.000000
# 2 -0.008215 0.022541 -0.009656 0.000000 0.005857 0.000000
# 3 0.002679 -0.009656 0.014047 0.000000 0.003969 0.000000
# 4 0.000000 0.000000 0.000000 0.034257 0.000000 0.006656
# 5 0.004481 0.005857 0.003969 0.000000 0.031665 0.000000
# 6 0.000000 0.000000 0.000000 0.006656 0.000000 0.039779
#
#
# Mechanical properties :
#
#
# Convention : Reuss Voigt Hill
#
# Bulk Modulus (GPa) = 35.56464 55.61967 45.59216
# Shear Modulus (GPa) = 24.51508 30.46139 27.48824
#
# Velocity S-wave (km/s) = 3.35972 3.74508 3.55762
# Velocity P-wave (km/s) = 5.60586 6.65660 6.15370
#
# Compressibility (1/GPa) = 0.02811782
#
# Stress axis : x y z
#
# Youngs Moduli (GPa) = 45.63803 44.36377 71.18717
#
# Poissons Ratio (x) = 0.36443 -0.19073
# Poissons Ratio (y) = 0.37490 0.68736
# Poissons Ratio (z) = -0.12228 0.42836
#
# Static dielectric constant tensor:
#      x y z
#    x 1.861620 0.000000 0.014240 
#    y 0.000000 1.727120 0.000000 
#    z 0.014240 0.000000 1.768870 
# 
# From -- ./inp_files/313671.got.cif
#   From: 2010.05.17/outbox.cif.g08.bks.cpg/sg12_157_cif.got.tgz:313671.got - 2010.06.03 13:09:07.
