data_PCOD9196247
_publ_section_title
;
Structure prediction by ZEFSAII (Michael W. Deem and Ramdas Pophale) SiO2 
 PCOD9196247
Probable space group: C 2/M
;
_chemical_formula_sum "Si O2"
_cell_formula_units_Z 48
_cell_length_a 25.376914
_cell_length_b 7.863930
_cell_length_c 11.215471
_cell_angle_alpha 90.000000
_cell_angle_beta 70.859516
_cell_angle_gamma 90.000000
_cell_volume 2114.452389
_symmetry_space_group_name_H-M "C 2/M"
_symmetry_group_IT_number 12
_symmetry_cell_setting 'monoclinic'
loop_
_space_group_symop_operation_xyz
x,y,z
-x,y,-z
-x,-y,-z
x,-y,z
1/2+x,1/2+y,z
1/2-x,1/2+y,-z
1/2-x,1/2-y,-z
1/2+x,1/2-y,z
loop_
_atom_site_type_symbol
_atom_site_label
_atom_site_fract_x
_atom_site_fract_y
_atom_site_fract_z
Si Si1 0.915945 0.206320 0.737926
Si Si2 0.686056 0.702538 0.562986
Si Si3 0.983402 0.805777 0.192799
Si Si4 0.376132 0.292078 0.148436
Si Si5 0.685443 0.295614 0.044175
Si Si6 0.577692 0.807777 0.532021
O O1 0.935514 0.265168 0.594088
O O2 0.957416 0.268726 0.811790
O O3 0.918327 0.000000 0.735345
O O4 0.853177 0.260349 0.816706
O O5 0.680297 0.500000 0.555814
O O6 0.750000 0.750000 0.500000
O O7 0.662460 0.753557 0.710165
O O8 0.644094 0.786065 0.499947
O O9 0.939065 0.731442 0.131913
O O10 0.950136 0.805153 0.344287
O O11 0.994321 0.000000 0.147612
O O12 0.379263 0.500000 0.142718
O O13 0.345962 0.233568 0.051539
O O14 0.682864 0.500000 0.043483
O O15 0.750000 0.250000 0.000000
O O16 0.561021 0.000000 0.571416
#
# Coordination Sequence:
#
# PCOD9196247 Si02
#       6
#     8   8   8   8   8   8
#     4  10  21  36  57  84 113 149 190 232 284 342
#     4  10  20  35  56  83 113 148 189 233 284 336
#     4   9  18  36  60  84 112 145 183 236 293 340
#     4   8  17  35  57  80 109 142 181 230 278 332
#     4  10  22  39  57  81 112 148 189 231 279 338
#     4  11  22  35  54  83 117 151 187 231 283 338
#
# _framework density 22.700914000000001
#
# number of rings (size 3 to 8) (size 9 to 14) (size 15 to 20)
#    0.000    2.333    0.000    3.500    2.333    4.000 
#    0.000    6.667    0.000    0.000    0.000    7.000 
#    0.000    0.000    0.000    0.000    0.000    0.000 
#
# Total GULP energy -134059.932251 kJ/mol
# GULP energy per Si atom -5585.830510 kJ/mol
# Density = 2.264925 g / cm^3
# Si number density = 22.700914 Si / 1000 Ang^3
#
#
#
# Elastic Constant Matrix: (Units=GPa)
#
#
# Indices 1 2 3 4 5 6 
#
# 1 137.5057 -0.4466 40.2078 0.0000 -4.4349 0.0000
# 2 -0.4466 47.2465 8.0538 0.0000 2.3916 0.0000
# 3 40.2078 8.0538 77.2733 0.0000 10.0058 0.0000
# 4 0.0000 0.0000 0.0000 6.0999 0.0000 -5.3831
# 5 -4.4349 2.3916 10.0058 0.0000 42.9712 0.0000
# 6 0.0000 0.0000 0.0000 -5.3831 0.0000 16.8893
#
#
#
# Elastic Compliance Matrix: (Units=1/GPa)
#
#
# Indices 1 2 3 4 5 6 
#
# 1 0.008776 0.000819 -0.004911 0.000000 0.002004 0.000000
# 2 0.000819 0.021645 -0.002616 0.000000 -0.000511 0.000000
# 3 -0.004911 -0.002616 0.016308 0.000000 -0.004158 0.000000
# 4 0.000000 0.000000 0.000000 0.228093 0.000000 0.072700
# 5 0.002004 -0.000511 -0.004158 0.000000 0.024475 0.000000
# 6 0.000000 0.000000 0.000000 0.072700 0.000000 0.082380
#
#
# Mechanical properties :
#
#
# Convention : Reuss Voigt Hill
#
# Bulk Modulus (GPa) = 30.01913 39.73951 34.87932
# Shear Modulus (GPa) = 12.30931 27.47279 19.89105
#
# Velocity S-wave (km/s) = 2.33113 3.48258 2.96332
# Velocity P-wave (km/s) = 4.52747 5.80645 5.20638
#
# Compressibility (1/GPa) = 0.03331209
#
# Stress axis : x y z
#
# Youngs Moduli (GPa) = 113.95040 46.19982 61.32125
#
# Poissons Ratio (x) = -0.03782 0.30115
# Poissons Ratio (y) = -0.09329 0.16040
# Poissons Ratio (z) = 0.55962 0.12085
#
# Static dielectric constant tensor:
#      x y z
#    x 1.863210 0.000000 -0.003200 
#    y 0.000000 1.852610 0.000000 
#    z -0.003200 0.000000 1.838140 
# 
# From -- ./inp_files/172947.got.cif
#   From: 2010.05.17/outbox.cif.g08.bks.cpg/sg12_87_cif.got.tgz:172947.got - 2010.06.03 13:09:07.
