data_PCOD9196175
_publ_section_title
;
Structure prediction by ZEFSAII (Michael W. Deem and Ramdas Pophale) SiO2 
 PCOD9196175
Probable space group: C 2/M
;
_chemical_formula_sum "Si O2"
_cell_formula_units_Z 56
_cell_length_a 18.397945
_cell_length_b 8.405088
_cell_length_c 19.123566
_cell_angle_alpha 90.000000
_cell_angle_beta 76.183209
_cell_angle_gamma 90.000000
_cell_volume 2871.629878
_symmetry_space_group_name_H-M "C 2/M"
_symmetry_group_IT_number 12
_symmetry_cell_setting 'monoclinic'
loop_
_space_group_symop_operation_xyz
x,y,z
-x,y,-z
-x,-y,-z
x,-y,z
1/2+x,1/2+y,z
1/2-x,1/2+y,-z
1/2-x,1/2-y,-z
1/2+x,1/2-y,z
loop_
_atom_site_type_symbol
_atom_site_label
_atom_site_fract_x
_atom_site_fract_y
_atom_site_fract_z
Si Si1 0.154951 0.690858 0.712386
Si Si2 0.010354 0.190740 0.286756
Si Si3 0.797324 0.694206 0.143599
Si Si4 0.059476 0.307505 0.427629
Si Si5 0.629853 0.692333 0.142978
Si Si6 0.726844 0.190662 0.428902
Si Si7 0.416289 0.192435 0.999386
O O1 0.155789 0.500000 0.711726
O O2 0.072067 0.747772 0.712370
O O3 0.178237 0.746018 0.784711
O O4 0.214166 0.750872 0.641983
O O5 0.035675 0.247877 0.357131
O O6 0.069757 0.246180 0.214574
O O7 0.009437 0.000000 0.286358
O O8 0.797455 0.500000 0.143696
O O9 0.713454 0.746210 0.143926
O O10 0.856660 0.746104 0.071401
O O11 0.058980 0.500000 0.426725
O O12 0.143115 0.254146 0.428365
O O13 0.000000 0.255208 0.500000
O O14 0.630110 0.500000 0.142984
O O15 0.607039 0.749874 0.071646
O O16 0.750000 0.250000 0.500000
O O17 0.726607 0.000000 0.429577
O O18 0.416178 0.000000 0.999188
O O19 0.500000 0.245586 0.000000
#
# Coordination Sequence:
#
# PCOD9196175 Si02
#       7
#     8   8   8   8   8   8   8
#     4  11  22  39  62  84 114 155 194 237 291 344
#     4  11  23  38  58  85 116 150 193 242 290 345
#     4   9  19  36  57  81 111 149 191 234 284 344
#     4  10  22  40  61  86 116 151 191 234 282 338
#     4  10  21  37  56  81 113 147 186 234 287 341
#     4  11  23  39  61  90 122 154 192 236 282 339
#     4  10  20  35  56  82 111 146 190 234 279 339
#
# _framework density 19.501121999999999
#
# number of rings (size 3 to 8) (size 9 to 14) (size 15 to 20)
#    0.000    1.714    0.000    4.286    0.000    6.286 
#    0.000    2.857    0.000    0.000    0.000    0.000 
#    0.000    0.000    0.000    0.000    0.000    0.000 
#
# Total GULP energy -156550.296691 kJ/mol
# GULP energy per Si atom -5591.082025 kJ/mol
# Density = 1.945674 g / cm^3
# Si number density = 19.501122 Si / 1000 Ang^3
#
#
#
# Elastic Constant Matrix: (Units=GPa)
#
#
# Indices 1 2 3 4 5 6 
#
# 1 248.3532 33.4603 152.2486 0.0000 -0.8338 0.0000
# 2 33.4603 18.6210 30.8910 0.0000 -2.1394 0.0000
# 3 152.2486 30.8910 246.3407 0.0000 -1.3107 0.0000
# 4 0.0000 0.0000 0.0000 25.0271 0.0000 12.3146
# 5 -0.8338 -2.1394 -1.3107 0.0000 47.1350 0.0000
# 6 0.0000 0.0000 0.0000 12.3146 0.0000 10.9070
#
#
#
# Elastic Compliance Matrix: (Units=1/GPa)
#
#
# Indices 1 2 3 4 5 6 
#
# 1 0.007134 -0.006989 -0.003534 0.000000 -0.000289 0.000000
# 2 -0.006989 0.075040 -0.005074 0.000000 0.003141 0.000000
# 3 -0.003534 -0.005074 0.006879 0.000000 -0.000102 0.000000
# 4 0.000000 0.000000 0.000000 0.089902 0.000000 -0.101505
# 5 -0.000289 0.003141 -0.000102 0.000000 0.021350 0.000000
# 6 0.000000 0.000000 0.000000 -0.101505 0.000000 0.206289
#
#
# Mechanical properties :
#
#
# Convention : Reuss Voigt Hill
#
# Bulk Modulus (GPa) = 17.28341 105.16828 61.22584
# Shear Modulus (GPa) = 10.93915 36.39480 23.66698
#
# Velocity S-wave (km/s) = 2.37101 4.32475 3.48749
# Velocity P-wave (km/s) = 4.04692 8.88731 6.90514
#
# Compressibility (1/GPa) = 0.05785896
#
# Stress axis : x y z
#
# Youngs Moduli (GPa) = 140.18095 13.32631 145.36453
#
# Poissons Ratio (x) = 0.09314 0.51372
# Poissons Ratio (y) = 0.97974 0.73753
# Poissons Ratio (z) = 0.49540 0.06761
#
# Static dielectric constant tensor:
#      x y z
#    x 1.653890 0.000000 -0.013640 
#    y 0.000000 1.673220 0.000000 
#    z -0.013640 0.000000 1.638400 
# 
# From -- ./inp_files/275076.got.cif
#   From: 2010.05.17/outbox.cif.g08.bks.cpg/sg12_138_cif.got.tgz:275076.got - 2010.06.03 13:09:07.
