data_PCOD9196386
_publ_section_title
;
Structure prediction by ZEFSAII (Michael W. Deem and Ramdas Pophale) SiO2 
 PCOD9196386
Probable space group: C 2/M
;
_chemical_formula_sum "Si O2"
_cell_formula_units_Z 56
_cell_length_a 22.826153
_cell_length_b 8.114322
_cell_length_c 15.514842
_cell_angle_alpha 90.000000
_cell_angle_beta 66.498256
_cell_angle_gamma 90.000000
_cell_volume 2635.265382
_symmetry_space_group_name_H-M "C 2/M"
_symmetry_group_IT_number 12
_symmetry_cell_setting 'monoclinic'
loop_
_space_group_symop_operation_xyz
x,y,z
-x,y,-z
-x,-y,-z
x,-y,z
1/2+x,1/2+y,z
1/2-x,1/2+y,-z
1/2-x,1/2-y,-z
1/2+x,1/2-y,z
loop_
_atom_site_type_symbol
_atom_site_label
_atom_site_fract_x
_atom_site_fract_y
_atom_site_fract_z
Si Si1 0.324440 0.198107 0.446092
Si Si2 0.454491 0.311553 0.103128
Si Si3 0.783450 0.699710 0.107521
Si Si4 0.329490 0.811631 0.250525
Si Si5 0.650602 0.695164 0.095582
Si Si6 0.481112 0.187317 0.771405
Si Si7 0.542957 0.302793 0.557276
O O1 0.250000 0.250000 0.500000
O O2 0.340082 0.259631 0.339125
O O3 0.381130 0.258636 0.476855
O O4 0.327651 0.000000 0.448325
O O5 0.434611 0.500000 0.096056
O O6 0.394486 0.198585 0.158439
O O7 0.492717 0.305924 0.169873
O O8 0.500000 0.253639 0.000000
O O9 0.788830 0.500000 0.105949
O O10 0.782747 0.763235 0.206397
O O11 0.716791 0.741902 0.102243
O O12 0.838751 0.766454 0.011881
O O13 0.309559 0.000000 0.277348
O O14 0.639905 0.500000 0.112156
O O15 0.594395 0.793443 0.174120
O O16 0.508865 0.233100 0.662635
O O17 0.500903 0.000000 0.779468
O O18 0.500000 0.246602 0.500000
O O19 0.539549 0.500000 0.560440
#
# Coordination Sequence:
#
# PCOD9196386 Si02
#       7
#     8   8   8   8   8   8   8
#     4  11  24  43  68  98 131 171 219 275 337 401
#     4  11  23  37  58  90 125 162 205 253 307 371
#     4   9  19  36  57  83 120 164 208 255 309 375
#     4  10  21  38  60  87 119 159 204 253 313 377
#     4  10  20  35  56  85 123 166 209 255 307 371
#     4  12  24  39  61  89 123 163 206 257 315 382
#     4  11  25  46  71  97 128 168 216 277 343 404
#
# _framework density 21.250229999999998
#
# number of rings (size 3 to 8) (size 9 to 14) (size 15 to 20)
#    0.000    1.429    1.429    3.857    0.000    7.429 
#    0.000    2.857    0.000    0.000    0.000    0.000 
#    0.000    0.000    0.000    0.000    0.000    0.000 
#
# Total GULP energy -156206.396314 kJ/mol
# GULP energy per Si atom -5578.799868 kJ/mol
# Density = 2.120186 g / cm^3
# Si number density = 21.250230 Si / 1000 Ang^3
#
#
#
# Elastic Constant Matrix: (Units=GPa)
#
#
# Indices 1 2 3 4 5 6 
#
# 1 115.5035 11.1290 43.4457 0.0000 14.4519 0.0000
# 2 11.1290 44.3947 4.5126 0.0000 -0.3593 0.0000
# 3 43.4457 4.5126 85.3046 0.0000 13.0484 0.0000
# 4 0.0000 0.0000 0.0000 27.1689 0.0000 -5.1931
# 5 14.4519 -0.3593 13.0484 0.0000 32.6138 0.0000
# 6 0.0000 0.0000 0.0000 -5.1931 0.0000 32.0539
#
#
#
# Elastic Compliance Matrix: (Units=1/GPa)
#
#
# Indices 1 2 3 4 5 6 
#
# 1 0.011172 -0.002304 -0.005120 0.000000 -0.002927 0.000000
# 2 -0.002304 0.023141 -0.000262 0.000000 0.001381 0.000000
# 3 -0.005120 -0.000262 0.014910 0.000000 -0.003699 0.000000
# 4 0.000000 0.000000 0.000000 0.037983 0.000000 0.006154
# 5 -0.002927 0.001381 -0.003699 0.000000 0.033454 0.000000
# 6 0.000000 0.000000 0.000000 0.006154 0.000000 0.032194
#
#
# Mechanical properties :
#
#
# Convention : Reuss Voigt Hill
#
# Bulk Modulus (GPa) = 29.54163 40.37528 34.95846
# Shear Modulus (GPa) = 27.85359 30.77502 29.31431
#
# Velocity S-wave (km/s) = 3.62435 3.80968 3.71817
# Velocity P-wave (km/s) = 5.60772 6.19618 5.90928
#
# Compressibility (1/GPa) = 0.03385053
#
# Stress axis : x y z
#
# Youngs Moduli (GPa) = 89.51008 43.21422 67.06830
#
# Poissons Ratio (x) = 0.09956 0.34340
# Poissons Ratio (y) = 0.20622 0.01757
# Poissons Ratio (z) = 0.45831 0.01132
#
# Static dielectric constant tensor:
#      x y z
#    x 1.889250 0.000000 0.026490 
#    y 0.000000 1.752350 0.000000 
#    z 0.026490 0.000000 1.764610 
# 
# From -- ./inp_files/238425.got.cif
#   From: 2010.05.17/outbox.cif.g08.bks.cpg/sg12_120_cif.got.tgz:238425.got - 2010.06.03 13:09:07.
