data_PCOD9196718
_publ_section_title
;
Structure prediction by ZEFSAII (Michael W. Deem and Ramdas Pophale) SiO2 
 PCOD9196718
Probable space group: C 2/M
;
_chemical_formula_sum "Si O2"
_cell_formula_units_Z 56
_cell_length_a 7.742017
_cell_length_b 27.040745
_cell_length_c 17.042905
_cell_angle_alpha 90.000000
_cell_angle_beta 43.246739
_cell_angle_gamma 90.000000
_cell_volume 2444.537434
_symmetry_space_group_name_H-M "C 2/M"
_symmetry_group_IT_number 12
_symmetry_cell_setting 'monoclinic'
loop_
_space_group_symop_operation_xyz
x,y,z
-x,y,-z
-x,-y,-z
x,-y,z
1/2+x,1/2+y,z
1/2-x,1/2+y,-z
1/2-x,1/2-y,-z
1/2+x,1/2-y,z
loop_
_atom_site_type_symbol
_atom_site_label
_atom_site_fract_x
_atom_site_fract_y
_atom_site_fract_z
Si Si1 0.192577 0.795436 0.800886
Si Si2 0.343228 0.872948 0.631220
Si Si3 0.565085 0.947690 0.146275
Si Si4 0.250359 0.399938 0.627629
Si Si5 0.134428 0.316437 0.779630
Si Si6 0.241901 0.863933 0.999474
Si Si7 0.602572 0.442872 0.178893
O O1 0.212503 0.824218 0.711090
O O2 0.407354 0.807640 0.793179
O O3 0.223202 0.737738 0.772681
O O4 0.940950 0.817673 0.924953
O O5 0.500000 0.866339 0.500000
O O6 0.551045 0.883612 0.628628
O O7 0.134020 0.916687 0.699195
O O8 0.391500 0.942840 0.279474
O O9 0.357333 0.945521 0.145838
O O10 0.698745 0.000000 0.098507
O O11 0.738207 0.899270 0.084905
O O12 0.500000 0.414176 0.500000
O O13 0.300766 0.356255 0.676054
O O14 0.020397 0.340095 0.897120
O O15 0.167637 0.905897 0.086441
O O16 0.542809 0.500000 0.176560
#
# Coordination Sequence:
#
# PCOD9196718 Si02
#       7
#     8   8   8   8   8   8   8
#     4  10  22  38  58  85 116 151 191 234 283 339
#     4  10  22  40  60  84 114 149 190 235 284 338
#     4  10  21  37  59  87 116 149 190 234 282 336
#     4  10  22  40  60  84 114 149 190 235 284 338
#     4  10  22  38  58  85 116 151 191 234 283 339
#     4  10  20  35  57  85 117 149 185 231 277 331
#     4  10  21  37  59  87 116 149 190 234 282 336
#
# _framework density 22.908218999999999
#
# number of rings (size 3 to 8) (size 9 to 14) (size 15 to 20)
#    0.000    2.000    0.000    2.571    0.000   10.857 
#    0.000    2.857    0.000    8.571    0.000    0.000 
#    0.000    0.000    0.000    0.000    0.000    0.000 
#
# Total GULP energy -156233.248435 kJ/mol
# GULP energy per Si atom -5579.758873 kJ/mol
# Density = 2.285608 g / cm^3
# Si number density = 22.908219 Si / 1000 Ang^3
#
#
#
# Elastic Constant Matrix: (Units=GPa)
#
#
# Indices 1 2 3 4 5 6 
#
# 1 41.7843 16.8048 17.3880 0.0000 4.1958 -0.0001
# 2 16.8048 127.4916 21.4782 0.0000 12.5680 0.0000
# 3 17.3880 21.4782 139.9809 -0.0001 8.4487 -0.0002
# 4 0.0000 0.0000 -0.0001 36.0321 0.0000 39.4521
# 5 4.1958 12.5680 8.4487 0.0000 33.4088 0.0001
# 6 -0.0001 0.0000 -0.0002 39.4521 0.0001 96.6043
#
#
#
# Elastic Compliance Matrix: (Units=1/GPa)
#
#
# Indices 1 2 3 4 5 6 
#
# 1 0.026381 -0.002863 -0.002745 0.000000 -0.001542 0.000000
# 2 -0.002863 0.008621 -0.000805 0.000000 -0.002680 0.000000
# 3 -0.002745 -0.000805 0.007687 0.000000 -0.001296 0.000000
# 4 0.000000 0.000000 0.000000 0.050200 0.000000 -0.020501
# 5 -0.001542 -0.002680 -0.001296 0.000000 0.031462 0.000000
# 6 0.000000 0.000000 0.000000 -0.020501 0.000000 0.018724
#
#
# Mechanical properties :
#
#
# Convention : Reuss Voigt Hill
#
# Bulk Modulus (GPa) = 33.48686 46.73321 40.11004
# Shear Modulus (GPa) = 30.14705 50.11478 40.13091
#
# Velocity S-wave (km/s) = 3.63160 4.68229 4.19001
# Velocity P-wave (km/s) = 5.67752 7.04814 6.39963
#
# Compressibility (1/GPa) = 0.02986246
#
# Stress axis : x y z
#
# Youngs Moduli (GPa) = 37.90639 115.99752 130.09715
#
# Poissons Ratio (x) = 0.33209 0.35706
# Poissons Ratio (y) = 0.10852 0.10478
# Poissons Ratio (z) = 0.10404 0.09342
#
# Static dielectric constant tensor:
#      x y z
#    x 1.930470 0.000000 0.005550 
#    y 0.000000 1.860360 0.000000 
#    z 0.005550 0.000000 1.907570 
# 
# From -- ./inp_files/259802.got.cif
#   From: 2010.05.17/outbox.cif.g08.bks.cpg/sg12_130_cif.got.tgz:259802.got - 2010.06.03 13:09:07.
