data_PCOD9196135
_publ_section_title
;
Structure prediction by ZEFSAII (Michael W. Deem and Ramdas Pophale) SiO2 
 PCOD9196135
Probable space group: C 2/M
;
_chemical_formula_sum "Si O2"
_cell_formula_units_Z 56
_cell_length_a 12.601881
_cell_length_b 13.179707
_cell_length_c 19.177673
_cell_angle_alpha 90.000000
_cell_angle_beta 111.943247
_cell_angle_gamma 90.000000
_cell_volume 2954.448716
_symmetry_space_group_name_H-M "C 2/M"
_symmetry_group_IT_number 12
_symmetry_cell_setting 'monoclinic'
loop_
_space_group_symop_operation_xyz
x,y,z
-x,y,-z
-x,-y,-z
x,-y,z
1/2+x,1/2+y,z
1/2-x,1/2+y,-z
1/2-x,1/2-y,-z
1/2+x,1/2-y,z
loop_
_atom_site_type_symbol
_atom_site_label
_atom_site_fract_x
_atom_site_fract_y
_atom_site_fract_z
Si Si1 0.873636 0.175297 0.450442
Si Si2 0.106463 0.882485 0.298678
Si Si3 0.698152 0.618879 0.045635
Si Si4 0.645016 0.621882 0.715261
Si Si5 0.436222 0.798293 0.054526
Si Si6 0.338238 0.743554 0.821075
Si Si7 0.286873 0.887601 0.467960
O O1 0.848866 0.159472 0.363128
O O2 0.775008 0.124057 0.472752
O O3 0.868129 0.293103 0.472434
O O4 0.000000 0.134640 0.500000
O O5 0.159162 0.820762 0.248589
O O6 0.185510 0.876826 0.386211
O O7 0.979262 0.847239 0.286396
O O8 0.098877 0.000000 0.276029
O O9 0.669605 0.500000 0.040355
O O10 0.827342 0.635954 0.049846
O O11 0.687845 0.672494 0.118676
O O12 0.614813 0.686203 0.976073
O O13 0.652293 0.500000 0.716973
O O14 0.742841 0.670991 0.786762
O O15 0.535811 0.789460 0.135521
O O16 0.500000 0.835175 0.000000
O O17 0.337569 0.000000 0.473645
#
# Coordination Sequence:
#
# PCOD9196135 Si02
#       7
#     8   8   8   8   8   8   8
#     4  11  21  37  60  81 111 151 195 246 288 340
#     4  10  20  35  56  81 112 148 188 235 284 338
#     4  10  21  39  63  90 116 150 192 229 275 336
#     4  11  23  37  56  84 114 151 196 239 289 340
#     4   9  21  39  60  87 119 150 185 232 276 333
#     4  11  21  38  57  84 121 151 187 231 284 338
#     4  10  21  36  56  84 111 144 192 240 292 343
#
# _framework density 18.954467000000001
#
# number of rings (size 3 to 8) (size 9 to 14) (size 15 to 20)
#    0.000    1.714    2.857    1.714    0.000    4.857 
#    0.000    8.571    0.000    0.857    0.000    0.000 
#    0.000    0.000    0.000    0.000    0.000    0.000 
#
# Total GULP energy -156342.747336 kJ/mol
# GULP energy per Si atom -5583.669548 kJ/mol
# Density = 1.891133 g / cm^3
# Si number density = 18.954467 Si / 1000 Ang^3
#
#
#
# Elastic Constant Matrix: (Units=GPa)
#
#
# Indices 1 2 3 4 5 6 
#
# 1 74.4439 7.5131 4.4290 0.0000 0.9043 0.0000
# 2 7.5131 62.5323 7.6896 0.0000 -8.7379 0.0000
# 3 4.4290 7.6896 40.1231 0.0000 5.5921 0.0000
# 4 0.0000 0.0000 0.0000 17.9404 0.0000 1.9903
# 5 0.9043 -8.7379 5.5921 0.0000 24.1924 0.0000
# 6 0.0000 0.0000 0.0000 1.9903 0.0000 13.2304
#
#
#
# Elastic Compliance Matrix: (Units=1/GPa)
#
#
# Indices 1 2 3 4 5 6 
#
# 1 0.013672 -0.001629 -0.001079 0.000000 -0.000850 0.000000
# 2 -0.001629 0.017754 -0.004262 0.000000 0.007458 0.000000
# 3 -0.001079 -0.004262 0.026936 0.000000 -0.007725 0.000000
# 4 0.000000 0.000000 0.000000 0.056686 0.000000 -0.008528
# 5 -0.000850 0.007458 -0.007725 0.000000 0.045847 0.000000
# 6 0.000000 0.000000 0.000000 -0.008528 0.000000 0.076866
#
#
# Mechanical properties :
#
#
# Convention : Reuss Voigt Hill
#
# Bulk Modulus (GPa) = 22.51116 24.04030 23.27573
# Shear Modulus (GPa) = 18.76120 21.57048 20.16584
#
# Velocity S-wave (km/s) = 3.14953 3.37711 3.26530
# Velocity P-wave (km/s) = 5.01281 5.28367 5.15002
#
# Compressibility (1/GPa) = 0.04442241
#
# Stress axis : x y z
#
# Youngs Moduli (GPa) = 73.14319 56.32612 37.12510
#
# Poissons Ratio (x) = 0.09174 0.04004
# Poissons Ratio (y) = 0.11913 0.15824
# Poissons Ratio (z) = 0.07889 0.24008
#
# Static dielectric constant tensor:
#      x y z
#    x 1.649900 0.000000 -0.007040 
#    y 0.000000 1.660130 0.000000 
#    z -0.007040 0.000000 1.639500 
# 
# From -- ./inp_files/262825.got.cif
#   From: 2010.05.17/outbox.cif.g08.bks.cpg/sg12_132_cif.got.tgz:262825.got - 2010.06.03 13:09:07.
