data_PCOD9196380
_publ_section_title
;
Structure prediction by ZEFSAII (Michael W. Deem and Ramdas Pophale) SiO2 
 PCOD9196380
Probable space group: C 2/M
;
_chemical_formula_sum "Si O2"
_cell_formula_units_Z 64
_cell_length_a 30.232322
_cell_length_b 8.750551
_cell_length_c 18.816319
_cell_angle_alpha 90.000000
_cell_angle_beta 139.779971
_cell_angle_gamma 90.000000
_cell_volume 3214.318720
_symmetry_space_group_name_H-M "C 2/M"
_symmetry_group_IT_number 12
_symmetry_cell_setting 'monoclinic'
loop_
_space_group_symop_operation_xyz
x,y,z
-x,y,-z
-x,-y,-z
x,-y,z
1/2+x,1/2+y,z
1/2-x,1/2+y,-z
1/2-x,1/2-y,-z
1/2+x,1/2-y,z
loop_
_atom_site_type_symbol
_atom_site_label
_atom_site_fract_x
_atom_site_fract_y
_atom_site_fract_z
Si Si1 0.399627 0.185182 0.511272
Si Si2 0.192317 0.683849 0.876447
Si Si3 0.544026 0.816244 0.755000
Si Si4 0.593507 0.681939 0.217886
Si Si5 0.188754 0.180954 0.715061
Si Si6 0.945720 0.817524 0.076053
Si Si7 0.675150 0.684156 0.174553
Si Si8 0.819463 0.681116 0.552991
O O1 0.475679 0.233413 0.629313
O O2 0.375950 0.253684 0.407558
O O3 0.346229 0.232364 0.508347
O O4 0.397959 0.000000 0.504920
O O5 0.197199 0.500000 0.883140
O O6 0.116212 0.730079 0.809011
O O7 0.199669 0.743736 0.805385
O O8 0.250000 0.750000 0.000000
O O9 0.543673 0.757088 0.834846
O O10 0.542220 0.000000 0.754008
O O11 0.601323 0.500000 0.241656
O O12 0.512942 0.712580 0.111026
O O13 0.637715 0.717074 0.202782
O O14 0.621745 0.774534 0.319160
O O15 0.254392 0.229527 0.749134
O O16 0.184004 0.000000 0.716485
O O17 0.941470 0.000000 0.080211
O O18 0.876990 0.769425 0.951934
O O19 0.686345 0.500000 0.184889
O O20 0.810363 0.500000 0.537749
O O21 0.750000 0.750000 0.500000
#
# Coordination Sequence:
#
# PCOD9196380 Si02
#       8
#     8   8   8   8   8   8   8   8
#     4  10  22  42  63  85 119 162 204 249 305 365
#     4  11  24  44  70  97 127 161 200 248 303 367
#     4  10  22  41  65  91 120 159 205 251 304 368
#     4  10  20  35  56  85 120 158 203 250 303 364
#     4  12  26  42  62  91 124 158 203 255 306 362
#     4  10  20  35  59  89 122 159 201 251 304 362
#     4  10  21  38  59  85 121 165 207 250 305 366
#     4  11  22  36  57  83 118 161 207 255 304 359
#
# _framework density 19.910907000000002
#
# number of rings (size 3 to 8) (size 9 to 14) (size 15 to 20)
#    0.000    1.500    1.250    3.750    0.000   10.500 
#    0.000    2.500    0.000    2.250    0.000    0.000 
#    0.000    0.000    0.000    0.000    0.000    0.000 
#
# Total GULP energy -178859.736306 kJ/mol
# GULP energy per Si atom -5589.366760 kJ/mol
# Density = 1.986559 g / cm^3
# Si number density = 19.910907 Si / 1000 Ang^3
#
#
#
# Elastic Constant Matrix: (Units=GPa)
#
#
# Indices 1 2 3 4 5 6 
#
# 1 87.9979 33.7915 47.0385 0.0000 7.8114 0.0000
# 2 33.7915 30.7043 33.9564 0.0000 0.5620 0.0000
# 3 47.0385 33.9564 134.5668 0.0000 -11.4972 0.0000
# 4 0.0000 0.0000 0.0000 34.3056 0.0000 -1.2564
# 5 7.8114 0.5620 -11.4972 0.0000 29.7924 0.0000
# 6 0.0000 0.0000 0.0000 -1.2564 0.0000 23.4108
#
#
#
# Elastic Compliance Matrix: (Units=1/GPa)
#
#
# Indices 1 2 3 4 5 6 
#
# 1 0.021120 -0.019934 -0.002889 0.000000 -0.006276 0.000000
# 2 -0.019934 0.064856 -0.009364 0.000000 0.000389 0.000000
# 3 -0.002889 -0.009364 0.011255 0.000000 0.005277 0.000000
# 4 0.000000 0.000000 0.000000 0.029207 0.000000 0.001568
# 5 -0.006276 0.000389 0.005277 0.000000 0.037241 0.000000
# 6 0.000000 0.000000 0.000000 0.001568 0.000000 0.042799
#
#
# Mechanical properties :
#
#
# Convention : Reuss Voigt Hill
#
# Bulk Modulus (GPa) = 30.43511 53.64911 42.04211
# Shear Modulus (GPa) = 17.74282 26.73394 22.23838
#
# Velocity S-wave (km/s) = 2.98839 3.66823 3.34562
# Velocity P-wave (km/s) = 5.21786 6.70405 6.00710
#
# Compressibility (1/GPa) = 0.03285679
#
# Stress axis : x y z
#
# Youngs Moduli (GPa) = 47.34886 15.41878 88.84997
#
# Poissons Ratio (x) = 0.30736 0.25666
# Poissons Ratio (y) = 0.94384 0.83203
# Poissons Ratio (z) = 0.13678 0.14439
#
# Static dielectric constant tensor:
#      x y z
#    x 1.709350 0.000000 0.024120 
#    y 0.000000 1.673020 0.000000 
#    z 0.024120 0.000000 1.701180 
# 
# From -- ./inp_files/295729.got.cif
#   From: 2010.05.17/outbox.cif.g08.bks.cpg/sg12_148_cif.got.tgz:295729.got - 2010.06.03 13:09:07.
