data_PCOD9196954
_publ_section_title
;
Structure prediction by ZEFSAII (Michael W. Deem and Ramdas Pophale) SiO2 
 PCOD9196954
Probable space group: C 2/M
;
_chemical_formula_sum "Si O2"
_cell_formula_units_Z 56
_cell_length_a 29.431159
_cell_length_b 23.385545
_cell_length_c 12.597945
_cell_angle_alpha 90.000000
_cell_angle_beta 20.884053
_cell_angle_gamma 90.000000
_cell_volume 3090.916446
_symmetry_space_group_name_H-M "C 2/M"
_symmetry_group_IT_number 12
_symmetry_cell_setting 'monoclinic'
loop_
_space_group_symop_operation_xyz
x,y,z
-x,y,-z
-x,-y,-z
x,-y,z
1/2+x,1/2+y,z
1/2-x,1/2+y,-z
1/2-x,1/2-y,-z
1/2+x,1/2-y,z
loop_
_atom_site_type_symbol
_atom_site_label
_atom_site_fract_x
_atom_site_fract_y
_atom_site_fract_z
Si Si1 0.137126 0.430743 0.164212
Si Si2 0.711899 0.362226 0.780571
Si Si3 0.356076 0.068426 0.295241
Si Si4 0.253526 0.068528 0.293243
Si Si5 0.459794 0.353195 0.209002
Si Si6 0.855827 0.260319 0.362751
Si Si7 0.643965 0.568786 0.141903
O O1 0.129913 0.500000 0.176553
O O2 0.000000 0.408973 0.500000
O O3 0.165453 0.411281 0.983331
O O4 0.253144 0.418337 0.990268
O O5 0.764808 0.411609 0.587695
O O6 0.811052 0.310760 0.539418
O O7 0.580305 0.340233 0.017716
O O8 0.683002 0.391068 0.957159
O O9 0.306238 0.089780 0.290717
O O10 0.357892 0.000000 0.287560
O O11 0.500000 0.088345 0.000000
O O12 0.112358 0.092229 0.588448
O O13 0.253777 0.000000 0.294355
O O14 0.368403 0.298703 0.399795
O O15 0.500000 0.365644 0.000000
O O16 0.750000 0.250000 0.500000
O O17 0.000000 0.269738 0.000000
O O18 0.500000 0.578417 0.500000
O O19 0.653427 0.500000 0.095367
#
# Coordination Sequence:
#
# PCOD9196954 Si02
#       7
#     8   8   8   8   8   8   8
#     4   9  19  36  56  80 114 158 203 240 283 349
#     4  12  22  37  62  87 118 158 201 251 305 364
#     4  10  21  33  50  87 126 154 186 239 310 371
#     4  10  20  35  58  84 120 159 191 243 307 364
#     4  11  21  37  55  85 120 150 193 242 294 368
#     4  11  21  40  61  86 120 159 202 246 303 365
#     4  10  22  40  62  90 123 162 205 248 300 364
#
# _framework density 18.117602999999999
#
# number of rings (size 3 to 8) (size 9 to 14) (size 15 to 20)
#    0.000    1.571    4.286    1.714    2.000    2.571 
#    0.000    0.000    0.000    4.286    0.000    0.000 
#    0.000    0.000    0.000    0.000    0.000    0.000 
#
# Total GULP energy -156080.897948 kJ/mol
# GULP energy per Si atom -5574.317784 kJ/mol
# Density = 1.807637 g / cm^3
# Si number density = 18.117603 Si / 1000 Ang^3
#
#
#
# Elastic Constant Matrix: (Units=GPa)
#
#
# Indices 1 2 3 4 5 6 
#
# 1 64.7539 17.5702 53.0032 -0.0003 4.2243 0.0000
# 2 17.5702 39.6074 31.6879 0.0008 6.0669 -0.0002
# 3 53.0032 31.6879 116.0984 0.0022 6.8378 -0.0002
# 4 -0.0003 0.0008 0.0022 26.9046 -0.0002 0.3004
# 5 4.2243 6.0669 6.8378 -0.0002 39.6199 0.0000
# 6 0.0000 -0.0002 -0.0002 0.3004 0.0000 16.6626
#
#
#
# Elastic Compliance Matrix: (Units=1/GPa)
#
#
# Indices 1 2 3 4 5 6 
#
# 1 0.024855 -0.002432 -0.010658 0.000001 -0.000438 0.000000
# 2 -0.002432 0.033016 -0.007697 0.000000 -0.003468 0.000000
# 3 -0.010658 -0.007697 0.015602 -0.000001 -0.000378 0.000000
# 4 0.000001 0.000000 -0.000001 0.037176 0.000000 -0.000670
# 5 -0.000438 -0.003468 -0.000378 0.000000 0.025883 0.000000
# 6 0.000000 0.000000 0.000000 -0.000670 0.000000 0.060027
#
#
# Mechanical properties :
#
#
# Convention : Reuss Voigt Hill
#
# Bulk Modulus (GPa) = 31.34811 47.22025 39.28418
# Shear Modulus (GPa) = 20.09930 24.51730 22.30830
#
# Velocity S-wave (km/s) = 3.33435 3.68262 3.51280
# Velocity P-wave (km/s) = 5.67133 6.64846 6.17924
#
# Compressibility (1/GPa) = 0.03189985
#
# Stress axis : x y z
#
# Youngs Moduli (GPa) = 40.23285 30.28860 64.09434
#
# Poissons Ratio (x) = 0.07367 0.68310
# Poissons Ratio (y) = 0.09785 0.49331
# Poissons Ratio (z) = 0.42879 0.23312
#
# Static dielectric constant tensor:
#      x y z
#    x 1.619370 0.000000 -0.039310 
#    y 0.000000 1.629510 0.000000 
#    z -0.039310 0.000000 1.639820 
# 
# From -- ./inp_files/190423.got.cif
#   From: 2010.05.17/outbox.cif.g08.bks.cpg/sg12_96_cif.got.tgz:190423.got - 2010.06.03 13:09:07.
