data_PCOD9196439
_publ_section_title
;
Structure prediction by ZEFSAII (Michael W. Deem and Ramdas Pophale) SiO2 
 PCOD9196439
Probable space group: C 2/M
;
_chemical_formula_sum "Si O2"
_cell_formula_units_Z 64
_cell_length_a 18.819471
_cell_length_b 7.512416
_cell_length_c 31.295471
_cell_angle_alpha 90.000000
_cell_angle_beta 41.989175
_cell_angle_gamma 90.000000
_cell_volume 2959.976632
_symmetry_space_group_name_H-M "C 2/M"
_symmetry_group_IT_number 12
_symmetry_cell_setting 'monoclinic'
loop_
_space_group_symop_operation_xyz
x,y,z
-x,y,-z
-x,-y,-z
x,-y,z
1/2+x,1/2+y,z
1/2-x,1/2+y,-z
1/2-x,1/2-y,-z
1/2+x,1/2-y,z
loop_
_atom_site_type_symbol
_atom_site_label
_atom_site_fract_x
_atom_site_fract_y
_atom_site_fract_z
Si Si1 0.328368 0.284733 0.575516
Si Si2 0.120386 0.785086 0.939337
Si Si3 0.499429 0.716750 0.431604
Si Si4 0.286889 0.786571 0.935517
Si Si5 0.912996 0.793563 0.298952
Si Si6 0.199692 0.711509 0.808696
Si Si7 0.024591 0.705000 0.822561
Si Si8 0.559595 0.281610 0.310678
O O1 0.325416 0.500000 0.576906
O O2 0.399698 0.230042 0.584423
O O3 0.393925 0.227268 0.504260
O O4 0.208826 0.220228 0.632221
O O5 0.201635 0.718418 0.939225
O O6 0.162993 0.738622 0.873515
O O7 0.117153 0.000000 0.943639
O O8 0.000000 0.720357 0.000000
O O9 0.498951 0.500000 0.431787
O O10 0.511859 0.775551 0.377489
O O11 0.406385 0.715896 0.875826
O O12 0.290226 0.000000 0.927748
O O13 0.250000 0.750000 0.000000
O O14 0.930561 0.705823 0.245306
O O15 0.989455 0.722104 0.301897
O O16 0.940206 0.000000 0.280420
O O17 0.206758 0.500000 0.797118
O O18 0.110879 0.786094 0.816179
O O19 0.318827 0.779302 0.748037
O O20 0.011020 0.500000 0.842802
O O21 0.557985 0.500000 0.311154
#
# Coordination Sequence:
#
# PCOD9196439 Si02
#       8
#     8   8   8   8   8   8   8   8
#     4   9  17  32  56  79  98 130 175 215 251 297
#     4  10  21  36  53  76 109 143 169 201 254 314
#     4   8  15  31  55  77  98 132 175 212 249 299
#     4  10  21  36  55  80 108 138 173 214 258 303
#     4  11  22  33  49  75 106 138 167 204 260 313
#     4  10  20  35  57  79  98 129 174 219 256 293
#     4  10  21  37  56  77 101 132 175 221 256 295
#     4   9  18  32  49  73 104 133 166 209 255 305
#
# _framework density 21.621791999999999
#
# number of rings (size 3 to 8) (size 9 to 14) (size 15 to 20)
#    0.000    2.375    0.000    3.375    0.000    4.250 
#    0.000    1.875    0.000    3.000    0.000    0.000 
#    0.000    0.000    0.000    0.000    0.000    0.000 
#
# Total GULP energy -178797.055823 kJ/mol
# GULP energy per Si atom -5587.407994 kJ/mol
# Density = 2.157258 g / cm^3
# Si number density = 21.621792 Si / 1000 Ang^3
#
#
#
# Elastic Constant Matrix: (Units=GPa)
#
#
# Indices 1 2 3 4 5 6 
#
# 1 204.9697 -1.9788 106.6044 -0.0022 -4.5397 -0.0046
# 2 -1.9788 53.9292 -14.4108 -0.0527 -5.8473 -0.0443
# 3 106.6044 -14.4108 150.5550 0.0040 -8.3060 0.0052
# 4 -0.0022 -0.0527 0.0040 9.9269 -0.0009 -11.8741
# 5 -4.5397 -5.8473 -8.3060 -0.0009 43.1639 -0.0010
# 6 -0.0046 -0.0443 0.0052 -11.8741 -0.0010 -30.8952
#
#
#
# Elastic Compliance Matrix: (Units=1/GPa)
#
#
# Indices 1 2 3 4 5 6 
#
# 1 0.007809 -0.001278 -0.005676 -0.000002 -0.000444 0.000001
# 2 -0.001278 0.019620 0.002954 0.000048 0.003092 -0.000046
# 3 -0.005676 0.002954 0.011050 0.000006 0.001930 -0.000004
# 4 -0.000002 0.000048 0.000006 0.069011 0.000008 -0.026523
# 5 -0.000444 0.003092 0.001930 0.000008 0.023911 -0.000008
# 6 0.000001 -0.000046 -0.000004 -0.026523 -0.000008 -0.022174
#
#
# Mechanical properties :
#
#
# Convention : Reuss Voigt Hill
#
# Bulk Modulus (GPa) = 32.81025 65.54262 49.17643
# Shear Modulus (GPa) = 39.25022 25.72174 32.48598
#
# Velocity S-wave (km/s) = 4.26527 3.45283 3.88037
# Velocity P-wave (km/s) = 6.28206 6.80258 6.54749
#
# Compressibility (1/GPa) = 0.03047828
#
# Stress axis : x y z
#
# Youngs Moduli (GPa) = 128.06282 50.96720 90.49522
#
# Poissons Ratio (x) = 0.06515 0.51365
# Poissons Ratio (y) = 0.16371 -0.26730
# Poissons Ratio (z) = 0.72688 -0.15055
#
# Static dielectric constant tensor:
#      x y z
#    x 1.762180 0.000000 -0.019380 
#    y 0.000000 1.855870 0.000000 
#    z -0.019380 0.000000 1.732180 
# 
# From -- ./inp_files/378013.got.cif
#   From: 2010.05.17/outbox.cif.g08.bks.cpg/sg12_190_cif.got.tgz:378013.got - 2010.06.03 13:09:07.
