data_PCOD9196013
_publ_section_title
;
Structure prediction by ZEFSAII (Michael W. Deem and Ramdas Pophale) SiO2 
 PCOD9196013
Probable space group: C 2/M
;
_chemical_formula_sum "Si O2"
_cell_formula_units_Z 56
_cell_length_a 16.542596
_cell_length_b 8.275805
_cell_length_c 22.668469
_cell_angle_alpha 90.000000
_cell_angle_beta 47.875587
_cell_angle_gamma 90.000000
_cell_volume 2301.752333
_symmetry_space_group_name_H-M "C 2/M"
_symmetry_group_IT_number 12
_symmetry_cell_setting 'monoclinic'
loop_
_space_group_symop_operation_xyz
x,y,z
-x,y,-z
-x,-y,-z
x,-y,z
1/2+x,1/2+y,z
1/2-x,1/2+y,-z
1/2-x,1/2-y,-z
1/2+x,1/2-y,z
loop_
_atom_site_type_symbol
_atom_site_label
_atom_site_fract_x
_atom_site_fract_y
_atom_site_fract_z
Si Si1 0.566886 0.810152 0.158870
Si Si2 0.394242 0.317845 0.982133
Si Si3 0.125702 0.805155 0.450642
Si Si4 0.654973 0.692247 0.692496
Si Si5 0.857574 0.693656 0.746163
Si Si6 0.129420 0.684843 0.883796
Si Si7 0.583138 0.306439 0.598318
O O1 0.626448 0.725856 0.075394
O O2 0.437208 0.773036 0.222360
O O3 0.608392 0.760760 0.203132
O O4 0.582938 0.000000 0.144757
O O5 0.359936 0.500000 0.012062
O O6 0.525656 0.297589 0.922880
O O7 0.349483 0.205827 0.056150
O O8 0.217809 0.731159 0.363811
O O9 0.141150 0.746212 0.510859
O O10 0.000000 0.765037 0.500000
O O11 0.135983 0.000000 0.442791
O O12 0.638711 0.500000 0.704055
O O13 0.626961 0.753905 0.639581
O O14 0.855239 0.500000 0.742603
O O15 0.737516 0.763648 0.796759
O O16 0.955073 0.763210 0.659264
O O17 0.099130 0.500000 0.886378
O O18 0.592963 0.500000 0.593793
#
# Coordination Sequence:
#
# PCOD9196013 Si02
#       7
#     8   8   8   8   8   8   8
#     4  10  21  38  59  83 112 146 185 228 279 335
#     4  11  22  38  59  83 113 146 186 232 276 327
#     4  10  21  36  54  78 109 143 180 224 274 330
#     4  10  20  35  56  80 107 141 182 227 274 326
#     4  10  21  37  58  84 112 144 186 234 279 326
#     4  11  22  38  59  82 113 151 188 225 274 333
#     4   9  19  36  56  78 106 143 184 225 275 332
#
# _framework density 24.329291000000001
#
# number of rings (size 3 to 8) (size 9 to 14) (size 15 to 20)
#    0.000    1.857    0.000    5.143    0.000    4.857 
#    0.000    4.286    0.000    0.000    0.000    0.000 
#    0.000    0.000    0.000    0.000    0.000    0.000 
#
# Total GULP energy -156724.073005 kJ/mol
# GULP energy per Si atom -5597.288322 kJ/mol
# Density = 2.427392 g / cm^3
# Si number density = 24.329291 Si / 1000 Ang^3
#
#
#
# Elastic Constant Matrix: (Units=GPa)
#
#
# Indices 1 2 3 4 5 6 
#
# 1 51.4779 -1.3849 14.1422 0.0000 -2.9014 0.0001
# 2 -1.3849 27.4316 -3.0847 0.0001 4.9515 0.0003
# 3 14.1422 -3.0847 128.0898 0.0000 -12.0459 0.0000
# 4 0.0000 0.0001 0.0000 26.7182 0.0000 -4.0884
# 5 -2.9014 4.9515 -12.0459 0.0000 48.3558 0.0000
# 6 0.0001 0.0003 0.0000 -4.0884 0.0000 15.0616
#
#
#
# Elastic Compliance Matrix: (Units=1/GPa)
#
#
# Indices 1 2 3 4 5 6 
#
# 1 0.020066 0.000663 -0.002143 0.000000 0.000602 0.000000
# 2 0.000663 0.037200 0.000479 0.000000 -0.003650 -0.000001
# 3 -0.002143 0.000479 0.008231 0.000000 0.001873 0.000000
# 4 0.000000 0.000000 0.000000 0.039050 0.000000 0.010600
# 5 0.000602 -0.003650 0.001873 0.000000 0.021556 0.000000
# 6 0.000000 -0.000001 0.000000 0.010600 0.000000 0.069271
#
#
# Mechanical properties :
#
#
# Convention : Reuss Voigt Hill
#
# Bulk Modulus (GPa) = 15.74859 25.14942 20.44900
# Shear Modulus (GPa) = 22.87893 31.18223 27.03058
#
# Velocity S-wave (km/s) = 3.06990 3.58393 3.33683
# Velocity P-wave (km/s) = 4.36496 5.24267 4.82382
#
# Compressibility (1/GPa) = 0.06349776
#
# Stress axis : x y z
#
# Youngs Moduli (GPa) = 49.83477 26.88138 121.48775
#
# Poissons Ratio (x) = -0.01783 0.26033
# Poissons Ratio (y) = -0.03306 -0.05824
# Poissons Ratio (z) = 0.10679 -0.01289
#
# Static dielectric constant tensor:
#      x y z
#    x 2.068280 0.000000 0.009160 
#    y 0.000000 1.818350 0.000000 
#    z 0.009160 0.000000 1.907420 
# 
# From -- ./inp_files/363031.got.cif
#   From: 2010.05.17/outbox.cif.g08.bks.cpg/sg12_182_cif.got.tgz:363031.got - 2010.06.03 13:09:07.
