data_PCOD9196302
_publ_section_title
;
Structure prediction by ZEFSAII (Michael W. Deem and Ramdas Pophale) SiO2 
 PCOD9196302
Probable space group: C 2/M
;
_chemical_formula_sum "Si O2"
_cell_formula_units_Z 44
_cell_length_a 28.895245
_cell_length_b 12.559487
_cell_length_c 11.267055
_cell_angle_alpha 90.000000
_cell_angle_beta 40.266297
_cell_angle_gamma 90.000000
_cell_volume 2642.837326
_symmetry_space_group_name_H-M "C 2/M"
_symmetry_group_IT_number 12
_symmetry_cell_setting 'monoclinic'
loop_
_space_group_symop_operation_xyz
x,y,z
-x,y,-z
-x,-y,-z
x,-y,z
1/2+x,1/2+y,z
1/2-x,1/2+y,-z
1/2-x,1/2-y,-z
1/2+x,1/2-y,z
loop_
_atom_site_type_symbol
_atom_site_label
_atom_site_fract_x
_atom_site_fract_y
_atom_site_fract_z
Si Si1 0.865971 0.627504 0.633832
Si Si2 0.159785 0.374044 0.049014
Si Si3 0.500000 0.270270 0.000000
Si Si4 0.493002 0.874129 0.779198
Si Si5 0.242679 0.744940 0.319908
Si Si6 0.843206 0.127568 0.311300
O O1 0.865376 0.500000 0.641747
O O2 0.846752 0.666712 0.803194
O O3 0.944785 0.658284 0.434312
O O4 0.810556 0.666438 0.644072
O O5 0.176451 0.500000 0.019269
O O6 0.083239 0.361950 0.134667
O O7 0.217181 0.313692 0.857637
O O8 0.501980 0.195538 0.112414
O O9 0.426587 0.338101 0.146191
O O10 0.502519 0.000000 0.789106
O O11 0.196500 0.820359 0.497366
O O12 0.300791 0.680128 0.283614
O O13 0.836495 0.000000 0.324102
#
# Coordination Sequence:
#
# PCOD9196302 Si02
#       6
#     8   8   4   8   8   8
#     4  10  20  35  57  83 111 143 178 221 271 325
#     4  10  20  35  57  83 111 143 178 221 271 325
#     4  12  20  40  56  78 108 148 190 220 276 318
#     4  10  20  35  56  84 111 140 184 227 268 322
#     4  11  21  38  56  82 113 139 180 224 278 327
#     4  11  24  38  57  80 108 146 185 229 271 323
#
# _framework density 16.648772999999998
#
# number of rings (size 3 to 8) (size 9 to 14) (size 15 to 20)
#    0.000    1.455    3.636    2.727    0.000    2.182 
#    0.000    0.000    0.000    0.000    0.000    2.545 
#    0.000    0.000    0.000    0.000    0.000    0.000 
#
# Total GULP energy -122791.852593 kJ/mol
# GULP energy per Si atom -5581.447845 kJ/mol
# Density = 1.661088 g / cm^3
# Si number density = 16.648773 Si / 1000 Ang^3
#
#
#
# Elastic Constant Matrix: (Units=GPa)
#
#
# Indices 1 2 3 4 5 6 
#
# 1 33.2087 21.7882 15.0570 0.0000 9.8386 0.0000
# 2 21.7882 49.2402 34.9089 0.0000 10.4320 0.0000
# 3 15.0570 34.9089 111.3565 0.0000 7.2245 0.0000
# 4 0.0000 0.0000 0.0000 21.7724 0.0000 11.6260
# 5 9.8386 10.4320 7.2245 0.0000 35.5972 0.0000
# 6 0.0000 0.0000 0.0000 11.6260 0.0000 12.4375
#
#
#
# Elastic Compliance Matrix: (Units=1/GPa)
#
#
# Indices 1 2 3 4 5 6 
#
# 1 0.043957 -0.018125 0.000184 0.000000 -0.006875 0.000000
# 2 -0.018125 0.034947 -0.008274 0.000000 -0.003553 0.000000
# 3 0.000184 -0.008274 0.011547 0.000000 0.000030 0.000000
# 4 0.000000 0.000000 0.000000 0.091702 0.000000 -0.085719
# 5 -0.006875 -0.003553 0.000030 0.000000 0.031027 0.000000
# 6 0.000000 0.000000 0.000000 -0.085719 0.000000 0.160529
#
#
# Mechanical properties :
#
#
# Convention : Reuss Voigt Hill
#
# Bulk Modulus (GPa) = 26.30027 37.47929 31.88978
# Shear Modulus (GPa) = 11.39435 22.09816 16.74626
#
# Velocity S-wave (km/s) = 2.61893 3.64719 3.17496
# Velocity P-wave (km/s) = 4.99765 6.34796 5.71284
#
# Compressibility (1/GPa) = 0.03802243
#
# Stress axis : x y z
#
# Youngs Moduli (GPa) = 22.74927 28.61449 86.60110
#
# Poissons Ratio (x) = 0.51863 -0.01595
# Poissons Ratio (y) = 0.41232 0.71657
# Poissons Ratio (z) = -0.00419 0.23677
#
# Static dielectric constant tensor:
#      x y z
#    x 1.536350 0.000000 0.003540 
#    y 0.000000 1.531160 0.000000 
#    z 0.003540 0.000000 1.554930 
# 
# From -- ./inp_files/103005.got.cif
#   From: 2010.05.17/outbox.cif.g08.bks.cpg/sg12_52_cif.got.tgz:103005.got - 2010.06.03 13:09:07.
