data_PCOD9196785
_publ_section_title
;
Structure prediction by ZEFSAII (Michael W. Deem and Ramdas Pophale) SiO2 
 PCOD9196785
Probable space group: C 2/M
;
_chemical_formula_sum "Si O2"
_cell_formula_units_Z 56
_cell_length_a 21.225280
_cell_length_b 8.838375
_cell_length_c 29.639165
_cell_angle_alpha 90.000000
_cell_angle_beta 31.004045
_cell_angle_gamma 90.000000
_cell_volume 2864.060425
_symmetry_space_group_name_H-M "C 2/M"
_symmetry_group_IT_number 12
_symmetry_cell_setting 'monoclinic'
loop_
_space_group_symop_operation_xyz
x,y,z
-x,y,-z
-x,-y,-z
x,-y,z
1/2+x,1/2+y,z
1/2-x,1/2+y,-z
1/2-x,1/2-y,-z
1/2+x,1/2-y,z
loop_
_atom_site_type_symbol
_atom_site_label
_atom_site_fract_x
_atom_site_fract_y
_atom_site_fract_z
Si Si1 0.096012 0.820398 0.901756
Si Si2 0.144848 0.820053 0.279221
Si Si3 0.492589 0.822849 0.293772
Si Si4 0.254998 0.180926 0.546988
Si Si5 0.493984 0.817683 0.556313
Si Si6 0.653073 0.325913 0.122876
Si Si7 0.598406 0.675352 0.053806
O O1 0.224179 0.734934 0.820076
O O2 0.024171 0.798981 0.898857
O O3 0.120505 0.000000 0.893268
O O4 0.000000 0.774477 0.000000
O O5 0.113357 0.757344 0.348311
O O6 0.041980 0.751011 0.309403
O O7 0.138777 0.000000 0.282423
O O8 0.367496 0.744300 0.355090
O O9 0.594322 0.787065 0.194255
O O10 0.473974 0.000000 0.312167
O O11 0.250000 0.250000 0.500000
O O12 0.377437 0.222863 0.498684
O O13 0.250276 0.000000 0.547003
O O14 0.500000 0.774881 0.500000
O O15 0.479604 0.000000 0.567600
O O16 0.639174 0.500000 0.146446
O O17 0.589943 0.308113 0.112727
O O18 0.794576 0.284609 0.028805
O O19 0.635876 0.500000 0.022227
#
# Coordination Sequence:
#
# PCOD9196785 Si02
#       7
#     8   8   8   8   8   8   8
#     4  10  21  38  61  87 120 163 206 247 299 369
#     4  12  25  40  62  91 124 159 202 259 314 370
#     4  12  24  39  61  87 119 158 204 253 305 368
#     4  11  22  39  65  93 122 157 200 252 305 361
#     4  10  23  44  68  93 126 169 210 251 308 378
#     4  10  20  35  57  86 119 155 200 253 303 358
#     4   9  19  36  57  83 119 161 200 244 302 365
#
# _framework density 19.552659999999999
#
# number of rings (size 3 to 8) (size 9 to 14) (size 15 to 20)
#    0.000    1.429    1.429    4.286    0.000    4.571 
#    0.000    5.714    0.000    0.000    0.000    0.000 
#    0.000    0.000    0.000    0.000    0.000    0.000 
#
# Total GULP energy -156486.713096 kJ/mol
# GULP energy per Si atom -5588.811182 kJ/mol
# Density = 1.950816 g / cm^3
# Si number density = 19.552660 Si / 1000 Ang^3
#
#
#
# Elastic Constant Matrix: (Units=GPa)
#
#
# Indices 1 2 3 4 5 6 
#
# 1 85.7760 41.4411 39.1904 -0.0001 -7.6777 0.0006
# 2 41.4411 73.6268 37.8363 -0.0002 -2.1123 0.0014
# 3 39.1904 37.8363 90.5953 0.0000 5.4570 0.0002
# 4 -0.0001 -0.0002 0.0000 38.3575 0.0000 1.1399
# 5 -7.6777 -2.1123 5.4570 0.0000 20.2295 -0.0001
# 6 0.0006 0.0014 0.0002 1.1399 -0.0001 21.3223
#
#
#
# Elastic Compliance Matrix: (Units=1/GPa)
#
#
# Indices 1 2 3 4 5 6 
#
# 1 0.018325 -0.007368 -0.005309 0.000000 0.007618 0.000000
# 2 -0.007368 0.020550 -0.005445 0.000000 0.000818 -0.000001
# 3 -0.005309 -0.005445 0.016025 0.000000 -0.006906 0.000000
# 4 0.000000 0.000000 0.000000 0.026112 0.000000 -0.001396
# 5 0.007618 0.000818 -0.006906 0.000000 0.054272 0.000000
# 6 0.000000 -0.000001 0.000000 -0.001396 0.000000 0.046974
#
#
# Mechanical properties :
#
#
# Convention : Reuss Voigt Hill
#
# Bulk Modulus (GPa) = 53.59830 54.10375 53.85102
# Shear Modulus (GPa) = 22.24979 24.75055 23.50017
#
# Velocity S-wave (km/s) = 3.37700 3.56173 3.47059
# Velocity P-wave (km/s) = 6.53279 6.68172 6.60767
#
# Compressibility (1/GPa) = 0.01865731
#
# Stress axis : x y z
#
# Youngs Moduli (GPa) = 54.56921 48.66071 62.40340
#
# Poissons Ratio (x) = 0.35851 0.33131
# Poissons Ratio (y) = 0.40204 0.33978
# Poissons Ratio (z) = 0.28972 0.26495
#
# Static dielectric constant tensor:
#      x y z
#    x 1.685530 0.000000 0.009820 
#    y 0.000000 1.658950 0.000000 
#    z 0.009820 0.000000 1.711920 
# 
# From -- ./inp_files/380665.got.cif
#   From: 2010.05.17/outbox.cif.g08.bks.cpg/sg12_191_cif.got.tgz:380665.got - 2010.06.03 13:09:07.
