data_PCOD9196588
_publ_section_title
;
Structure prediction by ZEFSAII (Michael W. Deem and Ramdas Pophale) SiO2 
 PCOD9196588
Probable space group: C 2/M
;
_chemical_formula_sum "Si O2"
_cell_formula_units_Z 64
_cell_length_a 18.218722
_cell_length_b 11.531192
_cell_length_c 32.704616
_cell_angle_alpha 90.000000
_cell_angle_beta 152.127648
_cell_angle_gamma 90.000000
_cell_volume 3212.076258
_symmetry_space_group_name_H-M "C 2/M"
_symmetry_group_IT_number 12
_symmetry_cell_setting 'monoclinic'
loop_
_space_group_symop_operation_xyz
x,y,z
-x,y,-z
-x,-y,-z
x,-y,z
1/2+x,1/2+y,z
1/2-x,1/2+y,-z
1/2-x,1/2-y,-z
1/2+x,1/2-y,z
loop_
_atom_site_type_symbol
_atom_site_label
_atom_site_fract_x
_atom_site_fract_y
_atom_site_fract_z
Si Si1 0.958129 0.753039 0.435601
Si Si2 0.788345 0.363358 0.575516
Si Si3 0.778824 0.864023 0.843593
Si Si4 0.137600 0.367997 0.296382
Si Si5 0.309506 0.132102 0.909013
Si Si6 0.619983 0.252468 0.882265
Si Si7 0.590029 0.372661 0.951142
Si Si8 0.067302 0.636921 0.660147
O O1 0.821609 0.844739 0.378516
O O2 0.894746 0.680892 0.366151
O O3 0.000000 0.694043 0.500000
O O4 0.120762 0.806304 0.499858
O O5 0.762406 0.500000 0.555893
O O6 0.882023 0.352986 0.664609
O O7 0.902511 0.315250 0.596840
O O8 0.748658 0.749317 0.855944
O O9 0.694644 0.844677 0.758355
O O10 0.963751 0.859312 0.924612
O O11 0.742845 0.000000 0.839057
O O12 0.099215 0.500000 0.266583
O O13 0.028866 0.280903 0.217961
O O14 0.230564 0.151175 0.914790
O O15 0.266003 0.000000 0.873378
O O16 0.500000 0.135494 0.000000
O O17 0.570133 0.287058 0.903363
O O18 0.738591 0.145249 0.945882
O O19 0.567864 0.500000 0.922836
O O20 0.047285 0.500000 0.647228
#
# Coordination Sequence:
#
# PCOD9196588 Si02
#       8
#     8   8   8   8   8   8   8   8
#     4  10  20  35  57  83 115 149 184 236 302 364
#     4   9  18  34  56  81 110 145 186 239 298 354
#     4  10  21  39  61  87 118 157 204 248 288 342
#     4  10  20  35  57  84 110 143 195 249 294 343
#     4  11  23  40  60  87 122 158 194 243 301 351
#     4  11  21  36  57  81 112 154 193 238 290 348
#     4  10  21  36  54  79 111 151 198 242 284 339
#     4  10  20  35  57  83 115 153 196 244 288 345
#
# _framework density 19.924807999999999
#
# number of rings (size 3 to 8) (size 9 to 14) (size 15 to 20)
#    0.000    1.875    1.250    3.000    0.000    4.000 
#    0.000    3.750    0.000    8.250    0.000    0.000 
#    0.000    0.000    0.000    0.000    0.000    0.000 
#
# Total GULP energy -178304.377458 kJ/mol
# GULP energy per Si atom -5572.011796 kJ/mol
# Density = 1.987946 g / cm^3
# Si number density = 19.924808 Si / 1000 Ang^3
#
#
#
# Elastic Constant Matrix: (Units=GPa)
#
#
# Indices 1 2 3 4 5 6 
#
# 1 73.9391 22.7818 2.1989 0.0000 -5.1501 0.0000
# 2 22.7818 72.8351 14.3427 0.0000 -10.8793 0.0000
# 3 2.1989 14.3427 44.7990 -0.0003 -0.3898 0.0000
# 4 0.0000 0.0000 -0.0003 14.2485 -0.0001 -2.8967
# 5 -5.1501 -10.8793 -0.3898 -0.0001 28.6542 0.0000
# 6 0.0000 0.0000 0.0000 -2.8967 0.0000 23.0937
#
#
#
# Elastic Compliance Matrix: (Units=1/GPa)
#
#
# Indices 1 2 3 4 5 6 
#
# 1 0.015018 -0.004714 0.000780 0.000000 0.000920 0.000000
# 2 -0.004714 0.017054 -0.005180 0.000000 0.005557 0.000000
# 3 0.000780 -0.005180 0.023929 0.000001 -0.001501 0.000000
# 4 0.000000 0.000000 0.000001 0.072020 0.000000 0.009034
# 5 0.000920 0.005557 -0.001501 0.000000 0.037154 0.000000
# 6 0.000000 0.000000 0.000000 0.009034 0.000000 0.044435
#
#
# Mechanical properties :
#
#
# Convention : Reuss Voigt Hill
#
# Bulk Modulus (GPa) = 26.47367 30.02444 28.24906
# Shear Modulus (GPa) = 20.79621 23.34926 22.07273
#
# Velocity S-wave (km/s) = 3.23419 3.42697 3.33198
# Velocity P-wave (km/s) = 5.22133 5.54621 5.38622
#
# Compressibility (1/GPa) = 0.03777338
#
# Stress axis : x y z
#
# Youngs Moduli (GPa) = 66.58746 58.63664 41.79014
#
# Poissons Ratio (x) = 0.27638 -0.03259
# Poissons Ratio (y) = 0.31386 0.21649
# Poissons Ratio (z) = -0.05193 0.30376
#
# Static dielectric constant tensor:
#      x y z
#    x 1.752560 0.000000 0.000370 
#    y 0.000000 1.693880 0.000000 
#    z 0.000370 0.000000 1.721460 
# 
# From -- ./inp_files/296493.got.cif
#   From: 2010.05.17/outbox.cif.g08.bks.cpg/sg12_149_cif.got.tgz:296493.got - 2010.06.03 13:09:07.
