data_PCOD9196127
_publ_section_title
;
Structure prediction by ZEFSAII (Michael W. Deem and Ramdas Pophale) SiO2 
 PCOD9196127
Probable space group: C 2/M
;
_chemical_formula_sum "Si O2"
_cell_formula_units_Z 64
_cell_length_a 22.665307
_cell_length_b 13.514815
_cell_length_c 17.094442
_cell_angle_alpha 90.000000
_cell_angle_beta 26.578892
_cell_angle_gamma 90.000000
_cell_volume 2342.887298
_symmetry_space_group_name_H-M "C 2/M"
_symmetry_group_IT_number 12
_symmetry_cell_setting 'monoclinic'
loop_
_space_group_symop_operation_xyz
x,y,z
-x,y,-z
-x,-y,-z
x,-y,z
1/2+x,1/2+y,z
1/2-x,1/2+y,-z
1/2-x,1/2-y,-z
1/2+x,1/2-y,z
loop_
_atom_site_type_symbol
_atom_site_label
_atom_site_fract_x
_atom_site_fract_y
_atom_site_fract_z
Si Si1 0.576242 0.891727 0.039089
Si Si2 0.316948 0.638337 0.517436
Si Si3 0.211337 0.392808 0.307294
Si Si4 0.390512 0.891223 0.823372
Si Si5 0.899342 0.169698 0.833753
Si Si6 0.649272 0.670633 0.345524
Si Si7 0.766885 0.635688 0.543536
Si Si8 0.530804 0.318793 0.071448
O O1 0.540205 0.893720 0.174011
O O2 0.733831 0.870051 0.847093
O O3 0.548359 0.000000 0.039061
O O4 0.509035 0.797139 0.078350
O O5 0.469213 0.608370 0.334497
O O6 0.293304 0.636358 0.637473
O O7 0.228729 0.597865 0.551078
O O8 0.316542 0.752259 0.489999
O O9 0.179772 0.500000 0.308633
O O10 0.149908 0.291171 0.347816
O O11 0.176927 0.400995 0.440141
O O12 0.367752 0.371846 0.106743
O O13 0.234255 0.885811 0.024156
O O14 0.413621 0.000000 0.758042
O O15 0.411154 0.775330 0.773053
O O16 0.897202 0.187085 0.929780
O O17 0.500000 0.638899 0.500000
O O18 0.609249 0.631946 0.748017
#
# Coordination Sequence:
#
# PCOD9196127 Si02
#       8
#     8   8   8   8   8   8   8   8
#     4   9  18  33  53  77 104 137 179 223 267 316
#     4   9  18  34  54  75 104 139 176 217 263 315
#     4  10  21  36  55  80 109 143 184 226 267 315
#     4   9  17  30  50  74 101 135 173 213 259 312
#     4   9  17  31  49  73 104 135 170 214 262 314
#     4  10  20  35  56  81 111 146 180 218 269 325
#     4   9  18  34  56  75  99 140 181 219 266 314
#     4   9  18  32  53  77 102 133 174 224 273 315
#
# _framework density 27.316724000000001
#
# number of rings (size 3 to 8) (size 9 to 14) (size 15 to 20)
#    0.000    2.750    0.000    1.125    0.000    3.000 
#    0.000    5.625    0.000   24.000    0.000    0.000 
#    0.000    0.000    0.000    0.000    0.000    0.000 
#
# Total GULP energy -178534.425705 kJ/mol
# GULP energy per Si atom -5579.200803 kJ/mol
# Density = 2.725455 g / cm^3
# Si number density = 27.316724 Si / 1000 Ang^3
#
#
#
# Elastic Constant Matrix: (Units=GPa)
#
#
# Indices 1 2 3 4 5 6 
#
# 1 129.7068 9.5538 18.0275 0.0000 9.2099 0.0000
# 2 9.5538 176.9705 1.4954 0.0000 11.7485 0.0000
# 3 18.0275 1.4954 61.9873 0.0000 -11.6422 0.0000
# 4 0.0000 0.0000 0.0000 -29.5157 0.0000 11.7405
# 5 9.2099 11.7485 -11.6422 0.0000 54.2679 0.0000
# 6 0.0000 0.0000 0.0000 11.7405 0.0000 -23.6351
#
#
#
# Elastic Compliance Matrix: (Units=1/GPa)
#
#
# Indices 1 2 3 4 5 6 
#
# 1 0.008251 -0.000294 -0.002755 0.000000 -0.001928 0.000000
# 2 -0.000294 0.005752 -0.000289 0.000000 -0.001258 0.000000
# 3 -0.002755 -0.000289 0.017755 0.000000 0.004339 0.000000
# 4 0.000000 0.000000 0.000000 -0.042223 0.000000 -0.020974
# 5 -0.001928 -0.001258 0.004339 0.000000 0.019957 0.000000
# 6 0.000000 0.000000 0.000000 -0.020974 0.000000 -0.052728
#
#
# Mechanical properties :
#
#
# Convention : Reuss Voigt Hill
#
# Bulk Modulus (GPa) = 39.86821 47.42422 43.64622
# Shear Modulus (GPa) = -177.31788 22.86261 -77.22763
#
# Velocity S-wave (km/s) = -8.06553 2.89614 -5.32283
# Velocity P-wave (km/s) = 8.49179 5.34622 4.66521
#
# Compressibility (1/GPa) = 0.02508264
#
# Stress axis : x y z
#
# Youngs Moduli (GPa) = 121.19620 173.83845 56.32096
#
# Poissons Ratio (x) = 0.05114 0.15514
# Poissons Ratio (y) = 0.03566 0.01630
# Poissons Ratio (z) = 0.33384 0.05031
#
# Static dielectric constant tensor:
#      x y z
#    x 2.187910 0.000000 0.002590 
#    y 0.000000 2.237470 0.000000 
#    z 0.002590 0.000000 2.138430 
# 
# From -- ./inp_files/290118.got.cif
#   From: 2010.05.17/outbox.cif.g08.bks.cpg/sg12_146_cif.got.tgz:290118.got - 2010.06.03 13:09:07.
