data_PCOD9196662
_publ_section_title
;
Structure prediction by ZEFSAII (Michael W. Deem and Ramdas Pophale) SiO2 
 PCOD9196662
Probable space group: C 2/M
;
_chemical_formula_sum "Si O2"
_cell_formula_units_Z 56
_cell_length_a 8.473695
_cell_length_b 17.786282
_cell_length_c 20.131697
_cell_angle_alpha 90.000000
_cell_angle_beta 118.219187
_cell_angle_gamma 90.000000
_cell_volume 2673.534824
_symmetry_space_group_name_H-M "C 2/M"
_symmetry_group_IT_number 12
_symmetry_cell_setting 'monoclinic'
loop_
_space_group_symop_operation_xyz
x,y,z
-x,y,-z
-x,-y,-z
x,-y,z
1/2+x,1/2+y,z
1/2-x,1/2+y,-z
1/2-x,1/2-y,-z
1/2+x,1/2-y,z
loop_
_atom_site_type_symbol
_atom_site_label
_atom_site_fract_x
_atom_site_fract_y
_atom_site_fract_z
Si Si1 0.557401 0.377556 0.308062
Si Si2 0.286747 0.823528 0.965070
Si Si3 0.083341 0.084579 0.589214
Si Si4 0.305133 0.912218 0.234415
Si Si5 0.302413 0.154286 0.820495
Si Si6 0.870199 0.295592 0.696989
Si Si7 0.203676 0.412085 0.911503
O O1 0.567218 0.411760 0.383098
O O2 0.683253 0.406527 0.274868
O O3 0.354919 0.395059 0.242677
O O4 0.589368 0.287445 0.321146
O O5 0.228128 0.819666 0.877097
O O6 0.500000 0.833694 0.000000
O O7 0.250000 0.750000 0.000000
O O8 0.214780 0.884471 0.002700
O O9 0.212336 0.155515 0.631493
O O10 0.000000 0.092805 0.500000
O O11 0.166997 0.000000 0.609555
O O12 0.464324 0.852893 0.274919
O O13 0.217307 0.890707 0.145075
O O14 0.364259 0.000000 0.239720
O O15 0.331383 0.215174 0.768322
O O16 0.495164 0.115159 0.867063
O O17 0.205781 0.500000 0.915781
#
# Coordination Sequence:
#
# PCOD9196662 Si02
#       7
#     8   8   8   8   8   8   8
#     4  11  22  36  61  88 117 149 193 243 281 347
#     4  10  22  34  53  80 108 151 192 244 287 346
#     4  10  22  42  64  87 118 154 192 233 285 353
#     4  10  20  35  57  84 117 149 189 243 293 342
#     4   9  21  34  54  81 108 153 191 235 284 339
#     4  10  21  38  60  85 117 155 192 234 285 350
#     4   9  20  38  55  77 111 153 196 242 294 347
#
# _framework density 20.946052999999999
#
# number of rings (size 3 to 8) (size 9 to 14) (size 15 to 20)
#    0.000    2.143    0.000    2.571    8.000    7.143 
#    0.000    0.714    0.000    4.714    0.000    0.000 
#    0.000    0.000    0.000    0.000    0.000    0.000 
#
# Total GULP energy -155992.119053 kJ/mol
# GULP energy per Si atom -5571.147109 kJ/mol
# Density = 2.089838 g / cm^3
# Si number density = 20.946053 Si / 1000 Ang^3
#
#
#
# Elastic Constant Matrix: (Units=GPa)
#
#
# Indices 1 2 3 4 5 6 
#
# 1 56.7291 3.1060 43.0995 0.0000 -27.3218 0.0000
# 2 3.1060 87.4772 31.4529 0.0000 -6.2551 0.0000
# 3 43.0995 31.4529 146.8513 0.0000 -42.5137 0.0000
# 4 0.0000 0.0000 0.0000 23.8684 0.0000 -8.3304
# 5 -27.3218 -6.2551 -42.5137 0.0000 35.1991 0.0000
# 6 0.0000 0.0000 0.0000 -8.3304 0.0000 14.7626
#
#
#
# Elastic Compliance Matrix: (Units=1/GPa)
#
#
# Indices 1 2 3 4 5 6 
#
# 1 0.029217 0.001554 -0.003479 0.000000 0.018753 0.000000
# 2 0.001554 0.012523 -0.003298 0.000000 -0.000551 0.000000
# 3 -0.003479 -0.003298 0.011664 0.000000 0.010802 0.000000
# 4 0.000000 0.000000 0.000000 0.052171 0.000000 0.029440
# 5 0.018753 -0.000551 0.010802 0.000000 0.055914 0.000000
# 6 0.000000 0.000000 0.000000 0.029440 0.000000 0.084351
#
#
# Mechanical properties :
#
#
# Convention : Reuss Voigt Hill
#
# Bulk Modulus (GPa) = 23.27787 49.59716 36.43751
# Shear Modulus (GPa) = 18.47704 28.99264 23.73484
#
# Velocity S-wave (km/s) = 2.97328 3.72446 3.36987
# Velocity P-wave (km/s) = 4.78796 6.49811 5.70745
#
# Compressibility (1/GPa) = 0.04295927
#
# Stress axis : x y z
#
# Youngs Moduli (GPa) = 34.22608 79.85481 85.73341
#
# Poissons Ratio (x) = -0.12413 0.29826
# Poissons Ratio (y) = -0.05320 0.28275
# Poissons Ratio (z) = 0.11907 0.26336
#
# Static dielectric constant tensor:
#      x y z
#    x 1.803880 0.000000 -0.016720 
#    y 0.000000 1.791070 0.000000 
#    z -0.016720 0.000000 1.805830 
# 
# From -- ./inp_files/257212.got.cif
#   From: 2010.05.17/outbox.cif.g08.bks.cpg/sg12_129_cif.got.tgz:257212.got - 2010.06.03 13:09:07.
