data_PCOD9196270
_publ_section_title
;
Structure prediction by ZEFSAII (Michael W. Deem and Ramdas Pophale) SiO2 
 PCOD9196270
Probable space group: C 2/M
;
_chemical_formula_sum "Si O2"
_cell_formula_units_Z 64
_cell_length_a 30.359026
_cell_length_b 7.859019
_cell_length_c 15.702100
_cell_angle_alpha 90.000000
_cell_angle_beta 131.463705
_cell_angle_gamma 90.000000
_cell_volume 2807.458187
_symmetry_space_group_name_H-M "C 2/M"
_symmetry_group_IT_number 12
_symmetry_cell_setting 'monoclinic'
loop_
_space_group_symop_operation_xyz
x,y,z
-x,y,-z
-x,-y,-z
x,-y,z
1/2+x,1/2+y,z
1/2-x,1/2+y,-z
1/2-x,1/2-y,-z
1/2+x,1/2-y,z
loop_
_atom_site_type_symbol
_atom_site_label
_atom_site_fract_x
_atom_site_fract_y
_atom_site_fract_z
Si Si1 0.565924 0.708574 0.604494
Si Si2 0.712278 0.294818 0.092317
Si Si3 0.972043 0.298067 0.102989
Si Si4 0.130113 0.197791 0.143706
Si Si5 0.611328 0.293712 0.846824
Si Si6 0.604727 0.802815 0.294597
Si Si7 0.288182 0.308780 0.469326
Si Si8 0.681573 0.296616 0.669805
O O1 0.500000 0.765535 0.500000
O O2 0.565163 0.500000 0.603371
O O3 0.589213 0.763673 0.726855
O O4 0.615690 0.765944 0.601764
O O5 0.712741 0.500000 0.092461
O O6 0.673174 0.238503 0.124226
O O7 0.777443 0.233571 0.195814
O O8 0.675708 0.236894 0.962780
O O9 0.974622 0.500000 0.089333
O O10 0.934934 0.263126 0.140651
O O11 0.038441 0.236321 0.200257
O O12 0.935012 0.216319 0.979237
O O13 0.133199 0.290928 0.237194
O O14 0.142869 0.000000 0.175551
O O15 0.612035 0.500000 0.847336
O O16 0.644930 0.702921 0.412002
O O17 0.603039 0.000000 0.318943
O O18 0.268523 0.500000 0.430313
O O19 0.250000 0.250000 0.500000
O O20 0.288434 0.221568 0.377021
O O21 0.677238 0.500000 0.653109
#
# Coordination Sequence:
#
# PCOD9196270 Si02
#       8
#     8   8   8   8   8   8   8   8
#     4   9  19  37  62  88 116 149 191 248 299 342
#     4   9  19  35  55  83 116 149 185 232 291 349
#     4  10  21  35  53  81 118 154 190 239 297 352
#     4  10  20  35  56  83 114 152 199 244 290 347
#     4   9  19  36  60  86 113 150 196 240 288 350
#     4  11  23  36  53  79 114 154 195 241 296 355
#     4  11  24  40  59  84 115 151 199 248 296 355
#     4  10  22  38  59  89 114 147 199 245 292 353
#
# _framework density 22.796422
#
# number of rings (size 3 to 8) (size 9 to 14) (size 15 to 20)
#    0.000    2.125    0.000    3.375    1.750    9.500 
#    0.000    0.625    0.000    0.750    0.000    0.000 
#    0.000    0.000    0.000    0.000    0.000    0.000 
#
# Total GULP energy -178799.709997 kJ/mol
# GULP energy per Si atom -5587.490937 kJ/mol
# Density = 2.274454 g / cm^3
# Si number density = 22.796422 Si / 1000 Ang^3
#
#
#
# Elastic Constant Matrix: (Units=GPa)
#
#
# Indices 1 2 3 4 5 6 
#
# 1 88.0988 7.1195 60.6784 0.0000 9.9765 0.0000
# 2 7.1195 24.2417 -0.0296 0.0000 -0.7024 0.0000
# 3 60.6784 -0.0296 135.1638 0.0000 8.8676 0.0000
# 4 0.0000 0.0000 0.0000 21.2937 0.0000 7.5316
# 5 9.9765 -0.7024 8.8676 0.0000 40.4358 0.0000
# 6 0.0000 0.0000 0.0000 7.5316 0.0000 14.3781
#
#
#
# Elastic Compliance Matrix: (Units=1/GPa)
#
#
# Indices 1 2 3 4 5 6 
#
# 1 0.017303 -0.005169 -0.007592 0.000000 -0.002694 0.000000
# 2 -0.005169 0.042816 0.002229 0.000000 0.001530 0.000000
# 3 -0.007592 0.002229 0.010838 0.000000 -0.000465 0.000000
# 4 0.000000 0.000000 0.000000 0.057642 0.000000 -0.030195
# 5 -0.002694 0.001530 -0.000465 0.000000 0.025524 0.000000
# 6 0.000000 0.000000 0.000000 -0.030195 0.000000 0.085367
#
#
# Mechanical properties :
#
#
# Convention : Reuss Voigt Hill
#
# Bulk Modulus (GPa) = 20.04258 42.56011 31.30134
# Shear Modulus (GPa) = 18.03856 27.20391 22.62123
#
# Velocity S-wave (km/s) = 2.81604 3.45822 3.15352
# Velocity P-wave (km/s) = 4.40278 5.88693 5.19810
#
# Compressibility (1/GPa) = 0.04989379
#
# Stress axis : x y z
#
# Youngs Moduli (GPa) = 57.79445 23.35553 92.27087
#
# Poissons Ratio (x) = 0.12072 0.70052
# Poissons Ratio (y) = 0.29874 -0.20571
# Poissons Ratio (z) = 0.43878 -0.05207
#
# Static dielectric constant tensor:
#      x y z
#    x 1.887370 0.000000 -0.001740 
#    y 0.000000 1.815840 0.000000 
#    z -0.001740 0.000000 1.847070 
# 
# From -- ./inp_files/250132.got.cif
#   From: 2010.05.17/outbox.cif.g08.bks.cpg/sg12_126_cif.got.tgz:250132.got - 2010.06.03 13:09:07.
