data_PCOD9196536
_publ_section_title
;
Structure prediction by ZEFSAII (Michael W. Deem and Ramdas Pophale) SiO2 
 PCOD9196536
Probable space group: C 2/M
;
_chemical_formula_sum "Si O2"
_cell_formula_units_Z 56
_cell_length_a 15.590612
_cell_length_b 9.149949
_cell_length_c 23.704773
_cell_angle_alpha 90.000000
_cell_angle_beta 59.991620
_cell_angle_gamma 90.000000
_cell_volume 2928.273183
_symmetry_space_group_name_H-M "C 2/M"
_symmetry_group_IT_number 12
_symmetry_cell_setting 'monoclinic'
loop_
_space_group_symop_operation_xyz
x,y,z
-x,y,-z
-x,-y,-z
x,-y,z
1/2+x,1/2+y,z
1/2-x,1/2+y,-z
1/2-x,1/2-y,-z
1/2+x,1/2-y,z
loop_
_atom_site_type_symbol
_atom_site_label
_atom_site_fract_x
_atom_site_fract_y
_atom_site_fract_z
Si Si1 0.367261 0.333367 0.708836
Si Si2 0.219476 0.325156 0.158945
Si Si3 0.278706 0.164368 0.434370
Si Si4 0.991497 0.675014 0.828174
Si Si5 0.922206 0.833664 0.569091
Si Si6 0.080986 0.835559 0.696692
Si Si7 0.926664 0.675503 0.075382
O O1 0.327317 0.500000 0.714444
O O2 0.299045 0.238656 0.772118
O O3 0.394704 0.268365 0.638699
O O4 0.471070 0.344375 0.707149
O O5 0.226645 0.500000 0.158112
O O6 0.121642 0.287120 0.153435
O O7 0.321220 0.254588 0.104178
O O8 0.250000 0.250000 0.500000
O O9 0.178934 0.154417 0.431194
O O10 0.355403 0.249611 0.370078
O O11 0.313903 0.000000 0.435681
O O12 0.000181 0.500000 0.818933
O O13 0.066954 0.751382 0.759969
O O14 0.020963 0.713673 0.882271
O O15 0.000000 0.763579 0.500000
O O16 0.960978 0.000000 0.569081
O O17 0.119360 0.000000 0.692137
O O18 0.910415 0.500000 0.080692
O O19 0.000000 0.711380 0.000000
#
# Coordination Sequence:
#
# PCOD9196536 Si02
#       7
#     8   8   8   8   8   8   8
#     4   9  18  35  58  80 105 144 189 231 278 342
#     4  10  21  37  58  87 120 152 189 243 301 346
#     4  11  22  35  53  77 107 144 185 233 287 341
#     4   9  20  39  60  84 119 157 193 236 294 352
#     4   9  18  33  53  75 100 137 185 229 272 328
#     4  10  20  35  57  83 110 141 184 235 285 342
#     4  10  22  40  62  87 117 157 202 241 284 354
#
# _framework density 19.123899000000002
#
# number of rings (size 3 to 8) (size 9 to 14) (size 15 to 20)
#    0.000    2.286    0.000    2.143    2.000    4.857 
#    0.000    0.714    0.000    3.000    0.000    0.000 
#    0.000    0.000    0.000    0.000    0.000    0.000 
#
# Total GULP energy -156182.325129 kJ/mol
# GULP energy per Si atom -5577.940183 kJ/mol
# Density = 1.908037 g / cm^3
# Si number density = 19.123899 Si / 1000 Ang^3
#
#
#
# Elastic Constant Matrix: (Units=GPa)
#
#
# Indices 1 2 3 4 5 6 
#
# 1 48.5684 36.8791 44.9681 0.0000 -0.3349 0.0000
# 2 36.8791 75.0717 75.3860 0.0001 -7.0003 0.0000
# 3 44.9681 75.3860 176.8847 0.0000 -2.9558 0.0000
# 4 0.0000 0.0001 0.0000 -92.6085 0.0000 -79.7017
# 5 -0.3349 -7.0003 -2.9558 0.0000 38.5567 0.0000
# 6 0.0000 0.0000 0.0000 -79.7017 0.0000 -25.1050
#
#
#
# Elastic Compliance Matrix: (Units=1/GPa)
#
#
# Indices 1 2 3 4 5 6 
#
# 1 0.033757 -0.014258 -0.002547 0.000000 -0.002491 0.000000
# 2 -0.014258 0.029782 -0.008991 0.000000 0.004594 0.000000
# 3 -0.002547 -0.008991 0.010118 0.000000 -0.000879 0.000000
# 4 0.000000 0.000000 0.000000 0.006234 0.000000 -0.019790
# 5 -0.002491 0.004594 -0.000879 0.000000 0.026681 0.000000
# 6 0.000000 0.000000 0.000000 -0.019790 0.000000 0.022994
#
#
# Mechanical properties :
#
#
# Convention : Reuss Voigt Hill
#
# Bulk Modulus (GPa) = 45.32053 68.33234 56.82644
# Shear Modulus (GPa) = 26.52344 -6.27858 10.12243
#
# Velocity S-wave (km/s) = 3.72819 -1.81390 2.30316
# Velocity P-wave (km/s) = 6.50249 5.60553 6.07060
#
# Compressibility (1/GPa) = 0.02206506
#
# Stress axis : x y z
#
# Youngs Moduli (GPa) = 29.62386 33.57724 98.83197
#
# Poissons Ratio (x) = 0.47873 0.25171
# Poissons Ratio (y) = 0.42237 0.88863
# Poissons Ratio (z) = 0.07545 0.30190
#
# Static dielectric constant tensor:
#      x y z
#    x 1.658380 0.000000 0.022180 
#    y 0.000000 1.637840 0.000000 
#    z 0.022180 0.000000 1.631330 
# 
# From -- ./inp_files/338506.got.cif
#   From: 2010.05.17/outbox.cif.g08.bks.cpg/sg12_170_cif.got.tgz:338506.got - 2010.06.03 13:09:07.
