data_PCOD9196065
_publ_section_title
;
Structure prediction by ZEFSAII (Michael W. Deem and Ramdas Pophale) SiO2 
 PCOD9196065
Probable space group: C 2/M
;
_chemical_formula_sum "Si O2"
_cell_formula_units_Z 40
_cell_length_a 12.912752
_cell_length_b 14.239685
_cell_length_c 10.823145
_cell_angle_alpha 90.000000
_cell_angle_beta 105.686814
_cell_angle_gamma 90.000000
_cell_volume 1915.966889
_symmetry_space_group_name_H-M "C 2/M"
_symmetry_group_IT_number 12
_symmetry_cell_setting 'monoclinic'
loop_
_space_group_symop_operation_xyz
x,y,z
-x,y,-z
-x,-y,-z
x,-y,z
1/2+x,1/2+y,z
1/2-x,1/2+y,-z
1/2-x,1/2-y,-z
1/2+x,1/2-y,z
loop_
_atom_site_type_symbol
_atom_site_label
_atom_site_fract_x
_atom_site_fract_y
_atom_site_fract_z
Si Si1 0.082502 0.199886 0.415756
Si Si2 0.467570 0.103851 0.848777
Si Si3 0.686875 0.890161 0.505768
Si Si4 0.591083 0.704001 0.135966
Si Si5 0.186344 0.609224 0.800655
O O1 0.193865 0.147353 0.485729
O O2 0.105247 0.312820 0.425842
O O3 0.058140 0.170205 0.264946
O O4 0.000000 0.179607 0.500000
O O5 0.381359 0.186243 0.830547
O O6 0.575381 0.145648 0.821218
O O7 0.441026 0.000000 0.790954
O O8 0.500000 0.090708 0.000000
O O9 0.676610 0.883340 0.650351
O O10 0.673009 0.000000 0.471099
O O11 0.700967 0.655549 0.128773
O O12 0.500000 0.694794 0.000000
O O13 0.190337 0.500000 0.837827
#
# Coordination Sequence:
#
# PCOD9196065 Si02
#       5
#     8   8   8   8   8
#     4  10  20  35  56  81 106 135 178 223 258 306
#     4   9  18  32  50  73 102 137 175 213 255 304
#     4   9  19  35  55  78 104 138 177 217 264 312
#     4  10  21  34  54  80 109 141 174 212 264 318
#     4   9  18  35  55  75 105 141 176 216 261 313
#
# _framework density 20.877185999999998
#
# number of rings (size 3 to 8) (size 9 to 14) (size 15 to 20)
#    0.000    2.600    0.000    1.200    0.000    5.200 
#    0.000    0.000    0.000    6.000    0.000    0.000 
#    0.000    0.000    0.000    0.000    0.000    0.000 
#
# Total GULP energy -111411.337407 kJ/mol
# GULP energy per Si atom -5570.566870 kJ/mol
# Density = 2.082967 g / cm^3
# Si number density = 20.877186 Si / 1000 Ang^3
#
#
#
# Elastic Constant Matrix: (Units=GPa)
#
#
# Indices 1 2 3 4 5 6 
#
# 1 106.9887 21.3518 42.8818 0.0000 -15.4927 0.0000
# 2 21.3518 41.1497 1.0449 0.0000 3.6428 0.0000
# 3 42.8818 1.0449 103.5848 0.0000 9.4144 0.0000
# 4 0.0000 0.0000 0.0000 18.4895 0.0000 0.9763
# 5 -15.4927 3.6428 9.4144 0.0000 26.6608 0.0000
# 6 0.0000 0.0000 0.0000 0.9763 0.0000 31.2050
#
#
#
# Elastic Compliance Matrix: (Units=1/GPa)
#
#
# Indices 1 2 3 4 5 6 
#
# 1 0.016398 -0.009514 -0.007931 0.000000 0.013629 0.000000
# 2 -0.009514 0.030119 0.004661 0.000000 -0.011290 0.000000
# 3 -0.007931 0.004661 0.013810 0.000000 -0.010122 0.000000
# 4 0.000000 0.000000 0.000000 0.054174 0.000000 -0.001695
# 5 0.013629 -0.011290 -0.010122 0.000000 0.050545 0.000000
# 6 0.000000 0.000000 0.000000 -0.001695 0.000000 0.032099
#
#
# Mechanical properties :
#
#
# Convention : Reuss Voigt Hill
#
# Bulk Modulus (GPa) = 28.76963 42.47558 35.62261
# Shear Modulus (GPa) = 21.34010 27.70069 24.52040
#
# Velocity S-wave (km/s) = 3.20061 3.64653 3.43083
# Velocity P-wave (km/s) = 5.24108 6.17408 5.72661
#
# Compressibility (1/GPa) = 0.03475887
#
# Stress axis : x y z
#
# Youngs Moduli (GPa) = 60.98326 33.20157 72.41025
#
# Poissons Ratio (x) = 0.31587 0.57430
# Poissons Ratio (y) = 0.58018 -0.33748
# Poissons Ratio (z) = 0.48367 -0.15474
#
# Static dielectric constant tensor:
#      x y z
#    x 1.724680 0.000000 -0.003500 
#    y 0.000000 1.828640 0.000000 
#    z -0.003500 0.000000 1.796360 
# 
# From -- ./inp_files/129151.got.cif
#   From: 2010.05.17/outbox.cif.g08.bks.cpg/sg12_65_cif.got.tgz:129151.got - 2010.06.03 13:09:07.
