data_PCOD9196765
_publ_section_title
;
Structure prediction by ZEFSAII (Michael W. Deem and Ramdas Pophale) SiO2 
 PCOD9196765
Probable space group: C 2/M
;
_chemical_formula_sum "Si O2"
_cell_formula_units_Z 56
_cell_length_a 20.034944
_cell_length_b 8.411097
_cell_length_c 19.146266
_cell_angle_alpha 90.000000
_cell_angle_beta 64.298024
_cell_angle_gamma 90.000000
_cell_volume 2907.231186
_symmetry_space_group_name_H-M "C 2/M"
_symmetry_group_IT_number 12
_symmetry_cell_setting 'monoclinic'
loop_
_space_group_symop_operation_xyz
x,y,z
-x,y,-z
-x,-y,-z
x,-y,z
1/2+x,1/2+y,z
1/2-x,1/2+y,-z
1/2-x,1/2-y,-z
1/2+x,1/2-y,z
loop_
_atom_site_type_symbol
_atom_site_label
_atom_site_fract_x
_atom_site_fract_y
_atom_site_fract_z
Si Si1 0.136111 0.809517 0.186255
Si Si2 0.698117 0.309583 0.857781
Si Si3 0.832975 0.191648 0.978190
Si Si4 0.355584 0.810014 0.265849
Si Si5 0.567445 0.193816 0.517176
Si Si6 0.767238 0.691225 0.570322
Si Si7 0.483655 0.191829 0.307295
O O1 0.216792 0.749730 0.174234
O O2 0.123369 0.755772 0.110918
O O3 0.067613 0.748385 0.262190
O O4 0.137692 0.000000 0.187297
O O5 0.700486 0.500000 0.857012
O O6 0.661042 0.253688 0.803405
O O7 0.654068 0.255313 0.947977
O O8 0.835106 0.000000 0.977440
O O9 0.750000 0.250000 0.000000
O O10 0.289989 0.760000 0.348129
O O11 0.432056 0.752763 0.266718
O O12 0.357786 0.000000 0.261808
O O13 0.500000 0.249093 0.500000
O O14 0.648049 0.241396 0.453401
O O15 0.553534 0.244609 0.603184
O O16 0.566697 0.000000 0.517375
O O17 0.762961 0.500000 0.573918
O O18 0.750000 0.750000 0.500000
O O19 0.483658 0.000000 0.307399
#
# Coordination Sequence:
#
# PCOD9196765 Si02
#       7
#     8   8   8   8   8   8   8
#     4  10  20  35  57  86 116 145 180 233 286 329
#     4  10  20  36  59  85 110 147 191 228 275 340
#     4   8  16  32  54  80 111 143 181 226 276 332
#     4  11  23  39  56  81 116 150 188 238 283 328
#     4   9  19  36  57  80 107 142 184 228 274 325
#     4  11  21  37  60  83 108 148 189 230 280 336
#     4  10  21  38  56  78 113 153 188 227 280 337
#
# _framework density 19.262315000000001
#
# number of rings (size 3 to 8) (size 9 to 14) (size 15 to 20)
#    0.000    2.143    1.429    1.714    2.000    2.286 
#    0.000    0.714    0.000    6.429    0.000    0.000 
#    0.000    0.000    0.000    0.000    0.000    0.000 
#
# Total GULP energy -156180.313847 kJ/mol
# GULP energy per Si atom -5577.868352 kJ/mol
# Density = 1.921847 g / cm^3
# Si number density = 19.262315 Si / 1000 Ang^3
#
#
#
# Elastic Constant Matrix: (Units=GPa)
#
#
# Indices 1 2 3 4 5 6 
#
# 1 72.4190 6.5139 -6.0112 0.0000 17.3659 0.0001
# 2 6.5139 18.6134 2.9043 0.0001 4.9915 0.0003
# 3 -6.0112 2.9043 33.4956 0.0000 20.3052 0.0001
# 4 0.0000 0.0001 0.0000 22.8797 0.0000 3.8833
# 5 17.3659 4.9915 20.3052 0.0000 38.0963 0.0000
# 6 0.0001 0.0003 0.0001 3.8833 0.0000 23.8722
#
#
#
# Elastic Compliance Matrix: (Units=1/GPa)
#
#
# Indices 1 2 3 4 5 6 
#
# 1 0.018817 -0.004614 0.012720 0.000000 -0.014753 0.000000
# 2 -0.004614 0.056821 -0.003718 0.000000 -0.003360 -0.000001
# 3 0.012720 -0.003718 0.052711 0.000000 -0.033406 0.000000
# 4 0.000000 0.000000 0.000000 0.044948 0.000000 -0.007312
# 5 -0.014753 -0.003360 -0.033406 0.000000 0.051220 0.000000
# 6 0.000000 -0.000001 0.000000 -0.007312 0.000000 0.043079
#
#
# Mechanical properties :
#
#
# Convention : Reuss Voigt Hill
#
# Bulk Modulus (GPa) = 7.29257 14.59355 10.94306
# Shear Modulus (GPa) = 16.41896 25.04437 20.73167
#
# Velocity S-wave (km/s) = 2.92274 3.60971 3.28423
# Velocity P-wave (km/s) = 3.89666 4.99659 4.48051
#
# Compressibility (1/GPa) = 0.13712590
#
# Stress axis : x y z
#
# Youngs Moduli (GPa) = 53.14325 17.59925 18.97151
#
# Poissons Ratio (x) = 0.08120 -0.24132
# Poissons Ratio (y) = 0.24519 0.07053
# Poissons Ratio (z) = -0.67600 0.06543
#
# Static dielectric constant tensor:
#      x y z
#    x 1.652670 0.000000 0.025290 
#    y 0.000000 1.668690 0.000000 
#    z 0.025290 0.000000 1.690240 
# 
# From -- ./inp_files/275293.got.cif
#   From: 2010.05.17/outbox.cif.g08.bks.cpg/sg12_138_cif.got.tgz:275293.got - 2010.06.03 13:09:07.
