data_PCOD9196335
_publ_section_title
;
Structure prediction by ZEFSAII (Michael W. Deem and Ramdas Pophale) SiO2 
 PCOD9196335
Probable space group: C 2/M
;
_chemical_formula_sum "Si O2"
_cell_formula_units_Z 64
_cell_length_a 16.841838
_cell_length_b 15.374488
_cell_length_c 16.707502
_cell_angle_alpha 90.000000
_cell_angle_beta 137.271386
_cell_angle_gamma 90.000000
_cell_volume 2935.408531
_symmetry_space_group_name_H-M "C 2/M"
_symmetry_group_IT_number 12
_symmetry_cell_setting 'monoclinic'
loop_
_space_group_symop_operation_xyz
x,y,z
-x,y,-z
-x,-y,-z
x,-y,z
1/2+x,1/2+y,z
1/2-x,1/2+y,-z
1/2-x,1/2-y,-z
1/2+x,1/2-y,z
loop_
_atom_site_type_symbol
_atom_site_label
_atom_site_fract_x
_atom_site_fract_y
_atom_site_fract_z
Si Si1 0.629115 0.401048 0.997374
Si Si2 0.130405 0.282039 0.082682
Si Si3 0.219364 0.722903 0.675030
Si Si4 0.820853 0.819757 0.499934
Si Si5 0.147752 0.602131 0.950374
Si Si6 0.076559 0.601846 0.307464
Si Si7 0.051888 0.402486 0.627627
Si Si8 0.596292 0.601558 0.283187
O O1 0.617992 0.500000 0.022912
O O2 0.525215 0.390707 0.854790
O O3 0.620743 0.319952 0.050964
O O4 0.753743 0.395071 0.045116
O O5 0.201652 0.288889 0.216852
O O6 0.184394 0.337336 0.050828
O O7 0.000000 0.315822 0.000000
O O8 0.138386 0.772109 0.550458
O O9 0.150630 0.668546 0.690556
O O10 0.305391 0.657595 0.690520
O O11 0.750000 0.750000 0.500000
O O12 0.711557 0.879461 0.392816
O O13 0.906592 0.864912 0.626864
O O14 0.136645 0.500000 0.965761
O O15 0.024992 0.639687 0.824341
O O16 0.059608 0.500000 0.286919
O O17 0.040587 0.622259 0.372635
O O18 0.096322 0.500000 0.680309
O O19 0.000000 0.407454 0.500000
O O20 0.631016 0.500000 0.309384
#
# Coordination Sequence:
#
# PCOD9196335 Si02
#       8
#     8   8   8   8   8   8   8   8
#     4  10  22  40  62  91 122 160 203 244 299 368
#     4  12  23  39  60  89 127 155 196 249 311 358
#     4  11  22  37  53  88 122 153 191 244 298 361
#     4  10  21  36  57  83 119 152 197 238 286 358
#     4  10  23  42  62  86 117 159 211 252 292 353
#     4  10  20  37  61  84 110 151 200 249 293 346
#     4  10  20  35  56  84 118 149 185 240 303 354
#     4  10  20  37  61  85 117 158 198 243 293 358
#
# _framework density 21.802757
#
# number of rings (size 3 to 8) (size 9 to 14) (size 15 to 20)
#    0.000    1.625    1.250    4.125    1.750    3.500 
#    2.250    1.250    0.000    0.000    0.000    2.625 
#    0.000    0.000    0.000    0.000    0.000    0.000 
#
# Total GULP energy -178708.642269 kJ/mol
# GULP energy per Si atom -5584.645071 kJ/mol
# Density = 2.175313 g / cm^3
# Si number density = 21.802757 Si / 1000 Ang^3
#
#
#
# Elastic Constant Matrix: (Units=GPa)
#
#
# Indices 1 2 3 4 5 6 
#
# 1 48.7948 15.0189 -8.9456 0.0000 -7.5227 0.0000
# 2 15.0189 41.2626 15.3064 0.0000 -17.8967 0.0000
# 3 -8.9456 15.3064 78.6639 0.0000 -16.6011 0.0000
# 4 0.0000 0.0000 0.0000 14.1965 0.0000 10.6865
# 5 -7.5227 -17.8967 -16.6011 0.0000 33.3520 0.0000
# 6 0.0000 0.0000 0.0000 10.6865 0.0000 7.5706
#
#
#
# Elastic Compliance Matrix: (Units=1/GPa)
#
#
# Indices 1 2 3 4 5 6 
#
# 1 0.024955 -0.009745 0.005384 0.000000 0.003080 0.000000
# 2 -0.009745 0.035983 -0.005027 0.000000 0.014608 0.000000
# 3 0.005384 -0.005027 0.015632 0.000000 0.006298 0.000000
# 4 0.000000 0.000000 0.000000 -1.125723 0.000000 1.589049
# 5 0.003080 0.014608 0.006298 0.000000 0.041651 0.000000
# 6 0.000000 0.000000 0.000000 1.589049 0.000000 -2.110981
#
#
# Mechanical properties :
#
#
# Convention : Reuss Voigt Hill
#
# Bulk Modulus (GPa) = 17.30271 23.49784 20.40028
# Shear Modulus (GPa) = -1.62314 20.84660 9.61173
#
# Velocity S-wave (km/s) = -0.86376 3.09551 2.10192
# Velocity P-wave (km/s) = 2.63789 4.85563 3.90740
#
# Compressibility (1/GPa) = 0.05779441
#
# Stress axis : x y z
#
# Youngs Moduli (GPa) = 40.07180 27.79117 63.97247
#
# Poissons Ratio (x) = 0.27082 -0.34442
# Poissons Ratio (y) = 0.39049 0.32157
# Poissons Ratio (z) = -0.21574 0.13970
#
# Static dielectric constant tensor:
#      x y z
#    x 1.811440 0.000000 0.056780 
#    y 0.000000 1.943370 0.000000 
#    z 0.056780 0.000000 1.934720 
# 
# From -- ./inp_files/278193.got.cif
#   From: 2010.05.17/outbox.cif.g08.bks.cpg/sg12_140_cif.got.tgz:278193.got - 2010.06.03 13:09:07.
