data_PCOD9196464
_publ_section_title
;
Structure prediction by ZEFSAII (Michael W. Deem and Ramdas Pophale) SiO2 
 PCOD9196464
Probable space group: C 2/M
;
_chemical_formula_sum "Si O2"
_cell_formula_units_Z 48
_cell_length_a 14.429285
_cell_length_b 7.740723
_cell_length_c 21.613936
_cell_angle_alpha 90.000000
_cell_angle_beta 89.557661
_cell_angle_gamma 90.000000
_cell_volume 2414.055534
_symmetry_space_group_name_H-M "C 2/M"
_symmetry_group_IT_number 12
_symmetry_cell_setting 'monoclinic'
loop_
_space_group_symop_operation_xyz
x,y,z
-x,y,-z
-x,-y,-z
x,-y,z
1/2+x,1/2+y,z
1/2-x,1/2+y,-z
1/2-x,1/2-y,-z
1/2+x,1/2-y,z
loop_
_atom_site_type_symbol
_atom_site_label
_atom_site_fract_x
_atom_site_fract_y
_atom_site_fract_z
Si Si1 0.105099 0.709393 0.502629
Si Si2 0.793120 0.791299 0.738229
Si Si3 0.251649 0.794075 0.398000
Si Si4 0.868905 0.000000 0.057793
Si Si5 0.592024 0.500000 0.080498
Si Si6 0.654140 0.797983 0.849511
Si Si7 0.435511 0.193860 0.830764
O O1 0.104694 0.500000 0.504482
O O2 0.163484 0.762154 0.442254
O O3 0.161017 0.772784 0.562819
O O4 0.000000 0.770507 0.500000
O O5 0.764751 0.725882 0.670797
O O6 0.717449 0.747948 0.790991
O O7 0.889823 0.721372 0.764180
O O8 0.799563 0.000000 0.735856
O O9 0.264624 0.000000 0.391860
O O10 0.832178 0.169125 0.093333
O O11 0.981204 0.000000 0.066683
O O12 0.854842 0.000000 0.984472
O O13 0.608560 0.332955 0.122660
O O14 0.546099 0.781924 0.830336
O O15 0.670704 0.000000 0.864685
O O16 0.416296 0.000000 0.852451
#
# Coordination Sequence:
#
# PCOD9196464 Si02
#       7
#     8   8   8   4   4   8   8
#     4   9  18  34  55  78 110 144 181 224 265 318
#     4  10  20  36  55  75 113 148 181 232 280 326
#     4   9  19  34  53  78 107 146 179 219 275 317
#     4   9  18  34  60  80 107 146 185 226 283 336
#     4   9  18  36  56  82 111 142 181 236 281 328
#     4   9  20  36  55  80 110 144 184 231 279 331
#     4  10  20  35  57  81 108 146 187 229 280 333
#
# _framework density 19.883551000000001
#
# number of rings (size 3 to 8) (size 9 to 14) (size 15 to 20)
#    0.000    2.667    0.833    0.000    1.167    3.000 
#    0.000    7.500    0.000    0.000    0.000    0.000 
#    0.000    0.000    0.000    0.000    0.000    0.000 
#
# Total GULP energy -133962.533340 kJ/mol
# GULP energy per Si atom -5581.772222 kJ/mol
# Density = 1.983830 g / cm^3
# Si number density = 19.883551 Si / 1000 Ang^3
#
#
#
# Elastic Constant Matrix: (Units=GPa)
#
#
# Indices 1 2 3 4 5 6 
#
# 1 65.9266 8.6110 18.2318 0.0000 8.9906 0.0000
# 2 8.6110 48.1236 13.2512 0.0000 2.9254 0.0000
# 3 18.2318 13.2512 95.3450 0.0000 15.2374 0.0000
# 4 0.0000 0.0000 0.0000 9.5904 0.0000 -11.3293
# 5 8.9906 2.9254 15.2374 0.0000 13.3324 0.0000
# 6 0.0000 0.0000 0.0000 -11.3293 0.0000 12.2900
#
#
#
# Elastic Compliance Matrix: (Units=1/GPa)
#
#
# Indices 1 2 3 4 5 6 
#
# 1 0.017133 -0.002086 -0.001484 0.000000 -0.009400 0.000000
# 2 -0.002086 0.021889 -0.002570 0.000000 -0.000459 0.000000
# 3 -0.001484 -0.002570 0.013310 0.000000 -0.013647 0.000000
# 4 0.000000 0.000000 0.000000 -1.171929 0.000000 -1.080322
# 5 -0.009400 -0.000459 -0.013647 0.000000 0.097042 0.000000
# 6 0.000000 0.000000 0.000000 -1.080322 0.000000 -0.914508
#
#
# Mechanical properties :
#
#
# Convention : Reuss Voigt Hill
#
# Bulk Modulus (GPa) = 24.96717 32.17592 28.57154
# Shear Modulus (GPa) = -2.61584 18.32930 7.85673
#
# Velocity S-wave (km/s) = -1.14823 3.03946 1.98996
# Velocity P-wave (km/s) = 3.29030 5.34182 4.43628
#
# Compressibility (1/GPa) = 0.04005259
#
# Stress axis : x y z
#
# Youngs Moduli (GPa) = 58.36656 45.68589 75.13014
#
# Poissons Ratio (x) = 0.09528 0.11150
# Poissons Ratio (y) = 0.12173 0.19308
# Poissons Ratio (z) = 0.08662 0.11741
#
# Static dielectric constant tensor:
#      x y z
#    x 1.710280 0.000000 0.031210 
#    y 0.000000 1.716710 0.000000 
#    z 0.031210 0.000000 1.670130 
# 
# From -- ./inp_files/267752.got.cif
#   From: 2010.05.17/outbox.cif.g08.bks.cpg/sg12_134_cif.got.tgz:267752.got - 2010.06.03 13:09:07.
