data_PCOD9196438
_publ_section_title
;
Structure prediction by ZEFSAII (Michael W. Deem and Ramdas Pophale) SiO2 
 PCOD9196438
Probable space group: C 2/M
;
_chemical_formula_sum "Si O2"
_cell_formula_units_Z 58
_cell_length_a 19.386741
_cell_length_b 7.867835
_cell_length_c 22.329155
_cell_angle_alpha 90.000000
_cell_angle_beta 125.852296
_cell_angle_gamma 90.000000
_cell_volume 2760.585503
_symmetry_space_group_name_H-M "C 2/M"
_symmetry_group_IT_number 12
_symmetry_cell_setting 'monoclinic'
loop_
_space_group_symop_operation_xyz
x,y,z
-x,y,-z
-x,-y,-z
x,-y,z
1/2+x,1/2+y,z
1/2-x,1/2+y,-z
1/2-x,1/2-y,-z
1/2+x,1/2-y,z
loop_
_atom_site_type_symbol
_atom_site_label
_atom_site_fract_x
_atom_site_fract_y
_atom_site_fract_z
Si Si1 0.830043 0.191748 0.001589
Si Si2 0.964782 0.798971 0.262659
Si Si3 0.101323 0.703721 0.233475
Si Si4 0.778501 0.300104 0.291034
Si Si5 0.276067 0.304495 0.155586
Si Si6 0.000000 0.000000 0.500000
Si Si7 0.472760 0.197078 0.402228
Si Si8 0.509684 0.805110 0.070946
O O1 0.795072 0.203401 0.916127
O O2 0.853282 0.000000 0.029501
O O3 0.750000 0.250000 0.000000
O O4 0.914829 0.301432 0.050004
O O5 0.871981 0.740450 0.191754
O O6 0.982696 0.713106 0.335521
O O7 0.037941 0.768764 0.251926
O O8 0.954838 0.000000 0.268896
O O9 0.094711 0.500000 0.228942
O O10 0.199089 0.754734 0.291968
O O11 0.070644 0.770594 0.152602
O O12 0.778122 0.500000 0.277650
O O13 0.766631 0.205046 0.222022
O O14 0.872365 0.260971 0.363101
O O15 0.268174 0.500000 0.131753
O O16 0.979379 0.153445 0.539002
O O17 0.490242 0.000000 0.427424
O O18 0.538945 0.000000 0.075979
O O19 0.500000 0.724906 0.000000
#
# Coordination Sequence:
#
# PCOD9196438 Si02
#       8
#     8   8   8   8   8   2   8   8
#     4  12  24  36  52  74 105 148 193 249 308 367
#     4  10  20  37  59  88 121 158 205 255 304 363
#     4  11  22  34  57  86 117 162 205 258 312 359
#     4  10  21  37  59  89 120 153 197 245 290 345
#     4  10  20  35  57  79 110 147 193 251 306 357
#     4  12  22  40  72 102 132 168 194 238 292 358
#     4  10  22  40  66 101 131 163 203 244 292 352
#     4  10  22  39  55  77 112 154 206 256 310 370
#
# _framework density 21.010035999999999
#
# number of rings (size 3 to 8) (size 9 to 14) (size 15 to 20)
#    0.000    1.517    0.690    4.759    1.931    6.345 
#    0.000    0.000    0.000    0.828    0.000    0.000 
#    0.000    0.000    0.000    0.000    0.000    0.000 
#
# Total GULP energy -161791.563799 kJ/mol
# GULP energy per Si atom -5579.019441 kJ/mol
# Density = 2.096222 g / cm^3
# Si number density = 21.010036 Si / 1000 Ang^3
#
#
#
# Elastic Constant Matrix: (Units=GPa)
#
#
# Indices 1 2 3 4 5 6 
#
# 1 103.4974 -5.6548 6.6144 0.0000 1.7161 0.0000
# 2 -5.6548 75.6215 18.1450 0.0000 -2.4698 0.0000
# 3 6.6144 18.1450 49.6035 0.0000 -13.6389 0.0000
# 4 0.0000 0.0000 0.0000 12.6628 0.0000 -10.5613
# 5 1.7161 -2.4698 -13.6389 0.0000 12.5767 0.0000
# 6 0.0000 0.0000 0.0000 -10.5613 0.0000 24.2877
#
#
#
# Elastic Compliance Matrix: (Units=1/GPa)
#
#
# Indices 1 2 3 4 5 6 
#
# 1 0.010001 0.001331 -0.003026 0.000000 -0.004385 0.000000
# 2 0.001331 0.014826 -0.006911 0.000000 -0.004765 0.000000
# 3 -0.003026 -0.006911 0.032532 0.000000 0.034335 0.000000
# 4 0.000000 0.000000 0.000000 0.123912 0.000000 0.053882
# 5 -0.004385 -0.004765 0.034335 0.000000 0.116410 0.000000
# 6 0.000000 0.000000 0.000000 0.053882 0.000000 0.064603
#
#
# Mechanical properties :
#
#
# Convention : Reuss Voigt Hill
#
# Bulk Modulus (GPa) = 24.90866 29.65908 27.28387
# Shear Modulus (GPa) = 12.72657 23.87997 18.30327
#
# Velocity S-wave (km/s) = 2.46384 3.37500 2.95476
# Velocity P-wave (km/s) = 4.46938 5.41616 4.96539
#
# Compressibility (1/GPa) = 0.04014667
#
# Stress axis : x y z
#
# Youngs Moduli (GPa) = 99.99121 67.44977 30.73884
#
# Poissons Ratio (x) = -0.08976 0.09302
# Poissons Ratio (y) = -0.13306 0.21243
# Poissons Ratio (z) = 0.30257 0.46613
#
# Static dielectric constant tensor:
#      x y z
#    x 1.765150 0.000000 -0.006210 
#    y 0.000000 2.342500 0.000000 
#    z -0.006210 0.000000 1.780170 
# 
# From -- ./inp_files/314815.got.cif
#   From: 2010.05.17/outbox.cif.g08.bks.cpg/sg12_158_cif.got.tgz:314815.got - 2010.06.03 13:09:07.
