data_PCOD9196168
_publ_section_title
;
Structure prediction by ZEFSAII (Michael W. Deem and Ramdas Pophale) SiO2 
 PCOD9196168
Probable space group: C 2/M
;
_chemical_formula_sum "Si O2"
_cell_formula_units_Z 64
_cell_length_a 19.517484
_cell_length_b 7.610959
_cell_length_c 20.331785
_cell_angle_alpha 90.000000
_cell_angle_beta 110.197062
_cell_angle_gamma 90.000000
_cell_volume 2834.509809
_symmetry_space_group_name_H-M "C 2/M"
_symmetry_group_IT_number 12
_symmetry_cell_setting 'monoclinic'
loop_
_space_group_symop_operation_xyz
x,y,z
-x,y,-z
-x,-y,-z
x,-y,z
1/2+x,1/2+y,z
1/2-x,1/2+y,-z
1/2-x,1/2-y,-z
1/2+x,1/2-y,z
loop_
_atom_site_type_symbol
_atom_site_label
_atom_site_fract_x
_atom_site_fract_y
_atom_site_fract_z
Si Si1 0.421192 0.283723 0.278902
Si Si2 0.697924 0.790707 0.922100
Si Si3 0.169225 0.705289 0.547923
Si Si4 0.466873 0.300896 0.426441
Si Si5 0.038317 0.300159 0.853267
Si Si6 0.260062 0.293091 0.211445
Si Si7 0.337082 0.290595 0.602262
Si Si8 0.384366 0.212070 0.764344
O O1 0.423577 0.500000 0.275257
O O2 0.470851 0.225904 0.355699
O O3 0.445955 0.202363 0.219405
O O4 0.337831 0.226068 0.262714
O O5 0.614722 0.720197 0.904894
O O6 0.733361 0.727019 0.865365
O O7 0.690368 0.000000 0.912962
O O8 0.750000 0.750000 0.000000
O O9 0.168320 0.500000 0.564797
O O10 0.117660 0.806986 0.580740
O O11 0.252512 0.770310 0.580314
O O12 0.140830 0.723783 0.463019
O O13 0.500000 0.205703 0.500000
O O14 0.496918 0.500000 0.432816
O O15 0.033285 0.500000 0.877424
O O16 0.957109 0.219806 0.825970
O O17 0.258994 0.500000 0.225134
O O18 0.188495 0.220287 0.223220
O O19 0.336869 0.500000 0.596064
O O20 0.378336 0.249574 0.684128
O O21 0.387652 0.000000 0.771075
#
# Coordination Sequence:
#
# PCOD9196168 Si02
#       8
#     8   8   8   8   8   8   8   8
#     4   9  18  33  52  74 103 142 182 222 270 325
#     4  10  20  37  61  86 114 146 181 216 257 313
#     4  10  21  36  51  71  98 134 182 229 278 331
#     4  10  21  34  49  72 103 137 178 228 281 330
#     4   9  20  36  55  82 112 142 177 221 269 320
#     4   9  18  34  57  82 108 142 182 219 261 317
#     4  10  21  35  53  74 101 138 178 225 277 329
#     4  10  20  35  56  82 111 141 178 223 273 323
#
# _framework density 22.578859000000001
#
# number of rings (size 3 to 8) (size 9 to 14) (size 15 to 20)
#    0.000    2.375    0.000    1.875    1.750    4.750 
#    0.000    3.125    0.000    3.750    0.000    0.000 
#    0.000    0.000    0.000    0.000    0.000    0.000 
#
# Total GULP energy -178541.484337 kJ/mol
# GULP energy per Si atom -5579.421386 kJ/mol
# Density = 2.252747 g / cm^3
# Si number density = 22.578859 Si / 1000 Ang^3
#
#
#
# Elastic Constant Matrix: (Units=GPa)
#
#
# Indices 1 2 3 4 5 6 
#
# 1 81.7858 -3.3333 2.3563 0.0000 9.1849 0.0000
# 2 -3.3333 59.6472 -15.2278 0.0000 4.0640 0.0000
# 3 2.3563 -15.2278 106.8703 0.0000 17.3162 0.0000
# 4 0.0000 0.0000 0.0000 10.1092 0.0000 -3.7281
# 5 9.1849 4.0640 17.3162 0.0000 22.9796 0.0000
# 6 0.0000 0.0000 0.0000 -3.7281 0.0000 9.6593
#
#
#
# Elastic Compliance Matrix: (Units=1/GPa)
#
#
# Indices 1 2 3 4 5 6 
#
# 1 0.012941 0.001367 0.000896 0.000000 -0.006089 0.000000
# 2 0.001367 0.018207 0.003616 0.000000 -0.006491 0.000000
# 3 0.000896 0.003616 0.011407 0.000000 -0.009593 0.000000
# 4 0.000000 0.000000 0.000000 0.115337 0.000000 0.044515
# 5 -0.006089 -0.006491 -0.009593 0.000000 0.054328 0.000000
# 6 0.000000 0.000000 0.000000 0.044515 0.000000 0.120708
#
#
# Mechanical properties :
#
#
# Convention : Reuss Voigt Hill
#
# Bulk Modulus (GPa) = 18.41192 23.98817 21.20005
# Shear Modulus (GPa) = 14.73734 26.18348 20.46041
#
# Velocity S-wave (km/s) = 2.55758 3.40905 3.01354
# Velocity P-wave (km/s) = 4.11021 5.11300 4.63878
#
# Compressibility (1/GPa) = 0.05431264
#
# Stress axis : x y z
#
# Youngs Moduli (GPa) = 77.27484 54.92381 87.66529
#
# Poissons Ratio (x) = -0.07507 -0.07856
# Poissons Ratio (y) = -0.10562 -0.31699
# Poissons Ratio (z) = -0.06925 -0.19860
#
# Static dielectric constant tensor:
#      x y z
#    x 1.913790 0.000000 0.069850 
#    y 0.000000 1.855400 0.000000 
#    z 0.069850 0.000000 1.824280 
# 
# From -- ./inp_files/320064.got.cif
#   From: 2010.05.17/outbox.cif.g08.bks.cpg/sg12_161_cif.got.tgz:320064.got - 2010.06.03 13:09:07.
