data_PCOD9196661
_publ_section_title
;
Structure prediction by ZEFSAII (Michael W. Deem and Ramdas Pophale) SiO2 
 PCOD9196661
Probable space group: C 2/M
;
_chemical_formula_sum "Si O2"
_cell_formula_units_Z 40
_cell_length_a 24.208228
_cell_length_b 7.755293
_cell_length_c 8.561440
_cell_angle_alpha 90.000000
_cell_angle_beta 97.021492
_cell_angle_gamma 90.000000
_cell_volume 1595.286556
_symmetry_space_group_name_H-M "C 2/M"
_symmetry_group_IT_number 12
_symmetry_cell_setting 'monoclinic'
loop_
_space_group_symop_operation_xyz
x,y,z
-x,y,-z
-x,-y,-z
x,-y,z
1/2+x,1/2+y,z
1/2-x,1/2+y,-z
1/2-x,1/2-y,-z
1/2+x,1/2-y,z
loop_
_atom_site_type_symbol
_atom_site_label
_atom_site_fract_x
_atom_site_fract_y
_atom_site_fract_z
Si Si1 0.887557 0.791245 0.735111
Si Si2 0.241616 0.298489 0.321209
Si Si3 0.063562 0.799551 0.576296
Si Si4 0.309153 0.807972 0.085316
Si Si5 0.575051 0.692145 0.927485
O O1 0.822655 0.745394 0.742103
O O2 0.904170 0.728986 0.566088
O O3 0.892446 0.000000 0.735566
O O4 0.927999 0.734118 0.895112
O O5 0.250223 0.500000 0.293414
O O6 0.250000 0.250000 0.500000
O O7 0.292452 0.197981 0.258735
O O8 0.063114 0.722746 0.753282
O O9 0.000000 0.802057 0.500000
O O10 0.082880 0.000000 0.602534
O O11 0.358206 0.682402 0.062823
O O12 0.324651 0.000000 0.041883
O O13 0.250000 0.750000 0.000000
O O14 0.550020 0.500000 0.916637
#
# Coordination Sequence:
#
# PCOD9196661 Si02
#       5
#     8   8   8   8   8
#     4  10  20  35  57  84 116 155 201 250 301 360
#     4  12  24  38  58  85 120 161 202 249 299 358
#     4   9  19  36  58  86 117 150 197 257 310 357
#     4  12  23  37  58  86 121 160 200 243 295 359
#     4  10  20  35  58  86 119 159 202 249 300 356
#
# _framework density 25.073865000000001
#
# number of rings (size 3 to 8) (size 9 to 14) (size 15 to 20)
#    0.000    1.400    2.000    4.800    0.000    2.400 
#    0.000    4.000    0.000    2.400    0.000    2.800 
#    0.000    0.000    0.000    0.000    0.000    0.000 
#
# Total GULP energy -111511.286358 kJ/mol
# GULP energy per Si atom -5575.564318 kJ/mol
# Density = 2.501680 g / cm^3
# Si number density = 25.073865 Si / 1000 Ang^3
#
#
#
# Elastic Constant Matrix: (Units=GPa)
#
#
# Indices 1 2 3 4 5 6 
#
# 1 53.7260 4.1570 15.1044 0.0000 -20.6989 0.0000
# 2 4.1570 88.7762 8.3898 0.0000 -1.9596 0.0000
# 3 15.1044 8.3898 208.7716 0.0000 3.9329 0.0000
# 4 0.0000 0.0000 0.0000 13.1121 0.0000 -0.1939
# 5 -20.6989 -1.9596 3.9329 0.0000 44.9921 0.0000
# 6 0.0000 0.0000 0.0000 -0.1939 0.0000 0.3836
#
#
#
# Elastic Compliance Matrix: (Units=1/GPa)
#
#
# Indices 1 2 3 4 5 6 
#
# 1 0.023388 -0.000678 -0.001870 0.000000 0.010894 0.000000
# 2 -0.000678 0.011340 -0.000411 0.000000 0.000218 0.000000
# 3 -0.001870 -0.000411 0.004966 0.000000 -0.001312 0.000000
# 4 0.000000 0.000000 0.000000 0.076840 0.000000 0.038848
# 5 0.010894 0.000218 -0.001312 0.000000 0.027362 0.000000
# 6 0.000000 0.000000 0.000000 0.038848 0.000000 2.626451
#
#
# Mechanical properties :
#
#
# Convention : Reuss Voigt Hill
#
# Bulk Modulus (GPa) = 29.60623 45.17516 37.39069
# Shear Modulus (GPa) = 1.79371 33.27239 17.53305
#
# Velocity S-wave (km/s) = 0.84671 3.64672 2.64721
# Velocity P-wave (km/s) = 3.57619 5.98225 4.92831
#
# Compressibility (1/GPa) = 0.03377668
#
# Stress axis : x y z
#
# Youngs Moduli (GPa) = 42.75654 88.18613 201.35098
#
# Poissons Ratio (x) = 0.05979 0.37655
# Poissons Ratio (y) = 0.02899 0.08271
# Poissons Ratio (z) = 0.07996 0.03622
#
# Static dielectric constant tensor:
#      x y z
#    x 1.983360 0.000000 -0.207870 
#    y 0.000000 1.800340 0.000000 
#    z -0.207870 0.000000 2.672760 
# 
# From -- ./inp_files/93015.got.cif
#   From: 2010.05.17/outbox.cif.g08.bks.cpg/sg12_47_cif.got.tgz:93015.got - 2010.06.03 13:09:07.
