data_PCOD9196711
_publ_section_title
;
Structure prediction by ZEFSAII (Michael W. Deem and Ramdas Pophale) SiO2 
 PCOD9196711
Probable space group: C 2/M
;
_chemical_formula_sum "Si O2"
_cell_formula_units_Z 48
_cell_length_a 21.595277
_cell_length_b 12.340484
_cell_length_c 16.733815
_cell_angle_alpha 90.000000
_cell_angle_beta 31.481267
_cell_angle_gamma 90.000000
_cell_volume 2328.837790
_symmetry_space_group_name_H-M "C 2/M"
_symmetry_group_IT_number 12
_symmetry_cell_setting 'monoclinic'
loop_
_space_group_symop_operation_xyz
x,y,z
-x,y,-z
-x,-y,-z
x,-y,z
1/2+x,1/2+y,z
1/2-x,1/2+y,-z
1/2-x,1/2-y,-z
1/2+x,1/2-y,z
loop_
_atom_site_type_symbol
_atom_site_label
_atom_site_fract_x
_atom_site_fract_y
_atom_site_fract_z
Si Si1 0.729249 0.226223 0.373315
Si Si2 0.604853 0.180189 0.937547
Si Si3 0.980058 0.121294 0.338949
Si Si4 0.628916 0.877956 0.341131
Si Si5 0.727679 0.705177 0.113763
Si Si6 0.464145 0.374535 0.170758
O O1 0.790806 0.306633 0.241654
O O2 0.618078 0.287821 0.533415
O O3 0.689583 0.127816 0.360409
O O4 0.833211 0.179546 0.314045
O O5 0.666151 0.144804 0.954170
O O6 0.500000 0.125567 0.000000
O O7 0.546304 0.296079 0.027669
O O8 0.006720 0.127295 0.215119
O O9 0.104721 0.139410 0.245922
O O10 0.933812 0.000000 0.406797
O O11 0.500000 0.828395 0.500000
O O12 0.699441 0.809374 0.199489
O O13 0.614689 0.000000 0.328157
O O14 0.750000 0.750000 0.000000
O O15 0.462533 0.500000 0.145654
#
# Coordination Sequence:
#
# PCOD9196711 Si02
#       6
#     8   8   8   8   8   8
#     4  10  20  37  59  87 124 157 194 251 307 361
#     4   9  20  35  58  88 117 155 198 243 303 354
#     4  11  23  39  60  89 121 163 210 249 300 368
#     4  10  20  35  57  85 116 147 192 248 308 360
#     4  11  21  38  61  86 123 159 198 252 310 364
#     4  10  20  36  62  93 123 157 198 246 307 373
#
# _framework density 20.611138
#
# number of rings (size 3 to 8) (size 9 to 14) (size 15 to 20)
#    0.000    1.833    3.333    1.000    0.000    6.333 
#    0.000    6.667    0.000    9.000    0.000    0.000 
#    0.000    0.000    0.000    0.000    0.000    0.000 
#
# Total GULP energy -133660.039181 kJ/mol
# GULP energy per Si atom -5569.168299 kJ/mol
# Density = 2.056423 g / cm^3
# Si number density = 20.611138 Si / 1000 Ang^3
#
#
#
# Elastic Constant Matrix: (Units=GPa)
#
#
# Indices 1 2 3 4 5 6 
#
# 1 150.6738 14.2660 22.0809 0.0000 -18.4720 0.0000
# 2 14.2660 70.9518 21.4920 0.0000 6.8811 0.0000
# 3 22.0809 21.4920 74.5095 0.0000 -2.4797 0.0000
# 4 0.0000 0.0000 0.0000 3.7638 0.0000 4.4532
# 5 -18.4720 6.8811 -2.4797 0.0000 35.2375 0.0000
# 6 0.0000 0.0000 0.0000 4.4532 0.0000 14.1492
#
#
#
# Elastic Compliance Matrix: (Units=1/GPa)
#
#
# Indices 1 2 3 4 5 6 
#
# 1 0.007519 -0.001397 -0.001689 0.000000 0.004095 0.000000
# 2 -0.001397 0.016105 -0.004371 0.000000 -0.004185 0.000000
# 3 -0.001689 -0.004371 0.015217 0.000000 0.001039 0.000000
# 4 0.000000 0.000000 0.000000 0.423335 0.000000 -0.133237
# 5 0.004095 -0.004185 0.001039 0.000000 0.031416 0.000000
# 6 0.000000 0.000000 0.000000 -0.133237 0.000000 0.112609
#
#
# Mechanical properties :
#
#
# Convention : Reuss Voigt Hill
#
# Bulk Modulus (GPa) = 41.79397 45.75699 43.77548
# Shear Modulus (GPa) = 7.94799 26.51651 17.23225
#
# Velocity S-wave (km/s) = 1.96584 3.59069 2.89462
# Velocity P-wave (km/s) = 5.04719 6.28005 5.69707
#
# Compressibility (1/GPa) = 0.02392690
#
# Stress axis : x y z
#
# Youngs Moduli (GPa) = 133.00100 62.09334 65.71679
#
# Poissons Ratio (x) = 0.08677 0.11098
# Poissons Ratio (y) = 0.18586 0.28722
# Poissons Ratio (z) = 0.22461 0.27138
#
# Static dielectric constant tensor:
#      x y z
#    x 1.833480 0.000000 -0.051540 
#    y 0.000000 1.730470 0.000000 
#    z -0.051540 0.000000 1.739870 
# 
# From -- ./inp_files/289309.got.cif
#   From: 2010.05.17/outbox.cif.g08.bks.cpg/sg12_145_cif.got.tgz:289309.got - 2010.06.03 13:09:07.
