data_PCOD9196449
_publ_section_title
;
Structure prediction by ZEFSAII (Michael W. Deem and Ramdas Pophale) SiO2 
 PCOD9196449
Probable space group: C 2/M
;
_chemical_formula_sum "Si O2"
_cell_formula_units_Z 50
_cell_length_a 19.210904
_cell_length_b 8.117040
_cell_length_c 16.295791
_cell_angle_alpha 90.000000
_cell_angle_beta 123.270260
_cell_angle_gamma 90.000000
_cell_volume 2124.589931
_symmetry_space_group_name_H-M "C 2/M"
_symmetry_group_IT_number 12
_symmetry_cell_setting 'monoclinic'
loop_
_space_group_symop_operation_xyz
x,y,z
-x,y,-z
-x,-y,-z
x,-y,z
1/2+x,1/2+y,z
1/2-x,1/2+y,-z
1/2-x,1/2-y,-z
1/2+x,1/2-y,z
loop_
_atom_site_type_symbol
_atom_site_label
_atom_site_fract_x
_atom_site_fract_y
_atom_site_fract_z
Si Si1 0.112315 0.183137 0.543705
Si Si2 0.896473 0.815276 0.265140
Si Si3 0.000000 0.500000 0.500000
Si Si4 0.544733 0.184674 0.267544
Si Si5 0.448723 0.695701 0.047242
Si Si6 0.784983 0.698354 0.857770
Si Si7 0.286168 0.688686 0.670087
O O1 0.113309 0.173925 0.643794
O O2 0.060127 0.350750 0.499038
O O3 0.209148 0.209060 0.583815
O O4 0.082444 0.000000 0.494889
O O5 0.808099 0.744931 0.178508
O O6 0.976772 0.714185 0.293175
O O7 0.907299 0.000000 0.238186
O O8 0.490617 0.218274 0.151219
O O9 0.626908 0.294920 0.321136
O O10 0.576456 0.000000 0.287813
O O11 0.457422 0.500000 0.063545
O O12 0.500000 0.746354 0.000000
O O13 0.354002 0.739162 0.965134
O O14 0.784079 0.500000 0.855895
O O15 0.802898 0.756808 0.775884
O O16 0.259270 0.500000 0.655998
#
# Coordination Sequence:
#
# PCOD9196449 Si02
#       7
#     8   8   2   8   8   8   8
#     4  10  22  41  67 100 130 157 199 247 296 361
#     4   9  21  40  59  86 121 160 200 249 303 361
#     4  12  22  40  72 106 124 162 192 242 304 370
#     4  12  24  35  57  85 117 162 210 254 307 362
#     4  11  22  35  52  79 113 158 208 262 309 355
#     4  10  20  35  57  80 115 154 203 263 310 351
#     4  11  20  36  59  88 119 159 206 249 298 361
#
# _framework density 23.533954000000001
#
# number of rings (size 3 to 8) (size 9 to 14) (size 15 to 20)
#    0.000    1.440    2.400    5.040    1.120    2.560 
#    0.000    0.000    0.000    0.960    0.000    0.000 
#    0.000    0.000    0.000    0.000    0.000    0.000 
#
# Total GULP energy -139564.804962 kJ/mol
# GULP energy per Si atom -5582.592198 kJ/mol
# Density = 2.348039 g / cm^3
# Si number density = 23.533954 Si / 1000 Ang^3
#
#
#
# Elastic Constant Matrix: (Units=GPa)
#
#
# Indices 1 2 3 4 5 6 
#
# 1 107.4457 9.3206 34.6462 0.0000 31.2497 0.0000
# 2 9.3206 99.9988 16.7644 0.0000 8.8362 0.0000
# 3 34.6462 16.7644 64.2374 0.0000 18.9718 0.0000
# 4 0.0000 0.0000 0.0000 16.6811 0.0000 14.7775
# 5 31.2497 8.8362 18.9718 0.0000 30.9811 0.0000
# 6 0.0000 0.0000 0.0000 14.7775 0.0000 32.9376
#
#
#
# Elastic Compliance Matrix: (Units=1/GPa)
#
#
# Indices 1 2 3 4 5 6 
#
# 1 0.014033 0.000434 -0.004230 0.000000 -0.011688 0.000000
# 2 0.000434 0.010537 -0.002401 0.000000 -0.001972 0.000000
# 3 -0.004230 -0.002401 0.020769 0.000000 -0.007767 0.000000
# 4 0.000000 0.000000 0.000000 0.099491 0.000000 -0.044637
# 5 -0.011688 -0.001972 -0.007767 0.000000 0.049386 0.000000
# 6 0.000000 0.000000 0.000000 -0.044637 0.000000 0.050387
#
#
# Mechanical properties :
#
#
# Convention : Reuss Voigt Hill
#
# Bulk Modulus (GPa) = 30.35456 43.68269 37.01863
# Shear Modulus (GPa) = 18.65828 30.18337 24.42083
#
# Velocity S-wave (km/s) = 2.81877 3.58515 3.22481
# Velocity P-wave (km/s) = 4.84976 5.97826 5.44333
#
# Compressibility (1/GPa) = 0.03294398
#
# Stress axis : x y z
#
# Youngs Moduli (GPa) = 71.26266 94.90796 48.14831
#
# Poissons Ratio (x) = -0.04119 0.20366
# Poissons Ratio (y) = -0.03092 0.11562
# Poissons Ratio (z) = 0.30143 0.22790
#
# Static dielectric constant tensor:
#      x y z
#    x 1.901840 0.000000 -0.020890 
#    y 0.000000 1.916210 0.000000 
#    z -0.020890 0.000000 1.950500 
# 
# From -- ./inp_files/275779.got.cif
#   From: 2010.05.17/outbox.cif.g08.bks.cpg/sg12_138_cif.got.tgz:275779.got - 2010.06.03 13:09:07.
