data_PCOD9196506
_publ_section_title
;
Structure prediction by ZEFSAII (Michael W. Deem and Ramdas Pophale) SiO2 
 PCOD9196506
Probable space group: C 2/M
;
_chemical_formula_sum "Si O2"
_cell_formula_units_Z 32
_cell_length_a 20.080752
_cell_length_b 7.511147
_cell_length_c 17.061872
_cell_angle_alpha 90.000000
_cell_angle_beta 150.083146
_cell_angle_gamma 90.000000
_cell_volume 1283.481123
_symmetry_space_group_name_H-M "C 2/M"
_symmetry_group_IT_number 12
_symmetry_cell_setting 'monoclinic'
loop_
_space_group_symop_operation_xyz
x,y,z
-x,y,-z
-x,-y,-z
x,-y,z
1/2+x,1/2+y,z
1/2-x,1/2+y,-z
1/2-x,1/2-y,-z
1/2+x,1/2-y,z
loop_
_atom_site_type_symbol
_atom_site_label
_atom_site_fract_x
_atom_site_fract_y
_atom_site_fract_z
Si Si1 0.407079 0.787340 0.663395
Si Si2 0.341906 0.788324 0.169031
Si Si3 0.853147 0.205351 0.352573
Si Si4 0.406551 0.218290 0.834140
O O1 0.250000 0.750000 0.500000
O O2 0.508823 0.720557 0.701256
O O3 0.452434 0.723069 0.795537
O O4 0.421562 0.000000 0.676650
O O5 0.298246 0.708888 0.207530
O O6 0.344180 0.000000 0.182842
O O7 0.250000 0.750000 0.000000
O O8 0.743109 0.281583 0.298662
O O9 0.000000 0.289264 0.500000
O O10 0.869950 0.000000 0.393600
O O11 0.405362 0.000000 0.833071
O O12 0.500000 0.276069 0.000000
#
# Coordination Sequence:
#
# PCOD9196506 Si02
#       4
#     8   8   8   8
#     4  10  21  37  58  83 110 144 185 229 277 329
#     4  11  23  38  58  84 115 150 188 232 281 334
#     4  10  20  35  57  82 109 145 186 228 277 332
#     4   9  17  32  54  77 103 138 181 224 265 317
#
# _framework density 24.932193999999999
#
# number of rings (size 3 to 8) (size 9 to 14) (size 15 to 20)
#    0.000    2.000    0.000    3.750    0.000    8.500 
#    0.000    1.250    0.000    3.000    0.000    0.000 
#    0.000    0.000    0.000    0.000    0.000    0.000 
#
# Total GULP energy -89505.859703 kJ/mol
# GULP energy per Si atom -5594.116231 kJ/mol
# Density = 2.487545 g / cm^3
# Si number density = 24.932194 Si / 1000 Ang^3
#
#
#
# Elastic Constant Matrix: (Units=GPa)
#
#
# Indices 1 2 3 4 5 6 
#
# 1 99.4721 1.2654 -18.6664 0.0000 4.2804 0.0000
# 2 1.2654 83.1450 -7.5256 0.0000 4.0402 0.0000
# 3 -18.6664 -7.5256 60.9759 0.0000 -0.5074 0.0000
# 4 0.0000 0.0000 0.0000 17.4841 0.0000 -4.9592
# 5 4.2804 4.0402 -0.5074 0.0000 45.8669 0.0000
# 6 0.0000 0.0000 0.0000 -4.9592 0.0000 9.4326
#
#
#
# Elastic Compliance Matrix: (Units=1/GPa)
#
#
# Indices 1 2 3 4 5 6 
#
# 1 0.010711 0.000183 0.003293 0.000000 -0.000979 0.000000
# 2 0.000183 0.012217 0.001555 0.000000 -0.001076 0.000000
# 3 0.003293 0.001555 0.017598 0.000000 -0.000250 0.000000
# 4 0.000000 0.000000 0.000000 0.067219 0.000000 0.035340
# 5 -0.000979 -0.001076 -0.000250 0.000000 0.021986 0.000000
# 6 0.000000 0.000000 0.000000 0.035340 0.000000 0.124595
#
#
# Mechanical properties :
#
#
# Convention : Reuss Voigt Hill
#
# Bulk Modulus (GPa) = 19.76767 21.52668 20.64718
# Shear Modulus (GPa) = 19.14777 32.45802 25.80290
#
# Velocity S-wave (km/s) = 2.77428 3.61203 3.22051
# Velocity P-wave (km/s) = 4.26708 5.10378 4.70407
#
# Compressibility (1/GPa) = 0.05058765
#
# Stress axis : x y z
#
# Youngs Moduli (GPa) = 93.36300 81.85040 56.82500
#
# Poissons Ratio (x) = -0.01495 -0.18714
# Poissons Ratio (y) = -0.01705 -0.08835
# Poissons Ratio (z) = -0.30747 -0.12726
#
# Static dielectric constant tensor:
#      x y z
#    x 2.010040 0.000000 0.034730 
#    y 0.000000 1.925320 0.000000 
#    z 0.034730 0.000000 2.022930 
# 
# From -- ./inp_files/70724.got.cif
#   From: 2010.05.17/outbox.cif.g08.bks.cpg/sg12_36_cif.got.tgz:70724.got - 2010.06.03 13:09:07.
