data_PCOD9196322
_publ_section_title
;
Structure prediction by ZEFSAII (Michael W. Deem and Ramdas Pophale) SiO2 
 PCOD9196322
Probable space group: C 2/M
;
_chemical_formula_sum "Si O2"
_cell_formula_units_Z 56
_cell_length_a 13.496917
_cell_length_b 11.050424
_cell_length_c 23.450306
_cell_angle_alpha 90.000000
_cell_angle_beta 52.477850
_cell_angle_gamma 90.000000
_cell_volume 2773.957524
_symmetry_space_group_name_H-M "C 2/M"
_symmetry_group_IT_number 12
_symmetry_cell_setting 'monoclinic'
loop_
_space_group_symop_operation_xyz
x,y,z
-x,y,-z
-x,-y,-z
x,-y,z
1/2+x,1/2+y,z
1/2-x,1/2+y,-z
1/2-x,1/2-y,-z
1/2+x,1/2-y,z
loop_
_atom_site_type_symbol
_atom_site_label
_atom_site_fract_x
_atom_site_fract_y
_atom_site_fract_z
Si Si1 0.641520 0.868738 0.764163
Si Si2 0.125888 0.294216 0.117144
Si Si3 0.267628 0.364780 0.332328
Si Si4 0.598471 0.361305 0.012556
Si Si5 0.404811 0.362342 0.395733
Si Si6 0.636041 0.636714 0.226642
Si Si7 0.520322 0.863660 0.560494
O O1 0.498896 0.871903 0.833429
O O2 0.663679 0.750432 0.718068
O O3 0.734907 0.852949 0.784333
O O4 0.673523 0.000000 0.725725
O O5 0.259975 0.355512 0.060637
O O6 0.133273 0.223327 0.174059
O O7 0.100898 0.210185 0.070920
O O8 0.314582 0.500000 0.299169
O O9 0.288032 0.358042 0.393385
O O10 0.122687 0.358818 0.366562
O O11 0.562860 0.500000 0.036119
O O12 0.500000 0.312592 0.000000
O O13 0.411936 0.500000 0.417408
O O14 0.524156 0.346944 0.311462
O O15 0.408623 0.250606 0.437694
O O16 0.624837 0.500000 0.208805
O O17 0.500000 0.852878 0.500000
O O18 0.570058 0.000000 0.555565
#
# Coordination Sequence:
#
# PCOD9196322 Si02
#       7
#     8   8   8   8   8   8   8
#     4  11  22  36  57  87 119 146 189 245 290 341
#     4  11  21  37  59  83 113 152 191 238 294 346
#     4  10  21  38  59  84 117 156 194 234 291 354
#     4  10  22  39  57  81 114 150 194 239 284 345
#     4  10  20  37  59  85 117 153 198 239 283 352
#     4  10  20  35  56  84 116 152 190 235 293 351
#     4  10  22  40  60  86 121 158 198 243 291 343
#
# _framework density 20.187763
#
# number of rings (size 3 to 8) (size 9 to 14) (size 15 to 20)
#    0.000    1.714    2.857    1.714    0.000    2.000 
#    0.000    1.429    0.000    6.857    0.000    0.000 
#    0.000    0.000    0.000    0.000    0.000    0.000 
#
# Total GULP energy -156211.477322 kJ/mol
# GULP energy per Si atom -5578.981333 kJ/mol
# Density = 2.014181 g / cm^3
# Si number density = 20.187763 Si / 1000 Ang^3
#
#
#
# Elastic Constant Matrix: (Units=GPa)
#
#
# Indices 1 2 3 4 5 6 
#
# 1 99.5475 40.0696 7.6782 0.0000 -1.8897 0.0000
# 2 40.0696 160.9408 48.6491 0.0000 18.8928 0.0000
# 3 7.6782 48.6491 46.7224 0.0000 -2.1990 0.0000
# 4 0.0000 0.0000 0.0000 23.3656 0.0000 12.8440
# 5 -1.8897 18.8928 -2.1990 0.0000 25.4053 0.0000
# 6 0.0000 0.0000 0.0000 12.8440 0.0000 34.6104
#
#
#
# Elastic Compliance Matrix: (Units=1/GPa)
#
#
# Indices 1 2 3 4 5 6 
#
# 1 0.011605 -0.004182 0.002645 0.000000 0.004202 0.000000
# 2 -0.004182 0.012312 -0.012629 0.000000 -0.010560 0.000000
# 3 0.002645 -0.012629 0.034711 0.000000 0.012593 0.000000
# 4 0.000000 0.000000 0.000000 0.053766 0.000000 -0.019953
# 5 0.004202 -0.010560 0.012593 0.000000 0.048618 0.000000
# 6 0.000000 0.000000 0.000000 -0.019953 0.000000 0.036298
#
#
# Mechanical properties :
#
#
# Convention : Reuss Voigt Hill
#
# Bulk Modulus (GPa) = 33.00846 55.55607 44.28226
# Shear Modulus (GPa) = 21.20985 30.73050 25.97018
#
# Velocity S-wave (km/s) = 3.24486 3.90581 3.59058
# Velocity P-wave (km/s) = 5.51589 6.92242 6.25879
#
# Compressibility (1/GPa) = 0.03029526
#
# Stress axis : x y z
#
# Youngs Moduli (GPa) = 86.17293 81.22197 28.80916
#
# Poissons Ratio (x) = 0.33968 -0.07621
# Poissons Ratio (y) = 0.36039 0.36384
# Poissons Ratio (z) = -0.22795 1.02578
#
# Static dielectric constant tensor:
#      x y z
#    x 1.730040 0.000000 -0.041520 
#    y 0.000000 1.715920 0.000000 
#    z -0.041520 0.000000 1.705340 
# 
# From -- ./inp_files/304686.got.cif
#   From: 2010.05.17/outbox.cif.g08.bks.cpg/sg12_153_cif.got.tgz:304686.got - 2010.06.03 13:09:07.
