data_PCOD9196083
_publ_section_title
;
Structure prediction by ZEFSAII (Michael W. Deem and Ramdas Pophale) SiO2 
 PCOD9196083
Probable space group: C 2/M
;
_chemical_formula_sum "Si O2"
_cell_formula_units_Z 56
_cell_length_a 15.150930
_cell_length_b 9.146488
_cell_length_c 24.889817
_cell_angle_alpha 90.000000
_cell_angle_beta 62.764886
_cell_angle_gamma 90.000000
_cell_volume 3066.786859
_symmetry_space_group_name_H-M "C 2/M"
_symmetry_group_IT_number 12
_symmetry_cell_setting 'monoclinic'
loop_
_space_group_symop_operation_xyz
x,y,z
-x,y,-z
-x,-y,-z
x,-y,z
1/2+x,1/2+y,z
1/2-x,1/2+y,-z
1/2-x,1/2-y,-z
1/2+x,1/2-y,z
loop_
_atom_site_type_symbol
_atom_site_label
_atom_site_fract_x
_atom_site_fract_y
_atom_site_fract_z
Si Si1 0.935642 0.324113 0.790520
Si Si2 0.575264 0.675372 0.430995
Si Si3 0.288207 0.325389 0.112053
Si Si4 0.021739 0.174447 0.867137
Si Si5 0.901376 0.333299 0.989748
Si Si6 0.995881 0.324253 0.347166
Si Si7 0.227705 0.324937 0.562851
O O1 0.947102 0.500000 0.791852
O O2 0.821528 0.288579 0.836940
O O3 0.007230 0.246765 0.813327
O O4 0.961009 0.280988 0.722580
O O5 0.500000 0.718834 0.500000
O O6 0.566762 0.500000 0.427273
O O7 0.549341 0.751498 0.382693
O O8 0.685115 0.712728 0.420304
O O9 0.293330 0.500000 0.100949
O O10 0.373196 0.291390 0.132915
O O11 0.317856 0.241648 0.049445
O O12 0.935395 0.240912 0.929031
O O13 0.012762 0.000000 0.866722
O O14 0.876222 0.500000 0.982019
O O15 0.000000 0.336594 0.000000
O O16 0.004231 0.500000 0.349024
O O17 0.879967 0.284768 0.384930
O O18 0.230252 0.500000 0.554235
O O19 0.250000 0.250000 0.500000
#
# Coordination Sequence:
#
# PCOD9196083 Si02
#       7
#     8   8   8   8   8   8   8
#     4  10  22  39  55  76 109 147 183 223 270 322
#     4  10  20  35  56  82 111 141 173 217 271 320
#     4   9  19  36  56  77 108 145 181 224 273 324
#     4  10  20  35  56  81 108 142 184 226 271 323
#     4   9  17  31  54  83 110 139 179 228 276 320
#     4  10  22  38  56  80 110 143 183 224 266 322
#     4  10  20  35  56  82 110 140 174 216 267 319
#
# _framework density 18.260154
#
# number of rings (size 3 to 8) (size 9 to 14) (size 15 to 20)
#    0.000    2.286    1.429    0.857    0.000    6.000 
#    0.000    0.000    0.000    0.000    0.000    0.000 
#    0.000    0.000    0.000    0.000    0.000    0.000 
#
# Total GULP energy -156335.095532 kJ/mol
# GULP energy per Si atom -5583.396269 kJ/mol
# Density = 1.821859 g / cm^3
# Si number density = 18.260154 Si / 1000 Ang^3
#
#
#
# Elastic Constant Matrix: (Units=GPa)
#
#
# Indices 1 2 3 4 5 6 
#
# 1 89.4062 27.4119 33.2022 0.0000 7.0604 0.0000
# 2 27.4119 24.0855 24.6738 0.0000 4.9476 0.0000
# 3 33.2022 24.6738 91.7921 0.0000 12.2229 0.0000
# 4 0.0000 0.0000 0.0000 29.7390 0.0000 9.4767
# 5 7.0604 4.9476 12.2229 0.0000 32.9376 0.0000
# 6 0.0000 0.0000 0.0000 9.4767 0.0000 26.3560
#
#
#
# Elastic Compliance Matrix: (Units=1/GPa)
#
#
# Indices 1 2 3 4 5 6 
#
# 1 0.017304 -0.018283 -0.001280 0.000000 -0.000488 0.000000
# 2 -0.018283 0.076904 -0.013720 0.000000 -0.002541 0.000000
# 3 -0.001280 -0.013720 0.015500 0.000000 -0.003417 0.000000
# 4 0.000000 0.000000 0.000000 0.037977 0.000000 -0.013655
# 5 -0.000488 -0.002541 -0.003417 0.000000 0.032115 0.000000
# 6 0.000000 0.000000 0.000000 -0.013655 0.000000 0.042852
#
#
# Mechanical properties :
#
#
# Convention : Reuss Voigt Hill
#
# Bulk Modulus (GPa) = 23.17897 41.76218 32.47058
# Shear Modulus (GPa) = 16.46909 25.80624 21.13767
#
# Velocity S-wave (km/s) = 3.00645 3.76341 3.40602
# Velocity P-wave (km/s) = 4.97724 6.46565 5.76964
#
# Compressibility (1/GPa) = 0.04314255
#
# Stress axis : x y z
#
# Youngs Moduli (GPa) = 57.78939 13.00321 64.51591
#
# Poissons Ratio (x) = 0.23774 0.08256
# Poissons Ratio (y) = 1.05656 0.88518
# Poissons Ratio (z) = 0.07395 0.17841
#
# Static dielectric constant tensor:
#      x y z
#    x 1.632260 0.000000 -0.007090 
#    y 0.000000 1.614140 0.000000 
#    z -0.007090 0.000000 1.595260 
# 
# From -- ./inp_files/338512.got.cif
#   From: 2010.05.17/outbox.cif.g08.bks.cpg/sg12_170_cif.got.tgz:338512.got - 2010.06.03 13:09:07.
