data_PCOD9196622
_publ_section_title
;
Structure prediction by ZEFSAII (Michael W. Deem and Ramdas Pophale) SiO2 
 PCOD9196622
Probable space group: C 2/M
;
_chemical_formula_sum "Si O2"
_cell_formula_units_Z 56
_cell_length_a 8.950673
_cell_length_b 18.558497
_cell_length_c 22.920906
_cell_angle_alpha 90.000000
_cell_angle_beta 125.856249
_cell_angle_gamma 90.000000
_cell_volume 3085.868971
_symmetry_space_group_name_H-M "C 2/M"
_symmetry_group_IT_number 12
_symmetry_cell_setting 'monoclinic'
loop_
_space_group_symop_operation_xyz
x,y,z
-x,y,-z
-x,-y,-z
x,-y,z
1/2+x,1/2+y,z
1/2-x,1/2+y,-z
1/2-x,1/2-y,-z
1/2+x,1/2-y,z
loop_
_atom_site_type_symbol
_atom_site_label
_atom_site_fract_x
_atom_site_fract_y
_atom_site_fract_z
Si Si1 0.951958 0.586483 0.850209
Si Si2 0.756754 0.171057 0.718028
Si Si3 0.102668 0.328943 0.281972
Si Si4 0.542444 0.083806 0.575296
Si Si5 0.827730 0.087632 0.000000
Si Si6 0.401332 0.413517 0.149791
Si Si7 0.816556 0.083806 0.424704
O O1 0.962899 0.500000 0.843799
O O2 0.937799 0.625686 0.785341
O O3 0.771879 0.601336 0.847920
O O4 0.134878 0.609751 0.927104
O O5 0.829598 0.250000 0.719732
O O6 0.581447 0.174766 0.720964
O O7 0.689334 0.130934 0.643912
O O8 0.918224 0.125686 0.785341
O O9 0.257597 0.369066 0.356088
O O10 0.500000 0.108338 0.500000
O O11 0.353801 0.086149 0.569201
O O12 0.603235 0.000000 0.586605
O O13 0.853564 0.109751 0.072896
O O14 0.826966 0.000000 0.000000
O O15 0.000000 0.111229 0.000000
O O16 0.431501 0.500000 0.156201
O O17 0.000000 0.108338 0.500000
O O18 0.843421 0.000000 0.413395
#
# Coordination Sequence:
#
# PCOD9196622 Si02
#       7
#     8   8   8   8   8   8   8
#     4  10  20  35  57  84 112 143 182 227 273 323
#     4  11  23  38  55  78 111 148 186 226 272 326
#     4  11  23  38  55  78 111 148 186 226 272 326
#     4   9  19  36  58  82 107 138 178 224 272 323
#     4   9  17  31  54  83 112 143 180 223 271 321
#     4  10  20  35  57  84 112 143 182 227 273 323
#     4   9  19  36  58  82 107 138 178 224 272 323
#
# _framework density 18.147238000000002
#
# number of rings (size 3 to 8) (size 9 to 14) (size 15 to 20)
#    0.000    2.143    0.000    3.000    0.000    7.429 
#    0.000    6.429    0.000    0.000    0.000    0.000 
#    0.000    0.000    0.000    0.000    0.000    0.000 
#
# Total GULP energy -156354.189453 kJ/mol
# GULP energy per Si atom -5584.078195 kJ/mol
# Density = 1.810593 g / cm^3
# Si number density = 18.147238 Si / 1000 Ang^3
#
#
#
# Elastic Constant Matrix: (Units=GPa)
#
#
# Indices 1 2 3 4 5 6 
#
# 1 88.6687 53.1555 83.3594 0.0000 0.0031 0.0000
# 2 53.1555 55.7654 74.7287 0.0000 0.0009 0.0000
# 3 83.3594 74.7287 205.5427 0.0000 0.0018 0.0000
# 4 0.0000 0.0000 0.0000 -10.0057 0.0000 -0.0014
# 5 0.0031 0.0009 0.0018 0.0000 39.1168 0.0000
# 6 0.0000 0.0000 0.0000 -0.0014 0.0000 24.6431
#
#
#
# Elastic Compliance Matrix: (Units=1/GPa)
#
#
# Indices 1 2 3 4 5 6 
#
# 1 0.027318 -0.021827 -0.003143 0.000000 -0.000002 0.000000
# 2 -0.021827 0.052410 -0.010202 0.000000 0.000001 0.000000
# 3 -0.003143 -0.010202 0.009849 0.000000 0.000000 0.000000
# 4 0.000000 0.000000 0.000000 -0.099943 0.000000 -0.000006
# 5 -0.000002 0.000001 0.000000 0.000000 0.025564 0.000000
# 6 0.000000 0.000000 0.000000 -0.000006 0.000000 0.040579
#
#
# Mechanical properties :
#
#
# Convention : Reuss Voigt Hill
#
# Bulk Modulus (GPa) = 51.99912 85.82931 68.91422
# Shear Modulus (GPa) = 37.72622 19.99972 28.86297
#
# Velocity S-wave (km/s) = 4.56444 3.32336 3.99242
# Velocity P-wave (km/s) = 7.51632 7.88194 7.70130
#
# Compressibility (1/GPa) = 0.01923109
#
# Stress axis : x y z
#
# Youngs Moduli (GPa) = 36.60545 19.08048 101.53141
#
# Poissons Ratio (x) = 0.41648 0.31915
# Poissons Ratio (y) = 0.79900 1.03584
# Poissons Ratio (z) = 0.11507 0.19466
#
# Static dielectric constant tensor:
#      x y z
#    x 1.605340 0.000000 0.000000 
#    y 0.000000 1.604970 0.000000 
#    z 0.000000 0.000000 1.595010 
# 
# From -- ./inp_files/275258.got.cif
#   From: 2010.05.17/outbox.cif.g08.bks.cpg/sg12_138_cif.got.tgz:275258.got - 2010.06.03 13:09:07.
