data_PCOD9196977
_publ_section_title
;
Structure prediction by ZEFSAII (Michael W. Deem and Ramdas Pophale) SiO2 
 PCOD9196977
Probable space group: C 2/M
;
_chemical_formula_sum "Si O2"
_cell_formula_units_Z 56
_cell_length_a 19.236208
_cell_length_b 8.516978
_cell_length_c 23.246778
_cell_angle_alpha 90.000000
_cell_angle_beta 128.005651
_cell_angle_gamma 90.000000
_cell_volume 3001.003026
_symmetry_space_group_name_H-M "C 2/M"
_symmetry_group_IT_number 12
_symmetry_cell_setting 'monoclinic'
loop_
_space_group_symop_operation_xyz
x,y,z
-x,y,-z
-x,-y,-z
x,-y,z
1/2+x,1/2+y,z
1/2-x,1/2+y,-z
1/2-x,1/2-y,-z
1/2+x,1/2-y,z
loop_
_atom_site_type_symbol
_atom_site_label
_atom_site_fract_x
_atom_site_fract_y
_atom_site_fract_z
Si Si1 0.154997 0.187990 0.932108
Si Si2 0.493773 0.691950 0.930301
Si Si3 0.171933 0.188245 0.500016
Si Si4 0.173281 0.311309 0.629673
Si Si5 0.699063 0.309201 0.204380
Si Si6 0.357261 0.811750 0.202210
Si Si7 0.523555 0.688436 0.636237
O O1 0.077424 0.243461 0.935423
O O2 0.136113 0.241544 0.857590
O O3 0.156687 0.000000 0.935275
O O4 0.250000 0.250000 0.000000
O O5 0.493740 0.500000 0.929683
O O6 0.400322 0.745093 0.856448
O O7 0.500000 0.740172 0.000000
O O8 0.250000 0.250000 0.500000
O O9 0.181555 0.250801 0.569561
O O10 0.076674 0.237741 0.426519
O O11 0.173538 0.000000 0.501939
O O12 0.169298 0.500000 0.627993
O O13 0.254666 0.261746 0.712384
O O14 0.085738 0.246261 0.615953
O O15 0.697373 0.500000 0.203182
O O16 0.765847 0.262283 0.187199
O O17 0.434837 0.757660 0.284378
O O18 0.356965 0.000000 0.198535
O O19 0.527305 0.500000 0.640942
#
# Coordination Sequence:
#
# PCOD9196977 Si02
#       7
#     8   8   8   8   8   8   8
#     4  11  22  35  55  81 110 145 183 227 277 329
#     4   9  17  31  53  78 103 137 181 223 264 316
#     4  11  24  39  56  80 112 149 190 238 286 334
#     4  10  20  35  58  85 113 147 186 230 281 340
#     4   8  16  32  54  80 106 135 177 224 267 318
#     4  10  20  36  59  84 110 141 179 226 277 331
#     4  10  21  38  59  83 112 147 187 230 279 337
#
# _framework density 18.660429000000001
#
# number of rings (size 3 to 8) (size 9 to 14) (size 15 to 20)
#    0.000    2.143    0.000    4.286    0.000    7.429 
#    0.000    2.857    0.000   15.429    0.000    0.000 
#    0.000    0.000    0.000    0.000    0.000    0.000 
#
# Total GULP energy -156370.844059 kJ/mol
# GULP energy per Si atom -5584.673002 kJ/mol
# Density = 1.861796 g / cm^3
# Si number density = 18.660429 Si / 1000 Ang^3
#
#
#
# Elastic Constant Matrix: (Units=GPa)
#
#
# Indices 1 2 3 4 5 6 
#
# 1 180.0530 34.4481 137.9671 0.0000 2.0541 0.0000
# 2 34.4481 36.4883 28.7711 0.0000 1.7177 0.0000
# 3 137.9671 28.7711 148.3417 0.0000 8.4934 0.0000
# 4 0.0000 0.0000 0.0000 31.2773 0.0000 -3.7623
# 5 2.0541 1.7177 8.4934 0.0000 38.6703 0.0000
# 6 0.0000 0.0000 0.0000 -3.7623 0.0000 29.5071
#
#
#
# Elastic Compliance Matrix: (Units=1/GPa)
#
#
# Indices 1 2 3 4 5 6 
#
# 1 0.020441 -0.005092 -0.018203 0.000000 0.003139 0.000000
# 2 -0.005092 0.033623 -0.001737 0.000000 -0.000841 0.000000
# 3 -0.018203 -0.001737 0.024253 0.000000 -0.004283 0.000000
# 4 0.000000 0.000000 0.000000 0.032470 0.000000 0.004140
# 5 0.003139 -0.000841 -0.004283 0.000000 0.026671 0.000000
# 6 0.000000 0.000000 0.000000 0.004140 0.000000 0.034418
#
#
# Mechanical properties :
#
#
# Convention : Reuss Voigt Hill
#
# Bulk Modulus (GPa) = 35.39551 85.25062 60.32306
# Shear Modulus (GPa) = 21.61152 30.80404 26.20778
#
# Velocity S-wave (km/s) = 3.40685 4.06737 3.75167
# Velocity P-wave (km/s) = 5.87238 8.23665 7.15288
#
# Compressibility (1/GPa) = 0.02825217
#
# Stress axis : x y z
#
# Youngs Moduli (GPa) = 48.92195 29.74177 41.23134
#
# Poissons Ratio (x) = 0.15145 0.75054
# Poissons Ratio (y) = 0.24912 0.07161
# Poissons Ratio (z) = 0.89054 0.05166
#
# Static dielectric constant tensor:
#      x y z
#    x 1.617770 0.000000 0.012030 
#    y 0.000000 1.641670 0.000000 
#    z 0.012030 0.000000 1.628560 
# 
# From -- ./inp_files/342581.got.cif
#   From: 2010.05.17/outbox.cif.g08.bks.cpg/sg12_172_cif.got.tgz:342581.got - 2010.06.03 13:09:07.
