data_PCOD9196202
_publ_section_title
;
Structure prediction by ZEFSAII (Michael W. Deem and Ramdas Pophale) SiO2 
 PCOD9196202
Probable space group: C 2/M
;
_chemical_formula_sum "Si O2"
_cell_formula_units_Z 64
_cell_length_a 29.901409
_cell_length_b 7.968740
_cell_length_c 17.086678
_cell_angle_alpha 90.000000
_cell_angle_beta 44.931652
_cell_angle_gamma 90.000000
_cell_volume 2875.446294
_symmetry_space_group_name_H-M "C 2/M"
_symmetry_group_IT_number 12
_symmetry_cell_setting 'monoclinic'
loop_
_space_group_symop_operation_xyz
x,y,z
-x,y,-z
-x,-y,-z
x,-y,z
1/2+x,1/2+y,z
1/2-x,1/2+y,-z
1/2-x,1/2-y,-z
1/2+x,1/2-y,z
loop_
_atom_site_type_symbol
_atom_site_label
_atom_site_fract_x
_atom_site_fract_y
_atom_site_fract_z
Si Si1 0.444905 0.197724 0.840754
Si Si2 0.851847 0.201776 0.350149
Si Si3 0.485319 0.297391 0.391062
Si Si4 0.266224 0.297705 0.775814
Si Si5 0.726980 0.199355 0.413123
Si Si6 0.902832 0.795909 0.631885
Si Si7 0.019921 0.801872 0.890932
Si Si8 0.807055 0.298160 0.987068
O O1 0.502012 0.229301 0.709898
O O2 0.463186 0.280412 0.899730
O O3 0.438585 0.000000 0.861818
O O4 0.378955 0.262501 0.884650
O O5 0.790593 0.265003 0.377495
O O6 0.834193 0.239367 0.462326
O O7 0.916374 0.266977 0.230209
O O8 0.854055 0.000000 0.342123
O O9 0.484736 0.500000 0.387034
O O10 0.425497 0.244848 0.516989
O O11 0.545326 0.241952 0.369777
O O12 0.266061 0.500000 0.776403
O O13 0.267625 0.244811 0.684349
O O14 0.332065 0.238663 0.733255
O O15 0.211092 0.242195 0.902205
O O16 0.727080 0.000000 0.419631
O O17 0.904164 0.000000 0.631797
O O18 0.031631 0.000000 0.888120
O O19 0.000000 0.729830 0.000000
O O20 0.808385 0.500000 0.982987
O O21 0.750000 0.250000 0.000000
#
# Coordination Sequence:
#
# PCOD9196202 Si02
#       8
#     8   8   8   8   8   8   8   8
#     4  11  24  39  56  87 124 155 189 239 300 355
#     4   9  20  40  61  83 115 150 190 238 286 341
#     4   9  17  34  58  82 108 148 193 233 277 340
#     4  10  20  35  56  82 113 150 191 239 287 342
#     4  10  21  36  58  89 117 147 186 235 293 350
#     4   8  16  31  55  83 109 140 189 238 275 323
#     4  10  23  42  65  88 112 153 205 247 284 342
#     4  10  23  41  61  86 119 158 202 245 294 350
#
# _framework density 22.257415000000002
#
# number of rings (size 3 to 8) (size 9 to 14) (size 15 to 20)
#    0.000    2.375    0.000    2.250    3.500    3.750 
#    0.000    1.875    0.000    0.000    0.000    0.000 
#    0.000    0.000    0.000    0.000    0.000    0.000 
#
# Total GULP energy -178609.718498 kJ/mol
# GULP energy per Si atom -5581.553703 kJ/mol
# Density = 2.220676 g / cm^3
# Si number density = 22.257415 Si / 1000 Ang^3
#
#
#
# Elastic Constant Matrix: (Units=GPa)
#
#
# Indices 1 2 3 4 5 6 
#
# 1 62.3173 -5.4003 34.3591 0.0002 13.1109 -0.0001
# 2 -5.4003 17.8697 13.1584 0.0043 -2.3155 0.0008
# 3 34.3591 13.1584 135.5016 -0.0009 8.3507 0.0004
# 4 0.0002 0.0043 -0.0009 11.6620 0.0006 2.9213
# 5 13.1109 -2.3155 8.3507 0.0006 39.3263 -0.0004
# 6 -0.0001 0.0008 0.0004 2.9213 -0.0004 22.5210
#
#
#
# Elastic Compliance Matrix: (Units=1/GPa)
#
#
# Indices 1 2 3 4 5 6 
#
# 1 0.021405 0.010285 -0.006104 -0.000005 -0.005234 0.000000
# 2 0.010285 0.066141 -0.009180 -0.000026 0.002415 0.000001
# 3 -0.006104 -0.009180 0.009856 0.000004 -0.000598 0.000000
# 4 -0.000005 -0.000026 0.000004 0.088629 -0.000002 -0.011496
# 5 -0.005234 0.002415 -0.000598 -0.000002 0.027443 0.000001
# 6 0.000000 0.000001 0.000000 -0.011496 0.000001 0.045894
#
#
# Mechanical properties :
#
#
# Convention : Reuss Voigt Hill
#
# Bulk Modulus (GPa) = 11.44096 33.32476 22.38286
# Shear Modulus (GPa) = 16.75043 26.27328 21.51185
#
# Velocity S-wave (km/s) = 2.74629 3.43946 3.11224
# Velocity P-wave (km/s) = 3.89969 5.54781 4.79509
#
# Compressibility (1/GPa) = 0.08740526
#
# Stress axis : x y z
#
# Youngs Moduli (GPa) = 46.71838 15.11914 101.46069
#
# Poissons Ratio (x) = -0.15550 0.61930
# Poissons Ratio (y) = -0.48050 0.93138
# Poissons Ratio (z) = 0.28516 0.13879
#
# Static dielectric constant tensor:
#      x y z
#    x 1.836780 0.000000 -0.010180 
#    y 0.000000 1.793230 0.000000 
#    z -0.010180 0.000000 1.829170 
# 
# From -- ./inp_files/295663.got.cif
#   From: 2010.05.17/outbox.cif.g08.bks.cpg/sg12_148_cif.got.tgz:295663.got - 2010.06.03 13:09:07.
