data_PCOD9196267
_publ_section_title
;
Structure prediction by ZEFSAII (Michael W. Deem and Ramdas Pophale) SiO2 
 PCOD9196267
Probable space group: C 2/M
;
_chemical_formula_sum "Si O2"
_cell_formula_units_Z 56
_cell_length_a 32.008562
_cell_length_b 7.490647
_cell_length_c 12.443290
_cell_angle_alpha 90.000000
_cell_angle_beta 53.456032
_cell_angle_gamma 90.000000
_cell_volume 2396.915006
_symmetry_space_group_name_H-M "C 2/M"
_symmetry_group_IT_number 12
_symmetry_cell_setting 'monoclinic'
loop_
_space_group_symop_operation_xyz
x,y,z
-x,y,-z
-x,-y,-z
x,-y,z
1/2+x,1/2+y,z
1/2-x,1/2+y,-z
1/2-x,1/2-y,-z
1/2+x,1/2-y,z
loop_
_atom_site_type_symbol
_atom_site_label
_atom_site_fract_x
_atom_site_fract_y
_atom_site_fract_z
Si Si1 0.314389 0.217933 0.147394
Si Si2 0.400276 0.202596 0.648123
Si Si3 0.189447 0.713755 0.607144
Si Si4 0.606106 0.205738 0.573884
Si Si5 0.510387 0.708785 0.864842
Si Si6 0.913625 0.283343 0.861050
Si Si7 0.718948 0.712473 0.157258
O O1 0.326228 0.278532 0.250071
O O2 0.257499 0.273402 0.193351
O O3 0.314218 0.000000 0.147177
O O4 0.358887 0.275621 0.996359
O O5 0.409498 0.286878 0.517111
O O6 0.420410 0.283507 0.728820
O O7 0.337532 0.200844 0.756250
O O8 0.421386 0.000000 0.612874
O O9 0.181475 0.500000 0.620182
O O10 0.250000 0.750000 0.500000
O O11 0.154846 0.786979 0.562759
O O12 0.558455 0.206507 0.728926
O O13 0.619947 0.000000 0.527097
O O14 0.523164 0.500000 0.856456
O O15 0.459584 0.730094 0.869691
O O16 0.500000 0.781605 0.000000
O O17 0.912131 0.500000 0.858824
O O18 0.711094 0.500000 0.178955
O O19 0.750000 0.750000 0.000000
#
# Coordination Sequence:
#
# PCOD9196267 Si02
#       7
#     8   8   8   8   8   8   8
#     4   9  18  33  54  80 111 151 194 235 281 339
#     4  10  21  38  59  88 121 152 195 243 290 348
#     4  10  20  35  56  83 114 149 192 234 280 340
#     4  10  22  40  63  88 117 156 197 236 286 354
#     4  11  25  43  62  87 117 147 190 247 299 346
#     4  10  20  38  62  84 113 151 193 241 290 348
#     4  11  20  33  54  82 119 160 199 240 290 345
#
# _framework density 23.363364000000001
#
# number of rings (size 3 to 8) (size 9 to 14) (size 15 to 20)
#    0.000    1.857    1.429    2.571    0.000    4.571 
#    0.000    4.286    0.000    0.000    0.000    0.000 
#    0.000    0.000    0.000    0.000    0.000    0.000 
#
# Total GULP energy -156556.865607 kJ/mol
# GULP energy per Si atom -5591.316629 kJ/mol
# Density = 2.331019 g / cm^3
# Si number density = 23.363364 Si / 1000 Ang^3
#
#
#
# Elastic Constant Matrix: (Units=GPa)
#
#
# Indices 1 2 3 4 5 6 
#
# 1 133.3501 -9.5485 51.3684 0.0000 34.8397 0.0000
# 2 -9.5485 75.0484 -5.9975 0.0000 8.5885 0.0000
# 3 51.3684 -5.9975 142.9461 0.0000 43.4923 0.0000
# 4 0.0000 0.0000 0.0000 7.4752 0.0000 -6.9115
# 5 34.8397 8.5885 43.4923 0.0000 50.1787 0.0000
# 6 0.0000 0.0000 0.0000 -6.9115 0.0000 18.5413
#
#
#
# Elastic Compliance Matrix: (Units=1/GPa)
#
#
# Indices 1 2 3 4 5 6 
#
# 1 0.009745 0.001737 -0.001738 0.000000 -0.005556 0.000000
# 2 0.001737 0.014225 0.001467 0.000000 -0.004912 0.000000
# 3 -0.001738 0.001467 0.010038 0.000000 -0.007745 0.000000
# 4 0.000000 0.000000 0.000000 0.204130 0.000000 0.076092
# 5 -0.005556 -0.004912 -0.007745 0.000000 0.031340 0.000000
# 6 0.000000 0.000000 0.000000 0.076092 0.000000 0.082298
#
#
# Mechanical properties :
#
#
# Convention : Reuss Voigt Hill
#
# Bulk Modulus (GPa) = 27.07109 46.99883 37.03496
# Shear Modulus (GPa) = 13.84433 36.27385 25.05909
#
# Velocity S-wave (km/s) = 2.43691 3.94457 3.27858
# Velocity P-wave (km/s) = 4.41930 6.39581 5.49711
#
# Compressibility (1/GPa) = 0.03693977
#
# Stress axis : x y z
#
# Youngs Moduli (GPa) = 102.61913 70.29806 99.61815
#
# Poissons Ratio (x) = -0.12209 0.17317
# Poissons Ratio (y) = -0.17823 -0.14618
# Poissons Ratio (z) = 0.17839 -0.10315
#
# Static dielectric constant tensor:
#      x y z
#    x 1.872940 0.000000 0.048950 
#    y 0.000000 1.922580 0.000000 
#    z 0.048950 0.000000 1.865200 
# 
# From -- ./inp_files/187179.got.cif
#   From: 2010.05.17/outbox.cif.g08.bks.cpg/sg12_94_cif.got.tgz:187179.got - 2010.06.03 13:09:07.
