data_PCOD9196301
_publ_section_title
;
Structure prediction by ZEFSAII (Michael W. Deem and Ramdas Pophale) SiO2 
 PCOD9196301
Probable space group: C 2/M
;
_chemical_formula_sum "Si O2"
_cell_formula_units_Z 64
_cell_length_a 19.068861
_cell_length_b 17.306680
_cell_length_c 22.026231
_cell_angle_alpha 90.000000
_cell_angle_beta 154.493788
_cell_angle_gamma 90.000000
_cell_volume 3130.125574
_symmetry_space_group_name_H-M "C 2/M"
_symmetry_group_IT_number 12
_symmetry_cell_setting 'monoclinic'
loop_
_space_group_symop_operation_xyz
x,y,z
-x,y,-z
-x,-y,-z
x,-y,z
1/2+x,1/2+y,z
1/2-x,1/2+y,-z
1/2-x,1/2-y,-z
1/2+x,1/2-y,z
loop_
_atom_site_type_symbol
_atom_site_label
_atom_site_fract_x
_atom_site_fract_y
_atom_site_fract_z
Si Si1 0.551208 0.409179 0.875023
Si Si2 0.047648 0.412095 0.607131
Si Si3 0.162832 0.911911 0.588704
Si Si4 0.552508 0.853798 0.109885
Si Si5 0.860239 0.325658 0.079728
Si Si6 0.791863 0.317255 0.583435
Si Si7 0.235785 0.089845 0.430491
Si Si8 0.122970 0.822604 0.150529
O O1 0.533564 0.500000 0.873433
O O2 0.442735 0.386115 0.731293
O O3 0.460226 0.362166 0.856445
O O4 0.740046 0.390171 0.013113
O O5 0.080992 0.500000 0.656127
O O6 0.206960 0.360615 0.734211
O O7 0.000000 0.418871 0.500000
O O8 0.889780 0.374911 0.515458
O O9 0.315614 0.907238 0.754251
O O10 0.183043 0.840617 0.556885
O O11 0.000000 0.901797 0.500000
O O12 0.160291 0.000000 0.560542
O O13 0.408445 0.844024 0.047499
O O14 0.633252 0.768822 0.168273
O O15 0.500000 0.875682 0.000000
O O16 0.026049 0.312413 0.247277
O O17 0.750000 0.250000 0.000000
O O18 0.750000 0.250000 0.500000
O O19 0.770045 0.393551 0.526191
O O20 0.244844 0.000000 0.422718
O O21 0.000000 0.835928 0.000000
#
# Coordination Sequence:
#
# PCOD9196301 Si02
#       8
#     8   8   8   8   8   8   8   8
#     4  11  23  40  63  91 130 180 220 264 330 400
#     4  10  20  35  56  83 123 174 219 266 319 389
#     4  10  24  47  71  99 134 172 222 283 334 395
#     4  10  24  43  67  96 128 169 218 274 332 391
#     4  11  23  42  64  90 134 170 215 278 334 399
#     4  11  25  41  68 100 129 171 221 278 342 404
#     4  10  22  39  59  89 130 172 217 265 323 396
#     4  11  23  38  59  93 131 170 219 273 325 391
#
# _framework density 20.446463999999999
#
# number of rings (size 3 to 8) (size 9 to 14) (size 15 to 20)
#    0.000    1.500    2.500    1.500    3.500    7.250 
#    0.000    1.250    0.000    0.000    0.000    0.000 
#    0.000    0.000    0.000    0.000    0.000    0.000 
#
# Total GULP energy -178410.408179 kJ/mol
# GULP energy per Si atom -5575.325256 kJ/mol
# Density = 2.039993 g / cm^3
# Si number density = 20.446464 Si / 1000 Ang^3
#
#
#
# Elastic Constant Matrix: (Units=GPa)
#
#
# Indices 1 2 3 4 5 6 
#
# 1 95.0433 14.6210 46.9072 0.0022 -1.0714 0.0029
# 2 14.6210 49.5130 33.0672 0.0261 4.0986 0.0067
# 3 46.9072 33.0672 90.3609 0.0545 11.6655 0.0148
# 4 0.0022 0.0261 0.0545 41.6423 0.0064 0.1191
# 5 -1.0714 4.0986 11.6655 0.0064 34.4963 0.0015
# 6 0.0029 0.0067 0.0148 0.1191 0.0015 27.0875
#
#
#
# Elastic Compliance Matrix: (Units=1/GPa)
#
#
# Indices 1 2 3 4 5 6 
#
# 1 0.014498 0.001000 -0.008297 0.000009 0.003137 0.000003
# 2 0.001000 0.026799 -0.010372 -0.000003 0.000354 -0.000001
# 3 -0.008297 -0.010372 0.019913 -0.000018 -0.005759 -0.000007
# 4 0.000009 -0.000003 -0.000018 0.024014 0.000002 -0.000106
# 5 0.003137 0.000354 -0.005759 0.000002 0.030992 0.000001
# 6 0.000003 -0.000001 -0.000007 -0.000106 0.000001 0.036918
#
#
# Mechanical properties :
#
#
# Convention : Reuss Voigt Hill
#
# Bulk Modulus (GPa) = 38.65143 47.12310 42.88727
# Shear Modulus (GPa) = 25.36847 30.00001 27.68424
#
# Velocity S-wave (km/s) = 3.52622 3.83462 3.68365
# Velocity P-wave (km/s) = 5.96018 6.53474 6.25406
#
# Compressibility (1/GPa) = 0.02587226
#
# Stress axis : x y z
#
# Youngs Moduli (GPa) = 68.97556 37.31492 50.21862
#
# Poissons Ratio (x) = -0.03733 0.41667
# Poissons Ratio (y) = -0.06900 0.52087
# Poissons Ratio (z) = 0.57229 0.38703
#
# Static dielectric constant tensor:
#      x y z
#    x 1.601940 0.000030 -0.031750 
#    y 0.000030 1.829080 0.000000 
#    z -0.031750 0.000000 1.720330 
# 
# From -- ./inp_files/347929.got.cif
#   From: 2010.05.17/outbox.cif.g08.bks.cpg/sg12_174_cif.got.tgz:347929.got - 2010.06.03 13:09:07.
