data_PCOD9196001
_publ_section_title
;
Structure prediction by ZEFSAII (Michael W. Deem and Ramdas Pophale) SiO2 
 PCOD9196001
Probable space group: C 2/M
;
_chemical_formula_sum "Si O2"
_cell_formula_units_Z 48
_cell_length_a 7.392651
_cell_length_b 11.854530
_cell_length_c 22.572489
_cell_angle_alpha 90.000000
_cell_angle_beta 117.452623
_cell_angle_gamma 90.000000
_cell_volume 1755.414458
_symmetry_space_group_name_H-M "C 2/M"
_symmetry_group_IT_number 12
_symmetry_cell_setting 'monoclinic'
loop_
_space_group_symop_operation_xyz
x,y,z
-x,y,-z
-x,-y,-z
x,-y,z
1/2+x,1/2+y,z
1/2-x,1/2+y,-z
1/2-x,1/2-y,-z
1/2+x,1/2-y,z
loop_
_atom_site_type_symbol
_atom_site_label
_atom_site_fract_x
_atom_site_fract_y
_atom_site_fract_z
Si Si1 0.949215 0.626235 0.061559
Si Si2 0.306739 0.113049 0.558209
Si Si3 0.608335 0.624539 0.093050
Si Si4 0.752608 0.651110 0.411089
Si Si5 0.184176 0.876029 0.713853
Si Si6 0.863165 0.623210 0.246432
O O1 0.024793 0.500000 0.093675
O O2 0.014673 0.752300 0.092517
O O3 0.711737 0.625407 0.043819
O O4 0.000000 0.627048 0.000000
O O5 0.212726 0.216911 0.576152
O O6 0.264976 0.115120 0.481472
O O7 0.552460 0.114692 0.597338
O O8 0.218777 0.000000 0.570490
O O9 0.506210 0.500000 0.087721
O O10 0.800113 0.621515 0.167778
O O11 0.536415 0.625834 0.350422
O O12 0.203104 0.748414 0.743170
O O13 0.394472 0.880580 0.709408
O O14 0.186391 0.000000 0.746921
O O15 0.781694 0.500000 0.257176
#
# Coordination Sequence:
#
# PCOD9196001 Si02
#       6
#     8   8   8   8   8   8
#     4  10  21  37  60  90 120 150 187 230 275 327
#     4  10  20  36  54  77 110 141 175 223 279 337
#     4  10  21  38  57  81 116 152 188 231 277 327
#     4  10  20  35  56  80 106 141 181 224 278 338
#     4  11  22  38  59  82 110 146 189 235 284 334
#     4  10  23  39  56  81 112 147 189 235 278 327
#
# _framework density 27.343969999999999
#
# number of rings (size 3 to 8) (size 9 to 14) (size 15 to 20)
#    0.000    1.833    0.000    4.500    0.000    4.333 
#    0.000    8.333    0.000    0.000    0.000    0.000 
#    0.000    0.000    0.000    0.000    0.000    0.000 
#
# Total GULP energy -133975.979379 kJ/mol
# GULP energy per Si atom -5582.332474 kJ/mol
# Density = 2.728173 g / cm^3
# Si number density = 27.343970 Si / 1000 Ang^3
#
#
#
# Elastic Constant Matrix: (Units=GPa)
#
#
# Indices 1 2 3 4 5 6 
#
# 1 86.7102 43.2601 8.0652 0.0000 1.9788 0.0000
# 2 43.2601 378.1910 35.9184 0.0000 -6.8332 0.0000
# 3 8.0652 35.9184 67.9476 0.0000 9.6740 0.0000
# 4 0.0000 0.0000 0.0000 -238.1917 0.0000 -143.5523
# 5 1.9788 -6.8332 9.6740 0.0000 20.7884 0.0000
# 6 0.0000 0.0000 0.0000 -143.5523 0.0000 -31.0256
#
#
#
# Elastic Compliance Matrix: (Units=1/GPa)
#
#
# Indices 1 2 3 4 5 6 
#
# 1 0.012303 -0.001381 -0.000534 0.000000 -0.001377 0.000000
# 2 -0.001381 0.002997 -0.001691 0.000000 0.001904 0.000000
# 3 -0.000534 -0.001691 0.016864 0.000000 -0.008353 0.000000
# 4 0.000000 0.000000 0.000000 0.002347 0.000000 -0.010861
# 5 -0.001377 0.001904 -0.008353 0.000000 0.052748 0.000000
# 6 0.000000 0.000000 0.000000 -0.010861 0.000000 0.018021
#
#
# Mechanical properties :
#
#
# Convention : Reuss Voigt Hill
#
# Bulk Modulus (GPa) = 40.07985 78.59295 59.33640
# Shear Modulus (GPa) = 41.38688 -19.97878 10.70405
#
# Velocity S-wave (km/s) = 3.89468 -2.70598 1.98068
# Velocity P-wave (km/s) = 5.90882 4.36367 5.19402
#
# Compressibility (1/GPa) = 0.02495020
#
# Stress axis : x y z
#
# Youngs Moduli (GPa) = 81.28119 333.64126 59.29792
#
# Poissons Ratio (x) = 0.46091 0.03167
# Poissons Ratio (y) = 0.11229 0.10030
# Poissons Ratio (z) = 0.04341 0.56435
#
# Static dielectric constant tensor:
#      x y z
#    x 2.026550 0.000000 -0.033220 
#    y 0.000000 2.184460 0.000000 
#    z -0.033220 0.000000 2.392320 
# 
# From -- ./inp_files/355600.got.cif
#   From: 2010.05.17/outbox.cif.g08.bks.cpg/sg12_178_cif.got.tgz:355600.got - 2010.06.03 13:09:07.
