data_PCOD9196614
_publ_section_title
;
Structure prediction by ZEFSAII (Michael W. Deem and Ramdas Pophale) SiO2 
 PCOD9196614
Probable space group: C 2/M
;
_chemical_formula_sum "Si O2"
_cell_formula_units_Z 40
_cell_length_a 25.215718
_cell_length_b 13.884331
_cell_length_c 20.172756
_cell_angle_alpha 90.000000
_cell_angle_beta 17.667001
_cell_angle_gamma 90.000000
_cell_volume 2143.373268
_symmetry_space_group_name_H-M "C 2/M"
_symmetry_group_IT_number 12
_symmetry_cell_setting 'monoclinic'
loop_
_space_group_symop_operation_xyz
x,y,z
-x,y,-z
-x,-y,-z
x,-y,z
1/2+x,1/2+y,z
1/2-x,1/2+y,-z
1/2-x,1/2-y,-z
1/2+x,1/2-y,z
loop_
_atom_site_type_symbol
_atom_site_label
_atom_site_fract_x
_atom_site_fract_y
_atom_site_fract_z
Si Si1 0.145692 0.784794 0.059691
Si Si2 0.293496 0.892740 0.758798
Si Si3 0.952096 0.392002 0.917275
Si Si4 0.324978 0.698300 0.663319
Si Si5 0.649735 0.387584 0.508959
O O1 0.091228 0.689766 0.084206
O O2 0.977850 0.843522 0.284330
O O3 0.250000 0.750000 0.000000
O O4 0.253427 0.851621 0.879917
O O5 0.500000 0.901297 0.500000
O O6 0.242255 0.805098 0.770937
O O7 0.216857 0.000000 0.841114
O O8 0.929777 0.500000 0.917166
O O9 0.149474 0.381036 0.707517
O O10 0.817024 0.375077 0.138254
O O11 0.500000 0.693673 0.500000
O O12 0.372155 0.671328 0.532821
O O13 0.607956 0.500000 0.547314
#
# Coordination Sequence:
#
# PCOD9196614 Si02
#       5
#     8   8   8   8   8
#     4  11  22  36  57  84 112 143 186 235 281 330
#     4   9  18  34  54  77 108 142 177 221 274 329
#     4  10  22  38  56  80 112 150 186 225 280 341
#     4  10  20  35  57  84 110 142 188 235 277 328
#     4  11  22  37  57  81 112 148 184 229 286 337
#
# _framework density 18.662171000000001
#
# number of rings (size 3 to 8) (size 9 to 14) (size 15 to 20)
#    0.000    1.800    0.000    6.000    0.000    6.400 
#    0.000    1.000    0.000   10.800    0.000    0.000 
#    0.000    0.000    0.000    0.000    0.000    0.000 
#
# Total GULP energy -111605.875102 kJ/mol
# GULP energy per Si atom -5580.293755 kJ/mol
# Density = 1.861970 g / cm^3
# Si number density = 18.662171 Si / 1000 Ang^3
#
#
#
# Elastic Constant Matrix: (Units=GPa)
#
#
# Indices 1 2 3 4 5 6 
#
# 1 54.7120 42.6418 26.8962 -0.0032 21.8321 0.0000
# 2 42.6418 140.5463 42.1512 0.0004 13.8786 -0.0002
# 3 26.8962 42.1512 123.9771 -0.0066 22.8536 0.0002
# 4 -0.0032 0.0004 -0.0066 13.3983 0.0058 3.1767
# 5 21.8321 13.8786 22.8536 0.0058 32.4352 -0.0008
# 6 0.0000 -0.0002 0.0002 3.1767 -0.0008 14.0629
#
#
#
# Elastic Compliance Matrix: (Units=1/GPa)
#
#
# Indices 1 2 3 4 5 6 
#
# 1 0.031590 -0.007549 -0.001106 0.000016 -0.017254 -0.000005
# 2 -0.007549 0.009811 -0.002138 -0.000005 0.002390 0.000001
# 3 -0.001106 -0.002138 0.010030 0.000008 -0.005407 -0.000002
# 4 0.000016 -0.000005 0.000008 0.078860 -0.000029 -0.017814
# 5 -0.017254 0.002390 -0.005407 -0.000029 0.045231 0.000009
# 6 -0.000005 0.000001 -0.000002 -0.017814 0.000009 0.075133
#
#
# Mechanical properties :
#
#
# Convention : Reuss Voigt Hill
#
# Bulk Modulus (GPa) = 33.50842 60.29042 46.89942
# Shear Modulus (GPa) = 17.71858 25.81569 21.76713
#
# Velocity S-wave (km/s) = 3.08464 3.72333 3.41893
# Velocity P-wave (km/s) = 5.53903 7.13166 6.38520
#
# Compressibility (1/GPa) = 0.02984325
#
# Stress axis : x y z
#
# Youngs Moduli (GPa) = 31.65599 101.92907 99.70263
#
# Poissons Ratio (x) = 0.76944 0.11029
# Poissons Ratio (y) = 0.23896 0.21321
# Poissons Ratio (z) = 0.03502 0.21797
#
# Static dielectric constant tensor:
#      x y z
#    x 1.616160 0.000000 0.000280 
#    y 0.000000 1.680190 0.000000 
#    z 0.000280 0.000000 1.640040 
# 
# From -- ./inp_files/71412.got.cif
#   From: 2010.05.17/outbox.cif.g08.bks.cpg/sg12_36_cif.got.tgz:71412.got - 2010.06.03 13:09:07.
