data_PCOD9196231
_publ_section_title
;
Structure prediction by ZEFSAII (Michael W. Deem and Ramdas Pophale) SiO2 
 PCOD9196231
Probable space group: C 2/M
;
_chemical_formula_sum "Si O2"
_cell_formula_units_Z 64
_cell_length_a 29.218286
_cell_length_b 16.322624
_cell_length_c 12.828769
_cell_angle_alpha 90.000000
_cell_angle_beta 151.381898
_cell_angle_gamma 90.000000
_cell_volume 2930.470177
_symmetry_space_group_name_H-M "C 2/M"
_symmetry_group_IT_number 12
_symmetry_cell_setting 'monoclinic'
loop_
_space_group_symop_operation_xyz
x,y,z
-x,y,-z
-x,-y,-z
x,-y,z
1/2+x,1/2+y,z
1/2-x,1/2+y,-z
1/2-x,1/2-y,-z
1/2+x,1/2-y,z
loop_
_atom_site_type_symbol
_atom_site_label
_atom_site_fract_x
_atom_site_fract_y
_atom_site_fract_z
Si Si1 0.474715 0.680082 0.060398
Si Si2 0.857787 0.589947 0.476517
Si Si3 0.040555 0.763833 0.748028
Si Si4 0.172449 0.903281 0.507396
Si Si5 0.173568 0.185916 0.725886
Si Si6 0.038828 0.407735 0.695057
Si Si7 0.284992 0.356375 0.971936
Si Si8 0.227584 0.099739 0.393248
O O1 0.470733 0.739867 0.150178
O O2 0.562144 0.617650 0.258050
O O3 0.500000 0.719914 0.000000
O O4 0.373739 0.634614 0.847668
O O5 0.881902 0.500000 0.564866
O O6 0.951646 0.612595 0.599823
O O7 0.810117 0.633509 0.480920
O O8 0.775486 0.586231 0.223894
O O9 0.938581 0.788240 0.494947
O O10 0.089755 0.680300 0.803812
O O11 0.110873 0.838834 0.864753
O O12 0.194377 0.854649 0.656331
O O13 0.234432 0.878971 0.529493
O O14 0.182985 0.000000 0.545091
O O15 0.202739 0.127977 0.880895
O O16 0.227214 0.271552 0.844583
O O17 0.077203 0.500000 0.795811
O O18 0.000000 0.412724 0.500000
O O19 0.223740 0.000000 0.379237
#
# Coordination Sequence:
#
# PCOD9196231 Si02
#       8
#     8   8   8   8   8   8   8   8
#     4   9  17  30  52  83 113 147 186 224 271 338
#     4  10  20  35  56  83 111 141 185 236 280 330
#     4  11  20  36  58  79 114 147 186 235 285 335
#     4   9  18  33  53  77 112 151 185 227 275 335
#     4  10  22  35  52  80 110 148 191 229 285 340
#     4  10  21  37  57  80 104 141 193 237 274 323
#     4  11  21  36  55  80 113 148 184 234 291 336
#     4   9  16  31  54  81 111 145 186 228 277 330
#
# _framework density 21.839497999999999
#
# number of rings (size 3 to 8) (size 9 to 14) (size 15 to 20)
#    0.000    2.125    2.500    1.500    1.750    2.000 
#    0.000    2.500    0.000    2.625    0.000    0.000 
#    0.000    0.000    0.000    0.000    0.000    0.000 
#
# Total GULP energy -178399.582033 kJ/mol
# GULP energy per Si atom -5574.986939 kJ/mol
# Density = 2.178979 g / cm^3
# Si number density = 21.839498 Si / 1000 Ang^3
#
#
#
# Elastic Constant Matrix: (Units=GPa)
#
#
# Indices 1 2 3 4 5 6 
#
# 1 124.5962 7.0685 21.9368 0.0000 -22.7746 0.0000
# 2 7.0685 49.0166 -1.2508 0.0000 -15.2625 0.0000
# 3 21.9368 -1.2508 48.3954 0.0000 -11.1116 0.0000
# 4 0.0000 0.0000 0.0000 10.8444 0.0000 -12.7488
# 5 -22.7746 -15.2625 -11.1116 0.0000 42.1796 0.0000
# 6 0.0000 0.0000 0.0000 -12.7488 0.0000 19.0211
#
#
#
# Elastic Compliance Matrix: (Units=1/GPa)
#
#
# Indices 1 2 3 4 5 6 
#
# 1 0.009372 -0.000148 -0.003302 0.000000 0.004137 0.000000
# 2 -0.000148 0.023322 0.002756 0.000000 0.009085 0.000000
# 3 -0.003302 0.002756 0.023470 0.000000 0.005397 0.000000
# 4 0.000000 0.000000 0.000000 0.434845 0.000000 0.291452
# 5 0.004137 0.009085 0.005397 0.000000 0.030651 0.000000
# 6 0.000000 0.000000 0.000000 0.291452 0.000000 0.247917
#
#
# Mechanical properties :
#
#
# Convention : Reuss Voigt Hill
#
# Bulk Modulus (GPa) = 18.25628 30.83525 24.54577
# Shear Modulus (GPa) = 6.33535 27.35928 16.84731
#
# Velocity S-wave (km/s) = 1.70504 3.54325 2.78045
# Velocity P-wave (km/s) = 3.50052 5.55780 4.64450
#
# Compressibility (1/GPa) = 0.05477566
#
# Stress axis : x y z
#
# Youngs Moduli (GPa) = 106.70239 42.87854 42.60709
#
# Poissons Ratio (x) = 0.00633 0.14069
# Poissons Ratio (y) = 0.01575 -0.11741
# Poissons Ratio (z) = 0.35234 -0.11816
#
# Static dielectric constant tensor:
#      x y z
#    x 1.878110 0.000000 0.020180 
#    y 0.000000 1.815980 0.000000 
#    z 0.020180 0.000000 1.802990 
# 
# From -- ./inp_files/190080.got.cif
#   From: 2010.05.17/outbox.cif.g08.bks.cpg/sg12_96_cif.got.tgz:190080.got - 2010.06.03 13:09:07.
