data_PCOD9196528
_publ_section_title
;
Structure prediction by ZEFSAII (Michael W. Deem and Ramdas Pophale) SiO2 
 PCOD9196528
Probable space group: C 2/M
;
_chemical_formula_sum "Si O2"
_cell_formula_units_Z 56
_cell_length_a 13.802390
_cell_length_b 24.460032
_cell_length_c 9.164367
_cell_angle_alpha 90.000000
_cell_angle_beta 68.062396
_cell_angle_gamma 90.000000
_cell_volume 2869.924257
_symmetry_space_group_name_H-M "C 2/M"
_symmetry_group_IT_number 12
_symmetry_cell_setting 'monoclinic'
loop_
_space_group_symop_operation_xyz
x,y,z
-x,y,-z
-x,-y,-z
x,-y,z
1/2+x,1/2+y,z
1/2-x,1/2+y,-z
1/2-x,1/2-y,-z
1/2+x,1/2-y,z
loop_
_atom_site_type_symbol
_atom_site_label
_atom_site_fract_x
_atom_site_fract_y
_atom_site_fract_z
Si Si1 0.682249 0.562866 0.579540
Si Si2 0.472665 0.434189 0.851650
Si Si3 0.768371 0.936989 0.790431
Si Si4 0.583065 0.259022 0.335895
Si Si5 0.289795 0.176321 0.230473
Si Si6 0.272754 0.828281 0.590339
Si Si7 0.068577 0.770777 0.838031
O O1 0.699228 0.500000 0.617455
O O2 0.567162 0.581744 0.692525
O O3 0.688650 0.563621 0.400454
O O4 0.763114 0.606021 0.603240
O O5 0.472768 0.500000 0.850491
O O6 0.359981 0.420639 0.850798
O O7 0.500000 0.417545 0.000000
O O8 0.690595 0.885573 0.830614
O O9 0.734339 0.000000 0.838320
O O10 0.500000 0.281147 0.500000
O O11 0.674844 0.302080 0.252796
O O12 0.639229 0.204987 0.370805
O O13 0.512604 0.249720 0.235717
O O14 0.288889 0.182280 0.408315
O O15 0.373149 0.218939 0.124595
O O16 0.161857 0.804796 0.710207
O O17 0.000000 0.799825 0.000000
#
# Coordination Sequence:
#
# PCOD9196528 Si02
#       7
#     8   8   8   8   8   8   8
#     4   9  18  32  51  75 106 137 176 221 256 311
#     4   9  17  29  44  69 106 143 172 207 263 316
#     4   9  18  32  52  77 104 138 179 218 257 311
#     4  11  19  36  60  76 103 147 178 220 268 317
#     4  10  20  35  58  83 104 143 184 214 266 327
#     4  10  20  35  57  83 105 142 184 212 270 324
#     4  11  23  38  55  82 111 135 178 232 267 310
#
# _framework density 19.512709999999998
#
# number of rings (size 3 to 8) (size 9 to 14) (size 15 to 20)
#    0.000    2.143    2.857    1.286    2.000    4.571 
#    2.571    0.000    0.000    1.714    0.000    0.000 
#    0.000    0.000    0.000    0.000    0.000    0.000 
#
# Total GULP energy -156060.939302 kJ/mol
# GULP energy per Si atom -5573.604975 kJ/mol
# Density = 1.946830 g / cm^3
# Si number density = 19.512710 Si / 1000 Ang^3
#
#
#
# Elastic Constant Matrix: (Units=GPa)
#
#
# Indices 1 2 3 4 5 6 
#
# 1 73.9822 28.5802 4.9100 0.0000 4.5884 0.0000
# 2 28.5802 104.6493 3.7925 0.0000 8.7965 0.0000
# 3 4.9100 3.7925 25.4207 0.0000 -5.4825 0.0000
# 4 0.0000 0.0000 0.0000 -0.8278 0.0000 -4.0362
# 5 4.5884 8.7965 -5.4825 0.0000 14.4528 0.0000
# 6 0.0000 0.0000 0.0000 -4.0362 0.0000 11.7302
#
#
#
# Elastic Compliance Matrix: (Units=1/GPa)
#
#
# Indices 1 2 3 4 5 6 
#
# 1 0.015427 -0.003774 -0.003243 0.000000 -0.003831 0.000000
# 2 -0.003774 0.011220 -0.002352 0.000000 -0.006523 0.000000
# 3 -0.003243 -0.002352 0.044486 0.000000 0.019336 0.000000
# 4 0.000000 0.000000 0.000000 -0.451135 0.000000 -0.155229
# 5 -0.003831 -0.006523 0.019336 0.000000 0.081712 0.000000
# 6 0.000000 0.000000 0.000000 -0.155229 0.000000 0.031838
#
#
# Mechanical properties :
#
#
# Convention : Reuss Voigt Hill
#
# Bulk Modulus (GPa) = 19.08556 30.95749 25.02153
# Shear Modulus (GPa) = -21.71552 16.18900 -2.76326
#
# Velocity S-wave (km/s) = -3.33962 2.88351 -1.19131
# Velocity P-wave (km/s) = 2.25132 5.19480 3.31040
#
# Compressibility (1/GPa) = 0.05239563
#
# Stress axis : x y z
#
# Youngs Moduli (GPa) = 64.81953 89.12756 22.47923
#
# Poissons Ratio (x) = 0.33634 0.07290
# Poissons Ratio (y) = 0.24461 0.05287
# Poissons Ratio (z) = 0.21022 0.20961
#
# Static dielectric constant tensor:
#      x y z
#    x 1.663890 0.000000 0.009260 
#    y 0.000000 1.746590 0.000000 
#    z 0.009260 0.000000 1.700670 
# 
# From -- ./inp_files/53130.got.cif
#   From: 2010.05.17/outbox.cif.g08.bks.cpg/sg12_27_cif.got.tgz:53130.got - 2010.06.03 13:09:07.
