data_PCOD9196455
_publ_section_title
;
Structure prediction by ZEFSAII (Michael W. Deem and Ramdas Pophale) SiO2 
 PCOD9196455
Probable space group: C 2/M
;
_chemical_formula_sum "Si O2"
_cell_formula_units_Z 40
_cell_length_a 18.563864
_cell_length_b 7.604980
_cell_length_c 13.872448
_cell_angle_alpha 90.000000
_cell_angle_beta 71.691782
_cell_angle_gamma 90.000000
_cell_volume 1859.344382
_symmetry_space_group_name_H-M "C 2/M"
_symmetry_group_IT_number 12
_symmetry_cell_setting 'monoclinic'
loop_
_space_group_symop_operation_xyz
x,y,z
-x,y,-z
-x,-y,-z
x,-y,z
1/2+x,1/2+y,z
1/2-x,1/2+y,-z
1/2-x,1/2-y,-z
1/2+x,1/2-y,z
loop_
_atom_site_type_symbol
_atom_site_label
_atom_site_fract_x
_atom_site_fract_y
_atom_site_fract_z
Si Si1 0.082972 0.289683 0.992704
Si Si2 0.779183 0.293508 0.193391
Si Si3 0.019443 0.215243 0.600504
Si Si4 0.816056 0.209369 0.396359
Si Si5 0.114464 0.212192 0.201837
O O1 0.080292 0.500000 0.977618
O O2 0.151064 0.218045 0.897758
O O3 0.100111 0.257784 0.097140
O O4 0.000000 0.218789 0.000000
O O5 0.775221 0.500000 0.170115
O O6 0.795864 0.279193 0.299383
O O7 0.696529 0.219929 0.201615
O O8 0.102477 0.274531 0.599867
O O9 0.000000 0.270021 0.500000
O O10 0.954015 0.274289 0.701372
O O11 0.020288 0.000000 0.600220
O O12 0.750000 0.250000 0.500000
O O13 0.821671 0.000000 0.384978
O O14 0.114774 0.000000 0.210143
#
# Coordination Sequence:
#
# PCOD9196455 Si02
#       5
#     8   8   8   8   8
#     4  10  21  36  54  79 113 147 176 217 273 323
#     4  10  21  37  56  79 109 144 180 220 267 317
#     4   9  18  34  55  78 105 138 177 220 264 311
#     4  11  22  36  57  82 108 140 177 220 269 320
#     4  10  20  35  57  81 105 140 185 227 264 310
#
# _framework density 21.51296
#
# number of rings (size 3 to 8) (size 9 to 14) (size 15 to 20)
#    0.000    2.000    0.000    3.600    0.000    5.200 
#    0.000    1.000    0.000    4.200    0.000    0.000 
#    0.000    0.000    0.000    0.000    0.000    0.000 
#
# Total GULP energy -111809.990641 kJ/mol
# GULP energy per Si atom -5590.499532 kJ/mol
# Density = 2.146400 g / cm^3
# Si number density = 21.512960 Si / 1000 Ang^3
#
#
#
# Elastic Constant Matrix: (Units=GPa)
#
#
# Indices 1 2 3 4 5 6 
#
# 1 263.2663 -2.5408 130.2518 0.0000 -11.6969 0.0000
# 2 -2.5408 40.3428 -27.5892 0.0000 -10.4022 0.0000
# 3 130.2518 -27.5892 193.6037 0.0000 -18.3945 0.0000
# 4 0.0000 0.0000 0.0000 27.7939 0.0000 8.8640
# 5 -11.6969 -10.4022 -18.3945 0.0000 47.7196 0.0000
# 6 0.0000 0.0000 0.0000 8.8640 0.0000 15.9882
#
#
#
# Elastic Compliance Matrix: (Units=1/GPa)
#
#
# Indices 1 2 3 4 5 6 
#
# 1 0.005967 -0.002956 -0.004524 0.000000 -0.000926 0.000000
# 2 -0.002956 0.032025 0.007419 0.000000 0.009116 0.000000
# 3 -0.004524 0.007419 0.009668 0.000000 0.004235 0.000000
# 4 0.000000 0.000000 0.000000 0.043707 0.000000 -0.024232
# 5 -0.000926 0.009116 0.004235 0.000000 0.024349 0.000000
# 6 0.000000 0.000000 0.000000 -0.024232 0.000000 0.075980
#
#
# Mechanical properties :
#
#
# Convention : Reuss Voigt Hill
#
# Bulk Modulus (GPa) = 21.03569 77.49514 49.26541
# Shear Modulus (GPa) = 24.07729 44.77308 34.42519
#
# Velocity S-wave (km/s) = 3.34907 4.56698 4.00460
# Velocity P-wave (km/s) = 4.97538 7.99440 6.65826
#
# Compressibility (1/GPa) = 0.04753825
#
# Stress axis : x y z
#
# Youngs Moduli (GPa) = 167.59317 31.22515 103.43247
#
# Poissons Ratio (x) = 0.09231 0.46788
# Poissons Ratio (y) = 0.49547 -0.76735
# Poissons Ratio (z) = 0.75812 -0.23166
#
# Static dielectric constant tensor:
#      x y z
#    x 1.770320 0.000000 -0.024760 
#    y 0.000000 1.823600 0.000000 
#    z -0.024760 0.000000 1.701490 
# 
# From -- ./inp_files/151689.got.cif
#   From: 2010.05.17/outbox.cif.g08.bks.cpg/sg12_76_cif.got.tgz:151689.got - 2010.06.03 13:09:07.
