data_PCOD9196636
_publ_section_title
;
Structure prediction by ZEFSAII (Michael W. Deem and Ramdas Pophale) SiO2 
 PCOD9196636
Probable space group: C 2/M
;
_chemical_formula_sum "Si O2"
_cell_formula_units_Z 48
_cell_length_a 8.088670
_cell_length_b 12.008562
_cell_length_c 21.941135
_cell_angle_alpha 90.000000
_cell_angle_beta 76.701840
_cell_angle_gamma 90.000000
_cell_volume 2074.068905
_symmetry_space_group_name_H-M "C 2/M"
_symmetry_group_IT_number 12
_symmetry_cell_setting 'monoclinic'
loop_
_space_group_symop_operation_xyz
x,y,z
-x,y,-z
-x,-y,-z
x,-y,z
1/2+x,1/2+y,z
1/2-x,1/2+y,-z
1/2-x,1/2-y,-z
1/2+x,1/2-y,z
loop_
_atom_site_type_symbol
_atom_site_label
_atom_site_fract_x
_atom_site_fract_y
_atom_site_fract_z
Si Si1 0.728061 0.133667 0.543247
Si Si2 0.429524 0.117578 0.787982
Si Si3 0.813464 0.155798 0.082944
Si Si4 0.328712 0.304921 0.284083
Si Si5 0.025409 0.799522 0.378435
Si Si6 0.796615 0.115402 0.940759
O O1 0.750000 0.250000 0.500000
O O2 0.898099 0.136791 0.570350
O O3 0.562459 0.181164 0.594248
O O4 0.704865 0.000000 0.526042
O O5 0.338084 0.121317 0.860745
O O6 0.539297 0.226563 0.763402
O O7 0.272631 0.119972 0.753894
O O8 0.524610 0.000000 0.772623
O O9 0.807436 0.288137 0.080787
O O10 0.001183 0.122302 0.087904
O O11 0.784573 0.121493 0.015254
O O12 0.188535 0.223459 0.323877
O O13 0.402212 0.357898 0.340183
O O14 0.728157 0.000000 0.923701
#
# Coordination Sequence:
#
# PCOD9196636 Si02
#       6
#     8   8   8   8   8   8
#     4  11  24  42  67 100 134 168 208 255 306 361
#     4  11  21  37  59  83 117 155 196 252 307 354
#     4  10  20  35  57  84 113 148 196 243 295 371
#     4   9  21  39  59  89 117 155 207 244 293 360
#     4   9  21  41  62  88 126 165 203 249 295 355
#     4  10  20  37  56  79 114 152 190 240 303 363
#
# _framework density 23.142914999999999
#
# number of rings (size 3 to 8) (size 9 to 14) (size 15 to 20)
#    0.000    2.000    0.000    3.500    0.000    9.333 
#    0.000   18.333    0.000    0.000    0.000    0.000 
#    0.000    0.000    0.000    0.000    0.000    0.000 
#
# Total GULP energy -133623.891034 kJ/mol
# GULP energy per Si atom -5567.662126 kJ/mol
# Density = 2.309024 g / cm^3
# Si number density = 23.142915 Si / 1000 Ang^3
#
#
#
# Elastic Constant Matrix: (Units=GPa)
#
#
# Indices 1 2 3 4 5 6 
#
# 1 40.9633 2.8251 8.6711 0.0000 -5.8085 0.0000
# 2 2.8251 170.8232 15.2874 0.0000 -7.3435 0.0000
# 3 8.6711 15.2874 69.0588 0.0000 -27.1201 0.0000
# 4 0.0000 0.0000 0.0000 54.9467 0.0000 20.9422
# 5 -5.8085 -7.3435 -27.1201 0.0000 24.8858 0.0000
# 6 0.0000 0.0000 0.0000 20.9422 0.0000 26.6962
#
#
#
# Elastic Compliance Matrix: (Units=1/GPa)
#
#
# Indices 1 2 3 4 5 6 
#
# 1 0.025338 -0.000103 -0.001483 0.000000 0.004268 0.000000
# 2 -0.000103 0.005977 -0.001096 0.000000 0.000545 0.000000
# 3 -0.001483 -0.001096 0.025604 0.000000 0.027233 0.000000
# 4 0.000000 0.000000 0.000000 0.025962 0.000000 -0.020366
# 5 0.004268 0.000545 0.027233 0.000000 0.071019 0.000000
# 6 0.000000 0.000000 0.000000 -0.020366 0.000000 0.053435
#
#
# Mechanical properties :
#
#
# Convention : Reuss Voigt Hill
#
# Bulk Modulus (GPa) = 19.39632 37.15695 28.27663
# Shear Modulus (GPa) = 21.75013 38.24320 29.99666
#
# Velocity S-wave (km/s) = 3.06897 4.06948 3.60411
# Velocity P-wave (km/s) = 4.57793 6.17828 5.43731
#
# Compressibility (1/GPa) = 0.05155618
#
# Stress axis : x y z
#
# Youngs Moduli (GPa) = 39.46611 167.30123 39.05636
#
# Poissons Ratio (x) = 0.01721 0.05791
# Poissons Ratio (y) = 0.00406 0.04281
# Poissons Ratio (z) = 0.05851 0.18338
#
# Static dielectric constant tensor:
#      x y z
#    x 1.888520 0.000000 0.025490 
#    y 0.000000 1.907620 0.000000 
#    z 0.025490 0.000000 1.950810 
# 
# From -- ./inp_files/332223.got.cif
#   From: 2010.05.17/outbox.cif.g08.bks.cpg/sg12_167_cif.got.tgz:332223.got - 2010.06.03 13:09:07.
