data_PCOD9196666
_publ_section_title
;
Structure prediction by ZEFSAII (Michael W. Deem and Ramdas Pophale) SiO2 
 PCOD9196666
Probable space group: C 2/M
;
_chemical_formula_sum "Si O2"
_cell_formula_units_Z 64
_cell_length_a 29.346400
_cell_length_b 9.606945
_cell_length_c 12.719266
_cell_angle_alpha 90.000000
_cell_angle_beta 95.217550
_cell_angle_gamma 90.000000
_cell_volume 3571.075145
_symmetry_space_group_name_H-M "C 2/M"
_symmetry_group_IT_number 12
_symmetry_cell_setting 'monoclinic'
loop_
_space_group_symop_operation_xyz
x,y,z
-x,y,-z
-x,-y,-z
x,-y,z
1/2+x,1/2+y,z
1/2-x,1/2+y,-z
1/2-x,1/2-y,-z
1/2+x,1/2-y,z
loop_
_atom_site_type_symbol
_atom_site_label
_atom_site_fract_x
_atom_site_fract_y
_atom_site_fract_z
Si Si1 0.255066 0.665480 0.894950
Si Si2 0.736816 0.348619 0.588687
Si Si3 0.178833 0.163001 0.763486
Si Si4 0.445000 0.839752 0.485810
Si Si5 0.006779 0.832295 0.125623
Si Si6 0.074041 0.164000 0.727267
Si Si7 0.420886 0.834310 0.718412
Si Si8 0.818100 0.343741 0.777003
O O1 0.255206 0.500000 0.905428
O O2 0.211513 0.723376 0.821705
O O3 0.301271 0.723267 0.850713
O O4 0.250000 0.750000 0.000000
O O5 0.732736 0.500000 0.540414
O O6 0.750000 0.250000 0.500000
O O7 0.690346 0.321143 0.642442
O O8 0.778401 0.347115 0.680665
O O9 0.126010 0.182810 0.776957
O O10 0.191533 0.000000 0.792038
O O11 0.500000 0.840110 0.500000
O O12 0.431721 0.750247 0.381273
O O13 0.428653 0.790613 0.598175
O O14 0.429040 0.000000 0.469348
O O15 0.047719 0.751025 0.193311
O O16 0.962145 0.800529 0.188565
O O17 0.014373 0.000000 0.131229
O O18 0.000000 0.796092 0.000000
O O19 0.067961 0.000000 0.701876
O O20 0.367782 0.819557 0.738623
O O21 0.432535 0.000000 0.726180
O O22 0.818093 0.500000 0.826016
#
# Coordination Sequence:
#
# PCOD9196666 Si02
#       8
#     8   8   8   8   8   8   8   8
#     4  11  22  38  61  86 112 147 190 236 286 339
#     4   9  18  32  50  73 106 142 176 221 272 324
#     4   9  20  38  55  78 112 148 188 235 281 332
#     4  10  20  35  57  84 117 153 192 239 288 342
#     4  10  22  39  57  81 114 149 189 239 290 342
#     4  10  21  37  58  83 114 153 193 237 289 343
#     4  10  21  38  59  85 116 153 192 236 288 340
#     4   9  20  38  56  79 114 149 186 232 281 330
#
# _framework density 17.921773999999999
#
# number of rings (size 3 to 8) (size 9 to 14) (size 15 to 20)
#    0.000    2.250    1.250    1.875    1.750    5.000 
#    0.000    1.250    0.000    0.000    0.000    0.000 
#    0.000    0.000    0.000    0.000    0.000    0.000 
#
# Total GULP energy -178271.635786 kJ/mol
# GULP energy per Si atom -5570.988618 kJ/mol
# Density = 1.788098 g / cm^3
# Si number density = 17.921774 Si / 1000 Ang^3
#
#
#
# Elastic Constant Matrix: (Units=GPa)
#
#
# Indices 1 2 3 4 5 6 
#
# 1 102.0459 32.1194 33.5769 0.0000 -18.6989 0.0000
# 2 32.1194 86.3462 62.3080 0.0000 -11.9373 0.0000
# 3 33.5769 62.3080 107.2718 0.0000 -16.1639 0.0000
# 4 0.0000 0.0000 0.0000 34.7867 0.0000 2.1672
# 5 -18.6989 -11.9373 -16.1639 0.0000 15.7229 0.0000
# 6 0.0000 0.0000 0.0000 2.1672 0.0000 23.0999
#
#
#
# Elastic Compliance Matrix: (Units=1/GPa)
#
#
# Indices 1 2 3 4 5 6 
#
# 1 0.013241 -0.002666 -0.000625 0.000000 0.013081 0.000000
# 2 -0.002666 0.020671 -0.010987 0.000000 0.001228 0.000000
# 3 -0.000625 -0.010987 0.017194 0.000000 0.008591 0.000000
# 4 0.000000 0.000000 0.000000 0.028916 0.000000 -0.002713
# 5 0.013081 0.001228 0.008591 0.000000 0.088923 0.000000
# 6 0.000000 0.000000 0.000000 -0.002713 0.000000 0.043545
#
#
# Mechanical properties :
#
#
# Convention : Reuss Voigt Hill
#
# Bulk Modulus (GPa) = 44.34578 61.29695 52.82136
# Shear Modulus (GPa) = 20.11562 25.89921 23.00742
#
# Velocity S-wave (km/s) = 3.35388 3.80560 3.58686
# Velocity P-wave (km/s) = 6.30839 7.32031 6.83311
#
# Compressibility (1/GPa) = 0.02255006
#
# Stress axis : x y z
#
# Youngs Moduli (GPa) = 75.52139 48.37640 58.15946
#
# Poissons Ratio (x) = 0.12898 0.03635
# Poissons Ratio (y) = 0.20135 0.63901
# Poissons Ratio (z) = 0.04720 0.53152
#
# Static dielectric constant tensor:
#      x y z
#    x 1.612490 0.000000 -0.005530 
#    y 0.000000 1.615110 0.000000 
#    z -0.005530 0.000000 1.612820 
# 
# From -- ./inp_files/187393.got.cif
#   From: 2010.05.17/outbox.cif.g08.bks.cpg/sg12_94_cif.got.tgz:187393.got - 2010.06.03 13:09:07.
