data_PCOD9196732
_publ_section_title
;
Structure prediction by ZEFSAII (Michael W. Deem and Ramdas Pophale) SiO2 
 PCOD9196732
Probable space group: C 2/M
;
_chemical_formula_sum "Si O2"
_cell_formula_units_Z 48
_cell_length_a 5.141220
_cell_length_b 28.573703
_cell_length_c 16.472802
_cell_angle_alpha 90.000000
_cell_angle_beta 117.048609
_cell_angle_gamma 90.000000
_cell_volume 2155.227627
_symmetry_space_group_name_H-M "C 2/M"
_symmetry_group_IT_number 12
_symmetry_cell_setting 'monoclinic'
loop_
_space_group_symop_operation_xyz
x,y,z
-x,y,-z
-x,-y,-z
x,-y,z
1/2+x,1/2+y,z
1/2-x,1/2+y,-z
1/2-x,1/2-y,-z
1/2+x,1/2-y,z
loop_
_atom_site_type_symbol
_atom_site_label
_atom_site_fract_x
_atom_site_fract_y
_atom_site_fract_z
Si Si1 0.000072 0.718692 0.780929
Si Si2 0.272199 0.448047 0.892630
Si Si3 0.817010 0.942697 0.393927
Si Si4 0.847066 0.645099 0.062703
Si Si5 0.648937 0.443537 0.280341
Si Si6 0.421058 0.717976 0.406045
O O1 0.793693 0.761043 0.782926
O O2 0.791355 0.692873 0.686505
O O3 0.073522 0.685087 0.863885
O O4 0.136312 0.500000 0.864440
O O5 0.067473 0.405778 0.890367
O O6 0.402741 0.433996 0.823151
O O7 0.500000 0.451699 0.000000
O O8 0.479294 0.928427 0.347943
O O9 0.000000 0.928601 0.500000
O O10 0.949351 0.926627 0.326243
O O11 0.821122 0.000000 0.394413
O O12 0.500000 0.645146 0.000000
O O13 0.000000 0.653489 0.000000
O O14 0.637716 0.500000 0.282946
O O15 0.500000 0.692166 0.500000
O O16 0.712775 0.738371 0.406015
#
# Coordination Sequence:
#
# PCOD9196732 Si02
#       6
#     8   8   8   8   8   8
#     4  10  20  35  57  85 118 153 186 228 283 342
#     4   9  20  39  60  82 111 148 195 251 302 345
#     4   9  16  27  45  72 103 132 168 214 264 327
#     4  11  24  39  57  83 113 150 196 240 288 350
#     4   9  17  29  48  73  99 132 173 218 272 327
#     4   8  14  26  47  77 110 143 180 220 266 324
#
# _framework density 22.271429000000001
#
# number of rings (size 3 to 8) (size 9 to 14) (size 15 to 20)
#    0.000    2.667    0.000    1.500    0.000    7.000 
#    0.000    5.000    0.000    1.000    0.000   16.333 
#    0.000    0.000    0.000    0.000    0.000    2.000 
#
# Total GULP energy -133913.428224 kJ/mol
# GULP energy per Si atom -5579.726176 kJ/mol
# Density = 2.222074 g / cm^3
# Si number density = 22.271429 Si / 1000 Ang^3
#
#
#
# Elastic Constant Matrix: (Units=GPa)
#
#
# Indices 1 2 3 4 5 6 
#
# 1 101.9787 -1.0005 41.1507 0.0000 2.0070 0.0000
# 2 -1.0005 27.5019 35.6307 0.0000 3.7685 0.0000
# 3 41.1507 35.6307 146.5368 0.0000 -22.6395 0.0000
# 4 0.0000 0.0000 0.0000 -24.3642 0.0000 -7.3832
# 5 2.0070 3.7685 -22.6395 0.0000 26.0128 0.0000
# 6 0.0000 0.0000 0.0000 -7.3832 0.0000 4.9424
#
#
#
# Elastic Compliance Matrix: (Units=1/GPa)
#
#
# Indices 1 2 3 4 5 6 
#
# 1 0.013622 0.013108 -0.008629 0.000000 -0.010460 0.000000
# 2 0.013108 0.079196 -0.028730 0.000000 -0.037489 0.000000
# 3 -0.008629 -0.028730 0.019617 0.000000 0.021901 0.000000
# 4 0.000000 0.000000 0.000000 -0.028254 0.000000 -0.042207
# 5 -0.010460 -0.037489 0.021901 0.000000 0.063741 0.000000
# 6 0.000000 0.000000 0.000000 -0.042207 0.000000 0.139281
#
#
# Mechanical properties :
#
#
# Convention : Reuss Voigt Hill
#
# Bulk Modulus (GPa) = 15.64109 47.50882 31.57496
# Shear Modulus (GPa) = 14.00500 14.66729 14.33615
#
# Velocity S-wave (km/s) = 2.51037 2.56905 2.53988
# Velocity P-wave (km/s) = 3.92948 5.49345 4.77592
#
# Compressibility (1/GPa) = 0.06393416
#
# Stress axis : x y z
#
# Youngs Moduli (GPa) = 73.40940 12.62689 50.97736
#
# Poissons Ratio (x) = -0.16551 0.43986
# Poissons Ratio (y) = -0.96223 1.46456
# Poissons Ratio (z) = 0.63342 0.36276
#
# Static dielectric constant tensor:
#      x y z
#    x 1.803540 0.000000 0.019740 
#    y 0.000000 1.841640 0.000000 
#    z 0.019740 0.000000 1.889490 
# 
# From -- ./inp_files/192652.got.cif
#   From: 2010.05.17/outbox.cif.g08.bks.cpg/sg12_97_cif.got.tgz:192652.got - 2010.06.03 13:09:07.
