data_PCOD9196131
_publ_section_title
;
Structure prediction by ZEFSAII (Michael W. Deem and Ramdas Pophale) SiO2 
 PCOD9196131
Probable space group: C 2/M
;
_chemical_formula_sum "Si O2"
_cell_formula_units_Z 56
_cell_length_a 18.664902
_cell_length_b 8.785679
_cell_length_c 29.830020
_cell_angle_alpha 90.000000
_cell_angle_beta 141.668923
_cell_angle_gamma 90.000000
_cell_volume 3033.818346
_symmetry_space_group_name_H-M "C 2/M"
_symmetry_group_IT_number 12
_symmetry_cell_setting 'monoclinic'
loop_
_space_group_symop_operation_xyz
x,y,z
-x,y,-z
-x,-y,-z
x,-y,z
1/2+x,1/2+y,z
1/2-x,1/2+y,-z
1/2-x,1/2-y,-z
1/2+x,1/2-y,z
loop_
_atom_site_type_symbol
_atom_site_label
_atom_site_fract_x
_atom_site_fract_y
_atom_site_fract_z
Si Si1 0.624797 0.179839 0.430970
Si Si2 0.917412 0.185222 0.999716
Si Si3 0.759636 0.818645 0.274570
Si Si4 0.651170 0.182962 0.857420
Si Si5 0.930993 0.818039 0.276635
Si Si6 0.450757 0.819162 0.428129
Si Si7 0.006230 0.817211 0.141370
O O1 0.750000 0.250000 0.500000
O O2 0.552126 0.258579 0.355758
O O3 0.548801 0.202221 0.438562
O O4 0.633312 0.000000 0.426578
O O5 0.784980 0.231965 0.927654
O O6 0.919118 0.000000 0.999808
O O7 0.964643 0.232112 0.071423
O O8 0.000000 0.238430 0.000000
O O9 0.833793 0.778664 0.266353
O O10 0.837569 0.765547 0.354649
O O11 0.636614 0.737906 0.213111
O O12 0.744580 0.000000 0.268170
O O13 0.600882 0.242895 0.785951
O O14 0.577154 0.247999 0.862057
O O15 0.646997 0.000000 0.856093
O O16 0.934388 0.000000 0.273956
O O17 0.500000 0.767424 0.500000
O O18 0.425604 0.000000 0.418755
O O19 0.001403 0.000000 0.141192
#
# Coordination Sequence:
#
# PCOD9196131 Si02
#       7
#     8   8   8   8   8   8   8
#     4  10  20  35  56  81 111 147 187 233 283 333
#     4   9  19  36  59  85 111 145 188 230 275 331
#     4  10  21  37  57  82 112 146 187 233 278 330
#     4  11  22  37  58  84 115 147 185 233 281 332
#     4  10  21  38  58  81 111 147 189 234 283 339
#     4   9  19  36  57  80 107 143 186 229 275 329
#     4  11  22  37  58  83 115 151 186 228 279 333
#
# _framework density 18.458587000000001
#
# number of rings (size 3 to 8) (size 9 to 14) (size 15 to 20)
#    0.000    2.000    0.000    3.429    0.000    4.857 
#    0.000    6.429    0.000    5.143    0.000    0.000 
#    0.000    0.000    0.000    0.000    0.000    0.000 
#
# Total GULP energy -156427.906026 kJ/mol
# GULP energy per Si atom -5586.710930 kJ/mol
# Density = 1.841657 g / cm^3
# Si number density = 18.458587 Si / 1000 Ang^3
#
#
#
# Elastic Constant Matrix: (Units=GPa)
#
#
# Indices 1 2 3 4 5 6 
#
# 1 124.5249 55.7222 109.8817 0.0000 -1.0585 0.0000
# 2 55.7222 57.4961 63.2324 0.0001 2.8624 0.0000
# 3 109.8817 63.2324 196.4802 0.0000 -1.6094 0.0000
# 4 0.0000 0.0001 0.0000 23.3343 0.0000 1.3223
# 5 -1.0585 2.8624 -1.6094 0.0000 41.2354 0.0000
# 6 0.0000 0.0000 0.0000 1.3223 0.0000 24.3289
#
#
#
# Elastic Compliance Matrix: (Units=1/GPa)
#
#
# Indices 1 2 3 4 5 6 
#
# 1 0.019299 -0.010664 -0.007353 0.000000 0.000949 0.000000
# 2 -0.010664 0.033015 -0.004684 0.000000 -0.002748 0.000000
# 3 -0.007353 -0.004684 0.010714 0.000000 0.000555 0.000000
# 4 0.000000 0.000000 0.000000 0.042988 0.000000 -0.002336
# 5 0.000949 -0.002748 0.000555 0.000000 0.024488 0.000000
# 6 0.000000 0.000000 0.000000 -0.002336 0.000000 0.041230
#
#
# Mechanical properties :
#
#
# Convention : Reuss Voigt Hill
#
# Bulk Modulus (GPa) = 56.73416 92.90821 74.82119
# Shear Modulus (GPa) = 22.42032 27.75739 25.08885
#
# Velocity S-wave (km/s) = 3.48893 3.88205 3.69073
# Velocity P-wave (km/s) = 6.85805 8.39859 7.66711
#
# Compressibility (1/GPa) = 0.01762606
#
# Stress axis : x y z
#
# Youngs Moduli (GPa) = 51.81589 30.28883 93.33676
#
# Poissons Ratio (x) = 0.32300 0.68634
# Poissons Ratio (y) = 0.55256 0.43718
# Poissons Ratio (z) = 0.38102 0.14187
#
# Static dielectric constant tensor:
#      x y z
#    x 1.614400 0.000000 -0.004300 
#    y 0.000000 1.616820 0.000000 
#    z -0.004300 0.000000 1.604760 
# 
# From -- ./inp_files/275537.got.cif
#   From: 2010.05.17/outbox.cif.g08.bks.cpg/sg12_138_cif.got.tgz:275537.got - 2010.06.03 13:09:07.
