data_PCOD9196436
_publ_section_title
;
Structure prediction by ZEFSAII (Michael W. Deem and Ramdas Pophale) SiO2 
 PCOD9196436
Probable space group: C 2/M
;
_chemical_formula_sum "Si O2"
_cell_formula_units_Z 50
_cell_length_a 14.430594
_cell_length_b 9.552657
_cell_length_c 19.439607
_cell_angle_alpha 90.000000
_cell_angle_beta 124.213710
_cell_angle_gamma 90.000000
_cell_volume 2216.016815
_symmetry_space_group_name_H-M "C 2/M"
_symmetry_group_IT_number 12
_symmetry_cell_setting 'monoclinic'
loop_
_space_group_symop_operation_xyz
x,y,z
-x,y,-z
-x,-y,-z
x,-y,z
1/2+x,1/2+y,z
1/2-x,1/2+y,-z
1/2-x,1/2-y,-z
1/2+x,1/2-y,z
loop_
_atom_site_type_symbol
_atom_site_label
_atom_site_fract_x
_atom_site_fract_y
_atom_site_fract_z
Si Si1 0.607514 0.160261 0.376461
Si Si2 0.341387 0.770124 0.448077
Si Si3 0.332378 0.340246 0.951307
Si Si4 0.500000 0.500000 0.500000
Si Si5 0.876766 0.836159 0.813274
Si Si6 0.130460 0.659463 0.691017
Si Si7 0.413450 0.163709 0.113163
O O1 0.637882 0.157340 0.470500
O O2 0.707506 0.247551 0.385239
O O3 0.481551 0.221494 0.322524
O O4 0.606341 0.000000 0.350258
O O5 0.405377 0.622302 0.476008
O O6 0.384994 0.843669 0.397692
O O7 0.347476 0.500000 0.984817
O O8 0.390828 0.332411 0.902050
O O9 0.197822 0.320697 0.886813
O O10 0.374178 0.227863 0.023509
O O11 0.752165 0.774464 0.751625
O O12 0.976167 0.749152 0.820892
O O13 0.878774 0.000000 0.792847
O O14 0.138631 0.500000 0.720345
O O15 0.439269 0.000000 0.118647
#
# Coordination Sequence:
#
# PCOD9196436 Si02
#       7
#     8   8   8   2   8   8   8
#     4  10  20  35  57  79 101 141 184 222 265 318
#     4  11  21  35  56  81 110 137 177 226 277 321
#     4   9  19  36  58  81 109 147 183 222 267 327
#     4  12  20  36  54  84 114 140 166 238 278 334
#     4  10  21  37  56  77 109 147 184 220 268 328
#     4  10  21  38  55  76 106 142 183 223 260 320
#     4  10  20  35  57  85 112 139 181 229 275 319
#
# _framework density 22.563005
#
# number of rings (size 3 to 8) (size 9 to 14) (size 15 to 20)
#    0.000    1.920    2.400    1.440    0.000    5.760 
#    1.440    1.600    0.000    0.000    0.000    0.000 
#    0.000    0.000    0.000    0.000    0.000    0.000 
#
# Total GULP energy -139380.586134 kJ/mol
# GULP energy per Si atom -5575.223445 kJ/mol
# Density = 2.251165 g / cm^3
# Si number density = 22.563005 Si / 1000 Ang^3
#
#
#
# Elastic Constant Matrix: (Units=GPa)
#
#
# Indices 1 2 3 4 5 6 
#
# 1 139.5934 34.7550 28.7106 0.0000 37.1942 0.0000
# 2 34.7550 80.0325 12.0533 0.0000 19.0456 0.0000
# 3 28.7106 12.0533 59.8836 0.0000 24.5886 0.0000
# 4 0.0000 0.0000 0.0000 9.7197 0.0000 10.4098
# 5 37.1942 19.0456 24.5886 0.0000 56.9133 0.0000
# 6 0.0000 0.0000 0.0000 10.4098 0.0000 21.8907
#
#
#
# Elastic Compliance Matrix: (Units=1/GPa)
#
#
# Indices 1 2 3 4 5 6 
#
# 1 0.009448 -0.002747 -0.002211 0.000000 -0.004300 0.000000
# 2 -0.002747 0.014429 -0.000416 0.000000 -0.002854 0.000000
# 3 -0.002211 -0.000416 0.020900 0.000000 -0.007445 0.000000
# 4 0.000000 0.000000 0.000000 0.209663 0.000000 -0.099702
# 5 -0.004300 -0.002854 -0.007445 0.000000 0.024553 0.000000
# 6 0.000000 0.000000 0.000000 -0.099702 0.000000 0.093093
#
#
# Mechanical properties :
#
#
# Convention : Reuss Voigt Hill
#
# Bulk Modulus (GPa) = 29.38536 47.83859 38.61197
# Shear Modulus (GPa) = 12.68466 31.30413 21.99439
#
# Velocity S-wave (km/s) = 2.37362 3.72884 3.12556
# Velocity P-wave (km/s) = 4.53476 6.30771 5.49324
#
# Compressibility (1/GPa) = 0.03403055
#
# Stress axis : x y z
#
# Youngs Moduli (GPa) = 105.84231 69.30261 47.84689
#
# Poissons Ratio (x) = 0.19035 0.10580
# Poissons Ratio (y) = 0.29070 0.01988
# Poissons Ratio (z) = 0.23405 0.02880
#
# Static dielectric constant tensor:
#      x y z
#    x 1.835670 0.000000 0.035550 
#    y 0.000000 1.768900 0.000000 
#    z 0.035550 0.000000 1.939290 
# 
# From -- ./inp_files/360059.got.cif
#   From: 2010.05.17/outbox.cif.g08.bks.cpg/sg12_181_cif.got.tgz:360059.got - 2010.06.03 13:09:07.
