data_PCOD9196265
_publ_section_title
;
Structure prediction by ZEFSAII (Michael W. Deem and Ramdas Pophale) SiO2 
 PCOD9196265
Probable space group: C 2/M
;
_chemical_formula_sum "Si O2"
_cell_formula_units_Z 56
_cell_length_a 20.462977
_cell_length_b 12.750021
_cell_length_c 13.020401
_cell_angle_alpha 90.000000
_cell_angle_beta 135.020167
_cell_angle_gamma 90.000000
_cell_volume 2401.243272
_symmetry_space_group_name_H-M "C 2/M"
_symmetry_group_IT_number 12
_symmetry_cell_setting 'monoclinic'
loop_
_space_group_symop_operation_xyz
x,y,z
-x,y,-z
-x,-y,-z
x,-y,z
1/2+x,1/2+y,z
1/2-x,1/2+y,-z
1/2-x,1/2-y,-z
1/2+x,1/2-y,z
loop_
_atom_site_type_symbol
_atom_site_label
_atom_site_fract_x
_atom_site_fract_y
_atom_site_fract_z
Si Si1 0.103601 0.874785 0.128694
Si Si2 0.131719 0.340516 0.445559
Si Si3 0.609060 0.202945 0.639869
Si Si4 0.069258 0.665351 0.822189
Si Si5 0.676335 0.619644 0.428509
Si Si6 0.246771 0.883031 0.864708
Si Si7 0.626785 0.383535 0.931573
O O1 0.145153 0.839470 0.280870
O O2 0.097314 0.000000 0.133875
O O3 0.156666 0.859136 0.081045
O O4 0.000000 0.832567 0.000000
O O5 0.135582 0.367580 0.570920
O O6 0.213639 0.380681 0.465359
O O7 0.142983 0.213183 0.463250
O O8 0.034235 0.375124 0.290600
O O9 0.500000 0.235387 0.500000
O O10 0.606681 0.146168 0.748338
O O11 0.682454 0.298366 0.736036
O O12 0.059766 0.791621 0.822832
O O13 0.144302 0.634998 0.991752
O O14 0.645587 0.500000 0.415875
O O15 0.206333 0.881523 0.936132
O O16 0.233381 0.000000 0.806577
O O17 0.584761 0.500000 0.885945
#
# Coordination Sequence:
#
# PCOD9196265 Si02
#       7
#     8   8   8   8   8   8   8
#     4   9  17  29  49  77 102 129 171 224 276 322
#     4  10  22  38  57  81 110 151 188 230 284 334
#     4   9  19  36  58  84 114 146 188 234 283 332
#     4  10  20  35  56  83 114 149 183 229 278 340
#     4  10  22  38  56  79 109 145 188 233 279 331
#     4  10  21  34  53  84 116 153 188 222 278 341
#     4   9  17  30  52  80 109 138 176 228 281 323
#
# _framework density 23.321252999999999
#
# number of rings (size 3 to 8) (size 9 to 14) (size 15 to 20)
#    0.000    2.429    0.000    2.571    4.000    3.143 
#    0.000    2.857    0.000    2.571    0.000    3.000 
#    0.000    0.000    0.000    0.000    0.000    0.000 
#
# Total GULP energy -156164.331347 kJ/mol
# GULP energy per Si atom -5577.297548 kJ/mol
# Density = 2.326817 g / cm^3
# Si number density = 23.321253 Si / 1000 Ang^3
#
#
#
# Elastic Constant Matrix: (Units=GPa)
#
#
# Indices 1 2 3 4 5 6 
#
# 1 43.2293 4.9775 15.3057 0.0000 1.4387 0.0000
# 2 4.9775 80.0314 8.7810 0.0000 5.7475 0.0000
# 3 15.3057 8.7810 109.6997 0.0000 21.5324 0.0000
# 4 0.0000 0.0000 0.0000 7.6193 0.0000 0.4253
# 5 1.4387 5.7475 21.5324 0.0000 43.5988 0.0000
# 6 0.0000 0.0000 0.0000 0.4253 0.0000 -2.3152
#
#
#
# Elastic Compliance Matrix: (Units=1/GPa)
#
#
# Indices 1 2 3 4 5 6 
#
# 1 0.024487 -0.001214 -0.003535 0.000000 0.001098 0.000000
# 2 -0.001214 0.012732 -0.000585 0.000000 -0.001349 0.000000
# 3 -0.003535 -0.000585 0.010650 0.000000 -0.005066 0.000000
# 4 0.000000 0.000000 0.000000 0.129914 0.000000 0.023863
# 5 0.001098 -0.001349 -0.005066 0.000000 0.025580 0.000000
# 6 0.000000 0.000000 0.000000 0.023863 0.000000 -0.427537
#
#
# Mechanical properties :
#
#
# Convention : Reuss Voigt Hill
#
# Bulk Modulus (GPa) = 26.88040 32.34319 29.61180
# Shear Modulus (GPa) = -24.86257 23.37365 -0.74446
#
# Velocity S-wave (km/s) = -3.26865 3.16926 -0.56561
# Velocity P-wave (km/s) = 1.64141 5.22407 3.50690
#
# Compressibility (1/GPa) = 0.03720182
#
# Stress axis : x y z
#
# Youngs Moduli (GPa) = 40.83760 78.54427 93.89491
#
# Poissons Ratio (x) = 0.09535 0.33190
# Poissons Ratio (y) = 0.04957 0.05492
# Poissons Ratio (z) = 0.14435 0.04594
#
# Static dielectric constant tensor:
#      x y z
#    x 1.899250 0.000000 0.034930 
#    y 0.000000 1.915330 0.000000 
#    z 0.034930 0.000000 1.904550 
# 
# From -- ./inp_files/233714.got.cif
#   From: 2010.05.17/outbox.cif.g08.bks.cpg/sg12_117_cif.got.tgz:233714.got - 2010.06.03 13:09:07.
