data_PCOD9196991
_publ_section_title
;
Structure prediction by ZEFSAII (Michael W. Deem and Ramdas Pophale) SiO2 
 PCOD9196991
Probable space group: C 2/M
;
_chemical_formula_sum "Si O2"
_cell_formula_units_Z 56
_cell_length_a 33.175766
_cell_length_b 15.377991
_cell_length_c 13.219094
_cell_angle_alpha 90.000000
_cell_angle_beta 24.933671
_cell_angle_gamma 90.000000
_cell_volume 2843.090580
_symmetry_space_group_name_H-M "C 2/M"
_symmetry_group_IT_number 12
_symmetry_cell_setting 'monoclinic'
loop_
_space_group_symop_operation_xyz
x,y,z
-x,y,-z
-x,-y,-z
x,-y,z
1/2+x,1/2+y,z
1/2-x,1/2+y,-z
1/2-x,1/2-y,-z
1/2+x,1/2-y,z
loop_
_atom_site_type_symbol
_atom_site_label
_atom_site_fract_x
_atom_site_fract_y
_atom_site_fract_z
Si Si1 0.854113 0.749860 0.813569
Si Si2 0.071353 0.834091 0.542066
Si Si3 0.783206 0.601876 0.104172
Si Si4 0.624853 0.401540 0.071859
Si Si5 0.216102 0.395954 0.452940
Si Si6 0.839231 0.395760 0.202550
Si Si7 0.471614 0.211071 0.175931
O O1 0.924961 0.764503 0.558776
O O2 0.861249 0.832748 0.870631
O O3 0.750000 0.750000 0.000000
O O4 0.855083 0.662271 0.876734
O O5 0.174629 0.878988 0.316102
O O6 0.049231 0.785119 0.696046
O O7 0.984710 0.897355 0.713386
O O8 0.803905 0.500000 0.045437
O O9 0.792746 0.626374 0.200904
O O10 0.649685 0.500000 0.046534
O O11 0.692642 0.375384 0.823580
O O12 0.201230 0.500000 0.480473
O O13 0.223667 0.373776 0.554903
O O14 0.123092 0.347340 0.622254
O O15 0.854541 0.500000 0.168981
O O16 0.939905 0.347474 0.987432
O O17 0.500000 0.244626 0.000000
#
# Coordination Sequence:
#
# PCOD9196991 Si02
#       7
#     8   8   8   8   8   8   8
#     4  10  22  39  58  82 114 147 189 239 281 332
#     4  11  23  38  56  84 119 153 192 238 283 341
#     4  10  21  39  61  85 116 154 194 239 294 347
#     4  11  23  39  61  87 118 157 194 232 285 346
#     4   9  18  34  56  84 115 148 194 246 291 342
#     4   9  18  34  57  83 113 150 193 245 297 341
#     4  10  20  35  58  85 114 152 195 240 294 348
#
# _framework density 19.696874000000001
#
# number of rings (size 3 to 8) (size 9 to 14) (size 15 to 20)
#    0.000    2.000    0.000    3.857    0.000    6.286 
#    0.000    5.000    0.000    7.714    0.000    0.000 
#    0.000    0.000    0.000    0.000    0.000    0.000 
#
# Total GULP energy -156362.163824 kJ/mol
# GULP energy per Si atom -5584.362994 kJ/mol
# Density = 1.965204 g / cm^3
# Si number density = 19.696874 Si / 1000 Ang^3
#
#
#
# Elastic Constant Matrix: (Units=GPa)
#
#
# Indices 1 2 3 4 5 6 
#
# 1 107.5655 52.0149 35.2771 0.0000 12.8417 0.0000
# 2 52.0149 68.1598 32.2234 0.0000 13.1304 0.0000
# 3 35.2771 32.2234 87.7766 0.0000 7.5484 0.0000
# 4 0.0000 0.0000 0.0000 25.1762 0.0000 1.6819
# 5 12.8417 13.1304 7.5484 0.0000 25.1875 0.0000
# 6 0.0000 0.0000 0.0000 1.6819 0.0000 22.0448
#
#
#
# Elastic Compliance Matrix: (Units=1/GPa)
#
#
# Indices 1 2 3 4 5 6 
#
# 1 0.015153 -0.010185 -0.002200 0.000000 -0.001757 0.000000
# 2 -0.010185 0.026093 -0.004888 0.000000 -0.006944 0.000000
# 3 -0.002200 -0.004888 0.014119 0.000000 -0.000562 0.000000
# 4 0.000000 0.000000 0.000000 0.039923 0.000000 -0.003046
# 5 -0.001757 -0.006944 -0.000562 0.000000 0.044386 0.000000
# 6 0.000000 0.000000 0.000000 -0.003046 0.000000 0.045595
#
#
# Mechanical properties :
#
#
# Convention : Reuss Voigt Hill
#
# Bulk Modulus (GPa) = 48.03377 55.83697 51.93537
# Shear Modulus (GPa) = 22.05008 24.08080 23.06544
#
# Velocity S-wave (km/s) = 3.34948 3.50032 3.42573
# Velocity P-wave (km/s) = 6.27679 6.68925 6.48630
#
# Compressibility (1/GPa) = 0.02081869
#
# Stress axis : x y z
#
# Youngs Moduli (GPa) = 65.99277 38.32442 70.82428
#
# Poissons Ratio (x) = 0.39035 0.15580
# Poissons Ratio (y) = 0.67217 0.34621
# Poissons Ratio (z) = 0.14517 0.18734
#
# Static dielectric constant tensor:
#      x y z
#    x 1.692190 0.000000 0.012850 
#    y 0.000000 1.677380 0.000000 
#    z 0.012850 0.000000 1.689790 
# 
# From -- ./inp_files/189644.got.cif
#   From: 2010.05.17/outbox.cif.g08.bks.cpg/sg12_95_cif.got.tgz:189644.got - 2010.06.03 13:09:07.
