data_PCOD9196633
_publ_section_title
;
Structure prediction by ZEFSAII (Michael W. Deem and Ramdas Pophale) SiO2 
 PCOD9196633
Probable space group: C 2/M
;
_chemical_formula_sum "Si O2"
_cell_formula_units_Z 56
_cell_length_a 21.469378
_cell_length_b 9.564330
_cell_length_c 30.127979
_cell_angle_alpha 90.000000
_cell_angle_beta 150.266770
_cell_angle_gamma 90.000000
_cell_volume 3068.264105
_symmetry_space_group_name_H-M "C 2/M"
_symmetry_group_IT_number 12
_symmetry_cell_setting 'monoclinic'
loop_
_space_group_symop_operation_xyz
x,y,z
-x,y,-z
-x,-y,-z
x,-y,z
1/2+x,1/2+y,z
1/2-x,1/2+y,-z
1/2-x,1/2-y,-z
1/2+x,1/2-y,z
loop_
_atom_site_type_symbol
_atom_site_label
_atom_site_fract_x
_atom_site_fract_y
_atom_site_fract_z
Si Si1 0.441186 0.664909 0.415400
Si Si2 0.150263 0.663773 0.214632
Si Si3 0.972458 0.662768 0.768320
Si Si4 0.501518 0.668145 0.052804
Si Si5 0.743404 0.664642 0.041510
Si Si6 0.424915 0.160889 0.577965
Si Si7 0.371290 0.339525 0.627859
O O1 0.500000 0.695890 0.500000
O O2 0.466327 0.500000 0.421971
O O3 0.291490 0.686050 0.319741
O O4 0.503899 0.761152 0.417284
O O5 0.138265 0.500000 0.195390
O O6 0.058481 0.691798 0.199423
O O7 0.110362 0.757604 0.148491
O O8 0.937850 0.500000 0.738671
O O9 0.895887 0.764768 0.689532
O O10 0.120411 0.680543 0.851679
O O11 0.516158 0.500000 0.063969
O O12 0.500000 0.708207 0.000000
O O13 0.370696 0.705019 0.996745
O O14 0.728332 0.500000 0.021549
O O15 0.750000 0.750000 0.000000
O O16 0.438306 0.248319 0.631397
O O17 0.276880 0.161129 0.474488
O O18 0.464911 0.000000 0.608078
O O19 0.414264 0.500000 0.654301
#
# Coordination Sequence:
#
# PCOD9196633 Si02
#       7
#     8   8   8   8   8   8   8
#     4  10  21  37  58  83 115 154 192 233 285 346
#     4  10  21  37  58  85 115 150 193 239 288 343
#     4  10  20  35  57  84 113 147 192 238 285 341
#     4  10  22  39  58  84 119 156 194 241 299 354
#     4  10  20  36  59  83 111 149 190 234 285 342
#     4  10  21  37  56  79 112 150 189 236 286 338
#     4  10  21  36  56  83 112 146 189 235 285 342
#
# _framework density 18.251363000000001
#
# number of rings (size 3 to 8) (size 9 to 14) (size 15 to 20)
#    0.000    2.000    1.429    1.714    0.000    6.286 
#    0.000    1.429    0.000    0.000    0.000    0.000 
#    0.000    0.000    0.000    0.000    0.000    0.000 
#
# Total GULP energy -156284.843045 kJ/mol
# GULP energy per Si atom -5581.601537 kJ/mol
# Density = 1.820982 g / cm^3
# Si number density = 18.251363 Si / 1000 Ang^3
#
#
#
# Elastic Constant Matrix: (Units=GPa)
#
#
# Indices 1 2 3 4 5 6 
#
# 1 103.5696 51.8407 37.8718 0.0000 -6.9636 0.0000
# 2 51.8407 70.8081 45.5247 0.0000 -12.9519 0.0000
# 3 37.8718 45.5247 69.0773 -0.0002 -16.7497 -0.0001
# 4 0.0000 0.0000 -0.0002 25.6325 0.0000 -1.2256
# 5 -6.9636 -12.9519 -16.7497 0.0000 27.9650 0.0000
# 6 0.0000 0.0000 -0.0001 -1.2256 0.0000 30.7126
#
#
#
# Elastic Compliance Matrix: (Units=1/GPa)
#
#
# Indices 1 2 3 4 5 6 
#
# 1 0.015483 -0.010306 -0.002245 0.000000 -0.002262 0.000000
# 2 -0.010306 0.031458 -0.014240 0.000000 0.003475 0.000000
# 3 -0.002245 -0.014240 0.027326 0.000000 0.009213 0.000000
# 4 0.000000 0.000000 0.000000 0.039088 0.000000 0.001560
# 5 -0.002262 0.003475 0.009213 0.000000 0.042323 0.000000
# 6 0.000000 0.000000 0.000000 0.001560 0.000000 0.032622
#
#
# Mechanical properties :
#
#
# Convention : Reuss Voigt Hill
#
# Bulk Modulus (GPa) = 48.34204 57.10328 52.72266
# Shear Modulus (GPa) = 20.09841 24.07653 22.08747
#
# Velocity S-wave (km/s) = 3.32203 3.63597 3.48254
# Velocity P-wave (km/s) = 6.42331 6.99872 6.71718
#
# Compressibility (1/GPa) = 0.02068593
#
# Stress axis : x y z
#
# Youngs Moduli (GPa) = 64.58880 31.78798 36.59537
#
# Poissons Ratio (x) = 0.32759 0.08216
# Poissons Ratio (y) = 0.66563 0.52111
# Poissons Ratio (z) = 0.14501 0.45265
#
# Static dielectric constant tensor:
#      x y z
#    x 1.611220 0.000000 0.018540 
#    y 0.000000 1.613660 0.000000 
#    z 0.018540 0.000000 1.628290 
# 
# From -- ./inp_files/380790.got.cif
#   From: 2010.05.17/outbox.cif.g08.bks.cpg/sg12_191_cif.got.tgz:380790.got - 2010.06.03 13:09:07.
