data_PCOD9196651
_publ_section_title
;
Structure prediction by ZEFSAII (Michael W. Deem and Ramdas Pophale) SiO2 
 PCOD9196651
Probable space group: C 2/M
;
_chemical_formula_sum "Si O2"
_cell_formula_units_Z 64
_cell_length_a 19.364606
_cell_length_b 13.384811
_cell_length_c 32.161336
_cell_angle_alpha 90.000000
_cell_angle_beta 154.985937
_cell_angle_gamma 90.000000
_cell_volume 3524.778014
_symmetry_space_group_name_H-M "C 2/M"
_symmetry_group_IT_number 12
_symmetry_cell_setting 'monoclinic'
loop_
_space_group_symop_operation_xyz
x,y,z
-x,y,-z
-x,-y,-z
x,-y,z
1/2+x,1/2+y,z
1/2-x,1/2+y,-z
1/2-x,1/2-y,-z
1/2+x,1/2-y,z
loop_
_atom_site_type_symbol
_atom_site_label
_atom_site_fract_x
_atom_site_fract_y
_atom_site_fract_z
Si Si1 0.416687 0.198756 0.052297
Si Si2 0.646675 0.385257 0.844049
Si Si3 0.536473 0.186653 0.264125
Si Si4 0.271521 0.115627 0.820614
Si Si5 0.706744 0.115000 0.933417
Si Si6 0.005559 0.802847 0.387869
Si Si7 0.147198 0.884132 0.613458
Si Si8 0.873069 0.617876 0.593905
O O1 0.582687 0.179692 0.118818
O O2 0.418332 0.154941 0.099567
O O3 0.267469 0.142676 0.947497
O O4 0.363030 0.313884 0.023335
O O5 0.592268 0.500000 0.817368
O O6 0.503149 0.304170 0.762175
O O7 0.751816 0.374241 0.859177
O O8 0.380028 0.133042 0.158038
O O9 0.693452 0.154651 0.323245
O O10 0.563591 0.153494 0.326291
O O11 0.102545 0.147501 0.707219
O O12 0.307048 0.000000 0.830414
O O13 0.742391 0.000000 0.959484
O O14 0.044117 0.689286 0.395374
O O15 0.179277 0.858493 0.486951
O O16 0.905690 0.819237 0.375769
O O17 0.000000 0.882596 0.500000
O O18 0.171971 0.000000 0.640143
O O19 0.900849 0.500000 0.603584
#
# Coordination Sequence:
#
# PCOD9196651 Si02
#       8
#     8   8   8   8   8   8   8   8
#     4  10  21  35  56  83 116 150 193 245 292 347
#     4  10  21  37  58  84 116 155 193 239 295 347
#     4  11  21  38  61  90 120 152 199 242 290 354
#     4  11  20  34  57  84 113 148 192 242 288 337
#     4  10  20  35  57  84 114 153 194 237 292 352
#     4  11  23  38  58  90 118 151 196 245 285 351
#     4  11  21  35  59  87 117 151 189 241 293 334
#     4  11  22  40  62  85 120 161 194 239 294 346
#
# _framework density 18.157171999999999
#
# number of rings (size 3 to 8) (size 9 to 14) (size 15 to 20)
#    0.000    1.375    2.500    4.500    0.000    1.000 
#    0.000    1.250    0.000    2.250    0.000    0.000 
#    0.000    0.000    0.000    0.000    0.000    0.000 
#
# Total GULP energy -178759.523420 kJ/mol
# GULP energy per Si atom -5586.235107 kJ/mol
# Density = 1.811584 g / cm^3
# Si number density = 18.157172 Si / 1000 Ang^3
#
#
#
# Elastic Constant Matrix: (Units=GPa)
#
#
# Indices 1 2 3 4 5 6 
#
# 1 72.6571 46.8778 17.9440 0.0004 -4.2173 0.0001
# 2 46.8778 149.7967 38.9684 0.0010 1.9447 0.0000
# 3 17.9440 38.9684 58.2998 0.0030 -8.3701 -0.0002
# 4 0.0004 0.0010 0.0030 10.3266 0.0001 -3.6223
# 5 -4.2173 1.9447 -8.3701 0.0001 24.8175 0.0000
# 6 0.0001 0.0000 -0.0002 -3.6223 0.0000 17.9789
#
#
#
# Elastic Compliance Matrix: (Units=1/GPa)
#
#
# Indices 1 2 3 4 5 6 
#
# 1 0.017640 -0.005147 -0.001577 0.000000 0.002869 0.000000
# 2 -0.005147 0.009743 -0.005426 0.000001 -0.003468 0.000000
# 3 -0.001577 -0.005426 0.022371 -0.000006 0.007702 -0.000001
# 4 0.000000 0.000001 -0.000006 0.104202 -0.000003 0.020994
# 5 0.002869 -0.003468 0.007702 -0.000003 0.043651 0.000000
# 6 0.000000 0.000000 -0.000001 0.020994 0.000000 0.059850
#
#
# Mechanical properties :
#
#
# Convention : Reuss Voigt Hill
#
# Bulk Modulus (GPa) = 39.28761 54.25933 46.77347
# Shear Modulus (GPa) = 17.22695 22.42216 19.82456
#
# Velocity S-wave (km/s) = 3.08355 3.51792 3.30787
# Velocity P-wave (km/s) = 5.86193 6.81535 6.35654
#
# Compressibility (1/GPa) = 0.02545332
#
# Stress axis : x y z
#
# Youngs Moduli (GPa) = 56.68821 102.63644 44.70132
#
# Poissons Ratio (x) = 0.52831 0.07049
# Poissons Ratio (y) = 0.29180 0.24255
# Poissons Ratio (z) = 0.08939 0.55691
#
# Static dielectric constant tensor:
#      x y z
#    x 1.615380 0.000000 -0.022980 
#    y 0.000000 1.616750 0.000000 
#    z -0.022980 0.000000 1.625060 
# 
# From -- ./inp_files/379099.got.cif
#   From: 2010.05.17/outbox.cif.g08.bks.cpg/sg12_190_cif.got.tgz:379099.got - 2010.06.03 13:09:07.
