data_PCOD9196830
_publ_section_title
;
Structure prediction by ZEFSAII (Michael W. Deem and Ramdas Pophale) SiO2 
 PCOD9196830
Probable space group: C 2/M
;
_chemical_formula_sum "Si O2"
_cell_formula_units_Z 56
_cell_length_a 13.399743
_cell_length_b 14.311379
_cell_length_c 25.767837
_cell_angle_alpha 90.000000
_cell_angle_beta 33.077592
_cell_angle_gamma 90.000000
_cell_volume 2696.925765
_symmetry_space_group_name_H-M "C 2/M"
_symmetry_group_IT_number 12
_symmetry_cell_setting 'monoclinic'
loop_
_space_group_symop_operation_xyz
x,y,z
-x,y,-z
-x,-y,-z
x,-y,z
1/2+x,1/2+y,z
1/2-x,1/2+y,-z
1/2-x,1/2-y,-z
1/2+x,1/2-y,z
loop_
_atom_site_type_symbol
_atom_site_label
_atom_site_fract_x
_atom_site_fract_y
_atom_site_fract_z
Si Si1 0.381682 0.111690 0.444076
Si Si2 0.725833 0.780248 0.298854
Si Si3 0.309038 0.738174 0.061518
Si Si4 0.292463 0.390750 0.374832
Si Si5 0.009123 0.892486 0.434055
Si Si6 0.477925 0.819798 0.885384
Si Si7 0.293513 0.603937 0.809983
O O1 0.555483 0.166473 0.347517
O O2 0.344256 0.139931 0.520275
O O3 0.193526 0.132448 0.497287
O O4 0.410764 0.000000 0.429634
O O5 0.776433 0.836373 0.328512
O O6 0.655304 0.679473 0.348273
O O7 0.897753 0.768378 0.186528
O O8 0.238430 0.811734 0.135439
O O9 0.156951 0.667273 0.104979
O O10 0.500000 0.697172 0.000000
O O11 0.362847 0.798232 0.987101
O O12 0.254929 0.500000 0.381605
O O13 0.503148 0.383872 0.301754
O O14 0.000000 0.887794 0.500000
O O15 0.046563 0.000000 0.402276
O O16 0.632702 0.890932 0.837635
O O17 0.289624 0.500000 0.836184
#
# Coordination Sequence:
#
# PCOD9196830 Si02
#       7
#     8   8   8   8   8   8   8
#     4  10  21  37  56  82 119 156 195 246 296 344
#     4  12  21  34  57  86 114 155 192 241 298 359
#     4   9  19  39  58  81 118 152 186 242 305 361
#     4  10  20  35  57  88 121 151 194 249 298 350
#     4  10  22  38  53  75 112 158 201 238 280 346
#     4  10  21  34  56  87 116 148 194 241 297 362
#     4  10  20  37  63  91 119 153 202 254 301 354
#
# _framework density 20.764382999999999
#
# number of rings (size 3 to 8) (size 9 to 14) (size 15 to 20)
#    0.000    1.857    1.429    3.000    0.000    6.571 
#    0.000    0.000    0.000    0.429    0.000    3.000 
#    0.000    0.000    0.000    0.000    0.000    0.000 
#
# Total GULP energy -156311.873832 kJ/mol
# GULP energy per Si atom -5582.566923 kJ/mol
# Density = 2.071712 g / cm^3
# Si number density = 20.764383 Si / 1000 Ang^3
#
#
#
# Elastic Constant Matrix: (Units=GPa)
#
#
# Indices 1 2 3 4 5 6 
#
# 1 102.2416 17.9135 8.0080 0.0005 -12.0881 0.0000
# 2 17.9135 51.0558 11.0229 0.0006 0.3870 -0.0001
# 3 8.0080 11.0229 68.1187 0.0023 -6.5016 0.0000
# 4 0.0005 0.0006 0.0023 4.7313 -0.0004 -8.3564
# 5 -12.0881 0.3870 -6.5016 -0.0004 30.5142 -0.0001
# 6 0.0000 -0.0001 0.0000 -8.3564 -0.0001 30.4456
#
#
#
# Elastic Compliance Matrix: (Units=1/GPa)
#
#
# Indices 1 2 3 4 5 6 
#
# 1 0.010986 -0.003832 -0.000257 -0.000001 0.004346 0.000000
# 2 -0.003832 0.021661 -0.003293 -0.000002 -0.002494 0.000000
# 3 -0.000257 -0.003293 0.015554 -0.000013 0.003254 -0.000004
# 4 -0.000001 -0.000002 -0.000013 0.410221 0.000002 0.112593
# 5 0.004346 -0.002494 0.003254 0.000002 0.035218 0.000001
# 6 0.000000 0.000000 -0.000004 0.112593 0.000001 0.063749
#
#
# Mechanical properties :
#
#
# Convention : Reuss Voigt Hill
#
# Bulk Modulus (GPa) = 29.90624 32.81165 31.35895
# Shear Modulus (GPa) = 8.57196 25.43632 17.00414
#
# Velocity S-wave (km/s) = 2.03400 3.50379 2.86476
# Velocity P-wave (km/s) = 4.46656 5.67494 5.10662
#
# Compressibility (1/GPa) = 0.03343783
#
# Stress axis : x y z
#
# Youngs Moduli (GPa) = 91.02400 46.16642 64.29290
#
# Poissons Ratio (x) = 0.17692 0.01650
# Poissons Ratio (y) = 0.34882 0.21170
# Poissons Ratio (z) = 0.02336 0.15201
#
# Static dielectric constant tensor:
#      x y z
#    x 1.804270 0.000000 -0.030050 
#    y 0.000000 1.724460 0.000000 
#    z -0.030050 0.000000 1.741570 
# 
# From -- ./inp_files/361400.got.cif
#   From: 2010.05.17/outbox.cif.g08.bks.cpg/sg12_181_cif.got.tgz:361400.got - 2010.06.03 13:09:07.
