data_PCOD9196336
_publ_section_title
;
Structure prediction by ZEFSAII (Michael W. Deem and Ramdas Pophale) SiO2 
 PCOD9196336
Probable space group: C 2/M
;
_chemical_formula_sum "Si O2"
_cell_formula_units_Z 56
_cell_length_a 21.113178
_cell_length_b 8.842777
_cell_length_c 29.734162
_cell_angle_alpha 90.000000
_cell_angle_beta 31.029916
_cell_angle_gamma 90.000000
_cell_volume 2861.636650
_symmetry_space_group_name_H-M "C 2/M"
_symmetry_group_IT_number 12
_symmetry_cell_setting 'monoclinic'
loop_
_space_group_symop_operation_xyz
x,y,z
-x,y,-z
-x,-y,-z
x,-y,z
1/2+x,1/2+y,z
1/2-x,1/2+y,-z
1/2-x,1/2-y,-z
1/2+x,1/2-y,z
loop_
_atom_site_type_symbol
_atom_site_label
_atom_site_fract_x
_atom_site_fract_y
_atom_site_fract_z
Si Si1 0.090460 0.679528 0.904136
Si Si2 0.152271 0.678030 0.277931
Si Si3 0.501735 0.674635 0.294711
Si Si4 0.270899 0.178817 0.536365
Si Si5 0.497617 0.681093 0.553952
Si Si6 0.671800 0.323728 0.105670
Si Si7 0.574578 0.676678 0.068323
O O1 0.106736 0.500000 0.899167
O O2 0.224040 0.754768 0.819412
O O3 0.020966 0.722348 0.900502
O O4 0.000000 0.730336 0.000000
O O5 0.165293 0.500000 0.275198
O O6 0.041808 0.718800 0.310965
O O7 0.114530 0.751251 0.348547
O O8 0.507792 0.500000 0.307552
O O9 0.364584 0.697952 0.359978
O O10 0.597039 0.693226 0.196534
O O11 0.250000 0.250000 0.500000
O O12 0.377873 0.260135 0.498425
O O13 0.298098 0.000000 0.516545
O O14 0.500000 0.725660 0.500000
O O15 0.491973 0.500000 0.560081
O O16 0.712745 0.500000 0.076870
O O17 0.586635 0.293372 0.114178
O O18 0.789924 0.217649 0.032295
O O19 0.546482 0.500000 0.078352
#
# Coordination Sequence:
#
# PCOD9196336 Si02
#       7
#     8   8   8   8   8   8   8
#     4  11  24  41  61  85 120 165 206 249 307 373
#     4  12  25  40  63  92 123 160 205 261 315 374
#     4  10  21  38  61  87 119 157 200 247 301 368
#     4  11  22  38  64  93 124 162 204 256 311 370
#     4  11  25  45  67  93 129 171 214 265 322 383
#     4   9  19  36  57  83 116 157 197 241 300 362
#     4  10  20  35  56  84 118 153 197 251 301 355
#
# _framework density 19.569220999999999
#
# number of rings (size 3 to 8) (size 9 to 14) (size 15 to 20)
#    0.000    1.429    1.429    3.857    0.000    8.571 
#    0.000    1.429    0.000    0.000    0.000    0.000 
#    0.000    0.000    0.000    0.000    0.000    0.000 
#
# Total GULP energy -156456.605940 kJ/mol
# GULP energy per Si atom -5587.735926 kJ/mol
# Density = 1.952468 g / cm^3
# Si number density = 19.569221 Si / 1000 Ang^3
#
#
#
# Elastic Constant Matrix: (Units=GPa)
#
#
# Indices 1 2 3 4 5 6 
#
# 1 84.5735 34.9945 43.6892 -0.0032 -3.6631 0.0041
# 2 34.9945 75.7883 46.4515 -0.0062 5.6192 -0.0050
# 3 43.6892 46.4515 94.9275 -0.0014 6.5975 0.0022
# 4 -0.0032 -0.0062 -0.0014 29.9345 0.0009 -6.6970
# 5 -3.6631 5.6192 6.5975 0.0009 23.4089 -0.0037
# 6 0.0041 -0.0050 0.0022 -6.6970 -0.0037 26.2451
#
#
#
# Elastic Compliance Matrix: (Units=1/GPa)
#
#
# Indices 1 2 3 4 5 6 
#
# 1 0.017056 -0.004623 -0.005967 0.000000 0.005460 -0.000002
# 2 -0.004623 0.020189 -0.007512 0.000005 -0.003453 0.000006
# 3 -0.005967 -0.007512 0.017234 -0.000002 -0.003988 -0.000003
# 4 0.000000 0.000005 -0.000002 0.035429 -0.000001 0.009040
# 5 0.005460 -0.003453 -0.003988 -0.000001 0.045526 0.000005
# 6 -0.000002 0.000006 -0.000003 0.009040 0.000005 0.040409
#
#
# Mechanical properties :
#
#
# Convention : Reuss Voigt Hill
#
# Bulk Modulus (GPa) = 54.71908 56.17332 55.44620
# Shear Modulus (GPa) = 22.92128 24.59465 23.75796
#
# Velocity S-wave (km/s) = 3.42613 3.54899 3.48810
# Velocity P-wave (km/s) = 6.60860 6.74989 6.67962
#
# Compressibility (1/GPa) = 0.01827516
#
# Stress axis : x y z
#
# Youngs Moduli (GPa) = 58.63072 49.53123 58.02632
#
# Poissons Ratio (x) = 0.22898 0.34625
# Poissons Ratio (y) = 0.27105 0.43588
# Poissons Ratio (z) = 0.34986 0.37207
#
# Static dielectric constant tensor:
#      x y z
#    x 1.675500 0.000000 -0.003310 
#    y 0.000000 1.671200 0.000000 
#    z -0.003310 0.000000 1.706700 
# 
# From -- ./inp_files/380666.got.cif
#   From: 2010.05.17/outbox.cif.g08.bks.cpg/sg12_191_cif.got.tgz:380666.got - 2010.06.03 13:09:07.
