data_PCOD9196325
_publ_section_title
;
Structure prediction by ZEFSAII (Michael W. Deem and Ramdas Pophale) SiO2 
 PCOD9196325
Probable space group: C 2/M
;
_chemical_formula_sum "Si O2"
_cell_formula_units_Z 56
_cell_length_a 15.263465
_cell_length_b 14.442751
_cell_length_c 21.711585
_cell_angle_alpha 90.000000
_cell_angle_beta 141.275149
_cell_angle_gamma 90.000000
_cell_volume 2994.182061
_symmetry_space_group_name_H-M "C 2/M"
_symmetry_group_IT_number 12
_symmetry_cell_setting 'monoclinic'
loop_
_space_group_symop_operation_xyz
x,y,z
-x,y,-z
-x,-y,-z
x,-y,z
1/2+x,1/2+y,z
1/2-x,1/2+y,-z
1/2-x,1/2-y,-z
1/2+x,1/2-y,z
loop_
_atom_site_type_symbol
_atom_site_label
_atom_site_fract_x
_atom_site_fract_y
_atom_site_fract_z
Si Si1 0.222823 0.608763 0.498968
Si Si2 0.072585 0.253257 0.975381
Si Si3 0.065134 0.606328 0.717548
Si Si4 0.656544 0.390376 0.191023
Si Si5 0.830595 0.790208 0.678139
Si Si6 0.396780 0.195515 0.142653
Si Si7 0.338308 0.393689 0.428654
O O1 0.211602 0.500000 0.510647
O O2 0.276900 0.668439 0.585005
O O3 0.320992 0.612376 0.492945
O O4 0.072865 0.644641 0.390996
O O5 0.069273 0.316234 0.911201
O O6 0.980815 0.163474 0.906448
O O7 0.236163 0.224533 0.066493
O O8 0.000000 0.286413 0.000000
O O9 0.067404 0.500000 0.699833
O O10 0.211647 0.646397 0.775705
O O11 0.063778 0.612309 0.790360
O O12 0.637857 0.500000 0.173446
O O13 0.695672 0.362727 0.281832
O O14 0.754427 0.691174 0.648224
O O15 0.997036 0.773089 0.772758
O O16 0.500000 0.381759 0.500000
O O17 0.295008 0.500000 0.387899
#
# Coordination Sequence:
#
# PCOD9196325 Si02
#       7
#     8   8   8   8   8   8   8
#     4  10  21  37  56  83 120 155 190 235 287 347
#     4  10  20  38  58  80 115 149 189 248 294 349
#     4  10  20  35  56  84 117 148 189 236 284 355
#     4  10  22  36  56  90 119 149 191 235 299 363
#     4  11  22  36  58  83 119 157 187 245 289 339
#     4  10  21  35  56  86 109 148 200 235 293 348
#     4  10  22  37  53  76 108 153 204 235 268 330
#
# _framework density 18.702936999999999
#
# number of rings (size 3 to 8) (size 9 to 14) (size 15 to 20)
#    0.000    1.857    2.857    0.857    2.000    0.857 
#    0.000    2.143    0.000    0.429    0.000    0.000 
#    0.000    0.000    0.000    0.000    0.000    0.000 
#
# Total GULP energy -155906.389904 kJ/mol
# GULP energy per Si atom -5568.085354 kJ/mol
# Density = 1.866037 g / cm^3
# Si number density = 18.702937 Si / 1000 Ang^3
#
#
#
# Elastic Constant Matrix: (Units=GPa)
#
#
# Indices 1 2 3 4 5 6 
#
# 1 114.4308 23.2520 59.3951 0.0000 14.1226 0.0000
# 2 23.2520 39.9236 25.4759 0.0000 12.4544 0.0000
# 3 59.3951 25.4759 121.6448 0.0001 7.0205 0.0000
# 4 0.0000 0.0000 0.0001 20.1121 0.0000 -7.0122
# 5 14.1226 12.4544 7.0205 0.0000 28.3745 0.0000
# 6 0.0000 0.0000 0.0000 -7.0122 0.0000 17.5753
#
#
#
# Elastic Compliance Matrix: (Units=1/GPa)
#
#
# Indices 1 2 3 4 5 6 
#
# 1 0.012516 -0.002734 -0.005324 0.000000 -0.003712 0.000000
# 2 -0.002734 0.033628 -0.005006 0.000000 -0.012161 0.000000
# 3 -0.005324 -0.005006 0.011757 0.000000 0.001938 0.000000
# 4 0.000000 0.000000 0.000000 0.057755 0.000000 0.023043
# 5 -0.003712 -0.012161 0.001938 0.000000 0.041949 0.000000
# 6 0.000000 0.000000 0.000000 0.023043 0.000000 0.066092
#
#
# Mechanical properties :
#
#
# Convention : Reuss Voigt Hill
#
# Bulk Modulus (GPa) = 31.47362 54.69392 43.08377
# Shear Modulus (GPa) = 19.19999 24.40413 21.80206
#
# Velocity S-wave (km/s) = 3.20750 3.61616 3.41794
# Velocity P-wave (km/s) = 5.53011 6.83685 6.21790
#
# Compressibility (1/GPa) = 0.03177264
#
# Stress axis : x y z
#
# Youngs Moduli (GPa) = 79.89626 29.73692 85.05622
#
# Poissons Ratio (x) = 0.08130 0.45288
# Poissons Ratio (y) = 0.21843 0.42579
# Poissons Ratio (z) = 0.42540 0.14886
#
# Static dielectric constant tensor:
#      x y z
#    x 1.707790 0.000000 0.011240 
#    y 0.000000 1.663910 0.000000 
#    z 0.011240 0.000000 1.664200 
# 
# From -- ./inp_files/310823.got.cif
#   From: 2010.05.17/outbox.cif.g08.bks.cpg/sg12_156_cif.got.tgz:310823.got - 2010.06.03 13:09:07.
