data_PCOD9196937
_publ_section_title
;
Structure prediction by ZEFSAII (Michael W. Deem and Ramdas Pophale) SiO2 
 PCOD9196937
Probable space group: C 2/M
;
_chemical_formula_sum "Si O2"
_cell_formula_units_Z 48
_cell_length_a 19.655451
_cell_length_b 8.913746
_cell_length_c 27.855281
_cell_angle_alpha 90.000000
_cell_angle_beta 33.875815
_cell_angle_gamma 90.000000
_cell_volume 2720.280261
_symmetry_space_group_name_H-M "C 2/M"
_symmetry_group_IT_number 12
_symmetry_cell_setting 'monoclinic'
loop_
_space_group_symop_operation_xyz
x,y,z
-x,y,-z
-x,-y,-z
x,-y,z
1/2+x,1/2+y,z
1/2-x,1/2+y,-z
1/2-x,1/2-y,-z
1/2+x,1/2-y,z
loop_
_atom_site_type_symbol
_atom_site_label
_atom_site_fract_x
_atom_site_fract_y
_atom_site_fract_z
Si Si1 0.372003 0.320729 0.599666
Si Si2 0.540203 0.676989 0.874481
Si Si3 0.213628 0.678454 0.970150
Si Si4 0.591684 0.179333 0.215857
Si Si5 0.185747 0.679497 0.265646
Si Si6 0.621891 0.322364 0.716486
O O1 0.500000 0.281214 0.500000
O O2 0.357245 0.500000 0.607015
O O3 0.366730 0.264033 0.657558
O O4 0.257245 0.244358 0.640566
O O5 0.514873 0.500000 0.897013
O O6 0.669673 0.715171 0.822853
O O7 0.562362 0.699572 0.804389
O O8 0.425519 0.773030 0.958142
O O9 0.226190 0.500000 0.965415
O O10 0.303825 0.744634 0.877530
O O11 0.250000 0.750000 0.000000
O O12 0.617372 0.213519 0.256439
O O13 0.463439 0.241099 0.271835
O O14 0.597358 0.000000 0.206223
O O15 0.179594 0.500000 0.278480
O O16 0.625893 0.500000 0.705408
#
# Coordination Sequence:
#
# PCOD9196937 Si02
#       6
#     8   8   8   8   8   8
#     4  10  21  38  62  89 114 143 182 228 276 333
#     4   9  18  35  55  77 108 146 190 234 276 328
#     4  12  23  34  52  79 111 150 195 238 277 324
#     4  11  22  37  57  82 114 150 187 234 284 329
#     4   9  21  39  59  83 113 148 185 229 285 337
#     4  10  20  35  58  84 112 148 187 228 278 335
#
# _framework density 17.645240000000001
#
# number of rings (size 3 to 8) (size 9 to 14) (size 15 to 20)
#    0.000    1.833    1.667    4.000    0.000    6.000 
#    0.000    4.167    0.000    0.000    0.000    0.000 
#    0.000    0.000    0.000    0.000    0.000    0.000 
#
# Total GULP energy -134067.364717 kJ/mol
# GULP energy per Si atom -5586.140197 kJ/mol
# Density = 1.760508 g / cm^3
# Si number density = 17.645240 Si / 1000 Ang^3
#
#
#
# Elastic Constant Matrix: (Units=GPa)
#
#
# Indices 1 2 3 4 5 6 
#
# 1 144.3015 76.0653 65.7025 0.0001 -12.9490 -0.0002
# 2 76.0653 93.2534 68.7219 0.0002 -9.1378 -0.0002
# 3 65.7025 68.7219 118.9765 0.0000 -19.5634 -0.0001
# 4 0.0001 0.0002 0.0000 29.7769 0.0000 -2.2995
# 5 -12.9490 -9.1378 -19.5634 0.0000 16.8886 0.0000
# 6 -0.0002 -0.0002 -0.0001 -2.2995 0.0000 28.8725
#
#
#
# Elastic Compliance Matrix: (Units=1/GPa)
#
#
# Indices 1 2 3 4 5 6 
#
# 1 0.012516 -0.009044 -0.001130 0.000000 0.003394 0.000000
# 2 -0.009044 0.025326 -0.010526 0.000000 -0.005425 0.000000
# 3 -0.001130 -0.010526 0.017331 0.000000 0.013514 0.000000
# 4 0.000000 0.000000 0.000000 0.033791 0.000000 0.002691
# 5 0.003394 -0.005425 0.013514 0.000000 0.074534 0.000000
# 6 0.000000 0.000000 0.000000 0.002691 0.000000 0.034849
#
#
# Mechanical properties :
#
#
# Convention : Reuss Voigt Hill
#
# Bulk Modulus (GPa) = 72.60321 86.39009 79.49665
# Shear Modulus (GPa) = 20.46331 24.84370 22.65351
#
# Velocity S-wave (km/s) = 3.40914 3.75634 3.58695
# Velocity P-wave (km/s) = 7.53205 8.23888 7.89338
#
# Compressibility (1/GPa) = 0.01377350
#
# Stress axis : x y z
#
# Youngs Moduli (GPa) = 79.89517 39.48467 57.69969
#
# Poissons Ratio (x) = 0.35711 0.06519
# Poissons Ratio (y) = 0.72259 0.60736
# Poissons Ratio (z) = 0.09026 0.41562
#
# Static dielectric constant tensor:
#      x y z
#    x 1.601710 0.000000 -0.012870 
#    y 0.000000 1.587090 0.000000 
#    z -0.012870 0.000000 1.573860 
# 
# From -- ./inp_files/313612.got.cif
#   From: 2010.05.17/outbox.cif.g08.bks.cpg/sg12_157_cif.got.tgz:313612.got - 2010.06.03 13:09:07.
