data_PCOD9196884
_publ_section_title
;
Structure prediction by ZEFSAII (Michael W. Deem and Ramdas Pophale) SiO2 
 PCOD9196884
Probable space group: C 2/M
;
_chemical_formula_sum "Si O2"
_cell_formula_units_Z 56
_cell_length_a 31.330693
_cell_length_b 7.924837
_cell_length_c 18.667175
_cell_angle_alpha 90.000000
_cell_angle_beta 143.767779
_cell_angle_gamma 90.000000
_cell_volume 2739.492092
_symmetry_space_group_name_H-M "C 2/M"
_symmetry_group_IT_number 12
_symmetry_cell_setting 'monoclinic'
loop_
_space_group_symop_operation_xyz
x,y,z
-x,y,-z
-x,-y,-z
x,-y,z
1/2+x,1/2+y,z
1/2-x,1/2+y,-z
1/2-x,1/2-y,-z
1/2+x,1/2-y,z
loop_
_atom_site_type_symbol
_atom_site_label
_atom_site_fract_x
_atom_site_fract_y
_atom_site_fract_z
Si Si1 0.296741 0.804468 0.288366
Si Si2 0.267447 0.302634 0.405780
Si Si3 0.645340 0.296641 0.020859
Si Si4 0.834925 0.796155 0.111443
Si Si5 0.139177 0.295186 0.335125
Si Si6 0.009423 0.297019 0.931468
Si Si7 0.075465 0.196497 0.630469
O O1 0.285745 0.791812 0.358128
O O2 0.223812 0.736370 0.153100
O O3 0.366294 0.708428 0.354050
O O4 0.305601 0.000000 0.279572
O O5 0.259887 0.500000 0.378275
O O6 0.193559 0.245591 0.344469
O O7 0.328791 0.277376 0.548579
O O8 0.647672 0.500000 0.023757
O O9 0.634471 0.239530 0.924271
O O10 0.583596 0.246101 0.992752
O O11 0.883173 0.731985 0.243345
O O12 0.837116 0.000000 0.116596
O O13 0.750000 0.750000 0.000000
O O14 0.141975 0.500000 0.343728
O O15 0.058863 0.239170 0.207743
O O16 0.005034 0.500000 0.929092
O O17 0.000000 0.233247 0.000000
O O18 0.000000 0.272278 0.500000
O O19 0.060533 0.000000 0.627302
#
# Coordination Sequence:
#
# PCOD9196884 Si02
#       7
#     8   8   8   8   8   8   8
#     4  11  22  37  57  83 116 148 189 240 289 347
#     4  10  20  35  58  82 109 149 193 236 287 347
#     4  10  22  37  56  85 116 152 196 242 291 345
#     4  10  20  38  61  84 115 151 193 241 289 349
#     4   9  19  36  55  80 114 150 190 237 289 342
#     4  10  21  37  57  83 117 153 192 239 286 340
#     4  10  22  39  60  87 118 152 191 240 296 353
#
# _framework density 20.441744
#
# number of rings (size 3 to 8) (size 9 to 14) (size 15 to 20)
#    0.000    2.000    1.429    1.714    0.000    5.714 
#    0.000    1.429    0.000    0.000    0.000    0.000 
#    0.000    0.000    0.000    0.000    0.000    0.000 
#
# Total GULP energy -156356.026706 kJ/mol
# GULP energy per Si atom -5584.143811 kJ/mol
# Density = 2.039522 g / cm^3
# Si number density = 20.441744 Si / 1000 Ang^3
#
#
#
# Elastic Constant Matrix: (Units=GPa)
#
#
# Indices 1 2 3 4 5 6 
#
# 1 109.1818 0.8259 62.4736 0.0000 -9.3080 0.0000
# 2 0.8259 20.5277 7.4108 0.0000 -1.4397 0.0000
# 3 62.4736 7.4108 139.4100 0.0000 15.4895 0.0000
# 4 0.0000 0.0000 0.0000 13.1800 0.0000 18.2679
# 5 -9.3080 -1.4397 15.4895 0.0000 30.6705 0.0000
# 6 0.0000 0.0000 0.0000 18.2679 0.0000 -15.6030
#
#
#
# Elastic Compliance Matrix: (Units=1/GPa)
#
#
# Indices 1 2 3 4 5 6 
#
# 1 0.014015 0.002644 -0.007318 0.000000 0.008073 0.000000
# 2 0.002644 0.050607 -0.004480 0.000000 0.005440 0.000000
# 3 -0.007318 -0.004480 0.011612 0.000000 -0.008296 0.000000
# 4 0.000000 0.000000 0.000000 0.028928 0.000000 0.033869
# 5 0.008073 0.005440 -0.008296 0.000000 0.039500 0.000000
# 6 0.000000 0.000000 0.000000 0.033869 0.000000 -0.024436
#
#
# Mechanical properties :
#
#
# Convention : Reuss Voigt Hill
#
# Bulk Modulus (GPa) = 17.26299 45.61557 31.43928
# Shear Modulus (GPa) = 31.67737 18.87679 25.27708
#
# Velocity S-wave (km/s) = 3.94082 3.04212 3.52027
# Velocity P-wave (km/s) = 5.40093 5.89090 5.65123
#
# Compressibility (1/GPa) = 0.05792740
#
# Stress axis : x y z
#
# Youngs Moduli (GPa) = 71.35449 19.76008 86.11582
#
# Poissons Ratio (x) = -0.05225 0.63018
# Poissons Ratio (y) = -0.18868 0.38577
# Poissons Ratio (z) = 0.52216 0.08852
#
# Static dielectric constant tensor:
#      x y z
#    x 1.691780 0.000000 -0.016370 
#    y 0.000000 1.743140 0.000000 
#    z -0.016370 0.000000 1.730450 
# 
# From -- ./inp_files/281019.got.cif
#   From: 2010.05.17/outbox.cif.g08.bks.cpg/sg12_141_cif.got.tgz:281019.got - 2010.06.03 13:09:07.
