data_PCOD9196441
_publ_section_title
;
Structure prediction by ZEFSAII (Michael W. Deem and Ramdas Pophale) SiO2 
 PCOD9196441
Probable space group: C 2/M
;
_chemical_formula_sum "Si O2"
_cell_formula_units_Z 56
_cell_length_a 15.121589
_cell_length_b 7.513534
_cell_length_c 22.532972
_cell_angle_alpha 90.000000
_cell_angle_beta 58.576036
_cell_angle_gamma 90.000000
_cell_volume 2184.633591
_symmetry_space_group_name_H-M "C 2/M"
_symmetry_group_IT_number 12
_symmetry_cell_setting 'monoclinic'
loop_
_space_group_symop_operation_xyz
x,y,z
-x,y,-z
-x,-y,-z
x,-y,z
1/2+x,1/2+y,z
1/2-x,1/2+y,-z
1/2-x,1/2-y,-z
1/2+x,1/2-y,z
loop_
_atom_site_type_symbol
_atom_site_label
_atom_site_fract_x
_atom_site_fract_y
_atom_site_fract_z
Si Si1 0.383250 0.784339 0.520805
Si Si2 0.666474 0.284933 0.943757
Si Si3 0.671377 0.209284 0.272882
Si Si4 0.697037 0.714560 0.671750
Si Si5 0.049059 0.709270 0.624170
Si Si6 0.385547 0.298056 0.838742
Si Si7 0.987429 0.217219 0.100515
O O1 0.500000 0.737163 0.500000
O O2 0.291975 0.723979 0.595928
O O3 0.377981 0.721515 0.454133
O O4 0.376488 0.000000 0.526392
O O5 0.675600 0.500000 0.939960
O O6 0.779403 0.205764 0.914079
O O7 0.616082 0.227808 0.898021
O O8 0.581582 0.238204 0.022790
O O9 0.771783 0.276223 0.273126
O O10 0.565927 0.287307 0.337349
O O11 0.653363 0.219032 0.209305
O O12 0.672395 0.000000 0.286149
O O13 0.688776 0.500000 0.673662
O O14 0.594915 0.775042 0.673632
O O15 0.038684 0.500000 0.615413
O O16 0.415326 0.500000 0.814706
O O17 0.476689 0.218891 0.847336
O O18 0.982533 0.000000 0.105687
#
# Coordination Sequence:
#
# PCOD9196441 Si02
#       7
#     8   8   8   8   8   8   8
#     4   9  15  30  57  82 104 135 174 217 263 319
#     4   9  17  35  60  82 106 140 178 212 254 320
#     4  10  22  39  54  72 102 147 188 214 252 319
#     4  10  20  35  57  80 104 137 178 219 266 321
#     4  10  20  35  57  81 106 136 176 223 269 315
#     4  11  22  35  53  80 111 140 174 222 270 304
#     4   8  17  34  57  82 108 139 175 214 260 313
#
# _framework density 25.633588
#
# number of rings (size 3 to 8) (size 9 to 14) (size 15 to 20)
#    0.000    2.429    1.429    2.143    0.000    2.286 
#    0.000    7.857    0.000    0.857    0.000    0.000 
#    0.000    0.000    0.000    0.000    0.000    0.000 
#
# Total GULP energy -156421.762603 kJ/mol
# GULP energy per Si atom -5586.491522 kJ/mol
# Density = 2.557525 g / cm^3
# Si number density = 25.633588 Si / 1000 Ang^3
#
#
#
# Elastic Constant Matrix: (Units=GPa)
#
#
# Indices 1 2 3 4 5 6 
#
# 1 162.1530 -7.4521 24.8135 -0.0001 29.6245 -0.0001
# 2 -7.4521 61.2916 -3.8807 -0.0002 1.0368 -0.0001
# 3 24.8135 -3.8807 54.5761 0.0000 19.4904 0.0000
# 4 -0.0001 -0.0002 0.0000 2.9857 0.0000 5.0770
# 5 29.6245 1.0368 19.4904 0.0000 46.1386 0.0000
# 6 -0.0001 -0.0001 0.0000 5.0770 0.0000 6.5772
#
#
#
# Elastic Compliance Matrix: (Units=1/GPa)
#
#
# Indices 1 2 3 4 5 6 
#
# 1 0.007191 0.000824 -0.001832 0.000000 -0.003862 0.000000
# 2 0.000824 0.016524 0.001321 -0.000001 -0.001458 0.000001
# 3 -0.001832 0.001321 0.022188 0.000000 -0.008226 0.000000
# 4 0.000000 -0.000001 0.000000 -1.071438 0.000000 0.827056
# 5 -0.003862 -0.001458 -0.008226 0.000000 0.027661 0.000000
# 6 0.000000 0.000001 0.000000 0.827056 0.000000 -0.486374
#
#
# Mechanical properties :
#
#
# Convention : Reuss Voigt Hill
#
# Bulk Modulus (GPa) = 21.49209 33.88689 27.68949
# Shear Modulus (GPa) = -3.40283 28.77629 12.68673
#
# Velocity S-wave (km/s) = -1.15342 3.35416 2.22711
# Velocity P-wave (km/s) = 2.57463 5.31497 4.17598
#
# Compressibility (1/GPa) = 0.04652875
#
# Stress axis : x y z
#
# Youngs Moduli (GPa) = 139.06903 60.51834 45.07025
#
# Poissons Ratio (x) = -0.04984 0.08255
# Poissons Ratio (y) = -0.11454 -0.05955
# Poissons Ratio (z) = 0.25472 -0.07996
#
# Static dielectric constant tensor:
#      x y z
#    x 2.006640 0.000000 0.027730 
#    y 0.000000 2.003930 0.000000 
#    z 0.027730 0.000000 2.089090 
# 
# From -- ./inp_files/338530.got.cif
#   From: 2010.05.17/outbox.cif.g08.bks.cpg/sg12_170_cif.got.tgz:338530.got - 2010.06.03 13:09:07.
