data_PCOD9196759
_publ_section_title
;
Structure prediction by ZEFSAII (Michael W. Deem and Ramdas Pophale) SiO2 
 PCOD9196759
Probable space group: C 2/M
;
_chemical_formula_sum "Si O2"
_cell_formula_units_Z 40
_cell_length_a 20.700044
_cell_length_b 9.934432
_cell_length_c 9.195061
_cell_angle_alpha 90.000000
_cell_angle_beta 74.318544
_cell_angle_gamma 90.000000
_cell_volume 1820.520856
_symmetry_space_group_name_H-M "C 2/M"
_symmetry_group_IT_number 12
_symmetry_cell_setting 'monoclinic'
loop_
_space_group_symop_operation_xyz
x,y,z
-x,y,-z
-x,-y,-z
x,-y,z
1/2+x,1/2+y,z
1/2-x,1/2+y,-z
1/2-x,1/2-y,-z
1/2+x,1/2-y,z
loop_
_atom_site_type_symbol
_atom_site_label
_atom_site_fract_x
_atom_site_fract_y
_atom_site_fract_z
Si Si1 0.384195 0.155929 0.645769
Si Si2 0.993703 0.649708 0.797567
Si Si3 0.605535 0.241124 0.906832
Si Si4 0.308019 0.652087 0.908532
Si Si5 0.191702 0.653364 0.592927
O O1 0.458532 0.173004 0.665267
O O2 0.340563 0.268882 0.753560
O O3 0.369954 0.167576 0.483964
O O4 0.364752 0.000000 0.696200
O O5 0.025301 0.500000 0.779628
O O6 0.044978 0.760150 0.828317
O O7 0.931856 0.648315 0.950767
O O8 0.664712 0.184487 0.769859
O O9 0.638030 0.351005 0.991822
O O10 0.287049 0.500000 0.887528
O O11 0.250000 0.750000 0.000000
O O12 0.215390 0.500000 0.570897
O O13 0.250000 0.750000 0.500000
#
# Coordination Sequence:
#
# PCOD9196759 Si02
#       5
#     8   8   8   8   8
#     4   9  20  37  56  83 117 151 189 235 286 343
#     4   9  17  34  60  87 114 147 192 241 288 340
#     4  10  20  35  57  86 115 146 186 237 289 340
#     4  11  23  38  58  83 112 151 197 243 288 339
#     4  11  23  37  56  84 119 156 193 235 287 344
#
# _framework density 21.971734000000001
#
# number of rings (size 3 to 8) (size 9 to 14) (size 15 to 20)
#    0.000    2.000    0.000    4.200    0.000    9.600 
#    0.000   11.000    0.000    0.000    0.000   15.400 
#    0.000    0.000    0.000    0.000    0.000    0.000 
#
# Total GULP energy -111505.764800 kJ/mol
# GULP energy per Si atom -5575.288240 kJ/mol
# Density = 2.192173 g / cm^3
# Si number density = 21.971734 Si / 1000 Ang^3
#
#
#
# Elastic Constant Matrix: (Units=GPa)
#
#
# Indices 1 2 3 4 5 6 
#
# 1 63.2689 22.4952 29.5916 0.0000 9.7272 0.0000
# 2 22.4952 112.7486 45.2787 0.0000 -6.5611 0.0000
# 3 29.5916 45.2787 126.7903 0.0000 0.7418 0.0000
# 4 0.0000 0.0000 0.0000 10.7893 0.0000 2.9144
# 5 9.7272 -6.5611 0.7418 0.0000 43.7352 0.0000
# 6 0.0000 0.0000 0.0000 2.9144 0.0000 25.6388
#
#
#
# Elastic Compliance Matrix: (Units=1/GPa)
#
#
# Indices 1 2 3 4 5 6 
#
# 1 0.019088 -0.002682 -0.003470 0.000000 -0.004589 0.000000
# 2 -0.002682 0.010846 -0.003261 0.000000 0.002279 0.000000
# 3 -0.003470 -0.003261 0.009861 0.000000 0.000115 0.000000
# 4 0.000000 0.000000 0.000000 0.095621 0.000000 -0.010869
# 5 -0.004589 0.002279 0.000115 0.000000 0.024225 0.000000
# 6 0.000000 0.000000 0.000000 -0.010869 0.000000 0.040239
#
#
# Mechanical properties :
#
#
# Convention : Reuss Voigt Hill
#
# Bulk Modulus (GPa) = 47.68920 55.28208 51.48564
# Shear Modulus (GPa) = 22.15375 29.72881 25.94128
#
# Velocity S-wave (km/s) = 3.17879 3.68237 3.43981
# Velocity P-wave (km/s) = 5.93506 6.57989 6.26577
#
# Compressibility (1/GPa) = 0.02096911
#
# Stress axis : x y z
#
# Youngs Moduli (GPa) = 52.38992 92.19577 101.41147
#
# Poissons Ratio (x) = 0.24724 0.35193
# Poissons Ratio (y) = 0.14049 0.33069
# Poissons Ratio (z) = 0.18181 0.30064
#
# Static dielectric constant tensor:
#      x y z
#    x 1.916860 0.000000 0.016620 
#    y 0.000000 1.736490 0.000000 
#    z 0.016620 0.000000 1.834200 
# 
# From -- ./inp_files/92807.got.cif
#   From: 2010.05.17/outbox.cif.g08.bks.cpg/sg12_47_cif.got.tgz:92807.got - 2010.06.03 13:09:07.
