data_PCOD9196804
_publ_section_title
;
Structure prediction by ZEFSAII (Michael W. Deem and Ramdas Pophale) SiO2 
 PCOD9196804
Probable space group: C 2/M
;
_chemical_formula_sum "Si O2"
_cell_formula_units_Z 44
_cell_length_a 9.042007
_cell_length_b 16.564918
_cell_length_c 18.876523
_cell_angle_alpha 90.000000
_cell_angle_beta 53.869256
_cell_angle_gamma 90.000000
_cell_volume 2283.557891
_symmetry_space_group_name_H-M "C 2/M"
_symmetry_group_IT_number 12
_symmetry_cell_setting 'monoclinic'
loop_
_space_group_symop_operation_xyz
x,y,z
-x,y,-z
-x,-y,-z
x,-y,z
1/2+x,1/2+y,z
1/2-x,1/2+y,-z
1/2-x,1/2-y,-z
1/2+x,1/2-y,z
loop_
_atom_site_type_symbol
_atom_site_label
_atom_site_fract_x
_atom_site_fract_y
_atom_site_fract_z
Si Si1 0.431234 0.500000 0.239384
Si Si2 0.496189 0.216466 0.641633
Si Si3 0.927028 0.177617 0.246153
Si Si4 0.353079 0.366552 0.488591
Si Si5 0.891822 0.822197 0.956220
Si Si6 0.710546 0.000000 0.425872
Si Si7 0.597291 0.500000 0.047481
O O1 0.508024 0.587761 0.239532
O O2 0.240620 0.500000 0.333721
O O3 0.440911 0.500000 0.152402
O O4 0.294427 0.181159 0.685543
O O5 0.501257 0.257487 0.717711
O O6 0.547461 0.286811 0.570750
O O7 0.664671 0.155200 0.582294
O O8 0.983874 0.192563 0.148585
O O9 0.500000 0.404445 0.500000
O O10 0.300845 0.423042 0.438019
O O11 0.806634 0.912973 0.972064
O O12 0.750000 0.750000 0.000000
O O13 0.000000 0.822563 0.000000
O O14 0.500000 0.000000 0.500000
O O15 0.500000 0.500000 0.000000
#
# Coordination Sequence:
#
# PCOD9196804 Si02
#       7
#     4   8   8   8   8   4   4
#     4  10  20  35  57  87 111 150 198 238 284 351
#     4  11  22  36  58  82 112 155 194 242 296 346
#     4  11  21  38  60  85 117 151 199 244 293 363
#     4  11  23  38  55  80 119 152 197 244 297 344
#     4  10  20  37  61  89 118 153 196 246 305 362
#     4  12  23  37  60  85 118 160 202 245 292 357
#     4   8  18  36  60  84 118 155 190 242 297 357
#
# _framework density 19.268177999999999
#
# number of rings (size 3 to 8) (size 9 to 14) (size 15 to 20)
#    0.000    1.455    3.636    2.455    0.000    0.000 
#    0.000    0.455    0.000    2.182    0.000    0.000 
#    0.000    0.000    0.000    0.000    0.000    0.000 
#
# Total GULP energy -122550.803076 kJ/mol
# GULP energy per Si atom -5570.491049 kJ/mol
# Density = 1.922432 g / cm^3
# Si number density = 19.268178 Si / 1000 Ang^3
#
#
#
# Elastic Constant Matrix: (Units=GPa)
#
#
# Indices 1 2 3 4 5 6 
#
# 1 65.5927 35.2977 9.9118 0.0000 2.5158 0.0000
# 2 35.2977 125.2280 38.6539 0.0000 -6.8430 0.0000
# 3 9.9118 38.6539 89.4111 0.0001 15.0723 -0.0001
# 4 0.0000 0.0000 0.0001 28.8901 0.0000 4.2644
# 5 2.5158 -6.8430 15.0723 0.0000 33.6692 0.0000
# 6 0.0000 0.0000 -0.0001 4.2644 0.0000 21.2736
#
#
#
# Elastic Compliance Matrix: (Units=1/GPa)
#
#
# Indices 1 2 3 4 5 6 
#
# 1 0.018217 -0.005561 0.000870 0.000000 -0.002881 0.000000
# 2 -0.005561 0.011427 -0.005176 0.000000 0.005055 0.000000
# 3 0.000870 -0.005176 0.014617 0.000000 -0.007660 0.000000
# 4 0.000000 0.000000 0.000000 0.035669 0.000000 -0.007150
# 5 -0.002881 0.005055 -0.007660 0.000000 0.034372 0.000000
# 6 0.000000 0.000000 0.000000 -0.007150 0.000000 0.048440
#
#
# Mechanical properties :
#
#
# Convention : Reuss Voigt Hill
#
# Bulk Modulus (GPa) = 40.76989 49.77321 45.27155
# Shear Modulus (GPa) = 26.22604 29.85781 28.04192
#
# Velocity S-wave (km/s) = 3.69332 3.94076 3.81904
# Velocity P-wave (km/s) = 6.27635 6.82598 6.55693
#
# Compressibility (1/GPa) = 0.02452790
#
# Stress axis : x y z
#
# Youngs Moduli (GPa) = 54.89359 87.51517 68.41543
#
# Poissons Ratio (x) = 0.48666 -0.05954
# Poissons Ratio (y) = 0.30525 0.35409
# Poissons Ratio (z) = -0.04777 0.45294
#
# Static dielectric constant tensor:
#      x y z
#    x 1.649560 0.000000 0.034520 
#    y 0.000000 1.742470 0.000000 
#    z 0.034520 0.000000 1.693130 
# 
# From -- ./inp_files/195484.got.cif
#   From: 2010.05.17/outbox.cif.g08.bks.cpg/sg12_98_cif.got.tgz:195484.got - 2010.06.03 13:09:07.
