data_PCOD9196910
_publ_section_title
;
Structure prediction by ZEFSAII (Michael W. Deem and Ramdas Pophale) SiO2 
 PCOD9196910
Probable space group: C 2/M
;
_chemical_formula_sum "Si O2"
_cell_formula_units_Z 48
_cell_length_a 16.232005
_cell_length_b 15.188857
_cell_length_c 9.914855
_cell_angle_alpha 90.000000
_cell_angle_beta 89.564436
_cell_angle_gamma 90.000000
_cell_volume 2444.393269
_symmetry_space_group_name_H-M "C 2/M"
_symmetry_group_IT_number 12
_symmetry_cell_setting 'monoclinic'
loop_
_space_group_symop_operation_xyz
x,y,z
-x,y,-z
-x,-y,-z
x,-y,z
1/2+x,1/2+y,z
1/2-x,1/2+y,-z
1/2-x,1/2-y,-z
1/2+x,1/2-y,z
loop_
_atom_site_type_symbol
_atom_site_label
_atom_site_fract_x
_atom_site_fract_y
_atom_site_fract_z
Si Si1 0.657525 0.000000 0.172526
Si Si2 0.321819 0.500000 0.989373
Si Si3 0.143587 0.303480 0.190724
Si Si4 0.674542 0.688780 0.680267
Si Si5 0.085306 0.187001 0.420356
Si Si6 0.719852 0.500000 0.601331
Si Si7 0.905786 0.186192 0.047496
Si Si8 0.342343 0.500000 0.673918
O O1 0.617753 0.095959 0.160607
O O2 0.694297 0.000000 0.323446
O O3 0.735384 0.000000 0.069300
O O4 0.312966 0.500000 0.827593
O O5 0.370953 0.587638 0.029528
O O6 0.234421 0.297691 0.258809
O O7 0.084900 0.254839 0.297489
O O8 0.143635 0.249520 0.052659
O O9 0.650465 0.723009 0.532534
O O10 0.670398 0.584450 0.651613
O O11 0.611083 0.713316 0.798344
O O12 0.000000 0.178980 0.500000
O O13 0.109168 0.090955 0.358781
O O14 0.727538 0.500000 0.440759
O O15 0.000000 0.189047 0.000000
#
# Coordination Sequence:
#
# PCOD9196910 Si02
#       8
#     4   4   8   8   8   4   8   4
#     4  10  22  41  64  85 118 164 211 250 297 350
#     4  12  21  38  60  94 128 160 193 239 309 380
#     4  11  22  41  61  85 118 163 210 257 295 357
#     4  10  20  35  58  83 118 164 202 242 299 357
#     4  11  22  38  59  90 125 160 200 252 308 363
#     4   8  16  34  52  81 116 156 192 233 292 350
#     4  12  23  37  60  93 127 159 199 250 309 369
#     4  10  21  33  57  90 131 156 184 236 306 378
#
# _framework density 19.636775
#
# number of rings (size 3 to 8) (size 9 to 14) (size 15 to 20)
#    0.000    1.333    5.000    2.500    0.000    0.000 
#    0.000    0.833    0.000    0.000    0.000    0.000 
#    0.000    0.000    0.000    0.000    0.000    0.000 
#
# Total GULP energy -133883.792144 kJ/mol
# GULP energy per Si atom -5578.491339 kJ/mol
# Density = 1.959208 g / cm^3
# Si number density = 19.636775 Si / 1000 Ang^3
#
#
#
# Elastic Constant Matrix: (Units=GPa)
#
#
# Indices 1 2 3 4 5 6 
#
# 1 31.3974 21.5472 25.2016 0.0000 -4.5674 0.0000
# 2 21.5472 103.7375 20.8010 0.0000 -0.8717 0.0000
# 3 25.2016 20.8010 103.4437 0.0000 -3.4184 0.0000
# 4 0.0000 0.0000 0.0000 12.0424 0.0000 -3.0049
# 5 -4.5674 -0.8717 -3.4184 0.0000 23.1359 0.0000
# 6 0.0000 0.0000 0.0000 -3.0049 0.0000 9.5034
#
#
#
# Elastic Compliance Matrix: (Units=1/GPa)
#
#
# Indices 1 2 3 4 5 6 
#
# 1 0.045592 -0.007533 -0.009350 0.000000 0.007335 0.000000
# 2 -0.007533 0.011290 -0.000472 0.000000 -0.001132 0.000000
# 3 -0.009350 -0.000472 0.012037 0.000000 -0.000085 0.000000
# 4 0.000000 0.000000 0.000000 0.090153 0.000000 0.028506
# 5 0.007335 -0.001132 -0.000085 0.000000 0.044616 0.000000
# 6 0.000000 0.000000 0.000000 0.028506 0.000000 0.114239
#
#
# Mechanical properties :
#
#
# Convention : Reuss Voigt Hill
#
# Bulk Modulus (GPa) = 29.23364 41.51980 35.37672
# Shear Modulus (GPa) = 13.73475 20.33825 17.03650
#
# Velocity S-wave (km/s) = 2.64756 3.22176 2.94867
# Velocity P-wave (km/s) = 4.92601 5.91857 5.44495
#
# Compressibility (1/GPa) = 0.03420717
#
# Stress axis : x y z
#
# Youngs Moduli (GPa) = 21.93377 88.57670 83.07593
#
# Poissons Ratio (x) = 0.66728 0.77677
# Poissons Ratio (y) = 0.16523 0.03923
# Poissons Ratio (z) = 0.20508 0.04183
#
# Static dielectric constant tensor:
#      x y z
#    x 1.710530 0.000000 0.039680 
#    y 0.000000 1.701900 0.000000 
#    z 0.039680 0.000000 1.706410 
# 
# From -- ./inp_files/73686.got.cif
#   From: 2010.05.17/outbox.cif.g08.bks.cpg/sg12_37_cif.got.tgz:73686.got - 2010.06.03 13:09:07.
