data_PCOD9196877
_publ_section_title
;
Structure prediction by ZEFSAII (Michael W. Deem and Ramdas Pophale) SiO2 
 PCOD9196877
Probable space group: C 2/M
;
_chemical_formula_sum "Si O2"
_cell_formula_units_Z 58
_cell_length_a 21.192046
_cell_length_b 8.022878
_cell_length_c 28.719087
_cell_angle_alpha 90.000000
_cell_angle_beta 142.959843
_cell_angle_gamma 90.000000
_cell_volume 2941.307079
_symmetry_space_group_name_H-M "C 2/M"
_symmetry_group_IT_number 12
_symmetry_cell_setting 'monoclinic'
loop_
_space_group_symop_operation_xyz
x,y,z
-x,y,-z
-x,-y,-z
x,-y,z
1/2+x,1/2+y,z
1/2-x,1/2+y,-z
1/2-x,1/2-y,-z
1/2+x,1/2-y,z
loop_
_atom_site_type_symbol
_atom_site_label
_atom_site_fract_x
_atom_site_fract_y
_atom_site_fract_z
Si Si1 0.131671 0.195161 0.972419
Si Si2 0.936235 0.304797 0.268247
Si Si3 0.867616 0.301827 0.557790
Si Si4 0.707065 0.692912 0.735939
Si Si5 0.513864 0.299523 0.560767
Si Si6 0.000000 0.500000 0.000000
Si Si7 0.352639 0.694060 0.123441
Si Si8 0.913114 0.810800 0.897465
O O1 0.123834 0.259097 0.914776
O O2 0.021376 0.206346 0.932820
O O3 0.161119 0.000000 0.987367
O O4 0.227225 0.285116 0.054302
O O5 0.923741 0.500000 0.272478
O O6 0.851640 0.206555 0.248989
O O7 0.913374 0.281414 0.200713
O O8 0.050270 0.249053 0.353472
O O9 0.869154 0.500000 0.556803
O O10 0.750000 0.250000 0.500000
O O11 0.917837 0.239666 0.538886
O O12 0.729062 0.500000 0.737954
O O13 0.621231 0.760273 0.648675
O O14 0.814932 0.789678 0.805366
O O15 0.500000 0.236754 0.500000
O O16 0.521967 0.500000 0.563660
O O17 0.081291 0.651163 0.065370
O O18 0.380195 0.500000 0.141135
O O19 0.906823 0.000000 0.914209
#
# Coordination Sequence:
#
# PCOD9196877 Si02
#       8
#     8   8   8   8   8   2   8   8
#     4   9  21  39  55  77 110 150 189 236 292 339
#     4  10  21  36  56  84 113 148 190 238 293 349
#     4  10  21  38  60  86 119 154 195 246 300 360
#     4  10  20  37  59  86 118 156 196 241 297 358
#     4   9  19  38  64  91 121 158 200 249 307 372
#     4  12  26  40  60  90 110 156 206 236 302 358
#     4  10  20  35  58  81 107 145 191 236 285 346
#     4  11  24  41  59  85 123 155 195 252 298 352
#
# _framework density 19.719123
#
# number of rings (size 3 to 8) (size 9 to 14) (size 15 to 20)
#    0.000    2.069    0.690    1.862    2.897    3.034 
#    2.483    0.000    0.000    0.000    0.000    0.000 
#    0.000    0.000    0.000    0.000    0.000    0.000 
#
# Total GULP energy -161572.202657 kJ/mol
# GULP energy per Si atom -5571.455264 kJ/mol
# Density = 1.967424 g / cm^3
# Si number density = 19.719123 Si / 1000 Ang^3
#
#
#
# Elastic Constant Matrix: (Units=GPa)
#
#
# Indices 1 2 3 4 5 6 
#
# 1 64.9210 20.6197 62.2686 0.0000 -2.9703 0.0002
# 2 20.6197 75.5721 29.2592 0.0000 -0.4198 0.0004
# 3 62.2686 29.2592 129.7316 0.0000 -7.5985 -0.0001
# 4 0.0000 0.0000 0.0000 25.1881 0.0000 2.8451
# 5 -2.9703 -0.4198 -7.5985 0.0000 31.7786 0.0000
# 6 0.0002 0.0004 -0.0001 2.8451 0.0000 15.0705
#
#
#
# Elastic Compliance Matrix: (Units=1/GPa)
#
#
# Indices 1 2 3 4 5 6 
#
# 1 0.029073 -0.002762 -0.013361 0.000000 -0.000514 0.000000
# 2 -0.002762 0.014772 -0.002038 0.000000 -0.000550 0.000000
# 3 -0.013361 -0.002038 0.014712 0.000000 0.002242 0.000000
# 4 0.000000 0.000000 0.000000 0.040566 0.000000 -0.007658
# 5 -0.000514 -0.000550 0.002242 0.000000 0.031948 0.000000
# 6 0.000000 0.000000 0.000000 -0.007658 0.000000 0.067801
#
#
# Mechanical properties :
#
#
# Convention : Reuss Voigt Hill
#
# Bulk Modulus (GPa) = 44.97656 54.94664 49.96160
# Shear Modulus (GPa) = 20.60944 24.94592 22.77768
#
# Velocity S-wave (km/s) = 3.23638 3.56063 3.40237
# Velocity P-wave (km/s) = 6.06825 6.69547 6.38956
#
# Compressibility (1/GPa) = 0.02223380
#
# Stress axis : x y z
#
# Youngs Moduli (GPa) = 34.39656 67.69532 67.96969
#
# Poissons Ratio (x) = 0.18698 0.90817
# Poissons Ratio (y) = 0.09501 0.13853
# Poissons Ratio (z) = 0.45959 0.13797
#
# Static dielectric constant tensor:
#      x y z
#    x 1.714500 0.000000 -0.013450 
#    y 0.000000 2.252150 0.000000 
#    z -0.013450 0.000000 1.721170 
# 
# From -- ./inp_files/382080.got.cif
#   From: 2010.05.17/outbox.cif.g08.bks.cpg/sg12_192_cif.got.tgz:382080.got - 2010.06.03 13:09:07.
