data_PCOD9196043
_publ_section_title
;
Structure prediction by ZEFSAII (Michael W. Deem and Ramdas Pophale) SiO2 
 PCOD9196043
Probable space group: C 2/M
;
_chemical_formula_sum "Si O2"
_cell_formula_units_Z 56
_cell_length_a 18.559670
_cell_length_b 7.603839
_cell_length_c 18.889424
_cell_angle_alpha 90.000000
_cell_angle_beta 103.021548
_cell_angle_gamma 90.000000
_cell_volume 2597.216004
_symmetry_space_group_name_H-M "C 2/M"
_symmetry_group_IT_number 12
_symmetry_cell_setting 'monoclinic'
loop_
_space_group_symop_operation_xyz
x,y,z
-x,y,-z
-x,-y,-z
x,-y,z
1/2+x,1/2+y,z
1/2-x,1/2+y,-z
1/2-x,1/2-y,-z
1/2+x,1/2-y,z
loop_
_atom_site_type_symbol
_atom_site_label
_atom_site_fract_x
_atom_site_fract_y
_atom_site_fract_z
Si Si1 0.062886 0.293179 0.065574
Si Si2 0.727357 0.788773 0.075092
Si Si3 0.369770 0.791225 0.639649
Si Si4 0.848296 0.784820 0.215142
Si Si5 0.205052 0.784598 0.641000
Si Si6 0.513012 0.289768 0.211925
Si Si7 0.581262 0.295013 0.505542
O O1 0.068718 0.500000 0.048890
O O2 0.145102 0.218944 0.072677
O O3 0.038080 0.277844 0.141082
O O4 0.000000 0.216865 0.000000
O O5 0.789189 0.724230 0.143708
O O6 0.725559 0.000000 0.083728
O O7 0.750000 0.750000 0.000000
O O8 0.288203 0.725380 0.642495
O O9 0.427769 0.756826 0.714919
O O10 0.397310 0.714555 0.571646
O O11 0.364711 0.000000 0.628025
O O12 0.822445 0.731109 0.287496
O O13 0.931151 0.725980 0.214907
O O14 0.849239 0.000000 0.214883
O O15 0.146734 0.722512 0.569089
O O16 0.207106 0.000000 0.640966
O O17 0.509736 0.500000 0.206215
O O18 0.500000 0.216010 0.500000
O O19 0.575840 0.500000 0.525537
#
# Coordination Sequence:
#
# PCOD9196043 Si02
#       7
#     8   8   8   8   8   8   8
#     4  10  21  37  57  82 113 146 178 219 275 331
#     4  10  20  35  56  80 109 144 180 220 267 320
#     4  11  22  36  56  81 112 146 178 220 274 327
#     4   9  18  34  55  78 104 139 182 223 265 314
#     4   9  18  34  56  80 107 141 179 219 268 324
#     4  11  22  36  57  82 108 142 186 230 267 313
#     4  10  20  36  59  83 108 141 181 224 268 320
#
# _framework density 21.561548999999999
#
# number of rings (size 3 to 8) (size 9 to 14) (size 15 to 20)
#    0.000    2.000    0.000    3.857    0.000    5.714 
#    0.000    1.429    0.000    6.000    0.000    0.000 
#    0.000    0.000    0.000    0.000    0.000    0.000 
#
# Total GULP energy -156529.139998 kJ/mol
# GULP energy per Si atom -5590.326428 kJ/mol
# Density = 2.151247 g / cm^3
# Si number density = 21.561549 Si / 1000 Ang^3
#
#
#
# Elastic Constant Matrix: (Units=GPa)
#
#
# Indices 1 2 3 4 5 6 
#
# 1 250.6208 -6.6020 122.6680 0.0000 16.3807 0.0000
# 2 -6.6020 43.7837 -24.8485 0.0000 9.6344 0.0000
# 3 122.6680 -24.8485 197.8848 0.0000 21.0733 0.0000
# 4 0.0000 0.0000 0.0000 22.0071 0.0000 -7.5630
# 5 16.3807 9.6344 21.0733 0.0000 47.1558 0.0000
# 6 0.0000 0.0000 0.0000 -7.5630 0.0000 6.8674
#
#
#
# Elastic Compliance Matrix: (Units=1/GPa)
#
#
# Indices 1 2 3 4 5 6 
#
# 1 0.005792 -0.001226 -0.003734 0.000000 -0.000093 0.000000
# 2 -0.001226 0.027065 0.004937 0.000000 -0.007310 0.000000
# 3 -0.003734 0.004937 0.008355 0.000000 -0.003445 0.000000
# 4 0.000000 0.000000 0.000000 0.073110 0.000000 0.080516
# 5 -0.000093 -0.007310 -0.003445 0.000000 0.024272 0.000000
# 6 0.000000 0.000000 0.000000 0.080516 0.000000 0.234289
#
#
# Mechanical properties :
#
#
# Convention : Reuss Voigt Hill
#
# Bulk Modulus (GPa) = 24.29208 74.96939 49.63073
# Shear Modulus (GPa) = 12.93158 41.94417 27.43787
#
# Velocity S-wave (km/s) = 2.45164 4.41537 3.57113
# Velocity P-wave (km/s) = 4.39373 7.79996 6.33026
#
# Compressibility (1/GPa) = 0.04116568
#
# Stress axis : x y z
#
# Youngs Moduli (GPa) = 172.66382 36.94803 119.68768
#
# Poissons Ratio (x) = 0.04528 0.44694
# Poissons Ratio (y) = 0.21161 -0.59087
# Poissons Ratio (z) = 0.64476 -0.18240
#
# Static dielectric constant tensor:
#      x y z
#    x 1.762530 0.000000 0.031950 
#    y 0.000000 1.842080 0.000000 
#    z 0.031950 0.000000 1.695830 
# 
# From -- ./inp_files/275633.got.cif
#   From: 2010.05.17/outbox.cif.g08.bks.cpg/sg12_138_cif.got.tgz:275633.got - 2010.06.03 13:09:07.
