data_PCOD9196997
_publ_section_title
;
Structure prediction by ZEFSAII (Michael W. Deem and Ramdas Pophale) SiO2 
 PCOD9196997
Probable space group: C 2/M
;
_chemical_formula_sum "Si O2"
_cell_formula_units_Z 64
_cell_length_a 20.658127
_cell_length_b 8.847407
_cell_length_c 26.039166
_cell_angle_alpha 90.000000
_cell_angle_beta 133.248216
_cell_angle_gamma 90.000000
_cell_volume 3466.565160
_symmetry_space_group_name_H-M "C 2/M"
_symmetry_group_IT_number 12
_symmetry_cell_setting 'monoclinic'
loop_
_space_group_symop_operation_xyz
x,y,z
-x,y,-z
-x,-y,-z
x,-y,z
1/2+x,1/2+y,z
1/2-x,1/2+y,-z
1/2-x,1/2-y,-z
1/2+x,1/2-y,z
loop_
_atom_site_type_symbol
_atom_site_label
_atom_site_fract_x
_atom_site_fract_y
_atom_site_fract_z
Si Si1 0.729378 0.818620 0.839323
Si Si2 0.585104 0.817668 0.299025
Si Si3 0.682938 0.321913 0.923149
Si Si4 0.265274 0.318179 0.452521
Si Si5 0.921247 0.681195 0.917836
Si Si6 0.021798 0.822325 0.158647
Si Si7 0.446621 0.182052 0.314264
Si Si8 0.534749 0.682636 0.463195
O O1 0.694496 0.760259 0.875146
O O2 0.826072 0.750165 0.881242
O O3 0.653563 0.775553 0.756593
O O4 0.735425 0.000000 0.843497
O O5 0.683006 0.774801 0.371852
O O6 0.564618 0.742143 0.233767
O O7 0.513611 0.773692 0.304195
O O8 0.580166 0.000000 0.291062
O O9 0.701061 0.500000 0.926386
O O10 0.583751 0.304365 0.890814
O O11 0.750000 0.250000 0.000000
O O12 0.264014 0.500000 0.455580
O O13 0.250000 0.250000 0.500000
O O14 0.362268 0.271703 0.486094
O O15 0.915136 0.500000 0.916049
O O16 0.946588 0.736205 0.874789
O O17 0.000000 0.727904 0.000000
O O18 0.041725 0.000000 0.163932
O O19 0.479890 0.252211 0.385497
O O20 0.450916 0.000000 0.320528
O O21 0.500000 0.730841 0.500000
O O22 0.529864 0.500000 0.458015
#
# Coordination Sequence:
#
# PCOD9196997 Si02
#       8
#     8   8   8   8   8   8   8   8
#     4  11  23  40  63  90 122 159 203 250 304 365
#     4  10  20  37  60  87 121 159 203 251 303 359
#     4  11  23  38  60  90 122 157 201 249 300 357
#     4  10  20  35  58  85 115 156 203 247 297 353
#     4  11  25  44  65  89 121 162 203 247 305 368
#     4  11  24  40  61  91 123 157 201 251 301 356
#     4  10  21  38  61  89 121 158 197 246 303 356
#     4  10  22  38  57  86 123 159 199 248 300 355
#
# _framework density 18.462078999999999
#
# number of rings (size 3 to 8) (size 9 to 14) (size 15 to 20)
#    0.000    1.500    2.500    2.250    0.000    7.750 
#    0.000    1.250    0.000    0.000    0.000    0.000 
#    0.000    0.000    0.000    0.000    0.000    0.000 
#
# Total GULP energy -178824.718891 kJ/mol
# GULP energy per Si atom -5588.272465 kJ/mol
# Density = 1.842006 g / cm^3
# Si number density = 18.462079 Si / 1000 Ang^3
#
#
#
# Elastic Constant Matrix: (Units=GPa)
#
#
# Indices 1 2 3 4 5 6 
#
# 1 98.1389 21.0353 22.1733 0.0000 7.3774 0.0000
# 2 21.0353 25.3106 11.7169 0.0000 12.5734 0.0000
# 3 22.1733 11.7169 90.1115 0.0000 18.4249 0.0000
# 4 0.0000 0.0000 0.0000 34.3392 0.0000 -3.7723
# 5 7.3774 12.5734 18.4249 0.0000 35.0903 0.0000
# 6 0.0000 0.0000 0.0000 -3.7723 0.0000 30.8485
#
#
#
# Elastic Compliance Matrix: (Units=1/GPa)
#
#
# Indices 1 2 3 4 5 6 
#
# 1 0.012832 -0.010794 -0.002233 0.000000 0.002342 0.000000
# 2 -0.010794 0.057908 -0.001227 0.000000 -0.017836 0.000000
# 3 -0.002233 -0.001227 0.013018 0.000000 -0.005926 0.000000
# 4 0.000000 0.000000 0.000000 0.029518 0.000000 0.003610
# 5 0.002342 -0.017836 -0.005926 0.000000 0.037508 0.000000
# 6 0.000000 0.000000 0.000000 0.003610 0.000000 0.032858
#
#
# Mechanical properties :
#
#
# Convention : Reuss Voigt Hill
#
# Bulk Modulus (GPa) = 18.09936 35.93466 27.01701
# Shear Modulus (GPa) = 21.68576 30.63130 26.15853
#
# Velocity S-wave (km/s) = 3.43098 4.07768 3.76823
# Velocity P-wave (km/s) = 5.05176 6.45572 5.79640
#
# Compressibility (1/GPa) = 0.05525056
#
# Stress axis : x y z
#
# Youngs Moduli (GPa) = 77.93196 17.26870 76.81636
#
# Poissons Ratio (x) = 0.18640 0.17152
# Poissons Ratio (y) = 0.84122 0.09422
# Poissons Ratio (z) = 0.17401 0.02118
#
# Static dielectric constant tensor:
#      x y z
#    x 1.596560 0.000000 0.009370 
#    y 0.000000 1.624040 0.000000 
#    z 0.009370 0.000000 1.605380 
# 
# From -- ./inp_files/346110.got.cif
#   From: 2010.05.17/outbox.cif.g08.bks.cpg/sg12_174_cif.got.tgz:346110.got - 2010.06.03 13:09:07.
