data_PCOD9196719
_publ_section_title
;
Structure prediction by ZEFSAII (Michael W. Deem and Ramdas Pophale) SiO2 
 PCOD9196719
Probable space group: C 2/M
;
_chemical_formula_sum "Si O2"
_cell_formula_units_Z 64
_cell_length_a 15.977686
_cell_length_b 8.770050
_cell_length_c 31.453157
_cell_angle_alpha 90.000000
_cell_angle_beta 129.608559
_cell_angle_gamma 90.000000
_cell_volume 3395.522582
_symmetry_space_group_name_H-M "C 2/M"
_symmetry_group_IT_number 12
_symmetry_cell_setting 'monoclinic'
loop_
_space_group_symop_operation_xyz
x,y,z
-x,y,-z
-x,-y,-z
x,-y,z
1/2+x,1/2+y,z
1/2-x,1/2+y,-z
1/2-x,1/2-y,-z
1/2+x,1/2-y,z
loop_
_atom_site_type_symbol
_atom_site_label
_atom_site_fract_x
_atom_site_fract_y
_atom_site_fract_z
Si Si1 0.919354 0.316215 0.056567
Si Si2 0.649248 0.819224 0.442266
Si Si3 0.679676 0.182688 0.744311
Si Si4 0.250176 0.318452 0.322502
Si Si5 0.430644 0.186042 0.674404
Si Si6 0.468604 0.319295 0.441745
Si Si7 0.760468 0.817733 0.934571
Si Si8 0.672458 0.182818 0.133691
O O1 0.912790 0.500000 0.049058
O O2 0.852692 0.278248 0.078031
O O3 0.045474 0.272141 0.097093
O O4 0.854799 0.238695 0.997021
O O5 0.750000 0.750000 0.500000
O O6 0.631734 0.763189 0.388467
O O7 0.541544 0.775600 0.433109
O O8 0.663651 0.000000 0.445333
O O9 0.715817 0.235065 0.709297
O O10 0.555529 0.234399 0.712562
O O11 0.758739 0.251502 0.805156
O O12 0.681817 0.000000 0.747445
O O13 0.244497 0.500000 0.311850
O O14 0.136700 0.266415 0.306090
O O15 0.343587 0.297387 0.388437
O O16 0.429611 0.000000 0.673645
O O17 0.500000 0.278283 0.500000
O O18 0.493101 0.500000 0.444498
O O19 0.779098 0.742768 0.895007
O O20 0.764990 0.000000 0.931701
O O21 0.676772 0.000000 0.135603
#
# Coordination Sequence:
#
# PCOD9196719 Si02
#       8
#     8   8   8   8   8   8   8   8
#     4   9  20  38  59  85 122 162 195 235 292 355
#     4  11  21  36  57  84 117 150 189 234 290 350
#     4  11  23  41  60  83 115 151 196 249 295 339
#     4  10  20  38  62  83 109 149 192 231 286 354
#     4   9  20  39  61  81 111 152 187 230 292 354
#     4  10  20  35  57  85 117 149 187 233 287 353
#     4  10  20  36  60  90 121 155 197 245 292 339
#     4  11  23  39  59  84 117 158 201 239 290 353
#
# _framework density 18.84835
#
# number of rings (size 3 to 8) (size 9 to 14) (size 15 to 20)
#    0.000    1.875    1.250    2.625    0.000    6.250 
#    0.000    8.750    0.000    0.000    0.000    0.000 
#    0.000    0.000    0.000    0.000    0.000    0.000 
#
# Total GULP energy -178725.810918 kJ/mol
# GULP energy per Si atom -5585.181591 kJ/mol
# Density = 1.880545 g / cm^3
# Si number density = 18.848350 Si / 1000 Ang^3
#
#
#
# Elastic Constant Matrix: (Units=GPa)
#
#
# Indices 1 2 3 4 5 6 
#
# 1 133.9738 35.6044 67.2527 0.0000 -9.8519 0.0000
# 2 35.6044 32.9215 33.7653 0.0000 -4.0058 0.0000
# 3 67.2527 33.7653 108.2101 0.0000 -14.0725 0.0000
# 4 0.0000 0.0000 0.0000 28.4915 0.0000 -4.2717
# 5 -9.8519 -4.0058 -14.0725 0.0000 16.7176 0.0000
# 6 0.0000 0.0000 0.0000 -4.2717 0.0000 30.8120
#
#
#
# Elastic Compliance Matrix: (Units=1/GPa)
#
#
# Indices 1 2 3 4 5 6 
#
# 1 0.012120 -0.007934 -0.004913 0.000000 0.001106 0.000000
# 2 -0.007934 0.049886 -0.010879 0.000000 -0.001880 0.000000
# 3 -0.004913 -0.010879 0.016815 0.000000 0.008652 0.000000
# 4 0.000000 0.000000 0.000000 0.035843 0.000000 0.004969
# 5 0.001106 -0.001880 0.008652 0.000000 0.067301 0.000000
# 6 0.000000 0.000000 0.000000 0.004969 0.000000 0.033144
#
#
# Mechanical properties :
#
#
# Convention : Reuss Voigt Hill
#
# Bulk Modulus (GPa) = 31.88083 60.92779 46.40431
# Shear Modulus (GPa) = 18.31375 24.43643 21.37509
#
# Velocity S-wave (km/s) = 3.12049 3.60457 3.37123
# Velocity P-wave (km/s) = 5.47123 7.05119 6.31085
#
# Compressibility (1/GPa) = 0.03136682
#
# Stress axis : x y z
#
# Youngs Moduli (GPa) = 82.50511 20.04581 59.47148
#
# Poissons Ratio (x) = 0.15905 0.29220
# Poissons Ratio (y) = 0.65463 0.64701
# Poissons Ratio (z) = 0.40537 0.21809
#
# Static dielectric constant tensor:
#      x y z
#    x 1.656650 0.000000 0.015840 
#    y 0.000000 1.656500 0.000000 
#    z 0.015840 0.000000 1.661310 
# 
# From -- ./inp_files/375591.got.cif
#   From: 2010.05.17/outbox.cif.g08.bks.cpg/sg12_188_cif.got.tgz:375591.got - 2010.06.03 13:09:07.
