data_PCOD9196044
_publ_section_title
;
Structure prediction by ZEFSAII (Michael W. Deem and Ramdas Pophale) SiO2 
 PCOD9196044
Probable space group: C 2/M
;
_chemical_formula_sum "Si O2"
_cell_formula_units_Z 56
_cell_length_a 19.134968
_cell_length_b 8.636963
_cell_length_c 30.183175
_cell_angle_alpha 90.000000
_cell_angle_beta 142.449452
_cell_angle_gamma 90.000000
_cell_volume 3040.182959
_symmetry_space_group_name_H-M "C 2/M"
_symmetry_group_IT_number 12
_symmetry_cell_setting 'monoclinic'
loop_
_space_group_symop_operation_xyz
x,y,z
-x,y,-z
-x,-y,-z
x,-y,z
1/2+x,1/2+y,z
1/2-x,1/2+y,-z
1/2-x,1/2-y,-z
1/2+x,1/2-y,z
loop_
_atom_site_type_symbol
_atom_site_label
_atom_site_fract_x
_atom_site_fract_y
_atom_site_fract_z
Si Si1 0.745520 0.813357 0.131154
Si Si2 0.827602 0.183478 0.999881
Si Si3 0.212210 0.186096 0.433440
Si Si4 0.917803 0.313412 0.869092
Si Si5 0.950321 0.188412 0.296326
Si Si6 0.365832 0.687350 0.431336
Si Si7 0.709771 0.688491 0.703682
O O1 0.719542 0.740848 0.071030
O O2 0.646747 0.774927 0.117340
O O3 0.865626 0.764183 0.214021
O O4 0.746783 0.000000 0.127454
O O5 0.824376 0.000000 0.999782
O O6 0.750000 0.250000 0.000000
O O7 0.957924 0.240509 0.070799
O O8 0.250000 0.250000 0.500000
O O9 0.296385 0.244667 0.437481
O O10 0.081233 0.238707 0.358409
O O11 0.213472 0.000000 0.435347
O O12 0.928546 0.500000 0.872968
O O13 0.830811 0.265085 0.786170
O O14 0.890057 0.237150 0.312153
O O15 0.949640 0.000000 0.296207
O O16 0.500000 0.729509 0.500000
O O17 0.359365 0.500000 0.430344
O O18 0.313326 0.739265 0.357842
O O19 0.708289 0.500000 0.702848
#
# Coordination Sequence:
#
# PCOD9196044 Si02
#       7
#     8   8   8   8   8   8   8
#     4   9  18  36  61  84 108 140 177 216 264 322
#     4  12  25  38  53  76 109 144 181 225 270 317
#     4  11  22  36  55  80 111 144 181 223 267 316
#     4   9  18  35  59  83 108 140 177 217 263 319
#     4   8  16  33  57  82 107 139 177 217 263 317
#     4  10  20  35  56  80 109 145 182 221 267 318
#     4   8  15  31  56  82 106 137 178 218 260 317
#
# _framework density 18.419944999999998
#
# number of rings (size 3 to 8) (size 9 to 14) (size 15 to 20)
#    0.000    2.429    0.000    4.714    0.000    6.000 
#    0.000    5.000    0.000    4.286    0.000    0.000 
#    0.000    0.000    0.000    0.000    0.000    0.000 
#
# Total GULP energy -156295.094694 kJ/mol
# GULP energy per Si atom -5581.967668 kJ/mol
# Density = 1.837802 g / cm^3
# Si number density = 18.419945 Si / 1000 Ang^3
#
#
#
# Elastic Constant Matrix: (Units=GPa)
#
#
# Indices 1 2 3 4 5 6 
#
# 1 176.2175 52.8425 146.6171 0.0000 1.6578 0.0000
# 2 52.8425 33.5632 50.5886 0.0000 0.5880 0.0000
# 3 146.6171 50.5886 183.4767 0.0000 -2.7629 0.0000
# 4 0.0000 0.0000 0.0000 12.3290 0.0000 -3.5773
# 5 1.6578 0.5880 -2.7629 0.0000 38.1465 0.0000
# 6 0.0000 0.0000 0.0000 -3.5773 0.0000 29.0037
#
#
#
# Elastic Compliance Matrix: (Units=1/GPa)
#
#
# Indices 1 2 3 4 5 6 
#
# 1 0.019625 -0.012316 -0.012310 0.000000 -0.001555 0.000000
# 2 -0.012316 0.058836 -0.006393 0.000000 -0.000835 0.000000
# 3 -0.012310 -0.006393 0.017078 0.000000 0.001870 0.000000
# 4 0.000000 0.000000 0.000000 0.084120 0.000000 0.010375
# 5 -0.001555 -0.000835 0.001870 0.000000 0.026431 0.000000
# 6 0.000000 0.000000 0.000000 0.010375 0.000000 0.035758
#
#
# Mechanical properties :
#
#
# Convention : Reuss Voigt Hill
#
# Bulk Modulus (GPa) = 29.85013 99.26154 64.55583
# Shear Modulus (GPa) = 15.87039 25.44312 20.65675
#
# Velocity S-wave (km/s) = 2.93846 3.72059 3.35242
# Velocity P-wave (km/s) = 5.26814 8.51247 7.07868
#
# Compressibility (1/GPa) = 0.03350069
#
# Stress axis : x y z
#
# Youngs Moduli (GPa) = 50.95613 16.99638 58.55495
#
# Poissons Ratio (x) = 0.20933 0.72080
# Poissons Ratio (y) = 0.62758 0.37435
# Poissons Ratio (z) = 0.62726 0.10866
#
# Static dielectric constant tensor:
#      x y z
#    x 1.601720 0.000000 0.004130 
#    y 0.000000 1.628900 0.000000 
#    z 0.004130 0.000000 1.634570 
# 
# From -- ./inp_files/363224.got.cif
#   From: 2010.05.17/outbox.cif.g08.bks.cpg/sg12_182_cif.got.tgz:363224.got - 2010.06.03 13:09:07.
