data_PCOD9196880
_publ_section_title
;
Structure prediction by ZEFSAII (Michael W. Deem and Ramdas Pophale) SiO2 
 PCOD9196880
Probable space group: C 2/M
;
_chemical_formula_sum "Si O2"
_cell_formula_units_Z 56
_cell_length_a 19.608650
_cell_length_b 7.991963
_cell_length_c 14.993036
_cell_angle_alpha 90.000000
_cell_angle_beta 95.212904
_cell_angle_gamma 90.000000
_cell_volume 2339.864775
_symmetry_space_group_name_H-M "C 2/M"
_symmetry_group_IT_number 12
_symmetry_cell_setting 'monoclinic'
loop_
_space_group_symop_operation_xyz
x,y,z
-x,y,-z
-x,-y,-z
x,-y,z
1/2+x,1/2+y,z
1/2-x,1/2+y,-z
1/2-x,1/2-y,-z
1/2+x,1/2-y,z
loop_
_atom_site_type_symbol
_atom_site_label
_atom_site_fract_x
_atom_site_fract_y
_atom_site_fract_z
Si Si1 0.216726 0.194300 0.723916
Si Si2 0.000000 0.740886 0.500000
Si Si3 0.076057 0.295200 0.988207
Si Si4 0.211934 0.701151 0.086390
Si Si5 0.086517 0.692257 0.788810
Si Si6 0.131841 0.500000 0.505657
Si Si7 0.043555 0.816831 0.309737
Si Si8 0.813679 0.807018 0.592605
O O1 0.250306 0.259250 0.820205
O O2 0.135671 0.210243 0.727817
O O3 0.247184 0.298425 0.646918
O O4 0.234951 0.000000 0.712851
O O5 0.070994 0.640010 0.520520
O O6 0.013522 0.824902 0.406551
O O7 0.075084 0.500000 0.987159
O O8 0.095566 0.242961 0.890322
O O9 0.133678 0.241377 0.064831
O O10 0.000000 0.237149 0.000000
O O11 0.212105 0.500000 0.090799
O O12 0.250000 0.750000 0.000000
O O13 0.108561 0.500000 0.787535
O O14 0.007279 0.702219 0.752037
O O15 0.182323 0.652163 0.474673
O O16 0.121804 0.763917 0.333059
O O17 0.041646 0.000000 0.268182
O O18 0.825605 0.000000 0.563018
#
# Coordination Sequence:
#
# PCOD9196880 Si02
#       8
#     8   4   8   8   8   4   8   8
#     4  11  22  37  59  86 121 167 212 263 309 369
#     4   9  19  36  67  94 123 161 196 246 310 372
#     4   9  19  36  54  83 119 157 202 257 313 368
#     4  10  20  35  58  81 113 158 206 252 305 363
#     4  11  23  36  60  87 122 163 209 259 314 374
#     4   9  18  36  62  94 124 153 198 251 296 369
#     4  10  22  39  62  94 124 158 202 256 307 374
#     4  10  21  37  61  93 126 160 204 252 311 365
#
# _framework density 23.933005000000001
#
# number of rings (size 3 to 8) (size 9 to 14) (size 15 to 20)
#    0.000    2.000    2.143    1.071    7.000    1.143 
#    0.000    1.071    0.000    5.571    3.714    0.000 
#    0.000    0.000    0.000    0.000    0.000    0.000 
#
# Total GULP energy -155968.719073 kJ/mol
# GULP energy per Si atom -5570.311395 kJ/mol
# Density = 2.387853 g / cm^3
# Si number density = 23.933005 Si / 1000 Ang^3
#
#
#
# Elastic Constant Matrix: (Units=GPa)
#
#
# Indices 1 2 3 4 5 6 
#
# 1 100.2973 12.7875 32.1143 0.0000 -2.9500 0.0000
# 2 12.7875 82.2001 25.6713 0.0000 1.4360 0.0000
# 3 32.1143 25.6713 66.8810 0.0000 8.9515 0.0000
# 4 0.0000 0.0000 0.0000 11.9294 0.0000 -3.5363
# 5 -2.9500 1.4360 8.9515 0.0000 42.6943 0.0000
# 6 0.0000 0.0000 0.0000 -3.5363 0.0000 123.9706
#
#
#
# Elastic Compliance Matrix: (Units=1/GPa)
#
#
# Indices 1 2 3 4 5 6 
#
# 1 0.011960 -0.000018 -0.006015 0.000000 0.002088 0.000000
# 2 -0.000018 0.013841 -0.005393 0.000000 0.000664 0.000000
# 3 -0.006015 -0.005393 0.020517 0.000000 -0.004536 0.000000
# 4 0.000000 0.000000 0.000000 0.084542 0.000000 0.002412
# 5 0.002088 0.000664 -0.004536 0.000000 0.024495 0.000000
# 6 0.000000 0.000000 0.000000 0.002412 0.000000 0.008135
#
#
# Mechanical properties :
#
#
# Convention : Reuss Voigt Hill
#
# Bulk Modulus (GPa) = 42.61569 43.39162 43.00365
# Shear Modulus (GPa) = 25.75127 47.63919 36.69523
#
# Velocity S-wave (km/s) = 3.28376 4.46637 3.91992
# Velocity P-wave (km/s) = 5.67647 6.69087 6.20444
#
# Compressibility (1/GPa) = 0.02346554
#
# Stress axis : x y z
#
# Youngs Moduli (GPa) = 83.61065 72.24998 48.73935
#
# Poissons Ratio (x) = 0.00133 0.29318
# Poissons Ratio (y) = 0.00154 0.26283
# Poissons Ratio (z) = 0.50295 0.38961
#
# Static dielectric constant tensor:
#      x y z
#    x 1.939100 0.000000 0.046040 
#    y 0.000000 1.851200 0.000000 
#    z 0.046040 0.000000 1.910840 
# 
# From -- ./inp_files/231096.got.cif
#   From: 2010.05.17/outbox.cif.g08.bks.cpg/sg12_116_cif.got.tgz:231096.got - 2010.06.03 13:09:07.
