data_PCOD9196026
_publ_section_title
;
Structure prediction by ZEFSAII (Michael W. Deem and Ramdas Pophale) SiO2 
 PCOD9196026
Probable space group: C 2/M
;
_chemical_formula_sum "Si O2"
_cell_formula_units_Z 56
_cell_length_a 7.948958
_cell_length_b 15.313786
_cell_length_c 18.638101
_cell_angle_alpha 90.000000
_cell_angle_beta 75.370594
_cell_angle_gamma 90.000000
_cell_volume 2195.235782
_symmetry_space_group_name_H-M "C 2/M"
_symmetry_group_IT_number 12
_symmetry_cell_setting 'monoclinic'
loop_
_space_group_symop_operation_xyz
x,y,z
-x,y,-z
-x,-y,-z
x,-y,z
1/2+x,1/2+y,z
1/2-x,1/2+y,-z
1/2-x,1/2-y,-z
1/2+x,1/2-y,z
loop_
_atom_site_type_symbol
_atom_site_label
_atom_site_fract_x
_atom_site_fract_y
_atom_site_fract_z
Si Si1 0.740857 0.396507 0.361646
Si Si2 0.299592 0.838892 0.033961
Si Si3 0.762198 0.097478 0.099640
Si Si4 0.324940 0.340642 0.291732
Si Si5 0.991609 0.657434 0.226779
Si Si6 0.460817 0.220999 0.587510
Si Si7 0.577379 0.402062 0.166078
O O1 0.707011 0.500000 0.386450
O O2 0.586463 0.321232 0.378637
O O3 0.834677 0.401019 0.273353
O O4 0.887754 0.343133 0.395014
O O5 0.237100 0.843268 0.122813
O O6 0.500000 0.856244 0.000000
O O7 0.250000 0.750000 0.000000
O O8 0.208072 0.904319 0.988046
O O9 0.587423 0.147845 0.141331
O O10 0.928953 0.129095 0.125455
O O11 0.730538 0.000000 0.130076
O O12 0.157455 0.359780 0.260439
O O13 0.415136 0.251797 0.254113
O O14 0.224253 0.327460 0.377111
O O15 0.479110 0.404047 0.252687
O O16 0.500000 0.230011 0.500000
O O17 0.632817 0.500000 0.143807
#
# Coordination Sequence:
#
# PCOD9196026 Si02
#       7
#     8   8   8   8   8   8   8
#     4  10  21  39  63  91 128 171 212 262 323 382
#     4  12  25  39  56  79 108 144 188 237 293 353
#     4  10  20  35  56  80 108 142 183 232 285 343
#     4   9  19  34  57  83 114 155 196 245 299 354
#     4   9  18  34  56  83 113 152 200 244 295 358
#     4  10  21  39  63  94 130 166 213 266 317 383
#     4  10  21  38  58  82 114 151 192 240 297 363
#
# _framework density 25.509786999999999
#
# number of rings (size 3 to 8) (size 9 to 14) (size 15 to 20)
#    0.000    2.000    0.000    3.429    0.000    9.714 
#    0.000    0.714    0.000   12.857    0.000    0.000 
#    0.000    0.000    0.000    0.000    0.000    0.000 
#
# Total GULP energy -155939.318697 kJ/mol
# GULP energy per Si atom -5569.261382 kJ/mol
# Density = 2.545173 g / cm^3
# Si number density = 25.509787 Si / 1000 Ang^3
#
#
#
# Elastic Constant Matrix: (Units=GPa)
#
#
# Indices 1 2 3 4 5 6 
#
# 1 103.1761 21.4844 8.3775 0.0000 -32.6503 0.0000
# 2 21.4844 137.2901 20.9232 0.0000 -6.6019 0.0000
# 3 8.3775 20.9232 180.5740 0.0000 -27.6368 0.0000
# 4 0.0000 0.0000 0.0000 42.4268 0.0000 2.3486
# 5 -32.6503 -6.6019 -27.6368 0.0000 32.5400 0.0000
# 6 0.0000 0.0000 0.0000 2.3486 0.0000 13.1817
#
#
#
# Elastic Compliance Matrix: (Units=1/GPa)
#
#
# Indices 1 2 3 4 5 6 
#
# 1 0.015164 -0.001889 0.002052 0.000000 0.016575 0.000000
# 2 -0.001889 0.007673 -0.000981 0.000000 -0.001171 0.000000
# 3 0.002052 -0.000981 0.006714 0.000000 0.007562 0.000000
# 4 0.000000 0.000000 0.000000 0.023805 0.000000 -0.004241
# 5 0.016575 -0.001171 0.007562 0.000000 0.053548 0.000000
# 6 0.000000 0.000000 0.000000 -0.004241 0.000000 0.076618
#
#
# Mechanical properties :
#
#
# Convention : Reuss Voigt Hill
#
# Bulk Modulus (GPa) = 35.82188 58.06785 46.94487
# Shear Modulus (GPa) = 25.71207 42.31337 34.01272
#
# Velocity S-wave (km/s) = 3.17824 4.07715 3.65543
# Velocity P-wave (km/s) = 5.24796 6.70646 6.02153
#
# Compressibility (1/GPa) = 0.02791590
#
# Stress axis : x y z
#
# Youngs Moduli (GPa) = 65.94527 130.33503 148.94892
#
# Poissons Ratio (x) = 0.24616 -0.30567
# Poissons Ratio (y) = 0.12455 0.14607
# Poissons Ratio (z) = -0.13533 0.12782
#
# Static dielectric constant tensor:
#      x y z
#    x 2.139050 0.000000 0.056150 
#    y 0.000000 2.069160 0.000000 
#    z 0.056150 0.000000 2.107940 
# 
# From -- ./inp_files/332851.got.cif
#   From: 2010.05.17/outbox.cif.g08.bks.cpg/sg12_167_cif.got.tgz:332851.got - 2010.06.03 13:09:07.
