data_PCOD9196623
_publ_section_title
;
Structure prediction by ZEFSAII (Michael W. Deem and Ramdas Pophale) SiO2 
 PCOD9196623
Probable space group: C 2/M
;
_chemical_formula_sum "Si O2"
_cell_formula_units_Z 36
_cell_length_a 12.459048
_cell_length_b 18.243175
_cell_length_c 11.115893
_cell_angle_alpha 90.000000
_cell_angle_beta 130.313151
_cell_angle_gamma 90.000000
_cell_volume 1926.552269
_symmetry_space_group_name_H-M "C 2/M"
_symmetry_group_IT_number 12
_symmetry_cell_setting 'monoclinic'
loop_
_space_group_symop_operation_xyz
x,y,z
-x,y,-z
-x,-y,-z
x,-y,z
1/2+x,1/2+y,z
1/2-x,1/2+y,-z
1/2-x,1/2-y,-z
1/2+x,1/2-y,z
loop_
_atom_site_type_symbol
_atom_site_label
_atom_site_fract_x
_atom_site_fract_y
_atom_site_fract_z
Si Si1 0.905319 0.298427 0.221018
Si Si2 0.500000 0.696742 0.500000
Si Si3 0.590171 0.584394 0.369472
Si Si4 0.404531 0.337582 0.047817
Si Si5 0.906200 0.582320 0.552321
O O1 0.920155 0.241777 0.122531
O O2 0.910794 0.249239 0.346791
O O3 0.033707 0.354674 0.319669
O O4 0.759660 0.342244 0.103684
O O5 0.586331 0.642536 0.475403
O O6 0.578457 0.500000 0.401207
O O7 0.463712 0.605026 0.188012
O O8 0.740242 0.592721 0.411408
O O9 0.500000 0.342866 0.000000
O O10 0.924105 0.500000 0.614801
O O11 0.000000 0.586749 0.500000
#
# Coordination Sequence:
#
# PCOD9196623 Si02
#       5
#     8   4   8   8   8
#     4  10  21  36  55  86 110 148 188 227 284 327
#     4  10  21  36  63  84 112 146 190 236 275 334
#     4  10  22  38  59  85 113 150 187 231 282 331
#     4  10  22  35  54  82 115 149 184 230 277 333
#     4  10  20  35  57  84 112 143 185 232 279 331
#
# _framework density 18.686229000000001
#
# number of rings (size 3 to 8) (size 9 to 14) (size 15 to 20)
#    0.000    2.000    1.111    1.667    3.111    3.111 
#    0.000    0.000    0.000    0.667    0.000    0.000 
#    0.000    0.000    0.000    0.000    0.000    0.000 
#
# Total GULP energy -100396.162210 kJ/mol
# GULP energy per Si atom -5577.564567 kJ/mol
# Density = 1.864370 g / cm^3
# Si number density = 18.686229 Si / 1000 Ang^3
#
#
#
# Elastic Constant Matrix: (Units=GPa)
#
#
# Indices 1 2 3 4 5 6 
#
# 1 50.1648 14.5543 11.2430 0.0000 3.5251 0.0000
# 2 14.5543 84.7459 33.8032 0.0000 15.2754 0.0000
# 3 11.2430 33.8032 77.9255 0.0000 13.5383 0.0000
# 4 0.0000 0.0000 0.0000 15.9372 0.0000 9.6822
# 5 3.5251 15.2754 13.5383 0.0000 30.9031 0.0000
# 6 0.0000 0.0000 0.0000 9.6822 0.0000 9.3404
#
#
#
# Elastic Compliance Matrix: (Units=1/GPa)
#
#
# Indices 1 2 3 4 5 6 
#
# 1 0.021185 -0.002897 -0.001763 0.000000 -0.000212 0.000000
# 2 -0.002897 0.015325 -0.005381 0.000000 -0.004887 0.000000
# 3 -0.001763 -0.005381 0.016154 0.000000 -0.004216 0.000000
# 4 0.000000 0.000000 0.000000 0.169473 0.000000 -0.175675
# 5 -0.000212 -0.004887 -0.004216 0.000000 0.036646 0.000000
# 6 0.000000 0.000000 0.000000 -0.175675 0.000000 0.289166
#
#
# Mechanical properties :
#
#
# Convention : Reuss Voigt Hill
#
# Bulk Modulus (GPa) = 30.69164 36.89304 33.79234
# Shear Modulus (GPa) = 8.63721 21.45185 15.04453
#
# Velocity S-wave (km/s) = 2.15227 3.39190 2.84053
# Velocity P-wave (km/s) = 4.75781 5.92674 5.37415
#
# Compressibility (1/GPa) = 0.03258216
#
# Stress axis : x y z
#
# Youngs Moduli (GPa) = 47.20371 65.25456 61.90549
#
# Poissons Ratio (x) = 0.18903 0.10914
# Poissons Ratio (y) = 0.13674 0.33309
# Poissons Ratio (z) = 0.08322 0.35111
#
# Static dielectric constant tensor:
#      x y z
#    x 1.628660 0.000000 -0.003590 
#    y 0.000000 1.647140 0.000000 
#    z -0.003590 0.000000 1.667640 
# 
# From -- ./inp_files/46806.got.cif
#   From: 2010.05.17/outbox.cif.g08.bks.cpg/sg12_24_cif.got.tgz:46806.got - 2010.06.03 13:09:07.
