data_PCOD9196485
_publ_section_title
;
Structure prediction by ZEFSAII (Michael W. Deem and Ramdas Pophale) SiO2 
 PCOD9196485
Probable space group: C 2/M
;
_chemical_formula_sum "Si O2"
_cell_formula_units_Z 40
_cell_length_a 7.530690
_cell_length_b 11.838851
_cell_length_c 17.563800
_cell_angle_alpha 90.000000
_cell_angle_beta 92.187030
_cell_angle_gamma 90.000000
_cell_volume 1564.754987
_symmetry_space_group_name_H-M "C 2/M"
_symmetry_group_IT_number 12
_symmetry_cell_setting 'monoclinic'
loop_
_space_group_symop_operation_xyz
x,y,z
-x,y,-z
-x,-y,-z
x,-y,z
1/2+x,1/2+y,z
1/2-x,1/2+y,-z
1/2-x,1/2-y,-z
1/2+x,1/2-y,z
loop_
_atom_site_type_symbol
_atom_site_label
_atom_site_fract_x
_atom_site_fract_y
_atom_site_fract_z
Si Si1 0.302433 0.376033 0.528111
Si Si2 0.625564 0.347443 0.895844
Si Si3 0.272603 0.885540 0.065153
Si Si4 0.679940 0.875834 0.259166
Si Si5 0.562630 0.372589 0.303367
O O1 0.500000 0.386329 0.500000
O O2 0.214606 0.500000 0.507299
O O3 0.250000 0.250000 0.500000
O O4 0.317203 0.370560 0.619842
O O5 0.615213 0.213581 0.899809
O O6 0.423805 0.385482 0.902139
O O7 0.725620 0.380381 0.821948
O O8 0.733734 0.375908 0.974542
O O9 0.369355 0.000000 0.083572
O O10 0.590689 0.751244 0.264257
O O11 0.851645 0.873781 0.317801
O O12 0.588017 0.000000 0.269076
O O13 0.595527 0.500000 0.268197
#
# Coordination Sequence:
#
# PCOD9196485 Si02
#       5
#     8   8   8   8   8
#     4  10  21  39  63  89 117 149 187 231 278 329
#     4  10  20  35  57  82 106 144 190 232 283 338
#     4  10  20  37  56  77 109 142 184 240 288 331
#     4  11  22  38  59  83 116 154 191 232 283 339
#     4  10  23  40  59  87 119 150 187 231 278 335
#
# _framework density 25.563106999999999
#
# number of rings (size 3 to 8) (size 9 to 14) (size 15 to 20)
#    0.000    1.800    0.000    4.800    0.000    6.000 
#    0.000   12.000    0.000    0.000    0.000    0.000 
#    0.000    0.000    0.000    0.000    0.000    0.000 
#
# Total GULP energy -111571.371699 kJ/mol
# GULP energy per Si atom -5578.568585 kJ/mol
# Density = 2.550492 g / cm^3
# Si number density = 25.563107 Si / 1000 Ang^3
#
#
#
# Elastic Constant Matrix: (Units=GPa)
#
#
# Indices 1 2 3 4 5 6 
#
# 1 49.7680 39.9910 -2.2309 0.0000 0.7774 0.0000
# 2 39.9910 341.2816 43.2851 0.0000 -0.2196 0.0000
# 3 -2.2309 43.2851 69.6482 0.0000 5.0015 0.0000
# 4 0.0000 0.0000 0.0000 29.4357 0.0000 4.6931
# 5 0.7774 -0.2196 5.0015 0.0000 28.5959 0.0000
# 6 0.0000 0.0000 0.0000 4.6931 0.0000 37.2646
#
#
#
# Elastic Compliance Matrix: (Units=1/GPa)
#
#
# Indices 1 2 3 4 5 6 
#
# 1 0.022633 -0.002991 0.002663 0.000000 -0.001104 0.000000
# 2 -0.002991 0.003580 -0.002358 0.000000 0.000521 0.000000
# 3 0.002663 -0.002358 0.016118 0.000000 -0.002910 0.000000
# 4 0.000000 0.000000 0.000000 0.034668 0.000000 -0.004366
# 5 -0.001104 0.000521 -0.002910 0.000000 0.035513 0.000000
# 6 0.000000 0.000000 0.000000 -0.004366 0.000000 0.027385
#
#
# Mechanical properties :
#
#
# Convention : Reuss Voigt Hill
#
# Bulk Modulus (GPa) = 27.05717 69.19867 48.12792
# Shear Modulus (GPa) = 31.72827 44.36941 38.04884
#
# Velocity S-wave (km/s) = 3.52685 4.17067 3.86220
# Velocity P-wave (km/s) = 5.21463 7.09374 6.22549
#
# Compressibility (1/GPa) = 0.03695878
#
# Stress axis : x y z
#
# Youngs Moduli (GPa) = 44.18350 279.33159 62.04391
#
# Poissons Ratio (x) = 0.83535 -0.16521
# Poissons Ratio (y) = 0.13213 0.14631
# Poissons Ratio (z) = -0.11765 0.65869
#
# Static dielectric constant tensor:
#      x y z
#    x 1.956330 0.000000 0.013710 
#    y 0.000000 2.129630 0.000000 
#    z 0.013710 0.000000 1.860740 
# 
# From -- ./inp_files/254692.got.cif
#   From: 2010.05.17/outbox.cif.g08.bks.cpg/sg12_128_cif.got.tgz:254692.got - 2010.06.03 13:09:07.
