data_PCOD9196468
_publ_section_title
;
Structure prediction by ZEFSAII (Michael W. Deem and Ramdas Pophale) SiO2 
 PCOD9196468
Probable space group: C 2/M
;
_chemical_formula_sum "Si O2"
_cell_formula_units_Z 56
_cell_length_a 9.477268
_cell_length_b 22.262584
_cell_length_c 19.843685
_cell_angle_alpha 90.000000
_cell_angle_beta 47.297662
_cell_angle_gamma 90.000000
_cell_volume 3076.816359
_symmetry_space_group_name_H-M "C 2/M"
_symmetry_group_IT_number 12
_symmetry_cell_setting 'monoclinic'
loop_
_space_group_symop_operation_xyz
x,y,z
-x,y,-z
-x,-y,-z
x,-y,z
1/2+x,1/2+y,z
1/2-x,1/2+y,-z
1/2-x,1/2-y,-z
1/2+x,1/2-y,z
loop_
_atom_site_type_symbol
_atom_site_label
_atom_site_fract_x
_atom_site_fract_y
_atom_site_fract_z
Si Si1 0.288137 0.565248 0.538592
Si Si2 0.906551 0.259163 0.350252
Si Si3 0.778692 0.313819 0.249399
Si Si4 0.114182 0.691162 0.034392
Si Si5 0.134498 0.667807 0.510553
Si Si6 0.278124 0.571192 0.048854
Si Si7 0.405009 0.932077 0.257630
O O1 0.500000 0.563637 0.500000
O O2 0.246193 0.500000 0.521666
O O3 0.283697 0.620044 0.489373
O O4 0.138705 0.574677 0.648776
O O5 0.836615 0.288595 0.304178
O O6 0.963346 0.306009 0.390629
O O7 0.731069 0.222138 0.439005
O O8 0.085524 0.215188 0.284542
O O9 0.772658 0.385112 0.261520
O O10 0.950808 0.300821 0.143368
O O11 0.219398 0.626602 0.017576
O O12 0.250000 0.750000 0.000000
O O13 0.000000 0.689501 0.000000
O O14 0.000000 0.636701 0.500000
O O15 0.259107 0.500000 0.032016
O O16 0.123849 0.577438 0.160714
O O17 0.500000 0.578820 0.000000
O O18 0.352362 0.000000 0.257614
#
# Coordination Sequence:
#
# PCOD9196468 Si02
#       7
#     8   8   8   8   8   8   8
#     4  10  20  35  57  81 110 151 192 231 280 339
#     4  11  22  35  54  83 107 148 185 231 279 336
#     4  11  21  38  59  81 112 149 190 234 286 341
#     4  11  23  39  58  87 119 153 191 244 295 351
#     4  11  22  35  52  81 115 141 183 235 282 326
#     4   9  19  37  62  88 116 153 194 240 295 354
#     4   9  18  34  57  84 108 144 194 232 272 339
#
# _framework density 18.200631000000001
#
# number of rings (size 3 to 8) (size 9 to 14) (size 15 to 20)
#    0.000    1.714    2.857    2.143    0.000    1.714 
#    0.000    0.000    0.000    0.000    0.000    9.000 
#    0.000    0.000    0.000    0.000    0.000    0.000 
#
# Total GULP energy -155921.114830 kJ/mol
# GULP energy per Si atom -5568.611244 kJ/mol
# Density = 1.815921 g / cm^3
# Si number density = 18.200631 Si / 1000 Ang^3
#
#
#
# Elastic Constant Matrix: (Units=GPa)
#
#
# Indices 1 2 3 4 5 6 
#
# 1 78.6307 43.7721 20.4122 0.0000 4.7571 0.0000
# 2 43.7721 105.3026 33.1404 0.0000 4.3632 0.0000
# 3 20.4122 33.1404 71.0703 0.0000 6.6777 0.0000
# 4 0.0000 0.0000 0.0000 -26.7385 0.0000 -46.1283
# 5 4.7571 4.3632 6.6777 0.0000 27.2827 0.0000
# 6 0.0000 0.0000 0.0000 -46.1283 0.0000 -10.8463
#
#
#
# Elastic Compliance Matrix: (Units=1/GPa)
#
#
# Indices 1 2 3 4 5 6 
#
# 1 0.016807 -0.006387 -0.001709 0.000000 -0.001491 0.000000
# 2 -0.006387 0.013564 -0.004495 0.000000 0.000045 0.000000
# 3 -0.001709 -0.004495 0.016952 0.000000 -0.003132 0.000000
# 4 0.000000 0.000000 0.000000 0.005902 0.000000 -0.025100
# 5 -0.001491 0.000045 -0.003132 0.000000 0.037673 0.000000
# 6 0.000000 0.000000 0.000000 -0.025100 0.000000 0.014549
#
#
# Mechanical properties :
#
#
# Convention : Reuss Voigt Hill
#
# Bulk Modulus (GPa) = 45.16365 49.96146 47.56255
# Shear Modulus (GPa) = 36.22992 8.45151 22.34071
#
# Velocity S-wave (km/s) = 4.46644 2.15722 3.50733
# Velocity P-wave (km/s) = 7.17405 5.80644 6.52617
#
# Compressibility (1/GPa) = 0.02214170
#
# Stress axis : x y z
#
# Youngs Moduli (GPa) = 59.49969 73.72461 58.99130
#
# Poissons Ratio (x) = 0.47085 0.10081
# Poissons Ratio (y) = 0.38000 0.26516
# Poissons Ratio (z) = 0.10168 0.33138
#
# Static dielectric constant tensor:
#      x y z
#    x 1.620850 0.000000 -0.007350 
#    y 0.000000 1.663050 0.000000 
#    z -0.007350 0.000000 1.641810 
# 
# From -- ./inp_files/259150.got.cif
#   From: 2010.05.17/outbox.cif.g08.bks.cpg/sg12_130_cif.got.tgz:259150.got - 2010.06.03 13:09:07.
