data_PCOD9196017
_publ_section_title
;
Structure prediction by ZEFSAII (Michael W. Deem and Ramdas Pophale) SiO2 
 PCOD9196017
Probable space group: C 2/M
;
_chemical_formula_sum "Si O2"
_cell_formula_units_Z 56
_cell_length_a 18.824173
_cell_length_b 9.070733
_cell_length_c 18.479206
_cell_angle_alpha 90.000000
_cell_angle_beta 119.485855
_cell_angle_gamma 90.000000
_cell_volume 2746.622762
_symmetry_space_group_name_H-M "C 2/M"
_symmetry_group_IT_number 12
_symmetry_cell_setting 'monoclinic'
loop_
_space_group_symop_operation_xyz
x,y,z
-x,y,-z
-x,-y,-z
x,-y,z
1/2+x,1/2+y,z
1/2-x,1/2+y,-z
1/2-x,1/2-y,-z
1/2+x,1/2-y,z
loop_
_atom_site_type_symbol
_atom_site_label
_atom_site_fract_x
_atom_site_fract_y
_atom_site_fract_z
Si Si1 0.497519 0.671339 0.657493
Si Si2 0.742062 0.325079 0.074078
Si Si3 0.166394 0.323493 0.736261
Si Si4 0.581242 0.171487 0.993109
Si Si5 0.511634 0.670728 0.172749
Si Si6 0.319755 0.170190 0.739437
Si Si7 0.329396 0.830611 0.569823
O O1 0.499531 0.500000 0.636934
O O2 0.578594 0.756103 0.673673
O O3 0.497621 0.677199 0.745409
O O4 0.413201 0.747777 0.591724
O O5 0.738689 0.500000 0.063237
O O6 0.810576 0.291032 0.168148
O O7 0.750000 0.250000 0.000000
O O8 0.656476 0.263524 0.061258
O O9 0.166951 0.500000 0.727287
O O10 0.238393 0.248737 0.726428
O O11 0.556634 0.236427 0.902895
O O12 0.603583 0.000000 0.999040
O O13 0.500000 0.185278 0.000000
O O14 0.507651 0.500000 0.148068
O O15 0.599051 0.741733 0.197941
O O16 0.321817 0.169301 0.653190
O O17 0.323855 0.000000 0.766994
O O18 0.250000 0.750000 0.500000
O O19 0.332348 0.000000 0.546620
#
# Coordination Sequence:
#
# PCOD9196017 Si02
#       7
#     8   8   8   8   8   8   8
#     4  10  21  37  59  85 113 147 185 226 275 332
#     4  11  24  39  56  79 110 150 194 241 291 340
#     4  11  23  38  57  83 115 150 191 238 285 335
#     4  11  23  36  52  76 107 144 187 237 289 337
#     4  10  20  35  56  80 107 143 188 235 282 335
#     4  10  21  37  59  86 116 151 188 229 280 336
#     4  10  21  39  64  92 120 149 183 224 272 330
#
# _framework density 20.388676
#
# number of rings (size 3 to 8) (size 9 to 14) (size 15 to 20)
#    0.000    1.571    0.000    4.714    0.000   11.429 
#    0.000    0.714    0.000    4.286    0.000    0.000 
#    0.000    0.000    0.000    0.000    0.000    0.000 
#
# Total GULP energy -156592.611639 kJ/mol
# GULP energy per Si atom -5592.593273 kJ/mol
# Density = 2.034227 g / cm^3
# Si number density = 20.388676 Si / 1000 Ang^3
#
#
#
# Elastic Constant Matrix: (Units=GPa)
#
#
# Indices 1 2 3 4 5 6 
#
# 1 101.9229 33.6251 -1.1830 0.0000 29.7491 0.0000
# 2 33.6251 80.8433 13.0182 0.0000 16.7526 0.0000
# 3 -1.1830 13.0182 38.0257 0.0000 29.7331 0.0000
# 4 0.0000 0.0000 0.0000 27.9658 0.0000 6.6882
# 5 29.7491 16.7526 29.7331 0.0000 35.6411 0.0000
# 6 0.0000 0.0000 0.0000 6.6882 0.0000 36.1283
#
#
#
# Elastic Compliance Matrix: (Units=1/GPa)
#
#
# Indices 1 2 3 4 5 6 
#
# 1 0.046227 -0.011261 0.090094 0.000000 -0.108451 0.000000
# 2 -0.011261 0.016461 -0.020954 0.000000 0.019143 0.000000
# 3 0.090094 -0.020954 0.251297 0.000000 -0.274992 0.000000
# 4 0.000000 0.000000 0.000000 0.037414 0.000000 -0.006926
# 5 -0.108451 0.019143 -0.274992 0.000000 0.338991 0.000000
# 6 0.000000 0.000000 0.000000 -0.006926 0.000000 0.028961
#
#
# Mechanical properties :
#
#
# Convention : Reuss Voigt Hill
#
# Bulk Modulus (GPa) = 2.32698 34.63473 18.48086
# Shear Modulus (GPa) = 6.69486 31.63581 19.16533
#
# Velocity S-wave (km/s) = 1.81404 3.94335 3.06927
# Velocity P-wave (km/s) = 2.35190 6.14471 4.65236
#
# Compressibility (1/GPa) = 0.42974123
#
# Stress axis : x y z
#
# Youngs Moduli (GPa) = 21.63250 60.75024 3.97935
#
# Poissons Ratio (x) = 0.68412 -0.35852
# Poissons Ratio (y) = 0.24361 0.08338
# Poissons Ratio (z) = -1.94896 1.27298
#
# Static dielectric constant tensor:
#      x y z
#    x 1.735750 0.000000 -0.020180 
#    y 0.000000 1.688690 0.000000 
#    z -0.020180 0.000000 1.731140 
# 
# From -- ./inp_files/275681.got.cif
#   From: 2010.05.17/outbox.cif.g08.bks.cpg/sg12_138_cif.got.tgz:275681.got - 2010.06.03 13:09:07.
