data_PCOD9196504
_publ_section_title
;
Structure prediction by ZEFSAII (Michael W. Deem and Ramdas Pophale) SiO2 
 PCOD9196504
Probable space group: C 2/M
;
_chemical_formula_sum "Si O2"
_cell_formula_units_Z 56
_cell_length_a 21.509323
_cell_length_b 9.068239
_cell_length_c 31.778018
_cell_angle_alpha 90.000000
_cell_angle_beta 150.846406
_cell_angle_gamma 90.000000
_cell_volume 3019.544468
_symmetry_space_group_name_H-M "C 2/M"
_symmetry_group_IT_number 12
_symmetry_cell_setting 'monoclinic'
loop_
_space_group_symop_operation_xyz
x,y,z
-x,y,-z
-x,-y,-z
x,-y,z
1/2+x,1/2+y,z
1/2-x,1/2+y,-z
1/2-x,1/2-y,-z
1/2+x,1/2-y,z
loop_
_atom_site_type_symbol
_atom_site_label
_atom_site_fract_x
_atom_site_fract_y
_atom_site_fract_z
Si Si1 0.110546 0.175994 0.914448
Si Si2 0.589830 0.322385 0.275473
Si Si3 0.790943 0.329078 0.872907
Si Si4 0.528470 0.172989 0.715396
Si Si5 0.625708 0.820262 0.549463
Si Si6 0.363557 0.176013 0.541130
Si Si7 0.003501 0.671336 0.931059
O O1 0.032988 0.222578 0.910113
O O2 0.022521 0.224413 0.822914
O O3 0.127185 0.000000 0.921713
O O4 0.250000 0.250000 0.000000
O O5 0.587308 0.500000 0.275166
O O6 0.557875 0.261076 0.302594
O O7 0.735103 0.277524 0.349900
O O8 0.747708 0.500000 0.845957
O O9 0.672479 0.223016 0.807104
O O10 0.874422 0.299260 0.880634
O O11 0.884435 0.315571 0.968057
O O12 0.487095 0.203594 0.643021
O O13 0.511740 0.000000 0.713319
O O14 0.500000 0.768719 0.500000
O O15 0.623102 0.773158 0.498988
O O16 0.621977 0.000000 0.547756
O O17 0.250000 0.250000 0.500000
O O18 0.341033 0.000000 0.526547
O O19 0.002152 0.500000 0.916154
#
# Coordination Sequence:
#
# PCOD9196504 Si02
#       7
#     8   8   8   8   8   8   8
#     4  11  23  36  54  81 111 147 188 230 278 334
#     4  10  21  37  57  79 107 149 191 226 274 343
#     4   9  19  36  57  79 106 145 186 224 272 337
#     4  11  22  33  53  86 114 139 181 234 281 325
#     4   9  18  35  59  83 108 144 188 231 276 331
#     4  10  20  35  57  82 109 143 181 227 277 329
#     4   9  19  37  57  77 106 144 187 229 273 329
#
# _framework density 18.545845
#
# number of rings (size 3 to 8) (size 9 to 14) (size 15 to 20)
#    0.000    2.143    1.429    2.571    0.000    7.429 
#    0.000    4.286    0.000    1.714    0.000    0.000 
#    0.000    0.000    0.000    0.000    0.000    0.000 
#
# Total GULP energy -156205.324562 kJ/mol
# GULP energy per Si atom -5578.761591 kJ/mol
# Density = 1.850363 g / cm^3
# Si number density = 18.545845 Si / 1000 Ang^3
#
#
#
# Elastic Constant Matrix: (Units=GPa)
#
#
# Indices 1 2 3 4 5 6 
#
# 1 89.5119 19.3382 50.2959 0.0000 -3.9530 0.0000
# 2 19.3382 10.2428 25.0977 0.0000 -0.6828 0.0002
# 3 50.2959 25.0977 97.4094 0.0000 9.6333 0.0000
# 4 0.0000 0.0000 0.0000 16.6542 0.0000 0.5313
# 5 -3.9530 -0.6828 9.6333 0.0000 28.9285 0.0000
# 6 0.0000 0.0002 0.0000 0.5313 0.0000 31.0987
#
#
#
# Elastic Compliance Matrix: (Units=1/GPa)
#
#
# Indices 1 2 3 4 5 6 
#
# 1 0.019135 -0.030058 -0.002403 0.000000 0.002706 0.000000
# 2 -0.030058 0.339759 -0.074872 0.000000 0.028845 -0.000003
# 3 -0.002403 -0.074872 0.032061 0.000000 -0.012772 0.000001
# 4 0.000000 0.000000 0.000000 0.060078 0.000000 -0.001026
# 5 0.002706 0.028845 -0.012772 0.000000 0.039872 0.000000
# 6 0.000000 -0.000003 0.000001 -0.001026 0.000000 0.032173
#
#
# Mechanical properties :
#
#
# Convention : Reuss Voigt Hill
#
# Bulk Modulus (GPa) = 5.67252 42.95867 24.31560
# Shear Modulus (GPa) = 6.27740 22.16507 14.22123
#
# Velocity S-wave (km/s) = 1.84178 3.46084 2.77215
# Velocity P-wave (km/s) = 2.75466 6.25969 4.83590
#
# Compressibility (1/GPa) = 0.17628837
#
# Stress axis : x y z
#
# Youngs Moduli (GPa) = 52.25930 2.94326 31.19058
#
# Poissons Ratio (x) = 0.08847 0.07496
# Poissons Ratio (y) = 1.57081 2.33531
# Poissons Ratio (z) = 0.12560 0.22037
#
# Static dielectric constant tensor:
#      x y z
#    x 1.625810 0.000000 -0.002350 
#    y 0.000000 1.626220 0.000000 
#    z -0.002350 0.000000 1.661860 
# 
# From -- ./inp_files/329562.got.cif
#   From: 2010.05.17/outbox.cif.g08.bks.cpg/sg12_165_cif.got.tgz:329562.got - 2010.06.03 13:09:07.
