data_PCOD9196630
_publ_section_title
;
Structure prediction by ZEFSAII (Michael W. Deem and Ramdas Pophale) SiO2 
 PCOD9196630
Probable space group: C 2/M
;
_chemical_formula_sum "Si O2"
_cell_formula_units_Z 48
_cell_length_a 15.461377
_cell_length_b 8.381645
_cell_length_c 19.455176
_cell_angle_alpha 90.000000
_cell_angle_beta 104.342299
_cell_angle_gamma 90.000000
_cell_volume 2442.651856
_symmetry_space_group_name_H-M "C 2/M"
_symmetry_group_IT_number 12
_symmetry_cell_setting 'monoclinic'
loop_
_space_group_symop_operation_xyz
x,y,z
-x,y,-z
-x,-y,-z
x,-y,z
1/2+x,1/2+y,z
1/2-x,1/2+y,-z
1/2-x,1/2-y,-z
1/2+x,1/2-y,z
loop_
_atom_site_type_symbol
_atom_site_label
_atom_site_fract_x
_atom_site_fract_y
_atom_site_fract_z
Si Si1 0.539334 0.812547 0.903548
Si Si2 0.501516 0.807256 0.420131
Si Si3 0.629536 0.312716 0.057819
Si Si4 0.698471 0.193089 0.421925
Si Si5 0.681418 0.691908 0.680170
Si Si6 0.808703 0.808368 0.161487
O O1 0.445058 0.727319 0.899371
O O2 0.597719 0.745562 0.852785
O O3 0.523723 0.000000 0.892144
O O4 0.597885 0.781230 0.983831
O O5 0.500000 0.758781 0.500000
O O6 0.595684 0.756013 0.406583
O O7 0.416638 0.739721 0.364216
O O8 0.496805 0.000000 0.417310
O O9 0.626939 0.500000 0.041232
O O10 0.726818 0.262330 0.101963
O O11 0.750000 0.250000 0.500000
O O12 0.748831 0.250638 0.363531
O O13 0.699908 0.000000 0.422523
O O14 0.687199 0.500000 0.682363
O O15 0.698715 0.747187 0.761080
O O16 0.803086 0.000000 0.157695
#
# Coordination Sequence:
#
# PCOD9196630 Si02
#       6
#     8   8   8   8   8   8
#     4  11  22  39  63  91 120 158 202 246 297 352
#     4  10  20  35  57  84 113 145 186 237 291 347
#     4  11  22  39  63  92 122 157 199 246 296 352
#     4  10  20  36  57  82 110 144 185 233 287 343
#     4  10  23  39  57  83 115 152 194 239 292 349
#     4  11  23  40  58  84 123 161 202 250 298 353
#
# _framework density 19.650773999999998
#
# number of rings (size 3 to 8) (size 9 to 14) (size 15 to 20)
#    0.000    1.500    1.667    5.000    0.000    3.667 
#    0.000    1.667    0.000    0.000    0.000    0.000 
#    0.000    0.000    0.000    0.000    0.000    0.000 
#
# Total GULP energy -134161.062534 kJ/mol
# GULP energy per Si atom -5590.044272 kJ/mol
# Density = 1.960605 g / cm^3
# Si number density = 19.650774 Si / 1000 Ang^3
#
#
#
# Elastic Constant Matrix: (Units=GPa)
#
#
# Indices 1 2 3 4 5 6 
#
# 1 94.4247 -4.2724 14.4379 0.0000 -29.3497 0.0000
# 2 -4.2724 24.6608 -4.2969 0.0000 -3.2399 0.0000
# 3 14.4379 -4.2969 51.3655 0.0000 -28.3597 0.0000
# 4 0.0000 0.0000 0.0000 21.5377 0.0000 1.9961
# 5 -29.3497 -3.2399 -28.3597 0.0000 34.4998 0.0000
# 6 0.0000 0.0000 0.0000 1.9961 0.0000 31.0642
#
#
#
# Elastic Compliance Matrix: (Units=1/GPa)
#
#
# Indices 1 2 3 4 5 6 
#
# 1 0.016083 0.006704 0.007218 0.000000 0.020244 0.000000
# 2 0.006704 0.046984 0.013972 0.000000 0.021601 0.000000
# 3 0.007218 0.013972 0.041606 0.000000 0.041653 0.000000
# 4 0.000000 0.000000 0.000000 0.046708 0.000000 -0.003001
# 5 0.020244 0.021601 0.041653 0.000000 0.082477 0.000000
# 6 0.000000 0.000000 0.000000 -0.003001 0.000000 0.032384
#
#
# Mechanical properties :
#
#
# Convention : Reuss Voigt Hill
#
# Bulk Modulus (GPa) = 6.23210 20.24313 13.23761
# Shear Modulus (GPa) = 18.94355 28.39249 23.66802
#
# Velocity S-wave (km/s) = 3.10822 3.80525 3.47426
# Velocity P-wave (km/s) = 4.00745 5.44338 4.77965
#
# Compressibility (1/GPa) = 0.16045948
#
# Stress axis : x y z
#
# Youngs Moduli (GPa) = 62.17858 21.28381 24.03502
#
# Poissons Ratio (x) = -0.14268 -0.17347
# Poissons Ratio (y) = -0.41682 -0.33582
# Poissons Ratio (z) = -0.44877 -0.29738
#
# Static dielectric constant tensor:
#      x y z
#    x 1.669430 0.000000 -0.036020 
#    y 0.000000 1.676000 0.000000 
#    z -0.036020 0.000000 1.673470 
# 
# From -- ./inp_files/267697.got.cif
#   From: 2010.05.17/outbox.cif.g08.bks.cpg/sg12_134_cif.got.tgz:267697.got - 2010.06.03 13:09:07.
