data_PCOD9196539
_publ_section_title
;
Structure prediction by ZEFSAII (Michael W. Deem and Ramdas Pophale) SiO2 
 PCOD9196539
Probable space group: C 2/M
;
_chemical_formula_sum "Si O2"
_cell_formula_units_Z 56
_cell_length_a 28.705353
_cell_length_b 9.463310
_cell_length_c 14.612691
_cell_angle_alpha 90.000000
_cell_angle_beta 141.602718
_cell_angle_gamma 90.000000
_cell_volume 2465.500544
_symmetry_space_group_name_H-M "C 2/M"
_symmetry_group_IT_number 12
_symmetry_cell_setting 'monoclinic'
loop_
_space_group_symop_operation_xyz
x,y,z
-x,y,-z
-x,-y,-z
x,-y,z
1/2+x,1/2+y,z
1/2-x,1/2+y,-z
1/2-x,1/2-y,-z
1/2+x,1/2-y,z
loop_
_atom_site_type_symbol
_atom_site_label
_atom_site_fract_x
_atom_site_fract_y
_atom_site_fract_z
Si Si1 0.029043 0.661359 0.891636
Si Si2 0.645195 0.658993 0.518608
Si Si3 0.688173 0.230285 0.213999
Si Si4 0.101341 0.663377 0.619156
Si Si5 0.130109 0.328622 0.309999
Si Si6 0.592980 0.170268 0.805766
Si Si7 0.220446 0.149575 0.078887
O O1 0.007559 0.500000 0.839843
O O2 0.042331 0.726455 0.811768
O O3 0.957733 0.712709 0.837964
O O4 0.108637 0.660768 0.064673
O O5 0.619447 0.500000 0.456425
O O6 0.733706 0.649879 0.680434
O O7 0.600389 0.730248 0.533164
O O8 0.644662 0.768409 0.433318
O O9 0.678530 0.250719 0.307418
O O10 0.695886 0.348380 0.147991
O O11 0.080623 0.500000 0.562861
O O12 0.066030 0.706237 0.662368
O O13 0.190280 0.659764 0.782295
O O14 0.142585 0.500000 0.321174
O O15 0.595868 0.000000 0.813571
O O16 0.675153 0.228750 0.958143
O O17 0.198378 0.000000 0.002273
#
# Coordination Sequence:
#
# PCOD9196539 Si02
#       7
#     8   8   8   8   8   8   8
#     4   9  18  34  57  85 110 136 179 228 270 317
#     4  11  23  37  55  81 112 145 182 225 271 325
#     4  10  20  35  57  83 110 142 182 225 270 318
#     4   9  18  33  52  76 107 142 180 223 269 318
#     4  11  22  37  58  81 109 145 182 226 275 322
#     4   9  17  31  53  79 107 139 178 225 271 317
#     4   9  18  30  48  79 114 143 174 217 271 327
#
# _framework density 22.713439999999999
#
# number of rings (size 3 to 8) (size 9 to 14) (size 15 to 20)
#    0.000    2.286    0.000    3.000    0.000    6.857 
#    0.000    3.571    0.000    8.571    0.000    0.000 
#    0.000    0.000    0.000    0.000    0.000    0.000 
#
# Total GULP energy -156050.664748 kJ/mol
# GULP energy per Si atom -5573.238027 kJ/mol
# Density = 2.266174 g / cm^3
# Si number density = 22.713440 Si / 1000 Ang^3
#
#
#
# Elastic Constant Matrix: (Units=GPa)
#
#
# Indices 1 2 3 4 5 6 
#
# 1 123.0027 20.7111 11.9260 0.0000 -20.6798 0.0000
# 2 20.7111 48.5299 21.9909 0.0000 -12.7562 0.0000
# 3 11.9260 21.9909 76.0507 0.0000 -7.2958 0.0000
# 4 0.0000 0.0000 0.0000 15.9690 0.0000 -1.6622
# 5 -20.6798 -12.7562 -7.2958 0.0000 48.0277 0.0000
# 6 0.0000 0.0000 0.0000 -1.6622 0.0000 8.2601
#
#
#
# Elastic Compliance Matrix: (Units=1/GPa)
#
#
# Indices 1 2 3 4 5 6 
#
# 1 0.009182 -0.002971 -0.000281 0.000000 0.003122 0.000000
# 2 -0.002971 0.026102 -0.006636 0.000000 0.004646 0.000000
# 3 -0.000281 -0.006636 0.015152 0.000000 0.000418 0.000000
# 4 0.000000 0.000000 0.000000 0.063961 0.000000 0.012871
# 5 0.003122 0.004646 0.000418 0.000000 0.023463 0.000000
# 6 0.000000 0.000000 0.000000 0.012871 0.000000 0.123655
#
#
# Mechanical properties :
#
#
# Convention : Reuss Voigt Hill
#
# Bulk Modulus (GPa) = 32.61574 39.64880 36.13227
# Shear Modulus (GPa) = 17.15201 27.31503 22.23352
#
# Velocity S-wave (km/s) = 2.75098 3.47160 3.13208
# Velocity P-wave (km/s) = 4.94786 5.79339 5.38724
#
# Compressibility (1/GPa) = 0.03066004
#
# Stress axis : x y z
#
# Youngs Moduli (GPa) = 108.90577 38.31163 65.99676
#
# Poissons Ratio (x) = 0.11381 0.01858
# Poissons Ratio (y) = 0.32351 0.43796
# Poissons Ratio (z) = 0.03065 0.25424
#
# Static dielectric constant tensor:
#      x y z
#    x 1.909100 0.000000 0.019290 
#    y 0.000000 1.798450 0.000000 
#    z 0.019290 0.000000 1.918230 
# 
# From -- ./inp_files/250593.got.cif
#   From: 2010.05.17/outbox.cif.g08.bks.cpg/sg12_126_cif.got.tgz:250593.got - 2010.06.03 13:09:07.
