data_PCOD9196886
_publ_section_title
;
Structure prediction by ZEFSAII (Michael W. Deem and Ramdas Pophale) SiO2 
 PCOD9196886
Probable space group: C 2/M
;
_chemical_formula_sum "Si O2"
_cell_formula_units_Z 52
_cell_length_a 20.205364
_cell_length_b 24.397998
_cell_length_c 7.459443
_cell_angle_alpha 90.000000
_cell_angle_beta 134.908776
_cell_angle_gamma 90.000000
_cell_volume 2604.369725
_symmetry_space_group_name_H-M "C 2/M"
_symmetry_group_IT_number 12
_symmetry_cell_setting 'monoclinic'
loop_
_space_group_symop_operation_xyz
x,y,z
-x,y,-z
-x,-y,-z
x,-y,z
1/2+x,1/2+y,z
1/2-x,1/2+y,-z
1/2-x,1/2-y,-z
1/2+x,1/2-y,z
loop_
_atom_site_type_symbol
_atom_site_label
_atom_site_fract_x
_atom_site_fract_y
_atom_site_fract_z
Si Si1 0.500000 0.193790 0.500000
Si Si2 0.200391 0.787797 0.149720
Si Si3 0.791157 0.175273 0.422561
Si Si4 0.520611 0.059615 0.321964
Si Si5 0.663961 0.874239 0.754058
Si Si6 0.486946 0.720644 0.764651
Si Si7 0.691007 0.937067 0.136516
O O1 0.413291 0.157329 0.273299
O O2 0.538825 0.228311 0.408951
O O3 0.213148 0.806828 0.378972
O O4 0.238419 0.725203 0.217200
O O5 0.257964 0.831143 0.145400
O O6 0.090808 0.793214 0.895382
O O7 0.901571 0.178337 0.584299
O O8 0.747281 0.115010 0.320095
O O9 0.500000 0.056716 0.500000
O O10 0.602168 0.104279 0.468557
O O11 0.556662 0.000000 0.336990
O O12 0.420556 0.067471 0.037414
O O13 0.699606 0.925254 0.938271
O O14 0.500000 0.734429 0.000000
O O15 0.718947 0.000000 0.231499
#
# Coordination Sequence:
#
# PCOD9196886 Si02
#       7
#     4   8   8   8   8   8   8
#     4  12  20  32  59  92 113 160 186 228 300 368
#     4  10  22  36  58  86 116 153 184 242 303 347
#     4  10  21  39  57  82 116 152 195 238 295 351
#     4   8  15  30  50  75 112 147 179 228 283 333
#     4  11  19  33  55  91 115 147 192 233 291 358
#     4  10  23  39  54  83 126 151 190 243 296 352
#     4  10  20  35  58  82 112 155 196 239 284 343
#
# _framework density 19.966442000000001
#
# number of rings (size 3 to 8) (size 9 to 14) (size 15 to 20)
#    0.000    2.000    3.846    2.308    2.154    1.231 
#    0.000    2.308    0.000    8.769    0.000    0.000 
#    0.000    0.000    0.000    0.000    0.000    0.000 
#
# Total GULP energy -144888.854102 kJ/mol
# GULP energy per Si atom -5572.648235 kJ/mol
# Density = 1.992100 g / cm^3
# Si number density = 19.966442 Si / 1000 Ang^3
#
#
#
# Elastic Constant Matrix: (Units=GPa)
#
#
# Indices 1 2 3 4 5 6 
#
# 1 50.4535 29.2097 20.5981 0.0000 24.6005 0.0000
# 2 29.2097 151.8453 61.3892 0.0000 21.0700 0.0000
# 3 20.5981 61.3892 81.7600 0.0000 21.3291 0.0000
# 4 0.0000 0.0000 0.0000 37.5944 0.0000 4.9931
# 5 24.6005 21.0700 21.3291 0.0000 23.1782 0.0000
# 6 0.0000 0.0000 0.0000 4.9931 0.0000 7.4063
#
#
#
# Elastic Compliance Matrix: (Units=1/GPa)
#
#
# Indices 1 2 3 4 5 6 
#
# 1 0.042323 -0.003338 0.003646 0.000000 -0.045241 0.000000
# 2 -0.003338 0.009851 -0.006769 0.000000 0.000816 0.000000
# 3 0.003646 -0.006769 0.020790 0.000000 -0.016848 0.000000
# 4 0.000000 0.000000 0.000000 0.029216 0.000000 -0.019696
# 5 -0.045241 0.000816 -0.016848 0.000000 0.105923 0.000000
# 6 0.000000 0.000000 0.000000 -0.019696 0.000000 0.148298
#
#
# Mechanical properties :
#
#
# Convention : Reuss Voigt Hill
#
# Bulk Modulus (GPa) = 16.65480 56.27252 36.46366
# Shear Modulus (GPa) = 12.84238 25.15990 19.00114
#
# Velocity S-wave (km/s) = 2.53889 3.55365 3.08824
# Velocity P-wave (km/s) = 4.11753 6.71436 5.56941
#
# Compressibility (1/GPa) = 0.06004276
#
# Stress axis : x y z
#
# Youngs Moduli (GPa) = 23.62767 101.51355 48.10074
#
# Poissons Ratio (x) = 0.33883 -0.17537
# Poissons Ratio (y) = 0.07886 0.32557
# Poissons Ratio (z) = -0.08614 0.68710
#
# Static dielectric constant tensor:
#      x y z
#    x 1.748690 0.000000 -0.028500 
#    y 0.000000 1.726040 0.000000 
#    z -0.028500 0.000000 1.791480 
# 
# From -- ./inp_files/99181.got.cif
#   From: 2010.05.17/outbox.cif.g08.bks.cpg/sg12_50_cif.got.tgz:99181.got - 2010.06.03 13:09:07.
