data_PCOD9196993
_publ_section_title
;
Structure prediction by ZEFSAII (Michael W. Deem and Ramdas Pophale) SiO2 
 PCOD9196993
Probable space group: C 2/M
;
_chemical_formula_sum "Si O2"
_cell_formula_units_Z 56
_cell_length_a 18.823454
_cell_length_b 8.964598
_cell_length_c 25.063812
_cell_angle_alpha 90.000000
_cell_angle_beta 141.274411
_cell_angle_gamma 90.000000
_cell_volume 2645.866043
_symmetry_space_group_name_H-M "C 2/M"
_symmetry_group_IT_number 12
_symmetry_cell_setting 'monoclinic'
loop_
_space_group_symop_operation_xyz
x,y,z
-x,y,-z
-x,-y,-z
x,-y,z
1/2+x,1/2+y,z
1/2-x,1/2+y,-z
1/2-x,1/2-y,-z
1/2+x,1/2-y,z
loop_
_atom_site_type_symbol
_atom_site_label
_atom_site_fract_x
_atom_site_fract_y
_atom_site_fract_z
Si Si1 0.294135 0.325788 0.798711
Si Si2 0.746423 0.177818 0.895151
Si Si3 0.975945 0.668250 0.049521
Si Si4 0.267861 0.172948 0.677691
Si Si5 0.507361 0.175527 0.249873
Si Si6 0.875038 0.176704 0.579737
Si Si7 0.412921 0.173089 0.497445
O O1 0.277495 0.500000 0.777656
O O2 0.251709 0.295893 0.833951
O O3 0.426887 0.281085 0.874890
O O4 0.238670 0.229471 0.719473
O O5 0.620338 0.221131 0.839556
O O6 0.764301 0.000000 0.913620
O O7 0.849364 0.268682 0.981511
O O8 0.988980 0.500000 0.079212
O O9 0.000000 0.658440 0.000000
O O10 0.401633 0.188788 0.743993
O O11 0.204742 0.271580 0.596798
O O12 0.236970 0.000000 0.652371
O O13 0.558146 0.262678 0.329969
O O14 0.501500 0.000000 0.261378
O O15 0.750000 0.250000 0.500000
O O16 0.940115 0.228022 0.564495
O O17 0.862754 0.000000 0.575034
O O18 0.500000 0.189789 0.500000
O O19 0.407907 0.000000 0.510324
#
# Coordination Sequence:
#
# PCOD9196993 Si02
#       7
#     8   8   8   8   8   8   8
#     4  10  20  35  58  85 115 152 191 235 288 347
#     4   9  19  36  59  85 113 148 191 235 285 345
#     4   9  17  32  55  84 116 147 185 235 287 339
#     4  11  23  39  59  84 118 154 191 239 291 345
#     4  10  22  40  60  84 116 155 194 238 289 345
#     4  12  24  40  63  88 116 155 198 241 290 348
#     4  11  25  43  63  86 117 155 196 243 294 349
#
# _framework density 21.165092999999999
#
# number of rings (size 3 to 8) (size 9 to 14) (size 15 to 20)
#    0.000    1.714    1.429    3.000    2.000    4.571 
#    0.000    0.714    0.000    0.000    0.000    0.000 
#    0.000    0.000    0.000    0.000    0.000    0.000 
#
# Total GULP energy -156495.368492 kJ/mol
# GULP energy per Si atom -5589.120303 kJ/mol
# Density = 2.111692 g / cm^3
# Si number density = 21.165093 Si / 1000 Ang^3
#
#
#
# Elastic Constant Matrix: (Units=GPa)
#
#
# Indices 1 2 3 4 5 6 
#
# 1 34.2130 24.7809 4.4411 0.0000 13.0179 0.0000
# 2 24.7809 59.7066 -4.4596 0.0000 9.8933 0.0000
# 3 4.4411 -4.4596 22.0865 0.0000 15.9822 0.0000
# 4 0.0000 0.0000 0.0000 29.6260 0.0000 -0.3244
# 5 13.0179 9.8933 15.9822 0.0000 36.3902 0.0000
# 6 0.0000 0.0000 0.0000 -0.3244 0.0000 21.3736
#
#
#
# Elastic Compliance Matrix: (Units=1/GPa)
#
#
# Indices 1 2 3 4 5 6 
#
# 1 0.046839 -0.018508 -0.006848 0.000000 -0.008717 0.000000
# 2 -0.018508 0.026591 0.013971 0.000000 -0.006745 0.000000
# 3 -0.006848 0.013971 0.073953 0.000000 -0.033828 0.000000
# 4 0.000000 0.000000 0.000000 0.033760 0.000000 0.000512
# 5 -0.008717 -0.006745 -0.033828 0.000000 0.047289 0.000000
# 6 0.000000 0.000000 0.000000 0.000512 0.000000 0.046794
#
#
# Mechanical properties :
#
#
# Convention : Reuss Voigt Hill
#
# Bulk Modulus (GPa) = 8.02467 18.39231 13.20849
# Shear Modulus (GPa) = 14.72610 23.56090 19.14350
#
# Velocity S-wave (km/s) = 2.64061 3.34008 3.01073
# Velocity P-wave (km/s) = 3.61895 4.85630 4.28255
#
# Compressibility (1/GPa) = 0.12461572
#
# Stress axis : x y z
#
# Youngs Moduli (GPa) = 21.34954 37.60659 13.52205
#
# Poissons Ratio (x) = 0.69600 0.09259
# Poissons Ratio (y) = 0.39513 -0.18892
# Poissons Ratio (z) = 0.14619 -0.52541
#
# Static dielectric constant tensor:
#      x y z
#    x 1.800130 0.000000 0.013540 
#    y 0.000000 1.714130 0.000000 
#    z 0.013540 0.000000 1.771070 
# 
# From -- ./inp_files/363092.got.cif
#   From: 2010.05.17/outbox.cif.g08.bks.cpg/sg12_182_cif.got.tgz:363092.got - 2010.06.03 13:09:07.
