data_PCOD9196117
_publ_section_title
;
Structure prediction by ZEFSAII (Michael W. Deem and Ramdas Pophale) SiO2 
 PCOD9196117
Probable space group: C 2/M
;
_chemical_formula_sum "Si O2"
_cell_formula_units_Z 48
_cell_length_a 21.192636
_cell_length_b 13.922713
_cell_length_c 12.819643
_cell_angle_alpha 90.000000
_cell_angle_beta 138.994823
_cell_angle_gamma 90.000000
_cell_volume 2481.834601
_symmetry_space_group_name_H-M "C 2/M"
_symmetry_group_IT_number 12
_symmetry_cell_setting 'monoclinic'
loop_
_space_group_symop_operation_xyz
x,y,z
-x,y,-z
-x,-y,-z
x,-y,z
1/2+x,1/2+y,z
1/2-x,1/2+y,-z
1/2-x,1/2-y,-z
1/2+x,1/2-y,z
loop_
_atom_site_type_symbol
_atom_site_label
_atom_site_fract_x
_atom_site_fract_y
_atom_site_fract_z
Si Si1 0.294468 0.108322 0.856819
Si Si2 0.080547 0.889523 0.682655
Si Si3 0.632562 0.196258 0.457023
Si Si4 0.883481 0.610269 0.344260
Si Si5 0.765797 0.109499 0.448695
Si Si6 0.089054 0.288390 0.830979
O O1 0.183354 0.112858 0.753966
O O2 0.296034 0.119154 0.734578
O O3 0.329253 0.000000 0.927143
O O4 0.353947 0.186290 0.994431
O O5 0.084882 0.821206 0.787686
O O6 0.000000 0.853291 0.500000
O O7 0.057187 0.000000 0.678631
O O8 0.654000 0.169876 0.603842
O O9 0.700029 0.134469 0.465497
O O10 0.654365 0.307854 0.461259
O O11 0.520692 0.176022 0.297126
O O12 0.851392 0.500000 0.309407
O O13 0.861673 0.656497 0.205327
O O14 0.000000 0.611041 0.500000
O O15 0.801987 0.000000 0.497431
#
# Coordination Sequence:
#
# PCOD9196117 Si02
#       6
#     8   8   8   8   8   8
#     4  10  21  35  54  82 112 143 178 219 272 329
#     4  10  20  35  56  81 110 146 185 222 266 323
#     4  10  21  35  55  81 105 143 190 228 271 318
#     4   9  17  30  49  75 107 140 175 219 270 322
#     4  10  21  38  57  78 109 146 187 229 266 319
#     4  11  20  33  54  82 114 141 175 226 279 327
#
# _framework density 19.340532
#
# number of rings (size 3 to 8) (size 9 to 14) (size 15 to 20)
#    0.000    2.000    0.000    5.000    0.000    4.667 
#    0.000    1.667    0.000    4.500    0.000    5.833 
#    0.000    0.000    0.000    0.000    0.000    0.000 
#
# Total GULP energy -134080.077646 kJ/mol
# GULP energy per Si atom -5586.669902 kJ/mol
# Density = 1.929651 g / cm^3
# Si number density = 19.340532 Si / 1000 Ang^3
#
#
#
# Elastic Constant Matrix: (Units=GPa)
#
#
# Indices 1 2 3 4 5 6 
#
# 1 86.7988 20.5085 13.1492 0.0000 -10.4292 0.0000
# 2 20.5085 99.5329 21.1711 0.0000 -2.0041 0.0000
# 3 13.1492 21.1711 56.6248 0.0000 -3.6332 0.0000
# 4 0.0000 0.0000 0.0000 21.9626 0.0000 -1.3375
# 5 -10.4292 -2.0041 -3.6332 0.0000 16.9848 0.0000
# 6 0.0000 0.0000 0.0000 -1.3375 0.0000 14.7562
#
#
#
# Elastic Compliance Matrix: (Units=1/GPa)
#
#
# Indices 1 2 3 4 5 6 
#
# 1 0.013205 -0.002195 -0.001766 0.000000 0.007471 0.000000
# 2 -0.002195 0.011283 -0.003761 0.000000 -0.000821 0.000000
# 3 -0.001766 -0.003761 0.019648 0.000000 0.002675 0.000000
# 4 0.000000 0.000000 0.000000 0.045785 0.000000 0.004150
# 5 0.007471 -0.000821 0.002675 0.000000 0.063939 0.000000
# 6 0.000000 0.000000 0.000000 0.004150 0.000000 0.068144
#
#
# Mechanical properties :
#
#
# Convention : Reuss Voigt Hill
#
# Bulk Modulus (GPa) = 34.85461 39.17936 37.01698
# Shear Modulus (GPa) = 20.24191 23.28256 21.76223
#
# Velocity S-wave (km/s) = 3.23864 3.47338 3.35806
# Velocity P-wave (km/s) = 5.66089 6.03220 5.84949
#
# Compressibility (1/GPa) = 0.02869061
#
# Stress axis : x y z
#
# Youngs Moduli (GPa) = 75.73037 88.63140 50.89515
#
# Poissons Ratio (x) = 0.19451 0.08990
# Poissons Ratio (y) = 0.16620 0.19144
# Poissons Ratio (z) = 0.13377 0.33338
#
# Static dielectric constant tensor:
#      x y z
#    x 1.666510 0.000000 0.006460 
#    y 0.000000 1.714320 0.000000 
#    z 0.006460 0.000000 1.647100 
# 
# From -- ./inp_files/143156.got.cif
#   From: 2010.05.17/outbox.cif.g08.bks.cpg/sg12_72_cif.got.tgz:143156.got - 2010.06.03 13:09:07.
