data_PCOD9196691
_publ_section_title
;
Structure prediction by ZEFSAII (Michael W. Deem and Ramdas Pophale) SiO2 
 PCOD9196691
Probable space group: C 2/M
;
_chemical_formula_sum "Si O2"
_cell_formula_units_Z 56
_cell_length_a 16.310991
_cell_length_b 9.066622
_cell_length_c 20.425021
_cell_angle_alpha 90.000000
_cell_angle_beta 125.746656
_cell_angle_gamma 90.000000
_cell_volume 2451.515996
_symmetry_space_group_name_H-M "C 2/M"
_symmetry_group_IT_number 12
_symmetry_cell_setting 'monoclinic'
loop_
_space_group_symop_operation_xyz
x,y,z
-x,y,-z
-x,-y,-z
x,-y,z
1/2+x,1/2+y,z
1/2-x,1/2+y,-z
1/2-x,1/2-y,-z
1/2+x,1/2-y,z
loop_
_atom_site_type_symbol
_atom_site_label
_atom_site_fract_x
_atom_site_fract_y
_atom_site_fract_z
Si Si1 0.305129 0.828466 0.613002
Si Si2 0.496872 0.672424 0.096062
Si Si3 0.406763 0.671796 0.540099
Si Si4 0.689528 0.172973 0.234506
Si Si5 0.694908 0.825744 0.036029
Si Si6 0.405765 0.827044 0.327309
Si Si7 0.098647 0.830965 0.802671
O O1 0.354816 0.718274 0.584717
O O2 0.183861 0.803099 0.553340
O O3 0.342247 0.811888 0.704002
O O4 0.321511 0.000000 0.599602
O O5 0.507215 0.500000 0.085818
O O6 0.604250 0.751660 0.150691
O O7 0.450434 0.684061 0.148508
O O8 0.413167 0.747484 0.010703
O O9 0.433125 0.500000 0.551282
O O10 0.508716 0.764624 0.584758
O O11 0.798485 0.247942 0.283326
O O12 0.696921 0.000000 0.222833
O O13 0.780158 0.811309 0.131443
O O14 0.680410 0.000000 0.017615
O O15 0.750000 0.750000 0.000000
O O16 0.438808 0.783350 0.268601
O O17 0.395127 0.000000 0.329793
O O18 0.080049 0.000000 0.771870
#
# Coordination Sequence:
#
# PCOD9196691 Si02
#       7
#     8   8   8   8   8   8   8
#     4   9  20  38  61  87 110 140 182 225 271 323
#     4  10  20  35  57  85 114 143 180 225 274 328
#     4  10  20  37  61  86 113 142 177 224 274 324
#     4  11  23  39  57  78 110 148 186 227 272 324
#     4   9  17  31  54  83 111 141 180 226 274 322
#     4  12  25  38  54  79 112 148 187 227 271 325
#     4   9  19  36  58  83 111 144 182 225 273 323
#
# _framework density 22.843007
#
# number of rings (size 3 to 8) (size 9 to 14) (size 15 to 20)
#    0.000    2.000    0.000    4.714    0.000    8.000 
#    0.000    3.571    0.000    4.286    0.000    0.000 
#    0.000    0.000    0.000    0.000    0.000    0.000 
#
# Total GULP energy -156650.056596 kJ/mol
# GULP energy per Si atom -5594.644878 kJ/mol
# Density = 2.279101 g / cm^3
# Si number density = 22.843007 Si / 1000 Ang^3
#
#
#
# Elastic Constant Matrix: (Units=GPa)
#
#
# Indices 1 2 3 4 5 6 
#
# 1 77.8511 30.8477 24.4594 0.0000 22.1650 0.0000
# 2 30.8477 133.5439 68.8006 0.0000 30.7665 0.0000
# 3 24.4594 68.8006 124.3540 0.0000 28.5197 0.0000
# 4 0.0000 0.0000 0.0000 32.3932 0.0000 12.9727
# 5 22.1650 30.7665 28.5197 0.0000 47.9351 0.0000
# 6 0.0000 0.0000 0.0000 12.9727 0.0000 30.2590
#
#
#
# Elastic Compliance Matrix: (Units=1/GPa)
#
#
# Indices 1 2 3 4 5 6 
#
# 1 0.015386 -0.001934 -0.000705 0.000000 -0.005453 0.000000
# 2 -0.001934 0.011348 -0.005133 0.000000 -0.003335 0.000000
# 3 -0.000705 -0.005133 0.011800 0.000000 -0.003400 0.000000
# 4 0.000000 0.000000 0.000000 0.037270 0.000000 -0.015978
# 5 -0.005453 -0.003335 -0.003400 0.000000 0.027546 0.000000
# 6 0.000000 0.000000 0.000000 -0.015978 0.000000 0.039898
#
#
# Mechanical properties :
#
#
# Convention : Reuss Voigt Hill
#
# Bulk Modulus (GPa) = 43.50095 64.88492 54.19294
# Shear Modulus (GPa) = 30.03805 36.22688 33.13247
#
# Velocity S-wave (km/s) = 3.63020 3.98667 3.81260
# Velocity P-wave (km/s) = 6.05441 7.04682 6.56938
#
# Compressibility (1/GPa) = 0.02298800
#
# Stress axis : x y z
#
# Youngs Moduli (GPa) = 64.99569 88.12287 84.74615
#
# Poissons Ratio (x) = 0.17045 0.05979
# Poissons Ratio (y) = 0.12572 0.43500
# Poissons Ratio (z) = 0.04585 0.45233
#
# Static dielectric constant tensor:
#      x y z
#    x 1.925560 0.000000 -0.021310 
#    y 0.000000 1.756560 0.000000 
#    z -0.021310 0.000000 1.855330 
# 
# From -- ./inp_files/342609.got.cif
#   From: 2010.05.17/outbox.cif.g08.bks.cpg/sg12_172_cif.got.tgz:342609.got - 2010.06.03 13:09:07.
