data_PCOD9196106
_publ_section_title
;
Structure prediction by ZEFSAII (Michael W. Deem and Ramdas Pophale) SiO2 
 PCOD9196106
Probable space group: C 2/M
;
_chemical_formula_sum "Si O2"
_cell_formula_units_Z 64
_cell_length_a 19.349969
_cell_length_b 8.590481
_cell_length_c 25.549805
_cell_angle_alpha 90.000000
_cell_angle_beta 55.517256
_cell_angle_gamma 90.000000
_cell_volume 3500.813107
_symmetry_space_group_name_H-M "C 2/M"
_symmetry_group_IT_number 12
_symmetry_cell_setting 'monoclinic'
loop_
_space_group_symop_operation_xyz
x,y,z
-x,y,-z
-x,-y,-z
x,-y,z
1/2+x,1/2+y,z
1/2-x,1/2+y,-z
1/2-x,1/2-y,-z
1/2+x,1/2-y,z
loop_
_atom_site_type_symbol
_atom_site_label
_atom_site_fract_x
_atom_site_fract_y
_atom_site_fract_z
Si Si1 0.814063 0.313340 0.811454
Si Si2 0.410087 0.812740 0.560228
Si Si3 0.250194 0.685835 0.441544
Si Si4 0.469577 0.313212 0.810603
Si Si5 0.193399 0.813981 0.302208
Si Si6 0.853041 0.686403 0.303671
Si Si7 0.525015 0.310456 0.072192
Si Si8 0.366872 0.689562 0.071840
O O1 0.815849 0.500000 0.812897
O O2 0.893014 0.248247 0.809011
O O3 0.815190 0.260917 0.750777
O O4 0.726233 0.257662 0.874578
O O5 0.500000 0.762130 0.500000
O O6 0.337738 0.775634 0.549209
O O7 0.380897 0.737193 0.626996
O O8 0.411888 0.000000 0.566337
O O9 0.259294 0.500000 0.438236
O O10 0.250000 0.750000 0.500000
O O11 0.321684 0.757814 0.373880
O O12 0.468227 0.500000 0.811055
O O13 0.558185 0.256703 0.750018
O O14 0.462519 0.257742 0.873952
O O15 0.280214 0.764726 0.293690
O O16 0.194146 0.000000 0.297087
O O17 0.857755 0.500000 0.301049
O O18 0.525302 0.500000 0.072367
O O19 0.435360 0.262835 0.086125
O O20 0.596082 0.261026 0.000219
O O21 0.366243 0.500000 0.072131
#
# Coordination Sequence:
#
# PCOD9196106 Si02
#       8
#     8   8   8   8   8   8   8   8
#     4  11  22  35  53  78 110 146 182 221 269 323
#     4   9  19  36  57  80 106 139 178 218 262 314
#     4  10  20  35  56  81 110 143 180 223 270 319
#     4  11  22  35  53  79 110 143 180 224 274 323
#     4  10  21  37  57  80 107 140 180 225 269 317
#     4  10  21  38  58  79 106 141 182 227 274 325
#     4   8  15  30  53  79 105 135 177 225 268 317
#     4   8  15  30  53  79 104 136 179 222 266 319
#
# _framework density 18.281466999999999
#
# number of rings (size 3 to 8) (size 9 to 14) (size 15 to 20)
#    0.000    2.375    0.000    3.375    0.000    4.750 
#    0.000    3.750    0.000    2.250    0.000    8.750 
#    0.000    0.000    0.000    0.000    0.000    0.000 
#
# Total GULP energy -178627.439471 kJ/mol
# GULP energy per Si atom -5582.107483 kJ/mol
# Density = 1.823986 g / cm^3
# Si number density = 18.281467 Si / 1000 Ang^3
#
#
#
# Elastic Constant Matrix: (Units=GPa)
#
#
# Indices 1 2 3 4 5 6 
#
# 1 125.9300 37.5535 125.2999 0.0001 -1.0089 0.0003
# 2 37.5535 33.4877 44.5799 0.0002 0.6594 0.0006
# 3 125.2999 44.5799 184.5825 0.0000 -0.1232 0.0000
# 4 0.0001 0.0002 0.0000 14.1944 0.0000 0.9908
# 5 -1.0089 0.6594 -0.1232 0.0000 36.2755 0.0000
# 6 0.0003 0.0006 0.0000 0.9908 0.0000 18.0139
#
#
#
# Elastic Compliance Matrix: (Units=1/GPa)
#
#
# Indices 1 2 3 4 5 6 
#
# 1 0.025976 -0.008361 -0.015614 0.000000 0.000821 0.000000
# 2 -0.008361 0.046729 -0.005611 -0.000001 -0.001101 -0.000001
# 3 -0.015614 -0.005611 0.017372 0.000000 -0.000273 0.000000
# 4 0.000000 -0.000001 0.000000 0.070722 0.000000 -0.003890
# 5 0.000821 -0.001101 -0.000273 0.000000 0.027609 0.000000
# 6 0.000000 -0.000001 0.000000 -0.003890 0.000000 0.055727
#
#
# Mechanical properties :
#
#
# Convention : Reuss Voigt Hill
#
# Bulk Modulus (GPa) = 32.35641 84.31853 58.33747
# Shear Modulus (GPa) = 15.94354 22.80124 19.37239
#
# Velocity S-wave (km/s) = 2.95636 3.53545 3.25879
# Velocity P-wave (km/s) = 5.42134 7.93022 6.79262
#
# Compressibility (1/GPa) = 0.03090578
#
# Stress axis : x y z
#
# Youngs Moduli (GPa) = 38.49666 21.40005 57.56543
#
# Poissons Ratio (x) = 0.17893 0.89880
# Poissons Ratio (y) = 0.32187 0.32299
# Poissons Ratio (z) = 0.60107 0.12007
#
# Static dielectric constant tensor:
#      x y z
#    x 1.608720 0.000000 -0.003920 
#    y 0.000000 1.616380 0.000000 
#    z -0.003920 0.000000 1.609850 
# 
# From -- ./inp_files/345958.got.cif
#   From: 2010.05.17/outbox.cif.g08.bks.cpg/sg12_173_cif.got.tgz:345958.got - 2010.06.03 13:09:07.
