data_PCOD9196560
_publ_section_title
;
Structure prediction by ZEFSAII (Michael W. Deem and Ramdas Pophale) SiO2 
 PCOD9196560
Probable space group: C 2/M
;
_chemical_formula_sum "Si O2"
_cell_formula_units_Z 58
_cell_length_a 20.556464
_cell_length_b 7.274801
_cell_length_c 18.202611
_cell_angle_alpha 90.000000
_cell_angle_beta 116.400108
_cell_angle_gamma 90.000000
_cell_volume 2438.209886
_symmetry_space_group_name_H-M "C 2/M"
_symmetry_group_IT_number 12
_symmetry_cell_setting 'monoclinic'
loop_
_space_group_symop_operation_xyz
x,y,z
-x,y,-z
-x,-y,-z
x,-y,z
1/2+x,1/2+y,z
1/2-x,1/2+y,-z
1/2-x,1/2-y,-z
1/2+x,1/2-y,z
loop_
_atom_site_type_symbol
_atom_site_label
_atom_site_fract_x
_atom_site_fract_y
_atom_site_fract_z
Si Si1 0.078480 0.775648 0.067386
Si Si2 0.097179 0.778922 0.244718
Si Si3 0.006764 0.713220 0.681837
Si Si4 0.247593 0.721862 0.633039
Si Si5 0.896427 0.278061 0.502736
Si Si6 0.170099 0.275226 0.747516
Si Si7 0.225085 0.781442 0.070131
Si Si8 0.000000 0.000000 0.500000
O O1 0.094817 0.718441 0.159223
O O2 0.144402 0.714654 0.048711
O O3 0.077165 0.000000 0.066941
O O4 0.000000 0.715153 0.000000
O O5 0.025355 0.727753 0.253000
O O6 0.169697 0.711158 0.323168
O O7 0.100553 0.000000 0.245350
O O8 0.011728 0.500000 0.664097
O O9 0.943523 0.787857 0.596504
O O10 0.087273 0.789629 0.714433
O O11 0.251347 0.500000 0.632608
O O12 0.188470 0.773524 0.541676
O O13 0.210469 0.773139 0.692193
O O14 0.901352 0.500000 0.495372
O O15 0.937602 0.163377 0.461185
O O16 0.168224 0.500000 0.747142
O O17 0.217880 0.213233 0.840696
O O18 0.222632 0.000000 0.079456
O O19 0.250000 0.750000 0.000000
#
# Coordination Sequence:
#
# PCOD9196560 Si02
#       8
#     8   8   8   8   8   8   8   2
#     4   9  18  34  57  84 114 150 194 244 300 362
#     4  10  20  36  61  86 114 155 205 247 298 362
#     4  10  22  38  56  83 120 158 193 247 305 359
#     4   9  17  36  62  84 110 158 205 245 294 363
#     4  10  22  39  61  90 126 167 207 254 310 367
#     4   9  17  33  57  79 108 150 195 233 287 361
#     4  10  20  35  57  83 112 146 188 235 295 360
#     4  12  22  36  64  94 128 156 210 262 308 366
#
# _framework density 23.787942999999999
#
# number of rings (size 3 to 8) (size 9 to 14) (size 15 to 20)
#    0.000    2.345    1.379    1.034    2.897    2.759 
#    1.241    0.690    1.517    0.828    0.000    0.000 
#    0.000    0.000    0.000    0.000    0.000    0.000 
#
# Total GULP energy -161803.688346 kJ/mol
# GULP energy per Si atom -5579.437529 kJ/mol
# Density = 2.373380 g / cm^3
# Si number density = 23.787943 Si / 1000 Ang^3
#
#
#
# Elastic Constant Matrix: (Units=GPa)
#
#
# Indices 1 2 3 4 5 6 
#
# 1 151.3376 -4.5577 48.5564 0.0000 20.3729 0.0000
# 2 -4.5577 116.1661 -0.8885 0.0000 11.6617 0.0000
# 3 48.5564 -0.8885 93.0330 0.0000 22.4955 0.0000
# 4 0.0000 0.0000 0.0000 -9.8384 0.0000 -2.0628
# 5 20.3729 11.6617 22.4955 0.0000 38.2953 0.0000
# 6 0.0000 0.0000 0.0000 -2.0628 0.0000 -55.3163
#
#
#
# Elastic Compliance Matrix: (Units=1/GPa)
#
#
# Indices 1 2 3 4 5 6 
#
# 1 0.008113 0.000523 -0.003668 0.000000 -0.002321 0.000000
# 2 0.000523 0.008973 0.000630 0.000000 -0.003381 0.000000
# 3 -0.003668 0.000630 0.014271 0.000000 -0.006624 0.000000
# 4 0.000000 0.000000 0.000000 -0.102443 0.000000 0.003820
# 5 -0.002321 -0.003381 -0.006624 0.000000 0.032268 0.000000
# 6 0.000000 0.000000 0.000000 0.003820 0.000000 -0.018220
#
#
# Mechanical properties :
#
#
# Convention : Reuss Voigt Hill
#
# Bulk Modulus (GPa) = 37.98339 49.63966 43.81152
# Shear Modulus (GPa) = -115.65193 15.78987 -49.93103
#
# Velocity S-wave (km/s) = -6.98022 2.57918 -4.58646
# Velocity P-wave (km/s) = 6.99731 5.45733 3.09677
#
# Compressibility (1/GPa) = 0.02632730
#
# Stress axis : x y z
#
# Youngs Moduli (GPa) = 123.26171 111.44387 70.07215
#
# Poissons Ratio (x) = -0.05831 0.25704
# Poissons Ratio (y) = -0.06449 -0.04416
# Poissons Ratio (z) = 0.45215 -0.07023
#
# Static dielectric constant tensor:
#      x y z
#    x 1.904090 0.000000 -0.017940 
#    y 0.000000 1.948630 0.000000 
#    z -0.017940 0.000000 1.930440 
# 
# From -- ./inp_files/282216.got.cif
#   From: 2010.05.17/outbox.cif.g08.bks.cpg/sg12_142_cif.got.tgz:282216.got - 2010.06.03 13:09:07.
