data_PCOD9196758
_publ_section_title
;
Structure prediction by ZEFSAII (Michael W. Deem and Ramdas Pophale) SiO2 
 PCOD9196758
Probable space group: C 2/M
;
_chemical_formula_sum "Si O2"
_cell_formula_units_Z 64
_cell_length_a 11.541831
_cell_length_b 17.334370
_cell_length_c 31.894193
_cell_angle_alpha 90.000000
_cell_angle_beta 147.215184
_cell_angle_gamma 90.000000
_cell_volume 3455.263465
_symmetry_space_group_name_H-M "C 2/M"
_symmetry_group_IT_number 12
_symmetry_cell_setting 'monoclinic'
loop_
_space_group_symop_operation_xyz
x,y,z
-x,y,-z
-x,-y,-z
x,-y,z
1/2+x,1/2+y,z
1/2-x,1/2+y,-z
1/2-x,1/2-y,-z
1/2+x,1/2-y,z
loop_
_atom_site_type_symbol
_atom_site_label
_atom_site_fract_x
_atom_site_fract_y
_atom_site_fract_z
Si Si1 0.796468 0.914453 0.045937
Si Si2 0.534314 0.091783 0.175694
Si Si3 0.014393 0.911453 0.345941
Si Si4 0.986514 0.909048 0.192158
Si Si5 0.805715 0.588700 0.355008
Si Si6 0.403712 0.347241 0.925395
Si Si7 0.421195 0.820856 0.897968
Si Si8 0.353396 0.803997 0.495513
O O1 0.954589 0.901560 0.132950
O O2 0.936765 0.907907 0.047030
O O3 0.700567 0.000000 0.021029
O O4 0.609023 0.852616 0.985147
O O5 0.331013 0.117647 0.140816
O O6 0.530614 0.144463 0.133026
O O7 0.761949 0.104539 0.267733
O O8 0.522241 0.000000 0.161596
O O9 0.104635 0.908110 0.325850
O O10 0.159748 0.853146 0.416373
O O11 0.048293 0.000000 0.370666
O O12 0.800676 0.857946 0.155221
O O13 0.212584 0.887297 0.281567
O O14 0.953866 0.000000 0.192734
O O15 0.878390 0.500000 0.375209
O O16 0.986867 0.640290 0.430458
O O17 0.409318 0.270699 0.898646
O O18 0.500000 0.326618 0.000000
O O19 0.500000 0.773742 0.500000
O O20 0.250000 0.750000 0.500000
#
# Coordination Sequence:
#
# PCOD9196758 Si02
#       8
#     8   8   8   8   8   8   8   8
#     4  11  23  39  59  81 113 160 206 246 297 359
#     4  11  23  41  64  87 115 158 205 246 295 360
#     4   9  18  37  63  89 115 152 203 247 283 344
#     4  10  20  35  57  86 115 144 193 250 298 352
#     4   9  17  34  61  89 113 148 195 246 289 339
#     4  12  26  39  57  82 122 157 202 250 309 360
#     4  12  23  37  59  83 114 153 198 251 302 351
#     4  10  21  38  60  91 125 156 192 242 303 365
#
# _framework density 18.522465
#
# number of rings (size 3 to 8) (size 9 to 14) (size 15 to 20)
#    0.000    1.500    2.500    3.375    1.750    4.000 
#    0.000    0.000    0.000    3.000    0.000    0.000 
#    0.000    0.000    0.000    0.000    0.000    0.000 
#
# Total GULP energy -178576.336194 kJ/mol
# GULP energy per Si atom -5580.510506 kJ/mol
# Density = 1.848031 g / cm^3
# Si number density = 18.522465 Si / 1000 Ang^3
#
#
#
# Elastic Constant Matrix: (Units=GPa)
#
#
# Indices 1 2 3 4 5 6 
#
# 1 63.5885 35.0166 27.7375 -0.0003 7.5888 -0.0001
# 2 35.0166 69.8219 42.0943 -0.0003 -0.5002 -0.0001
# 3 27.7375 42.0943 103.9434 -0.0006 3.6507 -0.0001
# 4 -0.0003 -0.0003 -0.0006 89.8330 -0.0003 18.5877
# 5 7.5888 -0.5002 3.6507 -0.0003 29.9344 0.0000
# 6 -0.0001 -0.0001 -0.0001 18.5877 0.0000 25.2509
#
#
#
# Elastic Compliance Matrix: (Units=1/GPa)
#
#
# Indices 1 2 3 4 5 6 
#
# 1 0.022950 -0.010560 -0.001644 0.000000 -0.005794 0.000000
# 2 -0.010560 0.023855 -0.006980 0.000000 0.003927 0.000000
# 3 -0.001644 -0.006980 0.012931 0.000000 -0.001277 0.000000
# 4 0.000000 0.000000 0.000000 0.013132 0.000000 -0.009667
# 5 -0.005794 0.003927 -0.001277 0.000000 0.035097 0.000000
# 6 0.000000 0.000000 0.000000 -0.009667 0.000000 0.046718
#
#
# Mechanical properties :
#
#
# Convention : Reuss Voigt Hill
#
# Bulk Modulus (GPa) = 46.80244 49.67228 48.23736
# Shear Modulus (GPa) = 24.97829 37.83737 31.40783
#
# Velocity S-wave (km/s) = 3.67623 4.52462 4.12231
# Velocity P-wave (km/s) = 6.58349 7.36015 6.98263
#
# Compressibility (1/GPa) = 0.02136641
#
# Stress axis : x y z
#
# Youngs Moduli (GPa) = 43.57328 41.92064 77.33267
#
# Poissons Ratio (x) = 0.44268 0.12715
# Poissons Ratio (y) = 0.46013 0.53982
# Poissons Ratio (z) = 0.07165 0.29263
#
# Static dielectric constant tensor:
#      x y z
#    x 1.654020 0.000000 -0.019820 
#    y 0.000000 1.639790 0.000000 
#    z -0.019820 0.000000 1.637260 
# 
# From -- ./inp_files/358397.got.cif
#   From: 2010.05.17/outbox.cif.g08.bks.cpg/sg12_180_cif.got.tgz:358397.got - 2010.06.03 13:09:07.
