data_PCOD9196107
_publ_section_title
;
Structure prediction by ZEFSAII (Michael W. Deem and Ramdas Pophale) SiO2 
 PCOD9196107
Probable space group: C 2/M
;
_chemical_formula_sum "Si O2"
_cell_formula_units_Z 40
_cell_length_a 27.814686
_cell_length_b 7.386618
_cell_length_c 22.856961
_cell_angle_alpha 90.000000
_cell_angle_beta 159.735325
_cell_angle_gamma 90.000000
_cell_volume 1626.532281
_symmetry_space_group_name_H-M "C 2/M"
_symmetry_group_IT_number 12
_symmetry_cell_setting 'monoclinic'
loop_
_space_group_symop_operation_xyz
x,y,z
-x,y,-z
-x,-y,-z
x,-y,z
1/2+x,1/2+y,z
1/2-x,1/2+y,-z
1/2-x,1/2-y,-z
1/2+x,1/2-y,z
loop_
_atom_site_type_symbol
_atom_site_label
_atom_site_fract_x
_atom_site_fract_y
_atom_site_fract_z
Si Si1 0.109010 0.716470 0.804941
Si Si2 0.414017 0.216541 0.682790
Si Si3 0.024069 0.719711 0.931762
Si Si4 0.476265 0.204476 0.410145
Si Si5 0.218665 0.281132 0.255282
O O1 0.091509 0.500000 0.778227
O O2 0.984485 0.785980 0.703836
O O3 0.112830 0.790151 0.743228
O O4 0.250000 0.750000 0.000000
O O5 0.250000 0.250000 0.500000
O O6 0.495198 0.284431 0.833283
O O7 0.431986 0.000000 0.702966
O O8 0.027668 0.500000 0.934438
O O9 0.893238 0.769926 0.823359
O O10 0.158554 0.774656 0.122950
O O11 0.500000 0.294934 0.500000
O O12 0.631842 0.201263 0.561997
O O13 0.425612 0.000000 0.363737
O O14 0.228580 0.500000 0.267270
#
# Coordination Sequence:
#
# PCOD9196107 Si02
#       5
#     8   8   8   8   8
#     4  10  23  40  58  82 114 150 188 231 278 330
#     4  10  20  35  56  81 110 143 182 229 279 330
#     4   8  16  31  52  79 109 134 166 224 279 315
#     4  10  22  38  53  74 111 149 179 220 272 321
#     4   9  17  32  55  80 104 136 179 221 266 321
#
# _framework density 24.592196999999999
#
# number of rings (size 3 to 8) (size 9 to 14) (size 15 to 20)
#    0.000    2.600    0.000    2.400    2.800    2.000 
#    0.000    3.000    0.000    0.000    0.000    0.000 
#    0.000    0.000    0.000    0.000    0.000    0.000 
#
# Total GULP energy -111793.036781 kJ/mol
# GULP energy per Si atom -5589.651839 kJ/mol
# Density = 2.453622 g / cm^3
# Si number density = 24.592197 Si / 1000 Ang^3
#
#
#
# Elastic Constant Matrix: (Units=GPa)
#
#
# Indices 1 2 3 4 5 6 
#
# 1 140.9873 11.2368 45.7387 0.0000 -50.6128 0.0000
# 2 11.2368 96.2405 -5.1095 0.0000 -5.6378 0.0000
# 3 45.7387 -5.1095 102.8225 0.0000 -32.7495 0.0000
# 4 0.0000 0.0000 0.0000 17.5255 0.0000 8.9474
# 5 -50.6128 -5.6378 -32.7495 0.0000 58.1571 0.0000
# 6 0.0000 0.0000 0.0000 8.9474 0.0000 0.7274
#
#
#
# Elastic Compliance Matrix: (Units=1/GPa)
#
#
# Indices 1 2 3 4 5 6 
#
# 1 0.010783 -0.000912 -0.002292 0.000000 0.008005 0.000000
# 2 -0.000912 0.010617 0.001229 0.000000 0.000928 0.000000
# 3 -0.002292 0.001229 0.012440 0.000000 0.005129 0.000000
# 4 0.000000 0.000000 0.000000 -0.010808 0.000000 0.132933
# 5 0.008005 0.000928 0.005129 0.000000 0.027140 0.000000
# 6 0.000000 0.000000 0.000000 0.132933 0.000000 -0.260378
#
#
# Mechanical properties :
#
#
# Convention : Reuss Voigt Hill
#
# Bulk Modulus (GPa) = 33.45767 49.30914 41.38340
# Shear Modulus (GPa) = -25.47216 34.49429 4.51106
#
# Velocity S-wave (km/s) = -3.22185 3.74926 1.35585
# Velocity P-wave (km/s) = 0.45375 6.23192 4.39494
#
# Compressibility (1/GPa) = 0.02988852
#
# Stress axis : x y z
#
# Youngs Moduli (GPa) = 92.74044 94.19165 80.38616
#
# Poissons Ratio (x) = 0.08588 0.18427
# Poissons Ratio (y) = 0.08456 -0.09876
# Poissons Ratio (z) = 0.21259 -0.11572
#
# Static dielectric constant tensor:
#      x y z
#    x 2.019130 0.000000 -0.034760 
#    y 0.000000 1.895240 0.000000 
#    z -0.034760 0.000000 1.913780 
# 
# From -- ./inp_files/92814.got.cif
#   From: 2010.05.17/outbox.cif.g08.bks.cpg/sg12_47_cif.got.tgz:92814.got - 2010.06.03 13:09:07.
