data_PCOD9196826
_publ_section_title
;
Structure prediction by ZEFSAII (Michael W. Deem and Ramdas Pophale) SiO2 
 PCOD9196826
Probable space group: C 2/M
;
_chemical_formula_sum "Si O2"
_cell_formula_units_Z 64
_cell_length_a 25.126962
_cell_length_b 13.928898
_cell_length_c 15.900908
_cell_angle_alpha 90.000000
_cell_angle_beta 36.612912
_cell_angle_gamma 90.000000
_cell_volume 3319.101318
_symmetry_space_group_name_H-M "C 2/M"
_symmetry_group_IT_number 12
_symmetry_cell_setting 'monoclinic'
loop_
_space_group_symop_operation_xyz
x,y,z
-x,y,-z
-x,-y,-z
x,-y,z
1/2+x,1/2+y,z
1/2-x,1/2+y,-z
1/2-x,1/2-y,-z
1/2+x,1/2-y,z
loop_
_atom_site_type_symbol
_atom_site_label
_atom_site_fract_x
_atom_site_fract_y
_atom_site_fract_z
Si Si1 0.466180 0.110279 0.892590
Si Si2 0.335047 0.609084 0.008996
Si Si3 0.437955 0.725379 0.499934
Si Si4 0.268563 0.266478 0.614811
Si Si5 0.408725 0.768109 0.807240
Si Si6 0.587896 0.285981 0.935864
Si Si7 0.324103 0.888548 0.409062
Si Si8 0.632420 0.109477 0.305644
O O1 0.425905 0.156494 0.859251
O O2 0.573094 0.117162 0.750705
O O3 0.440609 0.000000 0.934520
O O4 0.430947 0.177238 0.010930
O O5 0.352992 0.500000 0.959264
O O6 0.342585 0.685248 0.923519
O O7 0.401637 0.649165 0.994668
O O8 0.239269 0.609671 0.176194
O O9 0.500000 0.686381 0.500000
O O10 0.338722 0.693725 0.595879
O O11 0.499259 0.719372 0.339988
O O12 0.415964 0.834577 0.557820
O O13 0.179349 0.220823 0.768273
O O14 0.312794 0.181326 0.503422
O O15 0.237634 0.347239 0.587418
O O16 0.381654 0.827331 0.759661
O O17 0.500000 0.320156 0.000000
O O18 0.304254 0.000000 0.453574
O O19 0.602531 0.000000 0.334890
#
# Coordination Sequence:
#
# PCOD9196826 Si02
#       8
#     8   8   8   8   8   8   8   8
#     4  10  20  35  57  88 116 147 189 238 298 355
#     4  10  22  38  58  82 112 156 202 234 278 341
#     4  10  21  36  59  88 116 155 190 237 297 347
#     4  11  21  40  60  85 125 151 192 243 292 354
#     4  10  20  36  57  84 120 151 185 240 298 344
#     4  11  22  37  57  84 116 154 185 238 293 341
#     4  10  22  37  62  90 115 154 197 242 298 348
#     4  10  20  35  59  91 116 146 190 242 298 350
#
# _framework density 19.282326999999999
#
# number of rings (size 3 to 8) (size 9 to 14) (size 15 to 20)
#    0.000    1.750    3.750    0.750    0.000    4.750 
#    0.000    1.875    0.000    6.750    0.000    0.000 
#    0.000    0.000    0.000    0.000    0.000    0.000 
#
# Total GULP energy -178349.536170 kJ/mol
# GULP energy per Si atom -5573.423005 kJ/mol
# Density = 1.923844 g / cm^3
# Si number density = 19.282327 Si / 1000 Ang^3
#
#
#
# Elastic Constant Matrix: (Units=GPa)
#
#
# Indices 1 2 3 4 5 6 
#
# 1 82.6350 16.4200 -2.7588 0.0000 -6.8315 0.0000
# 2 16.4200 83.2604 9.4407 0.0000 -2.2722 0.0000
# 3 -2.7588 9.4407 65.1930 0.0000 -5.3705 0.0000
# 4 0.0000 0.0000 0.0000 24.9933 0.0000 -4.5598
# 5 -6.8315 -2.2722 -5.3705 0.0000 25.2314 0.0000
# 6 0.0000 0.0000 0.0000 -4.5598 0.0000 11.6527
#
#
#
# Elastic Compliance Matrix: (Units=1/GPa)
#
#
# Indices 1 2 3 4 5 6 
#
# 1 0.012950 -0.002595 0.001215 0.000000 0.003531 0.000000
# 2 -0.002595 0.012745 -0.001953 0.000000 0.000029 0.000000
# 3 0.001215 -0.001953 0.015966 0.000000 0.003551 0.000000
# 4 0.000000 0.000000 0.000000 0.043087 0.000000 0.016860
# 5 0.003531 0.000029 0.003551 0.000000 0.041348 0.000000
# 6 0.000000 0.000000 0.000000 0.016860 0.000000 0.092414
#
#
# Mechanical properties :
#
#
# Convention : Reuss Voigt Hill
#
# Bulk Modulus (GPa) = 28.57713 30.81024 29.69369
# Shear Modulus (GPa) = 21.11130 26.24125 23.67628
#
# Velocity S-wave (km/s) = 3.31245 3.69303 3.50791
# Velocity P-wave (km/s) = 5.42976 5.84789 5.64270
#
# Compressibility (1/GPa) = 0.03499301
#
# Stress axis : x y z
#
# Youngs Moduli (GPa) = 77.22277 78.46493 62.63373
#
# Poissons Ratio (x) = 0.20363 -0.07608
# Poissons Ratio (y) = 0.20041 0.12232
# Poissons Ratio (z) = -0.09380 0.15324
#
# Static dielectric constant tensor:
#      x y z
#    x 1.730790 0.000000 -0.025670 
#    y 0.000000 1.646750 0.000000 
#    z -0.025670 0.000000 1.678270 
# 
# From -- ./inp_files/240659.got.cif
#   From: 2010.05.17/outbox.cif.g08.bks.cpg/sg12_121_cif.got.tgz:240659.got - 2010.06.03 13:09:07.
