data_PCOD9196371
_publ_section_title
;
Structure prediction by ZEFSAII (Michael W. Deem and Ramdas Pophale) SiO2 
 PCOD9196371
Probable space group: C 2/M
;
_chemical_formula_sum "Si O2"
_cell_formula_units_Z 56
_cell_length_a 12.172800
_cell_length_b 13.592351
_cell_length_c 17.348952
_cell_angle_alpha 90.000000
_cell_angle_beta 115.369388
_cell_angle_gamma 90.000000
_cell_volume 2593.685974
_symmetry_space_group_name_H-M "C 2/M"
_symmetry_group_IT_number 12
_symmetry_cell_setting 'monoclinic'
loop_
_space_group_symop_operation_xyz
x,y,z
-x,y,-z
-x,-y,-z
x,-y,z
1/2+x,1/2+y,z
1/2-x,1/2+y,-z
1/2-x,1/2-y,-z
1/2+x,1/2-y,z
loop_
_atom_site_type_symbol
_atom_site_label
_atom_site_fract_x
_atom_site_fract_y
_atom_site_fract_z
Si Si1 0.449886 0.381740 0.900558
Si Si2 0.139730 0.704228 0.567843
Si Si3 0.307235 0.117455 0.126173
Si Si4 0.453242 0.801423 0.301699
Si Si5 0.640605 0.119051 0.030611
Si Si6 0.787689 0.383650 0.564020
Si Si7 0.616554 0.617881 0.806144
O O1 0.450677 0.500000 0.895779
O O2 0.311520 0.347603 0.863244
O O3 0.532662 0.351949 0.854163
O O4 0.500000 0.358264 0.000000
O O5 0.137555 0.670702 0.655596
O O6 0.213149 0.638730 0.528338
O O7 0.185326 0.815821 0.571602
O O8 0.000000 0.699122 0.500000
O O9 0.420242 0.145940 0.212241
O O10 0.298145 0.000000 0.118479
O O11 0.316298 0.152751 0.041167
O O12 0.586465 0.836325 0.366815
O O13 0.431168 0.685953 0.277469
O O14 0.744718 0.140524 0.125260
O O15 0.638622 0.000000 0.027904
O O16 0.500000 0.149141 0.000000
O O17 0.781568 0.500000 0.576662
O O18 0.607028 0.500000 0.789981
#
# Coordination Sequence:
#
# PCOD9196371 Si02
#       7
#     8   8   8   8   8   8   8
#     4   9  16  33  58  77 108 158 212 266 310 355
#     4   9  22  44  66  95 128 160 204 246 300 379
#     4  10  20  35  56  85 117 158 211 262 311 359
#     4  11  24  37  60  94 128 156 202 252 310 374
#     4   9  18  35  56  80 119 169 216 260 313 372
#     4  10  22  44  71  95 126 164 199 246 308 374
#     4  10  21  38  57  83 121 167 212 260 315 363
#
# _framework density 21.590895
#
# number of rings (size 3 to 8) (size 9 to 14) (size 15 to 20)
#    0.000    2.286    1.429    0.429    2.000    5.714 
#    0.000    7.143    0.000    0.000    0.000    0.000 
#    0.000    0.000    0.000    0.000    0.000    0.000 
#
# Total GULP energy -156243.126768 kJ/mol
# GULP energy per Si atom -5580.111670 kJ/mol
# Density = 2.154175 g / cm^3
# Si number density = 21.590895 Si / 1000 Ang^3
#
#
#
# Elastic Constant Matrix: (Units=GPa)
#
#
# Indices 1 2 3 4 5 6 
#
# 1 35.9977 9.7884 -12.5008 0.0000 -6.3552 0.0000
# 2 9.7884 76.1446 4.3374 0.0000 2.4507 0.0000
# 3 -12.5008 4.3374 50.8375 0.0000 -3.6086 0.0000
# 4 0.0000 0.0000 0.0000 40.4363 0.0000 7.3331
# 5 -6.3552 2.4507 -3.6086 0.0000 14.0548 0.0000
# 6 0.0000 0.0000 0.0000 7.3331 0.0000 11.4472
#
#
#
# Elastic Compliance Matrix: (Units=1/GPa)
#
#
# Indices 1 2 3 4 5 6 
#
# 1 0.036886 -0.006033 0.011045 0.000000 0.020567 0.000000
# 2 -0.006033 0.014280 -0.003129 0.000000 -0.006021 0.000000
# 3 0.011045 -0.003129 0.023474 0.000000 0.011567 0.000000
# 4 0.000000 0.000000 0.000000 0.027981 0.000000 -0.017925
# 5 0.020567 -0.006021 0.011567 0.000000 0.084470 0.000000
# 6 0.000000 0.000000 0.000000 -0.017925 0.000000 0.098840
#
#
# Mechanical properties :
#
#
# Convention : Reuss Voigt Hill
#
# Bulk Modulus (GPa) = 12.75399 18.46999 15.61199
# Shear Modulus (GPa) = 16.21785 23.94464 20.08124
#
# Velocity S-wave (km/s) = 2.74367 3.33380 3.05303
# Velocity P-wave (km/s) = 3.99461 4.83654 4.43559
#
# Compressibility (1/GPa) = 0.07840686
#
# Stress axis : x y z
#
# Youngs Moduli (GPa) = 27.11023 70.02569 42.59953
#
# Poissons Ratio (x) = 0.42245 -0.47051
# Poissons Ratio (y) = 0.16355 0.13330
# Poissons Ratio (z) = -0.29943 0.21913
#
# Static dielectric constant tensor:
#      x y z
#    x 1.955280 0.000000 0.123150 
#    y 0.000000 1.809300 0.000000 
#    z 0.123150 0.000000 1.882860 
# 
# From -- ./inp_files/262960.got.cif
#   From: 2010.05.17/outbox.cif.g08.bks.cpg/sg12_132_cif.got.tgz:262960.got - 2010.06.03 13:09:07.
