data_PCOD9196089
_publ_section_title
;
Structure prediction by ZEFSAII (Michael W. Deem and Ramdas Pophale) SiO2 
 PCOD9196089
Probable space group: C 2/M
;
_chemical_formula_sum "Si O2"
_cell_formula_units_Z 40
_cell_length_a 16.093257
_cell_length_b 8.896383
_cell_length_c 12.703748
_cell_angle_alpha 90.000000
_cell_angle_beta 70.350252
_cell_angle_gamma 90.000000
_cell_volume 1712.900832
_symmetry_space_group_name_H-M "C 2/M"
_symmetry_group_IT_number 12
_symmetry_cell_setting 'monoclinic'
loop_
_space_group_symop_operation_xyz
x,y,z
-x,y,-z
-x,-y,-z
x,-y,z
1/2+x,1/2+y,z
1/2-x,1/2+y,-z
1/2-x,1/2-y,-z
1/2+x,1/2-y,z
loop_
_atom_site_type_symbol
_atom_site_label
_atom_site_fract_x
_atom_site_fract_y
_atom_site_fract_z
Si Si1 0.792045 0.318414 0.132867
Si Si2 0.566027 0.322075 0.069517
Si Si3 0.627476 0.672482 0.464303
Si Si4 0.399684 0.821073 0.738526
Si Si5 0.659030 0.173019 0.661201
O O1 0.785074 0.500000 0.129312
O O2 0.843680 0.250039 0.013046
O O3 0.696960 0.246031 0.192327
O O4 0.847657 0.279857 0.214899
O O5 0.575866 0.500000 0.083595
O O6 0.500000 0.299630 0.000000
O O7 0.542543 0.242795 0.189707
O O8 0.601346 0.500000 0.466751
O O9 0.584354 0.764111 0.387022
O O10 0.614992 0.733579 0.587095
O O11 0.734270 0.678309 0.402498
O O12 0.399176 0.000000 0.740860
O O13 0.630979 0.000000 0.662201
#
# Coordination Sequence:
#
# PCOD9196089 Si02
#       5
#     8   8   8   8   8
#     4  10  20  35  56  81 109 139 175 217 259 309
#     4  11  24  40  56  75 103 138 176 219 267 317
#     4   9  16  27  46  74 107 138 170 210 256 306
#     4  11  21  34  55  80 108 140 176 217 260 309
#     4   8  15  27  45  73 106 137 168 206 254 306
#
# _framework density 23.3522
#
# number of rings (size 3 to 8) (size 9 to 14) (size 15 to 20)
#    0.000    2.200    0.000    5.400    0.000    7.200 
#    0.000    0.000    0.000    1.200    0.000    8.400 
#    0.000    0.000    0.000    0.000    0.000    0.000 
#
# Total GULP energy -111892.912429 kJ/mol
# GULP energy per Si atom -5594.645621 kJ/mol
# Density = 2.329905 g / cm^3
# Si number density = 23.352200 Si / 1000 Ang^3
#
#
#
# Elastic Constant Matrix: (Units=GPa)
#
#
# Indices 1 2 3 4 5 6 
#
# 1 86.8544 28.8169 30.0521 0.0000 17.9062 0.0000
# 2 28.8169 127.7713 94.3561 0.0000 35.1331 0.0000
# 3 30.0521 94.3561 196.3106 0.0000 24.6777 0.0000
# 4 0.0000 0.0000 0.0000 45.3264 0.0000 14.5095
# 5 17.9062 35.1331 24.6777 0.0000 40.8510 0.0000
# 6 0.0000 0.0000 0.0000 14.5095 0.0000 3.2258
#
#
#
# Elastic Compliance Matrix: (Units=1/GPa)
#
#
# Indices 1 2 3 4 5 6 
#
# 1 0.013073 -0.001087 -0.000948 0.000000 -0.004222 0.000000
# 2 -0.001087 0.014781 -0.005844 0.000000 -0.008705 0.000000
# 3 -0.000948 -0.005844 0.007969 0.000000 0.000627 0.000000
# 4 0.000000 0.000000 0.000000 -0.050160 0.000000 0.225616
# 5 -0.004222 -0.008705 0.000627 0.000000 0.033438 0.000000
# 6 0.000000 0.000000 0.000000 0.225616 0.000000 -0.704805
#
#
# Mechanical properties :
#
#
# Convention : Reuss Voigt Hill
#
# Bulk Modulus (GPa) = 49.83828 79.70962 64.77395
# Shear Modulus (GPa) = -7.53853 35.06139 13.76143
#
# Velocity S-wave (km/s) = -1.79867 3.87902 2.43018
# Velocity P-wave (km/s) = 4.13216 7.36683 5.97264
#
# Compressibility (1/GPa) = 0.02006490
#
# Stress axis : x y z
#
# Youngs Moduli (GPa) = 76.49501 67.65587 125.48781
#
# Poissons Ratio (x) = 0.07357 0.11894
# Poissons Ratio (y) = 0.08318 0.73329
# Poissons Ratio (z) = 0.07250 0.39535
#
# Static dielectric constant tensor:
#      x y z
#    x 1.961170 0.000000 0.027840 
#    y 0.000000 1.770080 0.000000 
#    z 0.027840 0.000000 1.872090 
# 
# From -- ./inp_files/151844.got.cif
#   From: 2010.05.17/outbox.cif.g08.bks.cpg/sg12_76_cif.got.tgz:151844.got - 2010.06.03 13:09:07.
