data_PCOD9196384
_publ_section_title
;
Structure prediction by ZEFSAII (Michael W. Deem and Ramdas Pophale) SiO2 
 PCOD9196384
Probable space group: C 2/M
;
_chemical_formula_sum "Si O2"
_cell_formula_units_Z 56
_cell_length_a 17.151706
_cell_length_b 12.746846
_cell_length_c 11.959259
_cell_angle_alpha 90.000000
_cell_angle_beta 93.344042
_cell_angle_gamma 90.000000
_cell_volume 2610.202607
_symmetry_space_group_name_H-M "C 2/M"
_symmetry_group_IT_number 12
_symmetry_cell_setting 'monoclinic'
loop_
_space_group_symop_operation_xyz
x,y,z
-x,y,-z
-x,-y,-z
x,-y,z
1/2+x,1/2+y,z
1/2-x,1/2+y,-z
1/2-x,1/2-y,-z
1/2+x,1/2-y,z
loop_
_atom_site_type_symbol
_atom_site_label
_atom_site_fract_x
_atom_site_fract_y
_atom_site_fract_z
Si Si1 0.084844 0.119437 0.948316
Si Si2 0.364398 0.789367 0.227279
Si Si3 0.808321 0.829205 0.837056
Si Si4 0.504748 0.833763 0.369702
Si Si5 0.334866 0.113551 0.728319
Si Si6 0.913792 0.116790 0.635273
Si Si7 0.316208 0.380940 0.405120
O O1 0.098194 0.215087 0.864559
O O2 0.088269 0.000000 0.901252
O O3 0.152850 0.132204 0.046208
O O4 0.000000 0.129624 0.000000
O O5 0.284538 0.845419 0.181974
O O6 0.428861 0.860946 0.291588
O O7 0.342906 0.707324 0.322888
O O8 0.819415 0.704423 0.816229
O O9 0.860946 0.876651 0.741689
O O10 0.500000 0.861316 0.500000
O O11 0.579412 0.879960 0.314042
O O12 0.521822 0.707567 0.363220
O O13 0.277203 0.125664 0.616744
O O14 0.318757 0.000000 0.777432
O O15 0.853925 0.136081 0.528417
O O16 0.947539 0.000000 0.628001
O O17 0.338009 0.500000 0.373450
#
# Coordination Sequence:
#
# PCOD9196384 Si02
#       7
#     8   8   8   8   8   8   8
#     4  11  23  41  65  90 119 152 191 243 304 362
#     4  11  22  37  57  86 122 156 195 241 291 347
#     4  10  22  38  62  84 115 154 199 244 291 349
#     4  11  22  34  55  85 122 161 196 237 287 350
#     4   9  20  37  56  78 110 154 204 243 286 339
#     4  10  20  35  56  85 121 153 192 244 297 352
#     4   9  18  33  56  83 110 151 196 242 295 344
#
# _framework density 21.454273000000001
#
# number of rings (size 3 to 8) (size 9 to 14) (size 15 to 20)
#    0.000    1.857    1.429    3.000    2.000    5.143 
#    0.000    1.429    0.000    3.857    0.000    0.000 
#    0.000    0.000    0.000    0.000    0.000    0.000 
#
# Total GULP energy -156403.471286 kJ/mol
# GULP energy per Si atom -5585.838260 kJ/mol
# Density = 2.140544 g / cm^3
# Si number density = 21.454273 Si / 1000 Ang^3
#
#
#
# Elastic Constant Matrix: (Units=GPa)
#
#
# Indices 1 2 3 4 5 6 
#
# 1 129.3301 -5.0288 19.3346 0.0000 25.6956 0.0000
# 2 -5.0288 60.5732 -10.6759 0.0000 8.6476 0.0000
# 3 19.3346 -10.6759 66.8114 0.0000 13.6765 0.0000
# 4 0.0000 0.0000 0.0000 10.8003 0.0000 16.9762
# 5 25.6956 8.6476 13.6765 0.0000 29.5540 0.0000
# 6 0.0000 0.0000 0.0000 16.9762 0.0000 5.8942
#
#
#
# Elastic Compliance Matrix: (Units=1/GPa)
#
#
# Indices 1 2 3 4 5 6 
#
# 1 0.009620 0.001897 -0.000724 0.000000 -0.008584 0.000000
# 2 0.001897 0.018729 0.004312 0.000000 -0.009124 0.000000
# 3 -0.000724 0.004312 0.017669 0.000000 -0.008809 0.000000
# 4 0.000000 0.000000 0.000000 -0.026251 0.000000 0.075607
# 5 -0.008584 -0.009124 -0.008809 0.000000 0.048046 0.000000
# 6 0.000000 0.000000 0.000000 0.075607 0.000000 -0.048101
#
#
# Mechanical properties :
#
#
# Convention : Reuss Voigt Hill
#
# Bulk Modulus (GPa) = 17.54796 29.33050 23.43923
# Shear Modulus (GPa) = 180.26173 26.12202 103.19187
#
# Velocity S-wave (km/s) = 9.17626 3.49315 6.94283
# Velocity P-wave (km/s) = 10.97582 5.47452 8.67292
#
# Compressibility (1/GPa) = 0.05698669
#
# Stress axis : x y z
#
# Youngs Moduli (GPa) = 103.95544 53.39330 56.59592
#
# Poissons Ratio (x) = -0.10126 0.04095
# Poissons Ratio (y) = -0.19715 -0.24402
# Poissons Ratio (z) = 0.07523 -0.23021
#
# Static dielectric constant tensor:
#      x y z
#    x 1.810300 0.000000 0.022040 
#    y 0.000000 1.828490 0.000000 
#    z 0.022040 0.000000 1.753230 
# 
# From -- ./inp_files/143702.got.cif
#   From: 2010.05.17/outbox.cif.g08.bks.cpg/sg12_72_cif.got.tgz:143702.got - 2010.06.03 13:09:07.
