data_PCOD9196625
_publ_section_title
;
Structure prediction by ZEFSAII (Michael W. Deem and Ramdas Pophale) SiO2 
 PCOD9196625
Probable space group: C 2/M
;
_chemical_formula_sum "Si O2"
_cell_formula_units_Z 64
_cell_length_a 19.185181
_cell_length_b 7.870484
_cell_length_c 20.452971
_cell_angle_alpha 90.000000
_cell_angle_beta 95.774786
_cell_angle_gamma 90.000000
_cell_volume 3072.657293
_symmetry_space_group_name_H-M "C 2/M"
_symmetry_group_IT_number 12
_symmetry_cell_setting 'monoclinic'
loop_
_space_group_symop_operation_xyz
x,y,z
-x,y,-z
-x,-y,-z
x,-y,z
1/2+x,1/2+y,z
1/2-x,1/2+y,-z
1/2-x,1/2-y,-z
1/2+x,1/2-y,z
loop_
_atom_site_type_symbol
_atom_site_label
_atom_site_fract_x
_atom_site_fract_y
_atom_site_fract_z
Si Si1 0.023486 0.197852 0.072496
Si Si2 0.079580 0.791289 0.521217
Si Si3 0.339847 0.797989 0.852094
Si Si4 0.175930 0.803248 0.411140
Si Si5 0.450326 0.802214 0.197566
Si Si6 0.914547 0.703128 0.719397
Si Si7 0.681613 0.699525 0.638309
Si Si8 0.299489 0.301735 0.215223
O O1 0.106476 0.213763 0.092821
O O2 0.986228 0.286858 0.130192
O O3 0.003464 0.000000 0.073869
O O4 0.000000 0.265626 0.000000
O O5 0.132671 0.736209 0.468917
O O6 0.114748 0.732719 0.592354
O O7 0.000000 0.736552 0.500000
O O8 0.079104 0.000000 0.520741
O O9 0.370877 0.771544 0.781955
O O10 0.260672 0.732129 0.838027
O O11 0.342154 0.000000 0.866441
O O12 0.123924 0.788435 0.344428
O O13 0.248616 0.715114 0.398947
O O14 0.192747 0.000000 0.424997
O O15 0.507093 0.736926 0.255774
O O16 0.376640 0.710620 0.193795
O O17 0.438126 0.000000 0.210407
O O18 0.916144 0.500000 0.707634
O O19 0.667402 0.500000 0.647303
O O20 0.697377 0.774845 0.711329
O O21 0.279379 0.500000 0.221406
#
# Coordination Sequence:
#
# PCOD9196625 Si02
#       8
#     8   8   8   8   8   8   8   8
#     4  10  21  38  61  88 116 148 187 225 265 321
#     4   9  20  36  53  76 105 140 186 233 279 334
#     4   9  18  35  57  83 113 146 186 225 269 327
#     4  11  21  32  54  82 105 136 186 236 274 330
#     4  10  22  37  56  83 116 149 184 227 275 326
#     4   9  18  35  54  76 108 145 181 221 276 332
#     4  10  20  37  58  75 106 150 182 225 284 336
#     4  10  20  35  57  84 112 146 186 229 282 333
#
# _framework density 20.828876000000001
#
# number of rings (size 3 to 8) (size 9 to 14) (size 15 to 20)
#    0.000    2.250    1.250    2.250    1.750    4.500 
#    0.000    1.250    0.000    1.875    0.000    0.000 
#    0.000    0.000    0.000    0.000    0.000    0.000 
#
# Total GULP energy -178611.278070 kJ/mol
# GULP energy per Si atom -5581.602440 kJ/mol
# Density = 2.078147 g / cm^3
# Si number density = 20.828876 Si / 1000 Ang^3
#
#
#
# Elastic Constant Matrix: (Units=GPa)
#
#
# Indices 1 2 3 4 5 6 
#
# 1 130.4389 -8.7172 38.7389 0.0000 26.9839 0.0000
# 2 -8.7172 19.5205 -1.9663 0.0000 4.2250 0.0000
# 3 38.7389 -1.9663 75.3926 0.0000 30.0297 0.0000
# 4 0.0000 0.0000 0.0000 7.4574 0.0000 -9.2869
# 5 26.9839 4.2250 30.0297 0.0000 28.7792 0.0000
# 6 0.0000 0.0000 0.0000 -9.2869 0.0000 14.8685
#
#
#
# Elastic Compliance Matrix: (Units=1/GPa)
#
#
# Indices 1 2 3 4 5 6 
#
# 1 0.010451 0.006480 -0.001573 0.000000 -0.009109 0.000000
# 2 0.006480 0.059642 0.007073 0.000000 -0.022213 0.000000
# 3 -0.001573 0.007073 0.024099 0.000000 -0.024710 0.000000
# 4 0.000000 0.000000 0.000000 0.603577 0.000000 0.376995
# 5 -0.009109 -0.022213 -0.024710 0.000000 0.072333 0.000000
# 6 0.000000 0.000000 0.000000 0.376995 0.000000 0.302728
#
#
# Mechanical properties :
#
#
# Convention : Reuss Voigt Hill
#
# Bulk Modulus (GPa) = 8.46356 31.27365 19.86860
# Shear Modulus (GPa) = 4.59452 23.37413 13.98432
#
# Velocity S-wave (km/s) = 1.48682 3.35356 2.59393
# Velocity P-wave (km/s) = 2.64947 5.48108 4.30476
#
# Compressibility (1/GPa) = 0.11815362
#
# Stress axis : x y z
#
# Youngs Moduli (GPa) = 95.68444 16.76667 41.49625
#
# Poissons Ratio (x) = -0.10865 0.06526
# Poissons Ratio (y) = -0.62006 -0.29352
# Poissons Ratio (z) = 0.15048 -0.11860
#
# Static dielectric constant tensor:
#      x y z
#    x 1.752320 0.000000 0.026650 
#    y 0.000000 1.759810 0.000000 
#    z 0.026650 0.000000 1.741850 
# 
# From -- ./inp_files/314122.got.cif
#   From: 2010.05.17/outbox.cif.g08.bks.cpg/sg12_158_cif.got.tgz:314122.got - 2010.06.03 13:09:07.
