data_PCOD9196760
_publ_section_title
;
Structure prediction by ZEFSAII (Michael W. Deem and Ramdas Pophale) SiO2 
 PCOD9196760
Probable space group: C 2/M
;
_chemical_formula_sum "Si O2"
_cell_formula_units_Z 64
_cell_length_a 24.454879
_cell_length_b 8.754497
_cell_length_c 15.559111
_cell_angle_alpha 90.000000
_cell_angle_beta 79.203944
_cell_angle_gamma 90.000000
_cell_volume 3272.093497
_symmetry_space_group_name_H-M "C 2/M"
_symmetry_group_IT_number 12
_symmetry_cell_setting 'monoclinic'
loop_
_space_group_symop_operation_xyz
x,y,z
-x,y,-z
-x,-y,-z
x,-y,z
1/2+x,1/2+y,z
1/2-x,1/2+y,-z
1/2-x,1/2-y,-z
1/2+x,1/2-y,z
loop_
_atom_site_type_symbol
_atom_site_label
_atom_site_fract_x
_atom_site_fract_y
_atom_site_fract_z
Si Si1 0.720431 0.183891 0.735712
Si Si2 0.562801 0.686536 0.509347
Si Si3 0.925154 0.816893 0.958434
Si Si4 0.364859 0.167971 0.824608
Si Si5 0.152388 0.817638 0.342499
Si Si6 0.237936 0.170871 0.910614
Si Si7 0.612808 0.314424 0.679326
Si Si8 0.049013 0.814646 0.866251
O O1 0.782478 0.231168 0.682911
O O2 0.709688 0.242958 0.837423
O O3 0.673314 0.248101 0.685589
O O4 0.719122 0.000000 0.738278
O O5 0.500000 0.735546 0.500000
O O6 0.561596 0.500000 0.507582
O O7 0.611763 0.738618 0.429891
O O8 0.583715 0.730477 0.598445
O O9 0.882284 0.746414 0.906852
O O10 0.985657 0.771315 0.904449
O O11 0.922947 0.000000 0.957406
O O12 0.918205 0.765006 0.058243
O O13 0.376159 0.269511 0.738460
O O14 0.299129 0.153509 0.853019
O O15 0.390007 0.000000 0.808213
O O16 0.153947 0.000000 0.348062
O O17 0.213354 0.000000 0.931082
O O18 0.250000 0.250000 0.000000
O O19 0.616958 0.500000 0.678476
O O20 0.573685 0.262835 0.769709
O O21 0.050226 0.000000 0.864713
#
# Coordination Sequence:
#
# PCOD9196760 Si02
#       8
#     8   8   8   8   8   8   8   8
#     4  10  21  37  55  80 114 152 194 231 278 341
#     4   9  19  35  60  91 114 138 185 243 290 335
#     4   9  17  32  53  76 105 144 189 227 267 327
#     4  10  21  34  51  80 111 143 181 226 280 332
#     4   9  19  37  59  81 108 147 191 233 276 333
#     4  10  21  36  54  79 113 149 189 234 281 329
#     4  10  20  35  57  86 115 146 187 239 291 334
#     4   8  17  32  51  78 107 140 185 230 269 323
#
# _framework density 19.559342999999998
#
# number of rings (size 3 to 8) (size 9 to 14) (size 15 to 20)
#    0.000    2.625    0.000    1.875    3.500    2.500 
#    0.000    2.500    0.000    0.750    0.000    0.000 
#    0.000    0.000    0.000    0.000    0.000    0.000 
#
# Total GULP energy -178195.383890 kJ/mol
# GULP energy per Si atom -5568.605747 kJ/mol
# Density = 1.951482 g / cm^3
# Si number density = 19.559343 Si / 1000 Ang^3
#
#
#
# Elastic Constant Matrix: (Units=GPa)
#
#
# Indices 1 2 3 4 5 6 
#
# 1 67.3614 45.8750 45.6792 0.0000 5.3473 0.0000
# 2 45.8750 9.9464 34.1859 0.0000 5.2519 0.0000
# 3 45.6792 34.1859 124.4299 0.0000 1.8028 0.0000
# 4 0.0000 0.0000 0.0000 0.9452 0.0000 5.3576
# 5 5.3473 5.2519 1.8028 0.0000 36.8175 0.0000
# 6 0.0000 0.0000 0.0000 5.3576 0.0000 20.6202
#
#
#
# Elastic Compliance Matrix: (Units=1/GPa)
#
#
# Indices 1 2 3 4 5 6 
#
# 1 0.000057 0.030477 -0.008337 0.000000 -0.003947 0.000000
# 2 0.030477 -0.046568 0.001575 0.000000 0.002139 0.000000
# 3 -0.008337 0.001575 0.010658 0.000000 0.000464 0.000000
# 4 0.000000 0.000000 0.000000 -2.237997 0.000000 0.581483
# 5 -0.003947 0.002139 0.000464 0.000000 0.027406 0.000000
# 6 0.000000 0.000000 0.000000 0.581483 0.000000 -0.102586
#
#
# Mechanical properties :
#
#
# Convention : Reuss Voigt Hill
#
# Bulk Modulus (GPa) = 86.38905 50.35754 68.37329
# Shear Modulus (GPa) = -2.08977 16.74308 7.32665
#
# Velocity S-wave (km/s) = -1.03477 2.92895 1.93752
# Velocity P-wave (km/s) = 6.54491 6.10248 6.32756
#
# Compressibility (1/GPa) = 0.01157554
#
# Stress axis : x y z
#
# Youngs Moduli (GPa) = 17669.92784 -21.47378 93.82910
#
# Poissons Ratio (x) = 0.65445 0.78223
# Poissons Ratio (y) = -538.51771 -0.14778
# Poissons Ratio (z) = 147.30896 0.03382
#
# Static dielectric constant tensor:
#      x y z
#    x 1.740500 0.000000 -0.010380 
#    y 0.000000 1.700300 0.000000 
#    z -0.010380 0.000000 1.686470 
# 
# From -- ./inp_files/238798.got.cif
#   From: 2010.05.17/outbox.cif.g08.bks.cpg/sg12_120_cif.got.tgz:238798.got - 2010.06.03 13:09:07.
