data_PCOD9196061
_publ_section_title
;
Structure prediction by ZEFSAII (Michael W. Deem and Ramdas Pophale) SiO2 
 PCOD9196061
Probable space group: C 2/M
;
_chemical_formula_sum "Si O2"
_cell_formula_units_Z 48
_cell_length_a 14.925632
_cell_length_b 7.577088
_cell_length_c 19.356301
_cell_angle_alpha 90.000000
_cell_angle_beta 123.197494
_cell_angle_gamma 90.000000
_cell_volume 1831.778711
_symmetry_space_group_name_H-M "C 2/M"
_symmetry_group_IT_number 12
_symmetry_cell_setting 'monoclinic'
loop_
_space_group_symop_operation_xyz
x,y,z
-x,y,-z
-x,-y,-z
x,-y,z
1/2+x,1/2+y,z
1/2-x,1/2+y,-z
1/2-x,1/2-y,-z
1/2+x,1/2-y,z
loop_
_atom_site_type_symbol
_atom_site_label
_atom_site_fract_x
_atom_site_fract_y
_atom_site_fract_z
Si Si1 0.460073 0.704758 0.699994
Si Si2 0.086702 0.701662 0.623128
Si Si3 0.766649 0.287317 0.426930
Si Si4 0.289714 0.214416 0.800889
Si Si5 0.657806 0.288441 0.872411
Si Si6 0.516165 0.210774 0.929760
O O1 0.451847 0.500000 0.715441
O O2 0.502030 0.710555 0.638426
O O3 0.342259 0.784582 0.654130
O O4 0.555072 0.783521 0.785763
O O5 0.050280 0.500000 0.599622
O O6 0.126143 0.776565 0.566203
O O7 0.199118 0.707068 0.713473
O O8 0.768771 0.500000 0.420045
O O9 0.750000 0.250000 0.500000
O O10 0.256976 0.263381 0.866207
O O11 0.411841 0.272796 0.842628
O O12 0.281878 0.000000 0.791198
O O13 0.658518 0.500000 0.870372
O O14 0.627542 0.243223 0.937874
O O15 0.506171 0.000000 0.929843
O O16 0.500000 0.281139 0.000000
#
# Coordination Sequence:
#
# PCOD9196061 Si02
#       6
#     8   8   8   8   8   8
#     4   9  19  37  57  77 104 138 172 210 260 311
#     4  10  20  35  56  81 104 130 172 221 258 296
#     4  10  22  37  53  76 108 142 173 209 256 308
#     4   9  19  36  55  75 103 138 171 208 259 311
#     4   9  18  34  55  76 100 133 173 213 254 304
#     4  10  21  35  51  75 107 139 171 210 256 305
#
# _framework density 26.204037
#
# number of rings (size 3 to 8) (size 9 to 14) (size 15 to 20)
#    0.000    2.500    0.000    2.500    0.000    8.333 
#    0.000    3.333    0.000    0.000    0.000    0.000 
#    0.000    0.000    0.000    0.000    0.000    0.000 
#
# Total GULP energy -134141.476694 kJ/mol
# GULP energy per Si atom -5589.228196 kJ/mol
# Density = 2.614440 g / cm^3
# Si number density = 26.204037 Si / 1000 Ang^3
#
#
#
# Elastic Constant Matrix: (Units=GPa)
#
#
# Indices 1 2 3 4 5 6 
#
# 1 160.0414 0.2968 13.9076 0.0000 -20.8966 0.0000
# 2 0.2968 72.1286 -4.6850 0.0000 0.8881 0.0000
# 3 13.9076 -4.6850 62.6921 0.0000 -21.0600 0.0000
# 4 0.0000 0.0000 0.0000 15.1564 0.0000 -13.3647
# 5 -20.8966 0.8881 -21.0600 0.0000 53.8136 0.0000
# 6 0.0000 0.0000 0.0000 -13.3647 0.0000 20.5534
#
#
#
# Elastic Compliance Matrix: (Units=1/GPa)
#
#
# Indices 1 2 3 4 5 6 
#
# 1 0.006609 -0.000101 -0.000704 0.000000 0.002293 0.000000
# 2 -0.000101 0.013935 0.001121 0.000000 0.000169 0.000000
# 3 -0.000704 0.001121 0.018529 0.000000 0.006960 0.000000
# 4 0.000000 0.000000 0.000000 0.154652 0.000000 0.100561
# 5 0.002293 0.000169 0.006960 0.000000 0.022194 0.000000
# 6 0.000000 0.000000 0.000000 0.100561 0.000000 0.114043
#
#
# Mechanical properties :
#
#
# Convention : Reuss Voigt Hill
#
# Bulk Modulus (GPa) = 25.18568 34.87788 30.03178
# Shear Modulus (GPa) = 14.59579 36.92752 25.76166
#
# Velocity S-wave (km/s) = 2.36266 3.75804 3.13887
# Velocity P-wave (km/s) = 4.13220 5.67182 4.96209
#
# Compressibility (1/GPa) = 0.03970511
#
# Stress axis : x y z
#
# Youngs Moduli (GPa) = 151.30719 71.76051 53.97033
#
# Poissons Ratio (x) = 0.00726 0.03797
# Poissons Ratio (y) = 0.01530 -0.06048
# Poissons Ratio (z) = 0.10645 -0.08042
#
# Static dielectric constant tensor:
#      x y z
#    x 2.051680 0.000000 -0.027800 
#    y 0.000000 1.976730 0.000000 
#    z -0.027800 0.000000 2.167970 
# 
# From -- ./inp_files/274605.got.cif
#   From: 2010.05.17/outbox.cif.g08.bks.cpg/sg12_138_cif.got.tgz:274605.got - 2010.06.03 13:09:07.
