data_PCOD9196166
_publ_section_title
;
Structure prediction by ZEFSAII (Michael W. Deem and Ramdas Pophale) SiO2 
 PCOD9196166
Probable space group: C 2/M
;
_chemical_formula_sum "Si O2"
_cell_formula_units_Z 40
_cell_length_a 20.606704
_cell_length_b 7.347666
_cell_length_c 9.474456
_cell_angle_alpha 90.000000
_cell_angle_beta 99.605438
_cell_angle_gamma 90.000000
_cell_volume 1414.426610
_symmetry_space_group_name_H-M "C 2/M"
_symmetry_group_IT_number 12
_symmetry_cell_setting 'monoclinic'
loop_
_space_group_symop_operation_xyz
x,y,z
-x,y,-z
-x,-y,-z
x,-y,z
1/2+x,1/2+y,z
1/2-x,1/2+y,-z
1/2-x,1/2-y,-z
1/2+x,1/2-y,z
loop_
_atom_site_type_symbol
_atom_site_label
_atom_site_fract_x
_atom_site_fract_y
_atom_site_fract_z
Si Si1 0.490703 0.218385 0.336081
Si Si2 0.650009 0.220862 0.738319
Si Si3 0.067467 0.216633 0.092215
Si Si4 0.324950 0.214920 0.567873
Si Si5 0.795420 0.203871 0.867896
O O1 0.500000 0.284494 0.500000
O O2 0.422279 0.283408 0.240181
O O3 0.551009 0.257982 0.253835
O O4 0.485863 0.000000 0.343468
O O5 0.643445 0.270786 0.568810
O O6 0.720899 0.282120 0.829293
O O7 0.654862 0.000000 0.742792
O O8 0.136519 0.293906 0.052517
O O9 0.070271 0.000000 0.068376
O O10 0.000000 0.291041 0.000000
O O11 0.250000 0.250000 0.500000
O O12 0.322114 0.308712 0.717718
O O13 0.338235 0.000000 0.594694
O O14 0.787568 0.000000 0.920297
#
# Coordination Sequence:
#
# PCOD9196166 Si02
#       5
#     8   8   8   8   8
#     4  10  20  35  56  82 111 140 174 221 275 329
#     4   8  15  28  47  72 100 132 169 211 261 313
#     4  10  22  39  56  76 107 147 186 225 274 329
#     4   9  15  25  44  72 105 136 169 211 261 315
#     4   9  17  31  50  70  97 137 181 220 261 315
#
# _framework density 28.280010000000001
#
# number of rings (size 3 to 8) (size 9 to 14) (size 15 to 20)
#    0.000    2.800    0.000    3.000    0.000    3.200 
#    0.000    6.000    0.000    0.000    0.000    0.000 
#    0.000    0.000    0.000    0.000    0.000    0.000 
#
# Total GULP energy -111547.874626 kJ/mol
# GULP energy per Si atom -5577.393731 kJ/mol
# Density = 2.821564 g / cm^3
# Si number density = 28.280010 Si / 1000 Ang^3
#
#
#
# Elastic Constant Matrix: (Units=GPa)
#
#
# Indices 1 2 3 4 5 6 
#
# 1 290.2097 11.5525 54.8868 0.0000 30.8495 0.0000
# 2 11.5525 129.3464 25.5317 0.0000 -2.0196 0.0000
# 3 54.8868 25.5317 114.7085 0.0000 3.4139 0.0000
# 4 0.0000 0.0000 0.0000 8.8161 0.0000 3.0519
# 5 30.8495 -2.0196 3.4139 0.0000 46.1200 0.0000
# 6 0.0000 0.0000 0.0000 3.0519 0.0000 6.9926
#
#
#
# Elastic Compliance Matrix: (Units=1/GPa)
#
#
# Indices 1 2 3 4 5 6 
#
# 1 0.004075 -0.000036 -0.001865 0.000000 -0.002589 0.000000
# 2 -0.000036 0.008098 -0.001800 0.000000 0.000512 0.000000
# 3 -0.001865 -0.001800 0.009998 0.000000 0.000428 0.000000
# 4 0.000000 0.000000 0.000000 0.133615 0.000000 -0.058315
# 5 -0.002589 0.000512 0.000428 0.000000 0.023405 0.000000
# 6 0.000000 0.000000 0.000000 -0.058315 0.000000 0.168459
#
#
# Mechanical properties :
#
#
# Convention : Reuss Voigt Hill
#
# Bulk Modulus (GPa) = 67.71304 79.80076 73.75690
# Shear Modulus (GPa) = 13.88981 41.87200 27.88091
#
# Velocity S-wave (km/s) = 2.21860 3.85206 3.14329
# Velocity P-wave (km/s) = 5.52799 6.93281 6.26987
#
# Compressibility (1/GPa) = 0.01476821
#
# Stress axis : x y z
#
# Youngs Moduli (GPa) = 245.38874 123.49080 100.02030
#
# Poissons Ratio (x) = 0.00448 0.18652
# Poissons Ratio (y) = 0.00891 0.18006
# Poissons Ratio (z) = 0.45759 0.22232
#
# Static dielectric constant tensor:
#      x y z
#    x 2.241610 0.000000 -0.056480 
#    y 0.000000 2.065300 0.000000 
#    z -0.056480 0.000000 2.763570 
# 
# From -- ./inp_files/162743.got.cif
#   From: 2010.05.17/outbox.cif.g08.bks.cpg/sg12_82_cif.got.tgz:162743.got - 2010.06.03 13:09:07.
