data_PCOD9196446
_publ_section_title
;
Structure prediction by ZEFSAII (Michael W. Deem and Ramdas Pophale) SiO2 
 PCOD9196446
Probable space group: C 2/M
;
_chemical_formula_sum "Si O2"
_cell_formula_units_Z 56
_cell_length_a 21.251280
_cell_length_b 7.587979
_cell_length_c 30.103107
_cell_angle_alpha 90.000000
_cell_angle_beta 148.254924
_cell_angle_gamma 90.000000
_cell_volume 2554.021518
_symmetry_space_group_name_H-M "C 2/M"
_symmetry_group_IT_number 12
_symmetry_cell_setting 'monoclinic'
loop_
_space_group_symop_operation_xyz
x,y,z
-x,y,-z
-x,-y,-z
x,-y,z
1/2+x,1/2+y,z
1/2-x,1/2+y,-z
1/2-x,1/2-y,-z
1/2+x,1/2-y,z
loop_
_atom_site_type_symbol
_atom_site_label
_atom_site_fract_x
_atom_site_fract_y
_atom_site_fract_z
Si Si1 0.994047 0.710615 0.787514
Si Si2 0.929895 0.797743 0.572483
Si Si3 0.337027 0.704304 0.774431
Si Si4 0.244611 0.789255 0.048989
Si Si5 0.334217 0.709175 0.607617
Si Si6 0.091202 0.299682 0.590962
Si Si7 0.002066 0.783574 0.949844
O O1 0.997372 0.500000 0.795202
O O2 0.944543 0.788487 0.803589
O O3 0.903501 0.756382 0.694124
O O4 0.127419 0.774078 0.856086
O O5 0.796899 0.791816 0.471918
O O6 0.909813 0.727489 0.610255
O O7 0.019070 0.698182 0.593757
O O8 0.971073 0.000000 0.599540
O O9 0.305088 0.500000 0.763819
O O10 0.219795 0.783155 0.679987
O O11 0.390360 0.776954 0.852397
O O12 0.241268 0.000000 0.052602
O O13 0.250000 0.750000 0.000000
O O14 0.125190 0.721917 0.000749
O O15 0.316805 0.500000 0.591065
O O16 0.115002 0.500000 0.588593
O O17 0.000000 0.217971 0.500000
O O18 0.999905 0.000000 0.947208
O O19 0.000000 0.731544 0.000000
#
# Coordination Sequence:
#
# PCOD9196446 Si02
#       7
#     8   8   8   8   8   8   8
#     4  11  22  34  55  86 114 144 187 237 288 338
#     4  10  21  37  57  81 111 147 186 232 285 333
#     4  10  20  35  57  80 108 152 193 234 285 341
#     4  10  20  35  57  83 112 146 185 235 286 336
#     4  10  21  37  57  81 111 148 187 230 280 340
#     4  10  21  35  53  80 112 148 190 230 276 340
#     4   9  18  34  56  82 111 147 194 241 285 338
#
# _framework density 21.926206000000001
#
# number of rings (size 3 to 8) (size 9 to 14) (size 15 to 20)
#    0.000    2.000    1.429    2.143    0.000    5.429 
#    0.000    2.857    0.000    1.714    0.000    0.000 
#    0.000    0.000    0.000    0.000    0.000    0.000 
#
# Total GULP energy -156363.024799 kJ/mol
# GULP energy per Si atom -5584.393743 kJ/mol
# Density = 2.187630 g / cm^3
# Si number density = 21.926206 Si / 1000 Ang^3
#
#
#
# Elastic Constant Matrix: (Units=GPa)
#
#
# Indices 1 2 3 4 5 6 
#
# 1 99.0707 -4.6143 57.0241 0.0017 1.7436 -0.0028
# 2 -4.6143 54.2368 -1.3006 0.0023 3.8613 -0.0042
# 3 57.0241 -1.3006 139.1339 -0.0004 -18.4307 0.0003
# 4 0.0017 0.0023 -0.0004 -8.1801 -0.0003 12.0046
# 5 1.7436 3.8613 -18.4307 -0.0003 35.5870 0.0005
# 6 -0.0028 -0.0042 0.0003 12.0046 0.0005 -4.5184
#
#
#
# Elastic Compliance Matrix: (Units=1/GPa)
#
#
# Indices 1 2 3 4 5 6 
#
# 1 0.013773 0.001309 -0.006164 0.000004 -0.004009 0.000000
# 2 0.001309 0.018707 -0.000686 0.000007 -0.002449 0.000001
# 3 -0.006164 -0.000686 0.010476 -0.000002 0.005802 0.000000
# 4 0.000004 0.000007 -0.000002 0.042169 -0.000003 0.112036
# 5 -0.004009 -0.002449 0.005802 -0.000003 0.031567 0.000000
# 6 0.000000 0.000001 0.000000 0.112036 0.000000 0.076343
#
#
# Mechanical properties :
#
#
# Convention : Reuss Voigt Hill
#
# Bulk Modulus (GPa) = 31.37292 43.85106 37.61199
# Shear Modulus (GPa) = 23.28383 20.66652 21.97518
#
# Velocity S-wave (km/s) = 3.26224 3.07343 3.16924
# Velocity P-wave (km/s) = 5.34127 5.71292 5.53021
#
# Compressibility (1/GPa) = 0.03187462
#
# Stress axis : x y z
#
# Youngs Moduli (GPa) = 72.60497 53.45591 95.45909
#
# Poissons Ratio (x) = -0.07000 0.58839
# Poissons Ratio (y) = -0.09507 0.06551
# Poissons Ratio (z) = 0.44752 0.03668
#
# Static dielectric constant tensor:
#      x y z
#    x 1.769060 0.000000 0.006460 
#    y 0.000000 1.913800 0.000000 
#    z 0.006460 0.000000 1.816150 
# 
# From -- ./inp_files/380721.got.cif
#   From: 2010.05.17/outbox.cif.g08.bks.cpg/sg12_191_cif.got.tgz:380721.got - 2010.06.03 13:09:07.
