data_PCOD9196321
_publ_section_title
;
Structure prediction by ZEFSAII (Michael W. Deem and Ramdas Pophale) SiO2 
 PCOD9196321
Probable space group: C 2/M
;
_chemical_formula_sum "Si O2"
_cell_formula_units_Z 64
_cell_length_a 25.301164
_cell_length_b 7.849293
_cell_length_c 15.520362
_cell_angle_alpha 90.000000
_cell_angle_beta 71.173573
_cell_angle_gamma 90.000000
_cell_volume 2917.384997
_symmetry_space_group_name_H-M "C 2/M"
_symmetry_group_IT_number 12
_symmetry_cell_setting 'monoclinic'
loop_
_space_group_symop_operation_xyz
x,y,z
-x,y,-z
-x,-y,-z
x,-y,z
1/2+x,1/2+y,z
1/2-x,1/2+y,-z
1/2-x,1/2-y,-z
1/2+x,1/2-y,z
loop_
_atom_site_type_symbol
_atom_site_label
_atom_site_fract_x
_atom_site_fract_y
_atom_site_fract_z
Si Si1 0.149314 0.793932 0.369308
Si Si2 0.112085 0.696756 0.110035
Si Si3 0.315147 0.705444 0.462325
Si Si4 0.332521 0.697629 0.090225
Si Si5 0.632703 0.299043 0.743133
Si Si6 0.475757 0.796461 0.601435
Si Si7 0.713387 0.302315 0.173589
Si Si8 0.490465 0.206826 0.230525
O O1 0.157380 0.731826 0.462764
O O2 0.089867 0.739062 0.363358
O O3 0.196872 0.735955 0.277432
O O4 0.150930 0.000000 0.368650
O O5 0.112469 0.500000 0.138183
O O6 0.158370 0.788079 0.143962
O O7 0.048885 0.759753 0.156286
O O8 0.132278 0.710433 0.001530
O O9 0.320907 0.500000 0.459718
O O10 0.250000 0.750000 0.500000
O O11 0.342899 0.772424 0.359542
O O12 0.349768 0.500000 0.079664
O O13 0.342040 0.769649 0.181236
O O14 0.266556 0.708548 0.106705
O O15 0.646058 0.500000 0.735090
O O16 0.566247 0.275197 0.779556
O O17 0.500000 0.724106 0.500000
O O18 0.505188 0.733723 0.672375
O O19 0.483764 0.000000 0.596548
O O20 0.728865 0.500000 0.171881
O O21 0.487665 0.000000 0.229494
#
# Coordination Sequence:
#
# PCOD9196321 Si02
#       8
#     8   8   8   8   8   8   8   8
#     4  10  21  35  56  86 118 151 191 237 288 347
#     4  11  23  41  63  88 119 156 196 246 301 355
#     4  10  21  38  58  86 120 157 200 242 290 348
#     4  11  24  41  61  87 117 155 201 249 300 356
#     4  10  23  41  61  86 120 160 201 245 296 351
#     4  10  20  35  56  84 116 151 193 237 285 344
#     4  11  22  38  61  91 122 155 195 244 301 358
#     4  10  22  39  60  87 119 155 197 244 295 351
#
# _framework density 21.937453999999999
#
# number of rings (size 3 to 8) (size 9 to 14) (size 15 to 20)
#    0.000    1.625    1.250    3.000    0.000    4.750 
#    0.000    2.500    0.000    0.000    0.000    0.000 
#    0.000    0.000    0.000    0.000    0.000    0.000 
#
# Total GULP energy -178895.519278 kJ/mol
# GULP energy per Si atom -5590.484977 kJ/mol
# Density = 2.188752 g / cm^3
# Si number density = 21.937454 Si / 1000 Ang^3
#
#
#
# Elastic Constant Matrix: (Units=GPa)
#
#
# Indices 1 2 3 4 5 6 
#
# 1 82.5383 -12.6747 20.3284 0.0000 -3.6848 0.0000
# 2 -12.6747 27.1534 4.8364 0.0000 3.4860 0.0000
# 3 20.3284 4.8364 115.8449 0.0000 -9.3041 0.0000
# 4 0.0000 0.0000 0.0000 4.3413 0.0000 -12.1469
# 5 -3.6848 3.4860 -9.3041 0.0000 37.9068 0.0000
# 6 0.0000 0.0000 0.0000 -12.1469 0.0000 23.5854
#
#
#
# Elastic Compliance Matrix: (Units=1/GPa)
#
#
# Indices 1 2 3 4 5 6 
#
# 1 0.013853 0.006945 -0.002718 0.000000 0.000041 0.000000
# 2 0.006945 0.041150 -0.003251 0.000000 -0.003907 0.000000
# 3 -0.002718 -0.003251 0.009434 0.000000 0.002350 0.000000
# 4 0.000000 0.000000 0.000000 -0.522289 0.000000 -0.268989
# 5 0.000041 -0.003907 0.002350 0.000000 0.027321 0.000000
# 6 0.000000 0.000000 0.000000 -0.268989 0.000000 -0.096136
#
#
# Mechanical properties :
#
#
# Convention : Reuss Voigt Hill
#
# Bulk Modulus (GPa) = 15.06220 27.83519 21.44869
# Shear Modulus (GPa) = -9.87185 27.36980 8.74897
#
# Velocity S-wave (km/s) = -2.12362 3.53601 1.99920
# Velocity P-wave (km/s) = 0.93159 5.42099 3.88941
#
# Compressibility (1/GPa) = 0.06639137
#
# Stress axis : x y z
#
# Youngs Moduli (GPa) = 72.18516 24.30114 106.00426
#
# Poissons Ratio (x) = -0.16878 0.28808
# Poissons Ratio (y) = -0.50134 0.34457
# Poissons Ratio (z) = 0.19617 0.07899
#
# Static dielectric constant tensor:
#      x y z
#    x 1.762470 0.000000 0.011100 
#    y 0.000000 1.783710 0.000000 
#    z 0.011100 0.000000 1.832580 
# 
# From -- ./inp_files/243834.got.cif
#   From: 2010.05.17/outbox.cif.g08.bks.cpg/sg12_122_cif.got.tgz:243834.got - 2010.06.03 13:09:07.
