data_PCOD9196842
_publ_section_title
;
Structure prediction by ZEFSAII (Michael W. Deem and Ramdas Pophale) SiO2 
 PCOD9196842
Probable space group: C 2/M
;
_chemical_formula_sum "Si O2"
_cell_formula_units_Z 42
_cell_length_a 14.528387
_cell_length_b 8.752206
_cell_length_c 14.275977
_cell_angle_alpha 90.000000
_cell_angle_beta 99.306371
_cell_angle_gamma 90.000000
_cell_volume 1791.375049
_symmetry_space_group_name_H-M "C 2/M"
_symmetry_group_IT_number 12
_symmetry_cell_setting 'monoclinic'
loop_
_space_group_symop_operation_xyz
x,y,z
-x,y,-z
-x,-y,-z
x,-y,z
1/2+x,1/2+y,z
1/2-x,1/2+y,-z
1/2-x,1/2-y,-z
1/2+x,1/2-y,z
loop_
_atom_site_type_symbol
_atom_site_label
_atom_site_fract_x
_atom_site_fract_y
_atom_site_fract_z
Si Si1 0.528020 0.823972 0.231961
Si Si2 0.160762 0.821448 0.821557
Si Si3 0.838501 0.166792 0.879036
Si Si4 0.500000 0.500000 0.000000
Si Si5 0.821324 0.322634 0.380258
Si Si6 0.109146 0.176598 0.424087
O O1 0.446416 0.718632 0.177429
O O2 0.619220 0.787828 0.186190
O O3 0.548565 0.773506 0.341387
O O4 0.501994 0.000000 0.222182
O O5 0.236897 0.723709 0.890189
O O6 0.173222 0.769467 0.715332
O O7 0.176119 0.000000 0.837066
O O8 0.827960 0.000000 0.827460
O O9 0.917419 0.130020 0.967807
O O10 0.847012 0.500000 0.370301
O O11 0.883814 0.246254 0.471393
O O12 0.715062 0.319026 0.400930
O O13 0.078746 0.000000 0.420100
#
# Coordination Sequence:
#
# PCOD9196842 Si02
#       6
#     8   8   8   2   8   8
#     4  12  24  39  65  97 131 174 219 264 318 382
#     4  12  24  39  65  97 131 174 219 264 318 382
#     4  10  21  45  70  96 126 161 203 260 323 390
#     4   8  24  44  82  92 132 158 202 260 332 396
#     4  10  20  35  57  88 129 176 223 272 316 367
#     4  10  20  35  57  88 129 176 223 272 316 367
#
# _framework density 23.445675999999999
#
# number of rings (size 3 to 8) (size 9 to 14) (size 15 to 20)
#    0.571    0.762    1.905    5.143    0.000    2.286 
#    0.000    6.667    0.000    0.000    0.000    0.000 
#    0.000    0.000    0.000    0.000    0.000    0.000 
#
# Total GULP energy -117274.908822 kJ/mol
# GULP energy per Si atom -5584.519468 kJ/mol
# Density = 2.339231 g / cm^3
# Si number density = 23.445676 Si / 1000 Ang^3
#
#
#
# Elastic Constant Matrix: (Units=GPa)
#
#
# Indices 1 2 3 4 5 6 
#
# 1 61.1560 -10.4700 2.3922 0.0000 16.2919 0.0000
# 2 -10.4700 98.7613 8.2927 0.0000 11.0656 0.0000
# 3 2.3922 8.2927 103.4992 0.0000 18.6952 0.0000
# 4 0.0000 0.0000 0.0000 28.3182 0.0000 16.3178
# 5 16.2919 11.0656 18.6952 0.0000 42.9818 0.0000
# 6 0.0000 0.0000 0.0000 16.3178 0.0000 35.5314
#
#
#
# Elastic Compliance Matrix: (Units=1/GPa)
#
#
# Indices 1 2 3 4 5 6 
#
# 1 0.019027 0.002879 0.000831 0.000000 -0.008315 0.000000
# 2 0.002879 0.010876 -0.000255 0.000000 -0.003780 0.000000
# 3 0.000831 -0.000255 0.010536 0.000000 -0.004832 0.000000
# 4 0.000000 0.000000 0.000000 0.048021 0.000000 -0.022054
# 5 -0.008315 -0.003780 -0.004832 0.000000 0.029492 0.000000
# 6 0.000000 0.000000 0.000000 -0.022054 0.000000 0.038272
#
#
# Mechanical properties :
#
#
# Convention : Reuss Voigt Hill
#
# Bulk Modulus (GPa) = 21.11966 29.31626 25.21796
# Shear Modulus (GPa) = 30.28532 38.91305 34.59919
#
# Velocity S-wave (km/s) = 3.59795 4.07838 3.84567
# Velocity P-wave (km/s) = 5.12717 5.89140 5.52252
#
# Compressibility (1/GPa) = 0.04734925
#
# Stress axis : x y z
#
# Youngs Moduli (GPa) = 52.55670 91.94902 94.91295
#
# Poissons Ratio (x) = -0.26471 -0.07892
# Poissons Ratio (y) = -0.15131 0.02421
# Poissons Ratio (z) = -0.04370 0.02346
#
# Static dielectric constant tensor:
#      x y z
#    x 1.901830 0.000000 -0.024920 
#    y 0.000000 1.784960 0.000000 
#    z -0.024920 0.000000 1.895690 
# 
# From -- ./inp_files/267318.got.cif
#   From: 2010.05.17/outbox.cif.g08.bks.cpg/sg12_134_cif.got.tgz:267318.got - 2010.06.03 13:09:07.
