data_PCOD9196643
_publ_section_title
;
Structure prediction by ZEFSAII (Michael W. Deem and Ramdas Pophale) SiO2 
 PCOD9196643
Probable space group: C 2/M
;
_chemical_formula_sum "Si O2"
_cell_formula_units_Z 56
_cell_length_a 30.131881
_cell_length_b 12.561355
_cell_length_c 23.996668
_cell_angle_alpha 90.000000
_cell_angle_beta 19.157587
_cell_angle_gamma 90.000000
_cell_volume 2980.637941
_symmetry_space_group_name_H-M "C 2/M"
_symmetry_group_IT_number 12
_symmetry_cell_setting 'monoclinic'
loop_
_space_group_symop_operation_xyz
x,y,z
-x,y,-z
-x,-y,-z
x,-y,z
1/2+x,1/2+y,z
1/2-x,1/2+y,-z
1/2-x,1/2-y,-z
1/2+x,1/2-y,z
loop_
_atom_site_type_symbol
_atom_site_label
_atom_site_fract_x
_atom_site_fract_y
_atom_site_fract_z
Si Si1 0.367375 0.726485 0.010840
Si Si2 0.089672 0.626026 0.695276
Si Si3 0.218352 0.384104 0.088216
Si Si4 0.288492 0.271087 0.546800
Si Si5 0.136382 0.121004 0.304507
Si Si6 0.926374 0.875149 0.146650
Si Si7 0.567726 0.329889 0.258702
O O1 0.253189 0.793948 0.178114
O O2 0.451545 0.812858 0.874838
O O3 0.294702 0.647317 0.054329
O O4 0.468801 0.663165 0.930140
O O5 0.072395 0.500000 0.708293
O O6 0.191147 0.652389 0.626143
O O7 0.151885 0.685029 0.567871
O O8 0.156706 0.500000 0.164324
O O9 0.330732 0.380369 0.906446
O O10 0.107324 0.294655 0.209797
O O11 0.200891 0.203444 0.694766
O O12 0.411845 0.336659 0.426789
O O13 0.101254 0.129670 0.280534
O O14 0.000000 0.143623 0.500000
O O15 0.179829 0.000000 0.265439
O O16 0.891051 0.000000 0.196327
O O17 0.000000 0.863940 0.000000
#
# Coordination Sequence:
#
# PCOD9196643 Si02
#       7
#     8   8   8   8   8   8   8
#     4  10  20  38  58  82 114 144 182 232 272 334
#     4  10  20  35  57  84 114 146 177 223 284 333
#     4  10  20  35  57  84 114 146 177 223 284 333
#     4  10  21  37  55  85 113 143 183 230 274 327
#     4  10  22  38  59  82 108 150 190 225 273 325
#     4  10  22  38  59  82 108 150 190 225 273 325
#     4  10  21  37  55  85 113 143 183 230 274 327
#
# _framework density 18.787925000000001
#
# number of rings (size 3 to 8) (size 9 to 14) (size 15 to 20)
#    0.000    2.000    1.429    1.714    2.000    2.286 
#    0.000    0.000    0.000    4.286    0.000    0.000 
#    0.000    0.000    0.000    0.000    0.000    0.000 
#
# Total GULP energy -156356.263680 kJ/mol
# GULP energy per Si atom -5584.152274 kJ/mol
# Density = 1.874516 g / cm^3
# Si number density = 18.787925 Si / 1000 Ang^3
#
#
#
# Elastic Constant Matrix: (Units=GPa)
#
#
# Indices 1 2 3 4 5 6 
#
# 1 20.4793 -17.3392 -5.8014 -0.0043 1.0005 -0.0009
# 2 -17.3392 72.1376 -7.5492 0.0002 12.8353 0.0001
# 3 -5.8014 -7.5492 47.6942 0.0108 12.9671 0.0023
# 4 -0.0043 0.0002 0.0108 5605.6907 -0.0092 1172.8974
# 5 1.0005 12.8353 12.9671 -0.0092 29.9880 -0.0019
# 6 -0.0009 0.0001 0.0023 1172.8974 -0.0019 256.4400
#
#
#
# Elastic Compliance Matrix: (Units=1/GPa)
#
#
# Indices 1 2 3 4 5 6 
#
# 1 0.075104 0.023657 0.018488 0.000000 -0.020625 0.000000
# 2 0.023657 0.023435 0.010798 0.000000 -0.015489 0.000000
# 3 0.018488 0.010798 0.029859 0.000000 -0.018150 0.000000
# 4 0.000000 0.000000 0.000000 0.004147 0.000000 -0.018968
# 5 -0.020625 -0.015489 -0.018150 0.000000 0.048513 0.000000
# 6 0.000000 0.000000 0.000000 -0.018968 0.000000 0.090655
#
#
# Mechanical properties :
#
#
# Convention : Reuss Voigt Hill
#
# Bulk Modulus (GPa) = 4.26834 8.77016 6.51925
# Shear Modulus (GPa) = 20.49831 1189.82380 605.16106
#
# Velocity S-wave (km/s) = 3.30667 25.19259 17.96664
# Velocity P-wave (km/s) = 4.10555 29.17019 20.82974
#
# Compressibility (1/GPa) = 0.23428315
#
# Stress axis : x y z
#
# Youngs Moduli (GPa) = 13.31483 42.67212 33.49019
#
# Poissons Ratio (x) = -1.00949 -0.61916
# Poissons Ratio (y) = -0.31499 -0.36163
# Poissons Ratio (z) = -0.24616 -0.46077
#
# Static dielectric constant tensor:
#      x y z
#    x 1.637640 0.000000 -0.002440 
#    y 0.000000 1.630240 0.000000 
#    z -0.002440 0.000000 1.642120 
# 
# From -- ./inp_files/165027.got.cif
#   From: 2010.05.17/outbox.cif.g08.bks.cpg/sg12_83_cif.got.tgz:165027.got - 2010.06.03 13:09:07.
