data_PCOD9196543
_publ_section_title
;
Structure prediction by ZEFSAII (Michael W. Deem and Ramdas Pophale) SiO2 
 PCOD9196543
Probable space group: C 2/M
;
_chemical_formula_sum "Si O2"
_cell_formula_units_Z 64
_cell_length_a 17.479647
_cell_length_b 13.199473
_cell_length_c 19.824682
_cell_angle_alpha 90.000000
_cell_angle_beta 129.297929
_cell_angle_gamma 90.000000
_cell_volume 3539.644286
_symmetry_space_group_name_H-M "C 2/M"
_symmetry_group_IT_number 12
_symmetry_cell_setting 'monoclinic'
loop_
_space_group_symop_operation_xyz
x,y,z
-x,y,-z
-x,-y,-z
x,-y,z
1/2+x,1/2+y,z
1/2-x,1/2+y,-z
1/2-x,1/2-y,-z
1/2+x,1/2-y,z
loop_
_atom_site_type_symbol
_atom_site_label
_atom_site_fract_x
_atom_site_fract_y
_atom_site_fract_z
Si Si1 0.079570 0.617299 0.905209
Si Si2 0.664542 0.120801 0.090087
Si Si3 0.551788 0.619806 0.324491
Si Si4 0.640618 0.262348 0.828435
Si Si5 0.351522 0.117882 0.764905
Si Si6 0.127954 0.618773 0.691972
Si Si7 0.748277 0.698461 0.362889
Si Si8 0.950601 0.248246 0.541964
O O1 0.112798 0.500000 0.918509
O O2 0.141434 0.694066 0.895290
O O3 0.968127 0.620972 0.814884
O O4 0.085921 0.646356 0.987756
O O5 0.769426 0.159919 0.122841
O O6 0.654405 0.156664 0.161176
O O7 0.660924 0.000000 0.093927
O O8 0.534976 0.500000 0.316601
O O9 0.461987 0.676836 0.236585
O O10 0.655519 0.644564 0.345990
O O11 0.552225 0.666585 0.400039
O O12 0.649671 0.186333 0.769794
O O13 0.289206 0.191531 0.683136
O O14 0.319352 0.000000 0.742893
O O15 0.123547 0.500000 0.704830
O O16 0.208177 0.640815 0.678232
O O17 0.023060 0.660836 0.605610
O O18 0.841047 0.712981 0.464344
O O19 0.000000 0.208325 0.500000
#
# Coordination Sequence:
#
# PCOD9196543 Si02
#       8
#     8   8   8   8   8   8   8   8
#     4  10  20  35  57  83 110 143 188 235 278 324
#     4  10  20  35  57  83 110 146 186 229 281 330
#     4  11  23  37  56  81 113 149 180 220 274 332
#     4  11  20  36  54  83 116 147 181 228 274 332
#     4  10  20  36  58  83 111 143 186 232 277 325
#     4  10  21  37  59  82 110 147 187 228 270 321
#     4  11  20  39  57  82 112 144 185 226 272 329
#     4   9  22  39  58  83 110 140 184 229 272 322
#
# _framework density 18.080912999999999
#
# number of rings (size 3 to 8) (size 9 to 14) (size 15 to 20)
#    0.000    1.750    2.500    2.250    0.000    5.000 
#    0.000    0.000    0.000    0.000    0.000    1.750 
#    0.000    0.000    0.000    0.000    0.000    0.000 
#
# Total GULP energy -178541.441262 kJ/mol
# GULP energy per Si atom -5579.420039 kJ/mol
# Density = 1.803976 g / cm^3
# Si number density = 18.080913 Si / 1000 Ang^3
#
#
#
# Elastic Constant Matrix: (Units=GPa)
#
#
# Indices 1 2 3 4 5 6 
#
# 1 51.9464 10.2844 -6.5373 0.0000 4.1334 0.0000
# 2 10.2844 54.9550 8.7854 0.0000 -4.1099 0.0000
# 3 -6.5373 8.7854 40.0019 0.0000 4.8662 0.0000
# 4 0.0000 0.0000 0.0000 18.8271 0.0000 -1.5973
# 5 4.1334 -4.1099 4.8662 0.0000 27.3097 0.0000
# 6 0.0000 0.0000 0.0000 -1.5973 0.0000 25.6341
#
#
#
# Elastic Compliance Matrix: (Units=1/GPa)
#
#
# Indices 1 2 3 4 5 6 
#
# 1 0.021331 -0.005197 0.005229 0.000000 -0.004942 0.000000
# 2 -0.005197 0.020489 -0.005949 0.000000 0.004930 0.000000
# 3 0.005229 -0.005949 0.027971 0.000000 -0.006671 0.000000
# 4 0.000000 0.000000 0.000000 0.053397 0.000000 0.003327
# 5 -0.004942 0.004930 -0.006671 0.000000 0.039296 0.000000
# 6 0.000000 0.000000 0.000000 0.003327 0.000000 0.039218
#
#
# Mechanical properties :
#
#
# Convention : Reuss Voigt Hill
#
# Bulk Modulus (GPa) = 17.25449 19.10756 18.18102
# Shear Modulus (GPa) = 21.47246 23.31221 22.39233
#
# Velocity S-wave (km/s) = 3.44986 3.59462 3.52298
# Velocity P-wave (km/s) = 5.04305 5.27438 5.16001
#
# Compressibility (1/GPa) = 0.05795594
#
# Stress axis : x y z
#
# Youngs Moduli (GPa) = 46.88037 48.80640 35.75081
#
# Poissons Ratio (x) = 0.25367 -0.18693
# Poissons Ratio (y) = 0.24366 0.21268
# Poissons Ratio (z) = -0.24512 0.29035
#
# Static dielectric constant tensor:
#      x y z
#    x 1.633950 0.000000 -0.007830 
#    y 0.000000 1.581600 0.000000 
#    z -0.007830 0.000000 1.627080 
# 
# From -- ./inp_files/315744.got.cif
#   From: 2010.05.17/outbox.cif.g08.bks.cpg/sg12_158_cif.got.tgz:315744.got - 2010.06.03 13:09:07.
