data_PCOD9196712
_publ_section_title
;
Structure prediction by ZEFSAII (Michael W. Deem and Ramdas Pophale) SiO2 
 PCOD9196712
Probable space group: C 2/M
;
_chemical_formula_sum "Si O2"
_cell_formula_units_Z 40
_cell_length_a 13.086725
_cell_length_b 20.695617
_cell_length_c 9.124225
_cell_angle_alpha 90.000000
_cell_angle_beta 48.988185
_cell_angle_gamma 90.000000
_cell_volume 1864.692989
_symmetry_space_group_name_H-M "C 2/M"
_symmetry_group_IT_number 12
_symmetry_cell_setting 'monoclinic'
loop_
_space_group_symop_operation_xyz
x,y,z
-x,y,-z
-x,-y,-z
x,-y,z
1/2+x,1/2+y,z
1/2-x,1/2+y,-z
1/2-x,1/2-y,-z
1/2+x,1/2-y,z
loop_
_atom_site_type_symbol
_atom_site_label
_atom_site_fract_x
_atom_site_fract_y
_atom_site_fract_z
Si Si1 0.441347 0.206349 0.318659
Si Si2 0.627576 0.679745 0.139492
Si Si3 0.758884 0.752978 0.234388
Si Si4 0.899664 0.426786 0.453439
Si Si5 0.573528 0.573698 0.772456
O O1 0.574089 0.247399 0.218788
O O2 0.353159 0.222771 0.545321
O O3 0.380231 0.237022 0.231129
O O4 0.449483 0.130033 0.301684
O O5 0.727884 0.683608 0.183073
O O6 0.508484 0.627199 0.245541
O O7 0.694009 0.689425 0.918411
O O8 0.914332 0.500000 0.385168
O O9 0.736618 0.416629 0.631067
O O10 0.000000 0.421527 0.500000
O O11 0.554058 0.500000 0.734629
O O12 0.500000 0.575982 0.000000
#
# Coordination Sequence:
#
# PCOD9196712 Si02
#       5
#     8   8   8   8   8
#     4  11  20  35  57  80 110 152 191 232 284 344
#     4  11  21  36  58  86 116 150 192 238 287 344
#     4  10  22  35  55  86 118 146 186 237 290 344
#     4  10  21  36  55  82 115 152 194 237 286 345
#     4  10  20  35  57  85 116 149 189 240 291 340
#
# _framework density 21.451253000000001
#
# number of rings (size 3 to 8) (size 9 to 14) (size 15 to 20)
#    0.000    1.600    0.000    7.200    0.000    1.600 
#    0.000    1.000    0.000    7.200    0.000    0.000 
#    0.000    0.000    0.000    0.000    0.000    0.000 
#
# Total GULP energy -111424.248059 kJ/mol
# GULP energy per Si atom -5571.212403 kJ/mol
# Density = 2.140243 g / cm^3
# Si number density = 21.451253 Si / 1000 Ang^3
#
#
#
# Elastic Constant Matrix: (Units=GPa)
#
#
# Indices 1 2 3 4 5 6 
#
# 1 50.6704 19.9398 11.8691 0.0000 -1.0010 0.0000
# 2 19.9398 107.6407 9.3114 0.0000 -10.6801 0.0000
# 3 11.8691 9.3114 52.7265 0.0000 -2.8291 0.0000
# 4 0.0000 0.0000 0.0000 24.8551 0.0000 -9.3651
# 5 -1.0010 -10.6801 -2.8291 0.0000 31.4980 0.0000
# 6 0.0000 0.0000 0.0000 -9.3651 0.0000 32.7727
#
#
#
# Elastic Compliance Matrix: (Units=1/GPa)
#
#
# Indices 1 2 3 4 5 6 
#
# 1 0.022254 -0.003841 -0.004384 0.000000 -0.000989 0.000000
# 2 -0.003841 0.010401 -0.000793 0.000000 0.003333 0.000000
# 3 -0.004384 -0.000793 0.020168 0.000000 0.001403 0.000000
# 4 0.000000 0.000000 0.000000 0.045088 0.000000 0.012884
# 5 -0.000989 0.003333 0.001403 0.000000 0.032973 0.000000
# 6 0.000000 0.000000 0.000000 0.012884 0.000000 0.034195
#
#
# Mechanical properties :
#
#
# Convention : Reuss Voigt Hill
#
# Bulk Modulus (GPa) = 28.74733 32.58646 30.66690
# Shear Modulus (GPa) = 25.67887 29.15299 27.41593
#
# Velocity S-wave (km/s) = 3.46364 3.69051 3.57887
# Velocity P-wave (km/s) = 5.42458 5.77786 5.60401
#
# Compressibility (1/GPa) = 0.03478584
#
# Stress axis : x y z
#
# Youngs Moduli (GPa) = 44.93479 96.14357 49.58321
#
# Poissons Ratio (x) = 0.36932 0.21739
# Poissons Ratio (y) = 0.17261 0.03933
# Poissons Ratio (z) = 0.19701 0.07627
#
# Static dielectric constant tensor:
#      x y z
#    x 1.861610 0.000000 -0.001430 
#    y 0.000000 1.796380 0.000000 
#    z -0.001430 0.000000 1.815930 
# 
# From -- ./inp_files/62595.got.cif
#   From: 2010.05.17/outbox.cif.g08.bks.cpg/sg12_32_cif.got.tgz:62595.got - 2010.06.03 13:09:07.
