data_PCOD9196517
_publ_section_title
;
Structure prediction by ZEFSAII (Michael W. Deem and Ramdas Pophale) SiO2 
 PCOD9196517
Probable space group: C 2/M
;
_chemical_formula_sum "Si O2"
_cell_formula_units_Z 56
_cell_length_a 22.396936
_cell_length_b 9.286224
_cell_length_c 19.913459
_cell_angle_alpha 90.000000
_cell_angle_beta 36.886829
_cell_angle_gamma 90.000000
_cell_volume 2485.975149
_symmetry_space_group_name_H-M "C 2/M"
_symmetry_group_IT_number 12
_symmetry_cell_setting 'monoclinic'
loop_
_space_group_symop_operation_xyz
x,y,z
-x,y,-z
-x,-y,-z
x,-y,z
1/2+x,1/2+y,z
1/2-x,1/2+y,-z
1/2-x,1/2-y,-z
1/2+x,1/2-y,z
loop_
_atom_site_type_symbol
_atom_site_label
_atom_site_fract_x
_atom_site_fract_y
_atom_site_fract_z
Si Si1 0.957151 0.330076 0.340736
Si Si2 0.580061 0.332615 0.874799
Si Si3 0.883317 0.831615 0.532009
Si Si4 0.766519 0.660536 0.087668
Si Si5 0.807414 0.332161 0.725334
Si Si6 0.108567 0.160975 0.113531
Si Si7 0.342709 0.834476 0.317713
O O1 0.966279 0.500000 0.345676
O O2 0.951225 0.242941 0.414962
O O3 0.861178 0.303067 0.379283
O O4 0.041584 0.270414 0.215715
O O5 0.555198 0.500000 0.887590
O O6 0.692026 0.325202 0.804235
O O7 0.590991 0.258886 0.792601
O O8 0.500000 0.271493 0.000000
O O9 0.875538 0.742827 0.607899
O O10 0.771539 0.822219 0.601589
O O11 0.907133 0.000000 0.520876
O O12 0.796958 0.500000 0.083107
O O13 0.696133 0.738081 0.204543
O O14 0.704356 0.643064 0.075408
O O15 0.855931 0.767471 0.987717
O O16 0.832766 0.500000 0.712850
O O17 0.065635 0.000000 0.144274
O O18 0.373249 0.000000 0.280488
#
# Coordination Sequence:
#
# PCOD9196517 Si02
#       7
#     8   8   8   8   8   8   8
#     4  11  22  36  56  84 115 145 186 234 279 325
#     4   9  19  33  49  76 111 145 183 224 266 323
#     4  10  20  37  57  80 112 151 191 228 272 328
#     4  10  21  39  61  84 112 144 182 229 279 333
#     4  10  20  35  57  82 111 148 185 225 278 332
#     4  10  22  39  59  84 112 145 184 227 278 333
#     4   9  20  35  52  78 110 148 187 225 272 323
#
# _framework density 22.526371999999999
#
# number of rings (size 3 to 8) (size 9 to 14) (size 15 to 20)
#    0.000    2.143    0.000    2.571    2.000    4.286 
#    0.000    0.714    0.000    4.286    0.000    0.000 
#    0.000    0.000    0.000    0.000    0.000    0.000 
#
# Total GULP energy -156463.711152 kJ/mol
# GULP energy per Si atom -5587.989684 kJ/mol
# Density = 2.247510 g / cm^3
# Si number density = 22.526372 Si / 1000 Ang^3
#
#
#
# Elastic Constant Matrix: (Units=GPa)
#
#
# Indices 1 2 3 4 5 6 
#
# 1 40.1278 19.5024 11.2412 0.0001 13.5210 0.0000
# 2 19.5024 117.4802 71.4580 0.0001 32.2152 0.0000
# 3 11.2412 71.4580 138.9043 0.0000 32.3187 0.0000
# 4 0.0001 0.0001 0.0000 36.2553 -0.0001 6.5375
# 5 13.5210 32.2152 32.3187 -0.0001 36.9341 0.0000
# 6 0.0000 0.0000 0.0000 6.5375 0.0000 16.2520
#
#
#
# Elastic Compliance Matrix: (Units=1/GPa)
#
#
# Indices 1 2 3 4 5 6 
#
# 1 0.029150 -0.003194 0.001405 0.000000 -0.009115 0.000000
# 2 -0.003194 0.014151 -0.005552 0.000000 -0.006316 0.000000
# 3 0.001405 -0.005552 0.011219 0.000000 -0.005488 0.000000
# 4 0.000000 0.000000 0.000000 0.029739 0.000000 -0.011963
# 5 -0.009115 -0.006316 -0.005488 0.000000 0.040723 0.000000
# 6 0.000000 0.000000 0.000000 -0.011963 0.000000 0.066343
#
#
# Mechanical properties :
#
#
# Convention : Reuss Voigt Hill
#
# Bulk Modulus (GPa) = 25.10194 55.65730 40.37962
# Shear Modulus (GPa) = 22.80111 30.84234 26.82173
#
# Velocity S-wave (km/s) = 3.18495 3.70424 3.45437
# Velocity P-wave (km/s) = 4.96918 6.56174 5.82019
#
# Compressibility (1/GPa) = 0.03983756
#
# Stress axis : x y z
#
# Youngs Moduli (GPa) = 34.30482 70.66520 89.13717
#
# Poissons Ratio (x) = 0.22572 -0.12523
# Poissons Ratio (y) = 0.10958 0.49489
# Poissons Ratio (z) = -0.04819 0.39233
#
# Static dielectric constant tensor:
#      x y z
#    x 1.945850 0.000000 -0.034190 
#    y 0.000000 1.804880 0.000000 
#    z -0.034190 0.000000 1.779490 
# 
# From -- ./inp_files/329524.got.cif
#   From: 2010.05.17/outbox.cif.g08.bks.cpg/sg12_165_cif.got.tgz:329524.got - 2010.06.03 13:09:07.
