data_PCOD9196274
_publ_section_title
;
Structure prediction by ZEFSAII (Michael W. Deem and Ramdas Pophale) SiO2 
 PCOD9196274
Probable space group: C 2/M
;
_chemical_formula_sum "Si O2"
_cell_formula_units_Z 40
_cell_length_a 19.569814
_cell_length_b 10.224852
_cell_length_c 28.309355
_cell_angle_alpha 90.000000
_cell_angle_beta 19.974759
_cell_angle_gamma 90.000000
_cell_volume 1935.081987
_symmetry_space_group_name_H-M "C 2/M"
_symmetry_group_IT_number 12
_symmetry_cell_setting 'monoclinic'
loop_
_space_group_symop_operation_xyz
x,y,z
-x,y,-z
-x,-y,-z
x,-y,z
1/2+x,1/2+y,z
1/2-x,1/2+y,-z
1/2-x,1/2-y,-z
1/2+x,1/2-y,z
loop_
_atom_site_type_symbol
_atom_site_label
_atom_site_fract_x
_atom_site_fract_y
_atom_site_fract_z
Si Si1 0.556188 0.286308 0.809901
Si Si2 0.742091 0.356830 0.074015
Si Si3 0.671072 0.640230 0.428781
Si Si4 0.737829 0.152167 0.835398
Si Si5 0.083453 0.651341 0.358129
O O1 0.428389 0.363222 0.854588
O O2 0.630275 0.163594 0.730555
O O3 0.752506 0.347945 0.705829
O O4 0.406642 0.243539 0.948355
O O5 0.839677 0.500000 0.014783
O O6 0.664149 0.325502 0.176778
O O7 0.500000 0.633024 0.500000
O O8 0.675523 0.500000 0.451308
O O9 0.610011 0.766167 0.499127
O O10 0.817843 0.258124 0.746563
O O11 0.772481 0.000000 0.798110
O O12 0.500000 0.167099 0.000000
O O13 0.044205 0.500000 0.371011
#
# Coordination Sequence:
#
# PCOD9196274 Si02
#       5
#     8   8   8   8   8
#     4  10  20  35  56  86 114 146 184 231 282 332
#     4  10  20  35  56  83 115 149 184 227 279 334
#     4   9  19  35  58  83 111 148 190 231 272 331
#     4  10  20  37  59  81 110 150 192 229 269 332
#     4  11  22  36  57  85 116 147 185 234 283 331
#
# _framework density 20.670957000000001
#
# number of rings (size 3 to 8) (size 9 to 14) (size 15 to 20)
#    0.000    2.000    2.000    1.800    0.000    6.400 
#    0.000    3.000    0.000    0.000    0.000    0.000 
#    0.000    0.000    0.000    0.000    0.000    0.000 
#
# Total GULP energy -111453.069369 kJ/mol
# GULP energy per Si atom -5572.653468 kJ/mol
# Density = 2.062391 g / cm^3
# Si number density = 20.670957 Si / 1000 Ang^3
#
#
#
# Elastic Constant Matrix: (Units=GPa)
#
#
# Indices 1 2 3 4 5 6 
#
# 1 78.7235 33.6864 7.7790 0.0018 16.1185 -0.0017
# 2 33.6864 159.4163 36.3349 0.0013 26.5005 -0.0031
# 3 7.7790 36.3349 44.8616 -0.0010 15.8443 -0.0342
# 4 0.0018 0.0013 -0.0010 7.8299 0.0024 17.7469
# 5 16.1185 26.5005 15.8443 0.0024 23.2145 -0.0078
# 6 -0.0017 -0.0031 -0.0342 17.7469 -0.0078 53.0965
#
#
#
# Elastic Compliance Matrix: (Units=1/GPa)
#
#
# Indices 1 2 3 4 5 6 
#
# 1 0.015432 -0.002199 0.002639 -0.000005 -0.010005 0.000002
# 2 -0.002199 0.008690 -0.004865 0.000032 -0.005072 -0.000014
# 3 0.002639 -0.004865 0.032228 -0.000127 -0.018274 0.000060
# 4 -0.000005 0.000032 -0.000127 0.526821 -0.000060 -0.176084
# 5 -0.010005 -0.005072 -0.018274 -0.000060 0.068286 0.000018
# 6 0.000002 -0.000014 0.000060 -0.176084 0.000018 0.077688
#
#
# Mechanical properties :
#
#
# Convention : Reuss Voigt Hill
#
# Bulk Modulus (GPa) = 21.05342 48.73355 34.89348
# Shear Modulus (GPa) = 6.63282 30.50824 18.57053
#
# Velocity S-wave (km/s) = 1.79325 3.84591 3.00056
# Velocity P-wave (km/s) = 3.80720 6.58395 5.37788
#
# Compressibility (1/GPa) = 0.04749823
#
# Stress axis : x y z
#
# Youngs Moduli (GPa) = 64.80246 115.07906 31.02895
#
# Poissons Ratio (x) = 0.25307 -0.08189
# Poissons Ratio (y) = 0.14251 0.15097
# Poissons Ratio (z) = -0.17101 0.55990
#
# Static dielectric constant tensor:
#      x y z
#    x 1.774300 0.000000 -0.005550 
#    y 0.000000 1.762880 0.000010 
#    z -0.005550 0.000010 1.740570 
# 
# From -- ./inp_files/380505.got.cif
#   From: 2010.05.17/outbox.cif.g08.bks.cpg/sg12_191_cif.got.tgz:380505.got - 2010.06.03 13:09:07.
