data_PCOD9196285
_publ_section_title
;
Structure prediction by ZEFSAII (Michael W. Deem and Ramdas Pophale) SiO2 
 PCOD9196285
Probable space group: C 2/M
;
_chemical_formula_sum "Si O2"
_cell_formula_units_Z 48
_cell_length_a 21.527133
_cell_length_b 9.821103
_cell_length_c 20.155543
_cell_angle_alpha 90.000000
_cell_angle_beta 142.421106
_cell_angle_gamma 90.000000
_cell_volume 2598.760862
_symmetry_space_group_name_H-M "C 2/M"
_symmetry_group_IT_number 12
_symmetry_cell_setting 'monoclinic'
loop_
_space_group_symop_operation_xyz
x,y,z
-x,y,-z
-x,-y,-z
x,-y,z
1/2+x,1/2+y,z
1/2-x,1/2+y,-z
1/2-x,1/2-y,-z
1/2+x,1/2-y,z
loop_
_atom_site_type_symbol
_atom_site_label
_atom_site_fract_x
_atom_site_fract_y
_atom_site_fract_z
Si Si1 0.104040 0.656729 0.626170
Si Si2 0.999765 0.665054 0.922921
Si Si3 0.654311 0.159558 0.940900
Si Si4 0.270414 0.844277 0.704976
Si Si5 0.324286 0.655401 0.521525
Si Si6 0.487141 0.848113 0.307760
O O1 0.121642 0.500000 0.619896
O O2 0.199779 0.748602 0.689282
O O3 0.083431 0.658461 0.687068
O O4 0.000000 0.701741 0.500000
O O5 0.006148 0.500000 0.927741
O O6 0.888059 0.700658 0.800060
O O7 0.092831 0.709538 0.954388
O O8 0.000000 0.709620 0.000000
O O9 0.574990 0.162821 0.812627
O O10 0.683676 0.000000 0.975437
O O11 0.750000 0.250000 0.000000
O O12 0.218583 0.845349 0.589282
O O13 0.270647 0.000000 0.731179
O O14 0.327720 0.500000 0.548347
O O15 0.250000 0.750000 0.500000
O O16 0.432562 0.728315 0.616986
O O17 0.536642 0.000000 0.350531
#
# Coordination Sequence:
#
# PCOD9196285 Si02
#       6
#     8   8   8   8   8   8
#     4  10  20  35  56  83 116 154 189 226 286 350
#     4   9  19  37  59  83 111 149 191 236 289 342
#     4  10  22  40  62  86 116 151 194 243 295 349
#     4  10  21  36  57  84 113 145 191 242 285 335
#     4  11  22  35  55  83 113 148 189 237 292 350
#     4  10  21  38  57  80 116 154 188 235 290 347
#
# _framework density 18.470341999999999
#
# number of rings (size 3 to 8) (size 9 to 14) (size 15 to 20)
#    0.000    2.000    1.667    1.500    2.333    5.000 
#    0.000    0.833    0.000    1.000    0.000    0.000 
#    0.000    0.000    0.000    0.000    0.000    0.000 
#
# Total GULP energy -133889.959396 kJ/mol
# GULP energy per Si atom -5578.748308 kJ/mol
# Density = 1.842830 g / cm^3
# Si number density = 18.470342 Si / 1000 Ang^3
#
#
#
# Elastic Constant Matrix: (Units=GPa)
#
#
# Indices 1 2 3 4 5 6 
#
# 1 134.5472 61.9526 38.1488 0.0000 15.5770 0.0000
# 2 61.9526 103.1445 35.0997 0.0000 22.8262 0.0000
# 3 38.1488 35.0997 60.0225 0.0000 11.2274 0.0000
# 4 0.0000 0.0000 0.0000 19.8940 0.0000 11.5604
# 5 15.5770 22.8262 11.2274 0.0000 35.2421 0.0000
# 6 0.0000 0.0000 0.0000 11.5604 0.0000 34.4084
#
#
#
# Elastic Compliance Matrix: (Units=1/GPa)
#
#
# Indices 1 2 3 4 5 6 
#
# 1 0.010957 -0.005212 -0.003873 0.000000 -0.000234 0.000000
# 2 -0.005212 0.015876 -0.004763 0.000000 -0.006462 0.000000
# 3 -0.003873 -0.004763 0.022341 0.000000 -0.002321 0.000000
# 4 0.000000 0.000000 0.000000 0.062461 0.000000 -0.020985
# 5 -0.000234 -0.006462 -0.002321 0.000000 0.033403 0.000000
# 6 0.000000 0.000000 0.000000 -0.020985 0.000000 0.036113
#
#
# Mechanical properties :
#
#
# Convention : Reuss Voigt Hill
#
# Bulk Modulus (GPa) = 46.55489 63.12406 54.83947
# Shear Modulus (GPa) = 23.14742 28.74311 25.94527
#
# Velocity S-wave (km/s) = 3.54393 3.94912 3.75200
# Velocity P-wave (km/s) = 6.48119 7.41917 6.96599
#
# Compressibility (1/GPa) = 0.02148002
#
# Stress axis : x y z
#
# Youngs Moduli (GPa) = 91.26421 62.98660 44.76042
#
# Poissons Ratio (x) = 0.32827 0.17334
# Poissons Ratio (y) = 0.47564 0.21319
# Poissons Ratio (z) = 0.35344 0.30000
#
# Static dielectric constant tensor:
#      x y z
#    x 1.643930 0.000000 -0.005360 
#    y 0.000000 1.635870 0.000000 
#    z -0.005360 0.000000 1.721220 
# 
# From -- ./inp_files/244878.got.cif
#   From: 2010.05.17/outbox.cif.g08.bks.cpg/sg12_123_cif.got.tgz:244878.got - 2010.06.03 13:09:07.
