data_PCOD9196681
_publ_section_title
;
Structure prediction by ZEFSAII (Michael W. Deem and Ramdas Pophale) SiO2 
 PCOD9196681
Probable space group: C 2/M
;
_chemical_formula_sum "Si O2"
_cell_formula_units_Z 64
_cell_length_a 15.169833
_cell_length_b 7.560826
_cell_length_c 25.400009
_cell_angle_alpha 90.000000
_cell_angle_beta 68.131196
_cell_angle_gamma 90.000000
_cell_volume 2703.648534
_symmetry_space_group_name_H-M "C 2/M"
_symmetry_group_IT_number 12
_symmetry_cell_setting 'monoclinic'
loop_
_space_group_symop_operation_xyz
x,y,z
-x,y,-z
-x,-y,-z
x,-y,z
1/2+x,1/2+y,z
1/2-x,1/2+y,-z
1/2-x,1/2-y,-z
1/2+x,1/2-y,z
loop_
_atom_site_type_symbol
_atom_site_label
_atom_site_fract_x
_atom_site_fract_y
_atom_site_fract_z
Si Si1 0.672615 0.712263 0.061342
Si Si2 0.918824 0.208946 0.604369
Si Si3 0.451040 0.702385 0.245110
Si Si4 0.767191 0.216638 0.724807
Si Si5 0.530687 0.714778 0.875118
Si Si6 0.722187 0.791470 0.446745
Si Si7 0.248432 0.707659 0.846109
Si Si8 0.082643 0.782391 0.636066
O O1 0.667508 0.500000 0.066641
O O2 0.564557 0.770634 0.073497
O O3 0.707917 0.782875 0.110122
O O4 0.750000 0.750000 0.000000
O O5 0.842917 0.275879 0.664520
O O6 0.877345 0.234104 0.555626
O O7 0.021917 0.274527 0.598935
O O8 0.922910 0.000000 0.611480
O O9 0.485915 0.500000 0.238447
O O10 0.336511 0.709343 0.266041
O O11 0.483662 0.778271 0.182233
O O12 0.468611 0.778057 0.299036
O O13 0.785546 0.273946 0.781195
O O14 0.761973 0.000000 0.725275
O O15 0.536298 0.500000 0.872847
O O16 0.633720 0.774755 0.871614
O O17 0.750000 0.750000 0.500000
O O18 0.809830 0.717293 0.392798
O O19 0.722746 0.000000 0.441119
O O20 0.270813 0.500000 0.841057
O O21 0.086210 0.000000 0.637566
#
# Coordination Sequence:
#
# PCOD9196681 Si02
#       8
#     8   8   8   8   8   8   8   8
#     4  10  22  38  55  78 108 146 188 228 270 324
#     4  10  20  35  57  85 111 142 180 221 270 324
#     4   9  16  31  55  80 109 142 178 219 269 326
#     4   9  17  30  53  82 112 139 172 220 272 324
#     4   9  19  34  55  81 108 140 181 227 272 321
#     4  11  23  41  60  80 110 148 187 227 269 318
#     4   9  19  35  54  79 110 143 178 220 274 328
#     4   9  19  34  56  83 110 143 180 218 267 326
#
# _framework density 23.671716
#
# number of rings (size 3 to 8) (size 9 to 14) (size 15 to 20)
#    0.000    2.500    1.250    0.375    1.750    2.000 
#    0.000    6.875    0.000    0.000    0.000    0.000 
#    0.000    0.000    0.000    0.000    0.000    0.000 
#
# Total GULP energy -178633.893821 kJ/mol
# GULP energy per Si atom -5582.309182 kJ/mol
# Density = 2.361784 g / cm^3
# Si number density = 23.671716 Si / 1000 Ang^3
#
#
#
# Elastic Constant Matrix: (Units=GPa)
#
#
# Indices 1 2 3 4 5 6 
#
# 1 77.2536 -1.3495 3.6716 0.0000 16.9899 0.0000
# 2 -1.3495 56.1019 -4.3096 0.0000 -0.8217 -0.0001
# 3 3.6716 -4.3096 35.1995 0.0000 7.4835 0.0000
# 4 0.0000 0.0000 0.0000 13.3854 0.0000 2.5091
# 5 16.9899 -0.8217 7.4835 0.0000 34.2081 0.0000
# 6 0.0000 -0.0001 0.0000 2.5091 0.0000 12.6303
#
#
#
# Elastic Compliance Matrix: (Units=1/GPa)
#
#
# Indices 1 2 3 4 5 6 
#
# 1 0.014535 0.000248 0.000050 0.000000 -0.007224 0.000000
# 2 0.000248 0.017998 0.002215 0.000000 -0.000175 0.000000
# 3 0.000050 0.002215 0.030068 0.000000 -0.006549 0.000000
# 4 0.000000 0.000000 0.000000 0.077598 0.000000 -0.015416
# 5 -0.007224 -0.000175 -0.006549 0.000000 0.034249 0.000000
# 6 0.000000 0.000000 0.000000 -0.015416 0.000000 0.082237
#
#
# Mechanical properties :
#
#
# Convention : Reuss Voigt Hill
#
# Bulk Modulus (GPa) = 14.78709 18.28667 16.53688
# Shear Modulus (GPa) = 18.23472 23.41427 20.82450
#
# Velocity S-wave (km/s) = 2.77847 3.14845 2.96923
# Velocity P-wave (km/s) = 4.06860 4.57808 4.33084
#
# Compressibility (1/GPa) = 0.06762657
#
# Stress axis : x y z
#
# Youngs Moduli (GPa) = 68.79917 55.56097 33.25811
#
# Poissons Ratio (x) = -0.01376 -0.00166
# Poissons Ratio (y) = -0.01704 -0.07367
# Poissons Ratio (z) = -0.00344 -0.12307
#
# Static dielectric constant tensor:
#      x y z
#    x 1.884720 0.000000 0.002800 
#    y 0.000000 1.942600 0.000000 
#    z 0.002800 0.000000 1.914700 
# 
# From -- ./inp_files/359690.got.cif
#   From: 2010.05.17/outbox.cif.g08.bks.cpg/sg12_180_cif.got.tgz:359690.got - 2010.06.03 13:09:07.
