data_PCOD9196458
_publ_section_title
;
Structure prediction by ZEFSAII (Michael W. Deem and Ramdas Pophale) SiO2 
 PCOD9196458
Probable space group: C 2/M
;
_chemical_formula_sum "Si O2"
_cell_formula_units_Z 56
_cell_length_a 30.571881
_cell_length_b 8.143644
_cell_length_c 12.292853
_cell_angle_alpha 90.000000
_cell_angle_beta 70.442998
_cell_angle_gamma 90.000000
_cell_volume 2883.944746
_symmetry_space_group_name_H-M "C 2/M"
_symmetry_group_IT_number 12
_symmetry_cell_setting 'monoclinic'
loop_
_space_group_symop_operation_xyz
x,y,z
-x,y,-z
-x,-y,-z
x,-y,z
1/2+x,1/2+y,z
1/2-x,1/2+y,-z
1/2-x,1/2-y,-z
1/2+x,1/2-y,z
loop_
_atom_site_type_symbol
_atom_site_label
_atom_site_fract_x
_atom_site_fract_y
_atom_site_fract_z
Si Si1 0.201448 0.305602 0.487515
Si Si2 0.118454 0.807088 0.706587
Si Si3 0.458871 0.700566 0.387648
Si Si4 0.333923 0.806002 0.115930
Si Si5 0.562803 0.299480 0.351653
Si Si6 0.149275 0.803114 0.137276
Si Si7 0.771560 0.800729 0.771417
O O1 0.196325 0.500000 0.506237
O O2 0.250000 0.250000 0.500000
O O3 0.159690 0.218990 0.585394
O O4 0.204193 0.259852 0.358812
O O5 0.071992 0.741284 0.687328
O O6 0.134537 0.730140 0.806227
O O7 0.112462 0.000000 0.731134
O O8 0.457986 0.500000 0.387100
O O9 0.436740 0.751015 0.522091
O O10 0.512740 0.749961 0.345136
O O11 0.281500 0.740257 0.179249
O O12 0.329579 0.000000 0.107910
O O13 0.353263 0.739664 0.986667
O O14 0.563575 0.500000 0.350996
O O15 0.606004 0.240605 0.244695
O O16 0.197537 0.746634 0.151786
O O17 0.148822 0.000000 0.146786
O O18 0.770879 0.000000 0.767906
#
# Coordination Sequence:
#
# PCOD9196458 Si02
#       7
#     8   8   8   8   8   8   8
#     4  12  23  35  54  80 111 144 178 219 266 318
#     4  11  21  35  56  81 110 144 182 223 271 323
#     4   8  15  29  54  85 111 135 169 219 276 325
#     4  11  23  37  52  73 109 150 186 225 269 324
#     4   8  14  29  54  84 111 133 168 224 278 320
#     4  10  20  35  57  81 106 140 184 230 274 320
#     4  10  21  37  56  79 107 142 184 228 272 318
#
# _framework density 19.417846999999998
#
# number of rings (size 3 to 8) (size 9 to 14) (size 15 to 20)
#    0.000    2.000    1.429    4.286    0.000    3.429 
#    0.000    0.714    0.000    6.000    0.000    6.000 
#    0.000    0.000    0.000    0.000    0.000    0.000 
#
# Total GULP energy -156361.008819 kJ/mol
# GULP energy per Si atom -5584.321744 kJ/mol
# Density = 1.937365 g / cm^3
# Si number density = 19.417847 Si / 1000 Ang^3
#
#
#
# Elastic Constant Matrix: (Units=GPa)
#
#
# Indices 1 2 3 4 5 6 
#
# 1 121.9309 0.6184 55.4068 0.0000 25.0863 0.0000
# 2 0.6184 8.3621 -0.3098 0.0000 -5.0752 0.0000
# 3 55.4068 -0.3098 100.6200 0.0000 17.2679 0.0000
# 4 0.0000 0.0000 0.0000 19.9379 0.0000 1.2039
# 5 25.0863 -5.0752 17.2679 0.0000 17.5082 0.0000
# 6 0.0000 0.0000 0.0000 1.2039 0.0000 12.9325
#
#
#
# Elastic Compliance Matrix: (Units=1/GPa)
#
#
# Indices 1 2 3 4 5 6 
#
# 1 0.014493 -0.013488 -0.004559 0.000000 -0.020180 0.000000
# 2 -0.013488 0.163448 -0.004234 0.000000 0.070881 0.000000
# 3 -0.004559 -0.004234 0.013874 0.000000 -0.008378 0.000000
# 4 0.000000 0.000000 0.000000 0.050439 0.000000 -0.004695
# 5 -0.020180 0.070881 -0.008378 0.000000 0.114839 0.000000
# 6 0.000000 0.000000 0.000000 -0.004695 0.000000 0.077762
#
#
# Mechanical properties :
#
#
# Convention : Reuss Voigt Hill
#
# Bulk Modulus (GPa) = 6.79104 38.03818 22.41461
# Shear Modulus (GPa) = 9.46072 21.75558 15.60815
#
# Velocity S-wave (km/s) = 2.20970 3.35086 2.83822
# Velocity P-wave (km/s) = 3.16469 5.88241 4.72324
#
# Compressibility (1/GPa) = 0.14725276
#
# Stress axis : x y z
#
# Youngs Moduli (GPa) = 68.99725 6.11816 72.07915
#
# Poissons Ratio (x) = 0.08252 0.32862
# Poissons Ratio (y) = 0.93065 0.30515
# Poissons Ratio (z) = 0.31457 0.02590
#
# Static dielectric constant tensor:
#      x y z
#    x 1.686560 0.000000 -0.018200 
#    y 0.000000 1.683980 0.000000 
#    z -0.018200 0.000000 1.601360 
# 
# From -- ./inp_files/186439.got.cif
#   From: 2010.05.17/outbox.cif.g08.bks.cpg/sg12_94_cif.got.tgz:186439.got - 2010.06.03 13:09:07.
