data_PCOD9196713
_publ_section_title
;
Structure prediction by ZEFSAII (Michael W. Deem and Ramdas Pophale) SiO2 
 PCOD9196713
Probable space group: C 2/M
;
_chemical_formula_sum "Si O2"
_cell_formula_units_Z 64
_cell_length_a 25.099257
_cell_length_b 9.000105
_cell_length_c 15.587136
_cell_angle_alpha 90.000000
_cell_angle_beta 108.420108
_cell_angle_gamma 90.000000
_cell_volume 3340.669423
_symmetry_space_group_name_H-M "C 2/M"
_symmetry_group_IT_number 12
_symmetry_cell_setting 'monoclinic'
loop_
_space_group_symop_operation_xyz
x,y,z
-x,y,-z
-x,-y,-z
x,-y,z
1/2+x,1/2+y,z
1/2-x,1/2+y,-z
1/2-x,1/2-y,-z
1/2+x,1/2-y,z
loop_
_atom_site_type_symbol
_atom_site_label
_atom_site_fract_x
_atom_site_fract_y
_atom_site_fract_z
Si Si1 0.190903 0.822037 0.495307
Si Si2 0.408570 0.321881 0.681446
Si Si3 0.977501 0.327710 0.243218
Si Si4 0.784861 0.177136 0.303193
Si Si5 0.329525 0.320205 0.792989
Si Si6 0.528712 0.337011 0.923872
Si Si7 0.152762 0.321615 0.824865
Si Si8 0.162674 0.169023 0.007128
O O1 0.250000 0.750000 0.500000
O O2 0.139377 0.771407 0.409816
O O3 0.181966 0.792856 0.591774
O O4 0.196183 0.000000 0.486794
O O5 0.411558 0.500000 0.678701
O O6 0.469426 0.256457 0.690332
O O7 0.384942 0.283456 0.765239
O O8 0.980244 0.500000 0.265952
O O9 0.985687 0.295264 0.146466
O O10 0.912912 0.276202 0.223265
O O11 0.723125 0.247037 0.280792
O O12 0.812622 0.253069 0.235169
O O13 0.781237 0.000000 0.289426
O O14 0.325285 0.500000 0.790763
O O15 0.325357 0.272729 0.890831
O O16 0.512300 0.500000 0.878077
O O17 0.500000 0.322989 0.000000
O O18 0.595101 0.339841 0.971150
O O19 0.155254 0.500000 0.826306
O O20 0.175717 0.262367 0.928302
O O21 0.185179 0.000000 0.010749
#
# Coordination Sequence:
#
# PCOD9196713 Si02
#       8
#     8   8   8   8   8   8   8   8
#     4  10  21  38  61  88 116 144 180 225 280 338
#     4  10  20  36  59  86 116 149 183 223 278 343
#     4  10  21  35  53  80 111 145 187 234 280 325
#     4  11  23  38  59  86 112 144 187 234 281 331
#     4  10  20  35  57  85 116 150 186 227 280 336
#     4   9  16  29  50  74 104 145 188 227 274 332
#     4  10  22  40  58  77 109 154 195 231 278 330
#     4   9  18  32  52  79 109 145 190 233 272 323
#
# _framework density 19.157834999999999
#
# number of rings (size 3 to 8) (size 9 to 14) (size 15 to 20)
#    0.000    2.125    1.250    1.875    0.000    6.250 
#    0.000    3.125    0.000    3.750    0.000    0.000 
#    0.000    0.000    0.000    0.000    0.000    0.000 
#
# Total GULP energy -178437.579148 kJ/mol
# GULP energy per Si atom -5576.174348 kJ/mol
# Density = 1.911423 g / cm^3
# Si number density = 19.157835 Si / 1000 Ang^3
#
#
#
# Elastic Constant Matrix: (Units=GPa)
#
#
# Indices 1 2 3 4 5 6 
#
# 1 49.4732 14.5477 7.8269 0.0000 2.4499 0.0000
# 2 14.5477 14.2695 16.2865 0.0000 -4.2686 0.0000
# 3 7.8269 16.2865 84.2575 0.0000 5.1329 0.0000
# 4 0.0000 0.0000 0.0000 20.7499 0.0000 5.8885
# 5 2.4499 -4.2686 5.1329 0.0000 33.2418 0.0000
# 6 0.0000 0.0000 0.0000 5.8885 0.0000 25.2958
#
#
#
# Elastic Compliance Matrix: (Units=1/GPa)
#
#
# Indices 1 2 3 4 5 6 
#
# 1 0.031957 -0.041496 0.005573 0.000000 -0.008544 0.000000
# 2 -0.041496 0.151152 -0.026985 0.000000 0.026635 0.000000
# 3 0.005573 -0.026985 0.016962 0.000000 -0.006495 0.000000
# 4 0.000000 0.000000 0.000000 0.051602 0.000000 -0.012012
# 5 -0.008544 0.026635 -0.006495 0.000000 0.035135 0.000000
# 6 0.000000 0.000000 0.000000 -0.012012 0.000000 0.042328
#
#
# Mechanical properties :
#
#
# Convention : Reuss Voigt Hill
#
# Bulk Modulus (GPa) = 13.46715 25.03581 19.25148
# Shear Modulus (GPa) = 10.42307 23.14679 16.78493
#
# Velocity S-wave (km/s) = 2.33505 3.47971 2.96318
# Velocity P-wave (km/s) = 3.78349 5.40750 4.66668
#
# Compressibility (1/GPa) = 0.07425478
#
# Stress axis : x y z
#
# Youngs Moduli (GPa) = 31.29254 6.61584 58.95400
#
# Poissons Ratio (x) = 0.27453 -0.32855
# Poissons Ratio (y) = 1.29853 1.59086
# Poissons Ratio (z) = -0.17439 0.17853
#
# Static dielectric constant tensor:
#      x y z
#    x 1.673130 0.000000 0.019690 
#    y 0.000000 1.660450 0.000000 
#    z 0.019690 0.000000 1.705270 
# 
# From -- ./inp_files/244184.got.cif
#   From: 2010.05.17/outbox.cif.g08.bks.cpg/sg12_123_cif.got.tgz:244184.got - 2010.06.03 13:09:07.
