data_PCOD9196028
_publ_section_title
;
Structure prediction by ZEFSAII (Michael W. Deem and Ramdas Pophale) SiO2 
 PCOD9196028
Probable space group: C 2/M
;
_chemical_formula_sum "Si O2"
_cell_formula_units_Z 64
_cell_length_a 8.647437
_cell_length_b 11.150590
_cell_length_c 32.359259
_cell_angle_alpha 90.000000
_cell_angle_beta 93.203582
_cell_angle_gamma 90.000000
_cell_volume 3115.333946
_symmetry_space_group_name_H-M "C 2/M"
_symmetry_group_IT_number 12
_symmetry_cell_setting 'monoclinic'
loop_
_space_group_symop_operation_xyz
x,y,z
-x,y,-z
-x,-y,-z
x,-y,z
1/2+x,1/2+y,z
1/2-x,1/2+y,-z
1/2-x,1/2-y,-z
1/2+x,1/2-y,z
loop_
_atom_site_type_symbol
_atom_site_label
_atom_site_fract_x
_atom_site_fract_y
_atom_site_fract_z
Si Si1 0.753336 0.222386 0.230275
Si Si2 0.209740 0.722854 0.596432
Si Si3 0.010787 0.362975 0.714297
Si Si4 0.073635 0.133901 0.917037
Si Si5 0.998096 0.136889 0.651573
Si Si6 0.513068 0.363753 0.176378
Si Si7 0.928416 0.636683 0.542867
Si Si8 0.130918 0.690292 0.030442
O O1 0.641696 0.150725 0.259473
O O2 0.648577 0.276527 0.192466
O O3 0.838507 0.330344 0.256014
O O4 0.886206 0.145504 0.210706
O O5 0.137896 0.831788 0.622219
O O6 0.335523 0.651028 0.624950
O O7 0.065715 0.645431 0.578656
O O8 0.296731 0.776963 0.558100
O O9 0.019821 0.500000 0.698137
O O10 0.002348 0.250013 0.682884
O O11 0.250296 0.131196 0.935689
O O12 0.059155 0.170023 0.868956
O O13 0.968850 0.216818 0.944211
O O14 0.010231 0.000000 0.920056
O O15 0.012321 0.000000 0.667942
O O16 0.569537 0.500000 0.174376
O O17 0.872967 0.500000 0.538320
O O18 0.000000 0.672819 0.500000
O O19 0.250000 0.750000 0.000000
O O20 0.000000 0.627577 0.000000
#
# Coordination Sequence:
#
# PCOD9196028 Si02
#       8
#     8   8   8   8   8   8   8   8
#     4  10  22  38  59  83 115 147 183 232 285 342
#     4  10  22  38  58  84 118 151 192 239 287 340
#     4  11  24  40  60  87 117 151 193 240 289 345
#     4  10  20  35  56  80 108 143 183 227 276 329
#     4  11  24  40  60  86 118 156 196 240 289 343
#     4  10  20  36  58  82 109 144 183 226 279 337
#     4  10  20  36  59  85 114 150 191 235 285 341
#     4   9  19  34  52  77 109 142 181 226 270 326
#
# _framework density 20.543544000000001
#
# number of rings (size 3 to 8) (size 9 to 14) (size 15 to 20)
#    0.000    1.875    0.000    3.375    0.000   10.500 
#    0.000    1.875    0.000   16.500    0.000    0.000 
#    0.000    0.000    0.000    0.000    0.000    0.000 
#
# Total GULP energy -178496.708891 kJ/mol
# GULP energy per Si atom -5578.022153 kJ/mol
# Density = 2.049679 g / cm^3
# Si number density = 20.543544 Si / 1000 Ang^3
#
#
#
# Elastic Constant Matrix: (Units=GPa)
#
#
# Indices 1 2 3 4 5 6 
#
# 1 62.3935 17.8697 1.2017 0.0000 2.2456 0.0000
# 2 17.8697 113.8125 34.2889 0.0000 -2.2144 0.0000
# 3 1.2017 34.2889 71.9689 0.0000 3.6811 0.0000
# 4 0.0000 0.0000 0.0000 38.2898 0.0000 4.6211
# 5 2.2456 -2.2144 3.6811 0.0000 29.0060 0.0000
# 6 0.0000 0.0000 0.0000 4.6211 0.0000 4.7623
#
#
#
# Elastic Compliance Matrix: (Units=1/GPa)
#
#
# Indices 1 2 3 4 5 6 
#
# 1 0.016945 -0.003077 0.001270 0.000000 -0.001708 0.000000
# 2 -0.003077 0.010875 -0.005219 0.000000 0.001731 0.000000
# 3 0.001270 -0.005219 0.016493 0.000000 -0.002590 0.000000
# 4 0.000000 0.000000 0.000000 0.029581 0.000000 -0.028704
# 5 -0.001708 0.001731 -0.002590 0.000000 0.035069 0.000000
# 6 0.000000 0.000000 0.000000 -0.028704 0.000000 0.237836
#
#
# Mechanical properties :
#
#
# Convention : Reuss Voigt Hill
#
# Bulk Modulus (GPa) = 33.04319 39.43284 36.23802
# Shear Modulus (GPa) = 13.47941 27.39928 20.43934
#
# Velocity S-wave (km/s) = 2.56430 3.65597 3.15767
# Velocity P-wave (km/s) = 4.98868 6.08752 5.56529
#
# Compressibility (1/GPa) = 0.03026342
#
# Stress axis : x y z
#
# Youngs Moduli (GPa) = 59.01297 91.95120 60.63360
#
# Poissons Ratio (x) = 0.28289 -0.07702
# Poissons Ratio (y) = 0.18155 0.31642
# Poissons Ratio (z) = -0.07496 0.47986
#
# Static dielectric constant tensor:
#      x y z
#    x 1.716740 0.000000 0.023040 
#    y 0.000000 1.729630 0.000000 
#    z 0.023040 0.000000 1.758230 
# 
# From -- ./inp_files/372166.got.cif
#   From: 2010.05.17/outbox.cif.g08.bks.cpg/sg12_187_cif.got.tgz:372166.got - 2010.06.03 13:09:07.
