data_PCOD9196434
_publ_section_title
;
Structure prediction by ZEFSAII (Michael W. Deem and Ramdas Pophale) SiO2 
 PCOD9196434
Probable space group: C 2/M
;
_chemical_formula_sum "Si O2"
_cell_formula_units_Z 40
_cell_length_a 21.938304
_cell_length_b 14.360786
_cell_length_c 8.100254
_cell_angle_alpha 90.000000
_cell_angle_beta 129.153040
_cell_angle_gamma 90.000000
_cell_volume 1978.976128
_symmetry_space_group_name_H-M "C 2/M"
_symmetry_group_IT_number 12
_symmetry_cell_setting 'monoclinic'
loop_
_space_group_symop_operation_xyz
x,y,z
-x,y,-z
-x,-y,-z
x,-y,z
1/2+x,1/2+y,z
1/2-x,1/2+y,-z
1/2-x,1/2-y,-z
1/2+x,1/2-y,z
loop_
_atom_site_type_symbol
_atom_site_label
_atom_site_fract_x
_atom_site_fract_y
_atom_site_fract_z
Si Si1 0.481425 0.500000 0.708226
Si Si2 0.040785 0.791588 0.355938
Si Si3 0.312405 0.329673 0.572901
Si Si4 0.632977 0.500000 0.164730
Si Si5 0.877576 0.742473 0.177821
Si Si6 0.262105 0.608636 0.121206
O O1 0.462177 0.401025 0.595441
O O2 0.427226 0.500000 0.780283
O O3 0.573304 0.500000 0.911481
O O4 0.099764 0.789061 0.303355
O O5 0.081634 0.734384 0.572500
O O6 0.950841 0.761181 0.182450
O O7 0.250000 0.250000 0.500000
O O8 0.316280 0.407797 0.720268
O O9 0.289741 0.375915 0.358041
O O10 0.819272 0.830206 0.102617
O O11 0.823674 0.655230 0.041732
O O12 0.263795 0.500000 0.084313
#
# Coordination Sequence:
#
# PCOD9196434 Si02
#       6
#     4   8   8   4   8   8
#     4   9  18  29  54  80 112 136 175 235 287 324
#     4   9  19  35  53  81 110 143 183 228 281 327
#     4  10  20  35  57  76 113 148 182 230 276 326
#     4   9  18  34  48  84 105 143 183 224 282 326
#     4   9  20  34  57  82 109 142 184 224 276 337
#     4  10  20  37  57  82 113 148 182 226 279 329
#
# _framework density 20.212474
#
# number of rings (size 3 to 8) (size 9 to 14) (size 15 to 20)
#    0.000    2.600    1.000    0.000    8.400    0.800 
#    0.000    2.000    2.200    1.200    0.000    0.000 
#    0.000    0.000    0.000    0.000    0.000    0.000 
#
# Total GULP energy -111627.484352 kJ/mol
# GULP energy per Si atom -5581.374218 kJ/mol
# Density = 2.016647 g / cm^3
# Si number density = 20.212474 Si / 1000 Ang^3
#
#
#
# Elastic Constant Matrix: (Units=GPa)
#
#
# Indices 1 2 3 4 5 6 
#
# 1 95.9087 40.6009 19.1375 0.0000 36.4986 0.0000
# 2 40.6009 105.1579 36.1676 0.0000 27.6430 0.0000
# 3 19.1375 36.1676 88.4405 0.0000 17.2326 0.0000
# 4 0.0000 0.0000 0.0000 37.0082 0.0000 9.1695
# 5 36.4986 27.6430 17.2326 0.0000 40.8803 0.0000
# 6 0.0000 0.0000 0.0000 9.1695 0.0000 21.7471
#
#
#
# Elastic Compliance Matrix: (Units=1/GPa)
#
#
# Indices 1 2 3 4 5 6 
#
# 1 0.016561 -0.003098 0.000170 0.000000 -0.012763 0.000000
# 2 -0.003098 0.013228 -0.003852 0.000000 -0.004555 0.000000
# 3 0.000170 -0.003852 0.013474 0.000000 -0.003227 0.000000
# 4 0.000000 0.000000 0.000000 0.030173 0.000000 -0.012722
# 5 -0.012763 -0.004555 -0.003227 0.000000 0.040297 0.000000
# 6 0.000000 0.000000 0.000000 -0.012722 0.000000 0.051347
#
#
# Mechanical properties :
#
#
# Convention : Reuss Voigt Hill
#
# Bulk Modulus (GPa) = 33.66484 53.47991 43.57237
# Shear Modulus (GPa) = 26.51951 32.83387 29.67669
#
# Velocity S-wave (km/s) = 3.62613 4.03480 3.83591
# Velocity P-wave (km/s) = 5.85008 6.94424 6.42051
#
# Compressibility (1/GPa) = 0.02970458
#
# Stress axis : x y z
#
# Youngs Moduli (GPa) = 60.38292 75.59949 74.21615
#
# Poissons Ratio (x) = 0.23417 -0.01262
# Poissons Ratio (y) = 0.18704 0.28585
# Poissons Ratio (z) = -0.01027 0.29117
#
# Static dielectric constant tensor:
#      x y z
#    x 1.784440 0.000000 -0.023580 
#    y 0.000000 1.690790 0.000000 
#    z -0.023580 0.000000 1.754170 
# 
# From -- ./inp_files/72483.got.cif
#   From: 2010.05.17/outbox.cif.g08.bks.cpg/sg12_37_cif.got.tgz:72483.got - 2010.06.03 13:09:07.
