data_PCOD9196746
_publ_section_title
;
Structure prediction by ZEFSAII (Michael W. Deem and Ramdas Pophale) SiO2 
 PCOD9196746
Probable space group: C 2/M
;
_chemical_formula_sum "Si O2"
_cell_formula_units_Z 64
_cell_length_a 13.888088
_cell_length_b 24.672342
_cell_length_c 16.366594
_cell_angle_alpha 90.000000
_cell_angle_beta 143.461053
_cell_angle_gamma 90.000000
_cell_volume 3338.853908
_symmetry_space_group_name_H-M "C 2/M"
_symmetry_group_IT_number 12
_symmetry_cell_setting 'monoclinic'
loop_
_space_group_symop_operation_xyz
x,y,z
-x,y,-z
-x,-y,-z
x,-y,z
1/2+x,1/2+y,z
1/2-x,1/2+y,-z
1/2-x,1/2-y,-z
1/2+x,1/2-y,z
loop_
_atom_site_type_symbol
_atom_site_label
_atom_site_fract_x
_atom_site_fract_y
_atom_site_fract_z
Si Si1 0.597352 0.833069 0.821170
Si Si2 0.176100 0.226647 0.139672
Si Si3 0.264823 0.670680 0.100994
Si Si4 0.922162 0.561152 0.760579
Si Si5 0.276446 0.764513 0.642335
Si Si6 0.735849 0.062545 0.177485
Si Si7 0.386013 0.441131 0.560697
Si Si8 0.871278 0.825838 0.593870
O O1 0.683320 0.813164 0.797521
O O2 0.526668 0.893615 0.785409
O O3 0.446203 0.794278 0.738805
O O4 0.730682 0.825236 0.982519
O O5 0.171455 0.281553 0.082678
O O6 0.217593 0.246331 0.259830
O O7 0.000000 0.201145 0.000000
O O8 0.220804 0.610570 0.102154
O O9 0.448345 0.681363 0.251364
O O10 0.989240 0.500000 0.799605
O O11 0.884394 0.573674 0.829463
O O12 0.742202 0.559472 0.599464
O O13 0.148695 0.806388 0.514070
O O14 0.260704 0.711243 0.575340
O O15 0.925392 0.065342 0.334449
O O16 0.709913 0.000000 0.132482
O O17 0.373127 0.500000 0.592994
O O18 0.337045 0.389115 0.579192
#
# Coordination Sequence:
#
# PCOD9196746 Si02
#       8
#     8   8   8   8   8   8   8   8
#     4  12  23  41  60  87 120 156 203 244 294 360
#     4  12  24  39  62  84 116 162 203 242 299 355
#     4  11  22  36  57  82 120 160 192 237 287 354
#     4  10  20  35  57  85 120 156 196 248 297 350
#     4  11  22  39  59  86 122 152 195 249 301 347
#     4   9  19  33  53  87 122 157 195 233 295 369
#     4   9  17  32  56  84 119 159 192 231 294 364
#     4  10  21  38  57  86 122 151 193 245 290 352
#
# _framework density 19.168254999999998
#
# number of rings (size 3 to 8) (size 9 to 14) (size 15 to 20)
#    0.000    1.500    3.750    2.250    0.000    2.500 
#    0.000    1.250    0.000    1.125    0.000    1.750 
#    0.000    0.000    0.000    0.000    0.000    0.000 
#
# Total GULP energy -178482.093210 kJ/mol
# GULP energy per Si atom -5577.565413 kJ/mol
# Density = 1.912463 g / cm^3
# Si number density = 19.168255 Si / 1000 Ang^3
#
#
#
# Elastic Constant Matrix: (Units=GPa)
#
#
# Indices 1 2 3 4 5 6 
#
# 1 52.3448 34.8501 19.7428 0.0000 -8.8126 0.0000
# 2 34.8501 123.3221 10.0961 0.0000 -0.8196 0.0000
# 3 19.7428 10.0961 102.9454 0.0000 -1.3205 0.0000
# 4 0.0000 0.0000 0.0000 21.2853 0.0000 -3.0049
# 5 -8.8126 -0.8196 -1.3205 0.0000 19.7405 0.0000
# 6 0.0000 0.0000 0.0000 -3.0049 0.0000 15.7465
#
#
#
# Elastic Compliance Matrix: (Units=1/GPa)
#
#
# Indices 1 2 3 4 5 6 
#
# 1 0.027665 -0.007377 -0.004431 0.000000 0.011747 0.000000
# 2 -0.007377 0.010143 0.000383 0.000000 -0.002846 0.000000
# 3 -0.004431 0.000383 0.010510 0.000000 -0.001259 0.000000
# 4 0.000000 0.000000 0.000000 0.048281 0.000000 0.009213
# 5 0.011747 -0.002846 -0.001259 0.000000 0.055699 0.000000
# 6 0.000000 0.000000 0.000000 0.009213 0.000000 0.065264
#
#
# Mechanical properties :
#
#
# Convention : Reuss Voigt Hill
#
# Bulk Modulus (GPa) = 39.26481 45.33227 42.29854
# Shear Modulus (GPa) = 20.08822 25.61601 22.85211
#
# Velocity S-wave (km/s) = 3.24079 3.65961 3.45655
# Velocity P-wave (km/s) = 5.87642 6.44655 6.16808
#
# Compressibility (1/GPa) = 0.02546810
#
# Stress axis : x y z
#
# Youngs Moduli (GPa) = 36.14718 98.58780 95.14778
#
# Poissons Ratio (x) = 0.72729 0.42163
# Poissons Ratio (y) = 0.26666 -0.03649
# Poissons Ratio (z) = 0.16018 -0.03781
#
# Static dielectric constant tensor:
#      x y z
#    x 1.668240 0.000000 0.034160 
#    y 0.000000 1.710840 0.000000 
#    z 0.034160 0.000000 1.758960 
# 
# From -- ./inp_files/209420.got.cif
#   From: 2010.05.17/outbox.cif.g08.bks.cpg/sg12_105_cif.got.tgz:209420.got - 2010.06.03 13:09:07.
