data_PCOD9196775
_publ_section_title
;
Structure prediction by ZEFSAII (Michael W. Deem and Ramdas Pophale) SiO2 
 PCOD9196775
Probable space group: C 2/M
;
_chemical_formula_sum "Si O2"
_cell_formula_units_Z 42
_cell_length_a 16.282062
_cell_length_b 15.272802
_cell_length_c 9.937757
_cell_angle_alpha 90.000000
_cell_angle_beta 39.133428
_cell_angle_gamma 90.000000
_cell_volume 1559.675567
_symmetry_space_group_name_H-M "C 2/M"
_symmetry_group_IT_number 12
_symmetry_cell_setting 'monoclinic'
loop_
_space_group_symop_operation_xyz
x,y,z
-x,y,-z
-x,-y,-z
x,-y,z
1/2+x,1/2+y,z
1/2-x,1/2+y,-z
1/2-x,1/2-y,-z
1/2+x,1/2-y,z
loop_
_atom_site_type_symbol
_atom_site_label
_atom_site_fract_x
_atom_site_fract_y
_atom_site_fract_z
Si Si1 0.959915 0.393931 0.195638
Si Si2 0.379961 0.329204 0.547974
Si Si3 0.500000 0.000000 0.500000
Si Si4 0.937333 0.103551 0.897719
Si Si5 0.716542 0.100780 0.975268
Si Si6 0.714738 0.136582 0.358682
O O1 0.969376 0.500000 0.179301
O O2 0.824459 0.373258 0.435093
O O3 0.074869 0.358191 0.145800
O O4 0.000000 0.359202 0.000000
O O5 0.500000 0.329796 0.500000
O O6 0.441180 0.348907 0.324759
O O7 0.280151 0.396697 0.746045
O O8 0.309459 0.236922 0.643921
O O9 0.607329 0.075680 0.418414
O O10 0.816709 0.136177 0.955468
O O11 0.957746 0.000000 0.847210
O O12 0.863626 0.112210 0.134076
O O13 0.692947 0.000000 0.046026
#
# Coordination Sequence:
#
# PCOD9196775 Si02
#       6
#     8   8   2   8   8   8
#     4  10  21  37  57  78 105 147 194 233 273 328
#     4  10  22  33  54  85 120 146 182 224 287 352
#     4  12  20  36  54  88 120 142 172 236 284 334
#     4  10  20  35  57  86 118 149 180 226 289 347
#     4   9  19  35  57  80 112 150 183 227 281 337
#     4  12  22  34  56  85 114 145 188 232 283 331
#
# _framework density 26.928675999999999
#
# number of rings (size 3 to 8) (size 9 to 14) (size 15 to 20)
#    0.000    1.714    2.857    1.714    5.333    3.810 
#    0.000    0.952    0.000    0.000    0.000    5.333 
#    0.000    0.000    0.000    0.000    0.000    0.000 
#
# Total GULP energy -117255.168647 kJ/mol
# GULP energy per Si atom -5583.579459 kJ/mol
# Density = 2.686739 g / cm^3
# Si number density = 26.928676 Si / 1000 Ang^3
#
#
#
# Elastic Constant Matrix: (Units=GPa)
#
#
# Indices 1 2 3 4 5 6 
#
# 1 43.9248 18.1008 20.4164 0.0000 -13.1441 0.0000
# 2 18.1008 92.5340 32.3167 0.0000 -6.1695 0.0000
# 3 20.4164 32.3167 173.9684 0.0000 11.2002 0.0000
# 4 0.0000 0.0000 0.0000 42.8268 0.0000 -1.3156
# 5 -13.1441 -6.1695 11.2002 0.0000 55.1232 0.0000
# 6 0.0000 0.0000 0.0000 -1.3156 0.0000 -0.3484
#
#
#
# Elastic Compliance Matrix: (Units=1/GPa)
#
#
# Indices 1 2 3 4 5 6 
#
# 1 0.027805 -0.003950 -0.002966 0.000000 0.006791 0.000000
# 2 -0.003950 0.012287 -0.001871 0.000000 0.000814 0.000000
# 3 -0.002966 -0.001871 0.006589 0.000000 -0.002256 0.000000
# 4 0.000000 0.000000 0.000000 0.020923 0.000000 -0.078999
# 5 0.006791 0.000814 -0.002256 0.000000 0.020310 0.000000
# 6 0.000000 0.000000 0.000000 -0.078999 0.000000 -2.571667
#
#
# Mechanical properties :
#
#
# Convention : Reuss Voigt Hill
#
# Bulk Modulus (GPa) = 34.35795 50.23278 42.29536
# Shear Modulus (GPa) = -2.03544 35.49320 16.72888
#
# Velocity S-wave (km/s) = -0.87035 3.63443 2.49515
# Velocity P-wave (km/s) = 3.43170 6.02549 4.90322
#
# Compressibility (1/GPa) = 0.02910535
#
# Stress axis : x y z
#
# Youngs Moduli (GPa) = 35.96494 81.38470 151.76481
#
# Poissons Ratio (x) = 0.32149 0.45021
# Poissons Ratio (y) = 0.14207 0.28400
# Poissons Ratio (z) = 0.10669 0.15230
#
# Static dielectric constant tensor:
#      x y z
#    x 2.191720 0.000000 0.113870 
#    y 0.000000 2.007070 0.000000 
#    z 0.113870 0.000000 2.222450 
# 
# From -- ./inp_files/130465.got.cif
#   From: 2010.05.17/outbox.cif.g08.bks.cpg/sg12_66_cif.got.tgz:130465.got - 2010.06.03 13:09:07.
