data_PCOD9196727
_publ_section_title
;
Structure prediction by ZEFSAII (Michael W. Deem and Ramdas Pophale) SiO2 
 PCOD9196727
Probable space group: C 2/M
;
_chemical_formula_sum "Si O2"
_cell_formula_units_Z 56
_cell_length_a 25.927206
_cell_length_b 11.893735
_cell_length_c 25.744120
_cell_angle_alpha 90.000000
_cell_angle_beta 159.597916
_cell_angle_gamma 90.000000
_cell_volume 2767.496355
_symmetry_space_group_name_H-M "C 2/M"
_symmetry_group_IT_number 12
_symmetry_cell_setting 'monoclinic'
loop_
_space_group_symop_operation_xyz
x,y,z
-x,y,-z
-x,-y,-z
x,-y,z
1/2+x,1/2+y,z
1/2-x,1/2+y,-z
1/2-x,1/2-y,-z
1/2+x,1/2-y,z
loop_
_atom_site_type_symbol
_atom_site_label
_atom_site_fract_x
_atom_site_fract_y
_atom_site_fract_z
Si Si1 0.853253 0.630549 0.153203
Si Si2 0.822729 0.873820 0.555211
Si Si3 0.350334 0.321151 0.384505
Si Si4 0.495321 0.280826 0.623162
Si Si5 0.220964 0.630612 0.162158
Si Si6 0.461897 0.285705 0.162561
Si Si7 0.567504 0.123023 0.178489
O O1 0.867973 0.500000 0.160355
O O2 0.903861 0.693861 0.148992
O O3 0.953563 0.675810 0.294540
O O4 0.682120 0.662963 0.000484
O O5 0.750000 0.750000 0.500000
O O6 0.892474 0.855214 0.563932
O O7 0.950287 0.873920 0.719496
O O8 0.750220 0.000000 0.488251
O O9 0.500000 0.373419 0.500000
O O10 0.420257 0.248242 0.497454
O O11 0.258602 0.288623 0.246288
O O12 0.223429 0.383164 0.296848
O O13 0.644533 0.350046 0.750762
O O14 0.224286 0.500000 0.183531
O O15 0.063970 0.647309 0.986700
O O16 0.562186 0.220323 0.216008
O O17 0.533786 0.000000 0.169776
#
# Coordination Sequence:
#
# PCOD9196727 Si02
#       7
#     8   8   8   8   8   8   8
#     4  10  20  37  61  88 119 155 200 250 302 363
#     4  11  24  39  59  89 129 168 208 252 305 369
#     4  10  22  36  55  83 120 158 196 247 310 374
#     4  10  21  38  58  86 118 159 199 247 306 365
#     4  10  20  35  57  85 117 153 198 248 306 371
#     4  10  21  37  58  88 120 158 200 245 303 361
#     4  11  21  35  57  88 123 159 201 248 306 375
#
# _framework density 20.234895999999999
#
# number of rings (size 3 to 8) (size 9 to 14) (size 15 to 20)
#    0.000    1.714    1.429    3.000    0.000   11.429 
#    0.000    0.000    0.000    3.857    0.000    4.000 
#    0.000    0.000    0.000    0.000    0.000    0.000 
#
# Total GULP energy -155904.193732 kJ/mol
# GULP energy per Si atom -5568.006919 kJ/mol
# Density = 2.018884 g / cm^3
# Si number density = 20.234896 Si / 1000 Ang^3
#
#
#
# Elastic Constant Matrix: (Units=GPa)
#
#
# Indices 1 2 3 4 5 6 
#
# 1 99.9121 24.7509 36.2383 0.0004 1.8333 0.0002
# 2 24.7509 103.3730 27.9268 0.0005 -4.1279 0.0003
# 3 36.2383 27.9268 91.1072 -0.0011 -4.3434 -0.0006
# 4 0.0004 0.0005 -0.0011 -0.4436 -0.0003 8.9433
# 5 1.8333 -4.1279 -4.3434 -0.0003 39.6389 -0.0001
# 6 0.0002 0.0003 -0.0006 8.9433 -0.0001 0.7467
#
#
#
# Elastic Compliance Matrix: (Units=1/GPa)
#
#
# Indices 1 2 3 4 5 6 
#
# 1 0.012029 -0.001767 -0.004301 0.000000 -0.001212 -0.000001
# 2 -0.001767 0.010829 -0.002572 0.000000 0.000927 -0.000001
# 3 -0.004301 -0.002572 0.013543 0.000001 0.001415 0.000002
# 4 0.000000 0.000000 0.000001 -0.009297 0.000000 0.111354
# 5 -0.001212 0.000927 0.001415 0.000000 0.025535 0.000001
# 6 -0.000001 -0.000001 0.000002 0.111354 0.000001 0.005523
#
#
# Mechanical properties :
#
#
# Convention : Reuss Voigt Hill
#
# Bulk Modulus (GPa) = 52.29962 52.46937 52.38449
# Shear Modulus (GPa) = 61.11387 21.68680 41.40034
#
# Velocity S-wave (km/s) = 5.50162 3.27731 4.52817
# Velocity P-wave (km/s) = 8.13999 6.34882 7.29955
#
# Compressibility (1/GPa) = 0.01912060
#
# Stress axis : x y z
#
# Youngs Moduli (GPa) = 83.13581 92.34748 73.84073
#
# Poissons Ratio (x) = 0.16314 0.31756
# Poissons Ratio (y) = 0.14686 0.18995
# Poissons Ratio (z) = 0.35754 0.23756
#
# Static dielectric constant tensor:
#      x y z
#    x 1.734270 0.000000 0.003710 
#    y 0.000000 1.680990 0.000000 
#    z 0.003710 0.000000 1.796160 
# 
# From -- ./inp_files/369412.got.cif
#   From: 2010.05.17/outbox.cif.g08.bks.cpg/sg12_185_cif.got.tgz:369412.got - 2010.06.03 13:09:07.
