data_PCOD9196448
_publ_section_title
;
Structure prediction by ZEFSAII (Michael W. Deem and Ramdas Pophale) SiO2 
 PCOD9196448
Probable space group: C 2/M
;
_chemical_formula_sum "Si O2"
_cell_formula_units_Z 40
_cell_length_a 12.049286
_cell_length_b 13.490062
_cell_length_c 9.533200
_cell_angle_alpha 90.000000
_cell_angle_beta 110.801525
_cell_angle_gamma 90.000000
_cell_volume 1448.572393
_symmetry_space_group_name_H-M "C 2/M"
_symmetry_group_IT_number 12
_symmetry_cell_setting 'monoclinic'
loop_
_space_group_symop_operation_xyz
x,y,z
-x,y,-z
-x,-y,-z
x,-y,z
1/2+x,1/2+y,z
1/2-x,1/2+y,-z
1/2-x,1/2-y,-z
1/2+x,1/2-y,z
loop_
_atom_site_type_symbol
_atom_site_label
_atom_site_fract_x
_atom_site_fract_y
_atom_site_fract_z
Si Si1 0.218922 0.116313 0.963118
Si Si2 0.478908 0.675598 0.780127
Si Si3 0.334739 0.677793 0.353228
Si Si4 0.733983 0.891664 0.597855
Si Si5 0.021300 0.390661 0.842461
O O1 0.089346 0.161098 0.936699
O O2 0.245993 0.163593 0.822685
O O3 0.200588 0.000000 0.935535
O O4 0.336008 0.125974 0.108739
O O5 0.541532 0.643554 0.661527
O O6 0.460023 0.793120 0.756556
O O7 0.356812 0.618873 0.741695
O O8 0.339382 0.792895 0.400543
O O9 0.280765 0.619334 0.458952
O O10 0.680626 0.000000 0.597105
O O11 0.988887 0.500000 0.772994
O O12 0.000000 0.394114 0.000000
#
# Coordination Sequence:
#
# PCOD9196448 Si02
#       5
#     8   8   8   8   8
#     4   9  18  34  56  82 109 149 193 231 279 339
#     4  10  21  35  58  85 117 148 193 239 284 338
#     4   9  22  35  57  87 115 152 185 237 288 342
#     4  11  21  38  60  87 118 150 192 240 288 340
#     4  10  20  35  57  80 112 154 193 233 288 345
#
# _framework density 27.613395000000001
#
# number of rings (size 3 to 8) (size 9 to 14) (size 15 to 20)
#    1.200    1.000    0.000    3.600    0.000    1.600 
#    0.000    4.000    0.000    8.400    0.000    0.000 
#    0.000    0.000    0.000    0.000    0.000    0.000 
#
# Total GULP energy -111896.540662 kJ/mol
# GULP energy per Si atom -5594.827033 kJ/mol
# Density = 2.755055 g / cm^3
# Si number density = 27.613395 Si / 1000 Ang^3
#
#
#
# Elastic Constant Matrix: (Units=GPa)
#
#
# Indices 1 2 3 4 5 6 
#
# 1 120.5501 -6.5479 2.7392 0.0000 6.3574 0.0000
# 2 -6.5479 184.4745 5.8479 0.0000 2.0187 0.0000
# 3 2.7392 5.8479 79.4134 0.0000 1.5803 0.0000
# 4 0.0000 0.0000 0.0000 28.2696 0.0000 -4.4644
# 5 6.3574 2.0187 1.5803 0.0000 43.1694 0.0000
# 6 0.0000 0.0000 0.0000 -4.4644 0.0000 11.9296
#
#
#
# Elastic Compliance Matrix: (Units=1/GPa)
#
#
# Indices 1 2 3 4 5 6 
#
# 1 0.008385 0.000320 -0.000288 0.000000 -0.001239 0.000000
# 2 0.000320 0.005448 -0.000407 0.000000 -0.000287 0.000000
# 3 -0.000288 -0.000407 0.012640 0.000000 -0.000401 0.000000
# 4 0.000000 0.000000 0.000000 0.037596 0.000000 0.014069
# 5 -0.001239 -0.000287 -0.000401 0.000000 0.023375 0.000000
# 6 0.000000 0.000000 0.000000 0.014069 0.000000 0.089090
#
#
# Mechanical properties :
#
#
# Convention : Reuss Voigt Hill
#
# Bulk Modulus (GPa) = 38.87379 43.16847 41.02113
# Shear Modulus (GPa) = 26.90239 42.16697 34.53468
#
# Velocity S-wave (km/s) = 3.12469 3.91199 3.54029
# Velocity P-wave (km/s) = 5.20833 6.00599 5.62133
#
# Compressibility (1/GPa) = 0.02572428
#
# Stress axis : x y z
#
# Youngs Moduli (GPa) = 119.26620 183.54684 79.11268
#
# Poissons Ratio (x) = -0.05879 0.02280
# Poissons Ratio (y) = -0.03820 0.03216
# Poissons Ratio (z) = 0.03436 0.07462
#
# Static dielectric constant tensor:
#      x y z
#    x 2.203920 0.000000 0.042510 
#    y 0.000000 2.047380 0.000000 
#    z 0.042510 0.000000 2.320810 
# 
# From -- ./inp_files/203990.got.cif
#   From: 2010.05.17/outbox.cif.g08.bks.cpg/sg12_102_cif.got.tgz:203990.got - 2010.06.03 13:09:07.
