data_PCOD9196990
_publ_section_title
;
Structure prediction by ZEFSAII (Michael W. Deem and Ramdas Pophale) SiO2 
 PCOD9196990
Probable space group: C 2/M
;
_chemical_formula_sum "Si O2"
_cell_formula_units_Z 64
_cell_length_a 33.227137
_cell_length_b 8.279308
_cell_length_c 19.253490
_cell_angle_alpha 90.000000
_cell_angle_beta 34.276996
_cell_angle_gamma 90.000000
_cell_volume 2983.009922
_symmetry_space_group_name_H-M "C 2/M"
_symmetry_group_IT_number 12
_symmetry_cell_setting 'monoclinic'
loop_
_space_group_symop_operation_xyz
x,y,z
-x,y,-z
-x,-y,-z
x,-y,z
1/2+x,1/2+y,z
1/2-x,1/2+y,-z
1/2-x,1/2-y,-z
1/2+x,1/2-y,z
loop_
_atom_site_type_symbol
_atom_site_label
_atom_site_fract_x
_atom_site_fract_y
_atom_site_fract_z
Si Si1 0.542274 0.304572 0.871050
Si Si2 0.785794 0.808990 0.805934
Si Si3 0.555240 0.190538 0.570608
Si Si4 0.793538 0.693952 0.370023
Si Si5 0.581003 0.812521 0.314649
Si Si6 0.340890 0.687247 0.929415
Si Si7 0.477147 0.308114 0.818101
Si Si8 0.784962 0.191965 0.656157
O O1 0.542674 0.500000 0.872265
O O2 0.624116 0.248203 0.748953
O O3 0.500855 0.254008 0.860211
O O4 0.500000 0.247810 0.000000
O O5 0.869209 0.774226 0.700511
O O6 0.762631 0.743715 0.763593
O O7 0.774156 0.000000 0.825391
O O8 0.737704 0.729761 0.933737
O O9 0.497629 0.248558 0.594964
O O10 0.518665 0.217784 0.697622
O O11 0.630514 0.278193 0.466748
O O12 0.566536 0.000000 0.542963
O O13 0.791424 0.500000 0.372797
O O14 0.750000 0.750000 0.500000
O O15 0.754503 0.756786 0.355639
O O16 0.626157 0.793227 0.178880
O O17 0.575179 0.000000 0.341916
O O18 0.345203 0.500000 0.900771
O O19 0.393720 0.710336 0.919645
O O20 0.493656 0.500000 0.787929
O O21 0.772283 0.000000 0.675241
#
# Coordination Sequence:
#
# PCOD9196990 Si02
#       8
#     8   8   8   8   8   8   8   8
#     4  10  22  39  61  91 126 160 198 250 308 365
#     4  11  23  38  56  81 114 153 193 236 287 344
#     4  10  21  37  60  87 112 145 193 242 286 339
#     4  11  24  43  65  91 122 162 208 253 305 366
#     4  10  21  38  58  84 116 150 189 237 289 343
#     4  10  20  35  58  85 114 152 194 236 283 341
#     4   9  19  36  58  84 115 152 190 232 288 350
#     4  10  24  42  59  82 117 155 191 237 294 350
#
# _framework density 21.454839
#
# number of rings (size 3 to 8) (size 9 to 14) (size 15 to 20)
#    0.000    1.875    0.000    3.000    1.750    8.250 
#    0.000    2.500    0.000    0.000    0.000    0.000 
#    0.000    0.000    0.000    0.000    0.000    0.000 
#
# Total GULP energy -178809.660194 kJ/mol
# GULP energy per Si atom -5587.801881 kJ/mol
# Density = 2.140601 g / cm^3
# Si number density = 21.454839 Si / 1000 Ang^3
#
#
#
# Elastic Constant Matrix: (Units=GPa)
#
#
# Indices 1 2 3 4 5 6 
#
# 1 137.5339 8.6642 32.1191 -0.0036 2.5039 0.0013
# 2 8.6642 19.1541 0.0765 0.0012 2.2183 0.0023
# 3 32.1191 0.0765 97.8130 0.0044 -2.1759 0.0018
# 4 -0.0036 0.0012 0.0044 22.6693 0.0027 -6.5615
# 5 2.5039 2.2183 -2.1759 0.0027 30.7607 -0.0028
# 6 0.0013 0.0023 0.0018 -6.5615 -0.0028 26.2591
#
#
#
# Elastic Compliance Matrix: (Units=1/GPa)
#
#
# Indices 1 2 3 4 5 6 
#
# 1 0.008135 -0.003600 -0.002682 0.000002 -0.000592 0.000001
# 2 -0.003600 0.054243 0.001061 -0.000005 -0.003544 -0.000006
# 3 -0.002682 0.001061 0.011124 -0.000003 0.000929 -0.000001
# 4 0.000002 -0.000005 -0.000003 0.047552 -0.000003 0.011882
# 5 -0.000592 -0.003544 0.000929 -0.000003 0.032878 0.000003
# 6 0.000001 -0.000006 -0.000001 0.011882 0.000003 0.041051
#
#
# Mechanical properties :
#
#
# Convention : Reuss Voigt Hill
#
# Bulk Modulus (GPa) = 15.85800 37.35783 26.60791
# Shear Modulus (GPa) = 22.08047 30.18057 26.13052
#
# Velocity S-wave (km/s) = 3.21153 3.75467 3.49367
# Velocity P-wave (km/s) = 4.59993 6.02054 5.35753
#
# Compressibility (1/GPa) = 0.06305967
#
# Stress axis : x y z
#
# Youngs Moduli (GPa) = 122.92903 18.43562 89.89587
#
# Poissons Ratio (x) = 0.06638 0.24106
# Poissons Ratio (y) = 0.44259 -0.09538
# Poissons Ratio (z) = 0.32965 -0.01956
#
# Static dielectric constant tensor:
#      x y z
#    x 1.806120 0.000000 0.020020 
#    y 0.000000 1.746850 0.000000 
#    z 0.020020 0.000000 1.762700 
# 
# From -- ./inp_files/295626.got.cif
#   From: 2010.05.17/outbox.cif.g08.bks.cpg/sg12_148_cif.got.tgz:295626.got - 2010.06.03 13:09:07.
