data_PCOD9196445
_publ_section_title
;
Structure prediction by ZEFSAII (Michael W. Deem and Ramdas Pophale) SiO2 
 PCOD9196445
Probable space group: C 2/M
;
_chemical_formula_sum "Si O2"
_cell_formula_units_Z 48
_cell_length_a 15.434529
_cell_length_b 8.022905
_cell_length_c 15.730812
_cell_angle_alpha 90.000000
_cell_angle_beta 88.969265
_cell_angle_gamma 90.000000
_cell_volume 1947.627475
_symmetry_space_group_name_H-M "C 2/M"
_symmetry_group_IT_number 12
_symmetry_cell_setting 'monoclinic'
loop_
_space_group_symop_operation_xyz
x,y,z
-x,y,-z
-x,-y,-z
x,-y,z
1/2+x,1/2+y,z
1/2-x,1/2+y,-z
1/2-x,1/2-y,-z
1/2+x,1/2-y,z
loop_
_atom_site_type_symbol
_atom_site_label
_atom_site_fract_x
_atom_site_fract_y
_atom_site_fract_z
Si Si1 0.065557 0.315961 0.691341
Si Si2 0.993650 0.307073 0.118914
Si Si3 0.663898 0.302648 0.548839
Si Si4 0.685241 0.202030 0.925521
Si Si5 0.670914 0.300064 0.203582
Si Si6 0.598550 0.310572 0.379453
O O1 0.031606 0.500000 0.671523
O O2 0.061307 0.302759 0.791686
O O3 0.152686 0.288756 0.638447
O O4 0.998921 0.187444 0.652534
O O5 0.011698 0.500000 0.096812
O O6 0.915365 0.238870 0.060435
O O7 0.086174 0.231933 0.144932
O O8 0.660183 0.500000 0.564187
O O9 0.750000 0.250000 0.500000
O O10 0.598526 0.244455 0.475201
O O11 0.741417 0.261716 0.842697
O O12 0.679352 0.000000 0.921903
O O13 0.750000 0.250000 0.000000
O O14 0.677923 0.500000 0.210838
O O15 0.649741 0.230952 0.298473
O O16 0.630975 0.500000 0.387893
#
# Coordination Sequence:
#
# PCOD9196445 Si02
#       6
#     8   8   8   8   8   8
#     4  10  20  35  57  80 108 144 185 230 277 329
#     4   9  20  38  60  84 114 151 188 229 283 338
#     4  11  23  35  51  78 111 148 188 230 277 325
#     4  10  22  39  60  85 114 149 185 228 283 343
#     4   9  19  37  61  84 110 148 191 231 277 335
#     4   9  19  36  57  77 105 145 187 227 274 330
#
# _framework density 24.645368999999999
#
# number of rings (size 3 to 8) (size 9 to 14) (size 15 to 20)
#    0.000    2.333    0.000    1.500    2.333    6.000 
#    0.000    3.333    0.000    0.000    0.000    0.000 
#    0.000    0.000    0.000    0.000    0.000    0.000 
#
# Total GULP energy -133807.150446 kJ/mol
# GULP energy per Si atom -5575.297935 kJ/mol
# Density = 2.458928 g / cm^3
# Si number density = 24.645369 Si / 1000 Ang^3
#
#
#
# Elastic Constant Matrix: (Units=GPa)
#
#
# Indices 1 2 3 4 5 6 
#
# 1 106.6711 -3.0208 -21.3531 0.0000 -0.3918 0.0000
# 2 -3.0208 35.4501 1.6117 0.0000 4.1898 0.0000
# 3 -21.3531 1.6117 49.9490 0.0000 -4.9671 0.0000
# 4 0.0000 0.0000 0.0000 20.4071 0.0000 -1.6218
# 5 -0.3918 4.1898 -4.9671 0.0000 39.7135 0.0000
# 6 0.0000 0.0000 0.0000 -1.6218 0.0000 20.6444
#
#
#
# Elastic Compliance Matrix: (Units=1/GPa)
#
#
# Indices 1 2 3 4 5 6 
#
# 1 0.010282 0.000604 0.004435 0.000000 0.000592 0.000000
# 2 0.000604 0.028676 -0.000979 0.000000 -0.003142 0.000000
# 3 0.004435 -0.000979 0.022239 0.000000 0.002929 0.000000
# 4 0.000000 0.000000 0.000000 0.049311 0.000000 0.003874
# 5 0.000592 -0.003142 0.002929 0.000000 0.025884 0.000000
# 6 0.000000 0.000000 0.000000 0.003874 0.000000 0.048744
#
#
# Mechanical properties :
#
#
# Convention : Reuss Voigt Hill
#
# Bulk Modulus (GPa) = 14.42654 16.28288 15.35471
# Shear Modulus (GPa) = 24.98495 30.47514 27.73005
#
# Velocity S-wave (km/s) = 3.18744 3.52027 3.35798
# Velocity P-wave (km/s) = 4.40599 4.81085 4.61287
#
# Compressibility (1/GPa) = 0.06931669
#
# Stress axis : x y z
#
# Youngs Moduli (GPa) = 97.26068 34.87234 44.96583
#
# Poissons Ratio (x) = -0.02108 -0.19941
# Poissons Ratio (y) = -0.05879 0.04404
# Poissons Ratio (z) = -0.43133 0.03415
#
# Static dielectric constant tensor:
#      x y z
#    x 2.279190 0.000000 0.126620 
#    y 0.000000 1.887480 0.000000 
#    z 0.126620 0.000000 2.173630 
# 
# From -- ./inp_files/221561.got.cif
#   From: 2010.05.17/outbox.cif.g08.bks.cpg/sg12_111_cif.got.tgz:221561.got - 2010.06.03 13:09:07.
