data_PCOD9196030
_publ_section_title
;
Structure prediction by ZEFSAII (Michael W. Deem and Ramdas Pophale) SiO2 
 PCOD9196030
Probable space group: C 2/M
;
_chemical_formula_sum "Si O2"
_cell_formula_units_Z 64
_cell_length_a 16.254556
_cell_length_b 8.833291
_cell_length_c 19.154371
_cell_angle_alpha 90.000000
_cell_angle_beta 88.874502
_cell_angle_gamma 90.000000
_cell_volume 2749.677420
_symmetry_space_group_name_H-M "C 2/M"
_symmetry_group_IT_number 12
_symmetry_cell_setting 'monoclinic'
loop_
_space_group_symop_operation_xyz
x,y,z
-x,y,-z
-x,-y,-z
x,-y,z
1/2+x,1/2+y,z
1/2-x,1/2+y,-z
1/2-x,1/2-y,-z
1/2+x,1/2-y,z
loop_
_atom_site_type_symbol
_atom_site_label
_atom_site_fract_x
_atom_site_fract_y
_atom_site_fract_z
Si Si1 0.747193 0.824591 0.293445
Si Si2 0.915443 0.674040 0.547398
Si Si3 0.413675 0.678591 0.040721
Si Si4 0.328995 0.179529 0.162347
Si Si5 0.517171 0.676334 0.660024
Si Si6 0.429270 0.825267 0.780697
Si Si7 0.327085 0.818850 0.914048
Si Si8 0.325162 0.819743 0.414820
O O1 0.809798 0.742568 0.239357
O O2 0.657551 0.814364 0.259944
O O3 0.753739 0.755629 0.370421
O O4 0.769693 0.000000 0.296461
O O5 0.897929 0.500000 0.570383
O O6 0.940636 0.778451 0.611221
O O7 0.846617 0.729167 0.493582
O O8 0.000000 0.667006 0.500000
O O9 0.397149 0.500000 0.046879
O O10 0.349385 0.756841 0.989147
O O11 0.500000 0.699494 0.000000
O O12 0.404410 0.752913 0.116856
O O13 0.250005 0.235455 0.119045
O O14 0.334219 0.000000 0.164300
O O15 0.535460 0.500000 0.652721
O O16 0.492014 0.720210 0.738646
O O17 0.593228 0.773422 0.630213
O O18 0.403184 0.789038 0.859905
O O19 0.457301 0.000000 0.776185
O O20 0.313195 0.000000 0.914721
O O21 0.316007 0.000000 0.416216
#
# Coordination Sequence:
#
# PCOD9196030 Si02
#       8
#     8   8   8   8   8   8   8   8
#     4  10  21  38  59  83 111 142 181 228 273 320
#     4   8  16  32  52  74 104 142 182 224 271 325
#     4  11  24  40  58  83 116 148 181 227 275 318
#     4  11  22  38  61  84 111 147 184 221 266 327
#     4  11  21  32  53  82 110 142 183 229 272 322
#     4   9  20  38  57  78 109 145 179 223 275 325
#     4  10  21  39  62  84 108 143 187 228 269 323
#     4  10  20  35  56  80 108 144 183 224 274 329
#
# _framework density 23.275458
#
# number of rings (size 3 to 8) (size 9 to 14) (size 15 to 20)
#    0.000    2.000    0.000    5.625    0.000    7.750 
#    0.000    3.125    0.000    0.000    0.000    0.000 
#    0.000    0.000    0.000    0.000    0.000    0.000 
#
# Total GULP energy -179082.727215 kJ/mol
# GULP energy per Si atom -5596.335225 kJ/mol
# Density = 2.322248 g / cm^3
# Si number density = 23.275458 Si / 1000 Ang^3
#
#
#
# Elastic Constant Matrix: (Units=GPa)
#
#
# Indices 1 2 3 4 5 6 
#
# 1 56.1650 8.8528 15.7033 0.0000 1.3162 0.0000
# 2 8.8528 78.0537 34.4640 0.0000 -10.5014 0.0000
# 3 15.7033 34.4640 127.8130 0.0000 -3.7692 0.0000
# 4 0.0000 0.0000 0.0000 34.1915 0.0000 0.4397
# 5 1.3162 -10.5014 -3.7692 0.0000 42.7561 0.0000
# 6 0.0000 0.0000 0.0000 0.4397 0.0000 17.3808
#
#
#
# Elastic Compliance Matrix: (Units=1/GPa)
#
#
# Indices 1 2 3 4 5 6 
#
# 1 0.018593 -0.001399 -0.001939 0.000000 -0.001087 0.000000
# 2 -0.001399 0.015109 -0.003801 0.000000 0.003419 0.000000
# 3 -0.001939 -0.003801 0.009085 0.000000 -0.000073 0.000000
# 4 0.000000 0.000000 0.000000 0.029257 0.000000 -0.000740
# 5 -0.001087 0.003419 -0.000073 0.000000 0.024255 0.000000
# 6 0.000000 0.000000 0.000000 -0.000740 0.000000 0.057553
#
#
# Mechanical properties :
#
#
# Convention : Reuss Voigt Hill
#
# Bulk Modulus (GPa) = 35.07785 42.23019 38.65402
# Shear Modulus (GPa) = 28.14791 32.39979 30.27385
#
# Velocity S-wave (km/s) = 3.48133 3.73502 3.61040
# Velocity P-wave (km/s) = 5.59133 6.06494 5.83295
#
# Compressibility (1/GPa) = 0.02850802
#
# Stress axis : x y z
#
# Youngs Moduli (GPa) = 53.78421 66.18678 110.07122
#
# Poissons Ratio (x) = 0.09258 0.21345
# Poissons Ratio (y) = 0.07523 0.41841
# Poissons Ratio (z) = 0.10430 0.25160
#
# Static dielectric constant tensor:
#      x y z
#    x 1.980210 0.000000 -0.002230 
#    y 0.000000 1.769100 0.000000 
#    z -0.002230 0.000000 1.860970 
# 
# From -- ./inp_files/314200.got.cif
#   From: 2010.05.17/outbox.cif.g08.bks.cpg/sg12_158_cif.got.tgz:314200.got - 2010.06.03 13:09:07.
