data_PCOD9196471
_publ_section_title
;
Structure prediction by ZEFSAII (Michael W. Deem and Ramdas Pophale) SiO2 
 PCOD9196471
Probable space group: C 2/M
;
_chemical_formula_sum "Si O2"
_cell_formula_units_Z 64
_cell_length_a 13.823034
_cell_length_b 16.839269
_cell_length_c 28.750072
_cell_angle_alpha 90.000000
_cell_angle_beta 31.390800
_cell_angle_gamma 90.000000
_cell_volume 3485.756414
_symmetry_space_group_name_H-M "C 2/M"
_symmetry_group_IT_number 12
_symmetry_cell_setting 'monoclinic'
loop_
_space_group_symop_operation_xyz
x,y,z
-x,y,-z
-x,-y,-z
x,-y,z
1/2+x,1/2+y,z
1/2-x,1/2+y,-z
1/2-x,1/2-y,-z
1/2+x,1/2-y,z
loop_
_atom_site_type_symbol
_atom_site_label
_atom_site_fract_x
_atom_site_fract_y
_atom_site_fract_z
Si Si1 0.598731 0.663124 0.006274
Si Si2 0.395527 0.090651 0.948633
Si Si3 0.777961 0.585886 0.584609
Si Si4 0.308794 0.216933 0.168435
Si Si5 0.700657 0.320676 0.108954
Si Si6 0.143209 0.246748 0.483114
Si Si7 0.325600 0.408641 0.265222
Si Si8 0.481460 0.201393 0.645279
O O1 0.440810 0.708875 0.100396
O O2 0.500000 0.631704 0.000000
O O3 0.716728 0.603640 0.988974
O O4 0.740747 0.733643 0.932965
O O5 0.559375 0.148863 0.864957
O O6 0.453050 0.000000 0.925889
O O7 0.334047 0.120968 0.025030
O O8 0.716679 0.500000 0.590043
O O9 0.756330 0.666973 0.565277
O O10 0.696291 0.593993 0.669837
O O11 0.000000 0.581592 0.500000
O O12 0.233448 0.181756 0.150585
O O13 0.146655 0.247023 0.268059
O O14 0.493430 0.349867 0.184082
O O15 0.315700 0.186918 0.415830
O O16 0.000000 0.233742 0.500000
O O17 0.028044 0.253572 0.577908
O O18 0.364388 0.500000 0.236117
O O19 0.137043 0.375958 0.319946
#
# Coordination Sequence:
#
# PCOD9196471 Si02
#       8
#     8   8   8   8   8   8   8   8
#     4   9  19  37  56  79 112 154 193 225 262 317
#     4  11  21  35  56  82 119 151 182 227 273 328
#     4   9  16  30  50  76 111 138 165 222 288 334
#     4  10  21  35  55  83 110 148 188 226 278 328
#     4  10  20  35  57  81 112 148 186 229 277 326
#     4  10  20  36  55  82 111 142 187 230 280 339
#     4  11  20  31  54  84 114 143 181 230 280 332
#     4  11  21  34  56  81 111 146 186 233 276 331
#
# _framework density 18.360434999999999
#
# number of rings (size 3 to 8) (size 9 to 14) (size 15 to 20)
#    0.000    1.875    2.500    5.250    0.000    1.750 
#    0.000    0.625    0.000    1.875    0.000    0.000 
#    0.000    0.000    0.000    0.000    0.000    0.000 
#
# Total GULP energy -178461.326842 kJ/mol
# GULP energy per Si atom -5576.916464 kJ/mol
# Density = 1.831865 g / cm^3
# Si number density = 18.360435 Si / 1000 Ang^3
#
#
#
# Elastic Constant Matrix: (Units=GPa)
#
#
# Indices 1 2 3 4 5 6 
#
# 1 99.3830 20.8208 32.1075 -0.0020 1.4329 0.0001
# 2 20.8208 22.8180 10.1428 -0.0053 5.0623 0.0004
# 3 32.1075 10.1428 90.2409 -0.0164 4.8764 0.0004
# 4 -0.0020 -0.0053 -0.0164 25.1818 0.0009 -4.8171
# 5 1.4329 5.0623 4.8764 0.0009 28.0309 0.0004
# 6 0.0001 0.0004 0.0004 -4.8171 0.0004 17.4721
#
#
#
# Elastic Compliance Matrix: (Units=1/GPa)
#
#
# Indices 1 2 3 4 5 6 
#
# 1 0.013563 -0.011178 -0.003675 -0.000004 0.001965 -0.000001
# 2 -0.011178 0.056958 -0.001918 0.000011 -0.009381 0.000002
# 3 -0.003675 -0.001918 0.012695 0.000008 -0.001674 0.000002
# 4 -0.000004 0.000011 0.000008 0.041922 -0.000005 0.011558
# 5 0.001965 -0.009381 -0.001674 -0.000005 0.037560 -0.000002
# 6 -0.000001 0.000002 0.000002 0.011558 -0.000002 0.060421
#
#
# Mechanical properties :
#
#
# Convention : Reuss Voigt Hill
#
# Bulk Modulus (GPa) = 20.13129 37.62048 28.87589
# Shear Modulus (GPa) = 18.30027 24.09502 21.19764
#
# Velocity S-wave (km/s) = 3.16052 3.62655 3.40152
# Velocity P-wave (km/s) = 4.93019 6.17011 5.58467
#
# Compressibility (1/GPa) = 0.04967391
#
# Stress axis : x y z
#
# Youngs Moduli (GPa) = 73.73016 17.55665 78.76979
#
# Poissons Ratio (x) = 0.19625 0.28952
# Poissons Ratio (y) = 0.82415 0.15108
# Poissons Ratio (z) = 0.27099 0.03367
#
# Static dielectric constant tensor:
#      x y z
#    x 1.676100 0.000000 -0.009100 
#    y 0.000000 1.640380 0.000000 
#    z -0.009100 0.000000 1.643370 
# 
# From -- ./inp_files/376782.got.cif
#   From: 2010.05.17/outbox.cif.g08.bks.cpg/sg12_189_cif.got.tgz:376782.got - 2010.06.03 13:09:07.
