data_PCOD9196484
_publ_section_title
;
Structure prediction by ZEFSAII (Michael W. Deem and Ramdas Pophale) SiO2 
 PCOD9196484
Probable space group: C 2/M
;
_chemical_formula_sum "Si O2"
_cell_formula_units_Z 56
_cell_length_a 18.847389
_cell_length_b 8.596002
_cell_length_c 19.231270
_cell_angle_alpha 90.000000
_cell_angle_beta 75.890028
_cell_angle_gamma 90.000000
_cell_volume 3021.698317
_symmetry_space_group_name_H-M "C 2/M"
_symmetry_group_IT_number 12
_symmetry_cell_setting 'monoclinic'
loop_
_space_group_symop_operation_xyz
x,y,z
-x,y,-z
-x,-y,-z
x,-y,z
1/2+x,1/2+y,z
1/2-x,1/2+y,-z
1/2-x,1/2-y,-z
1/2+x,1/2-y,z
loop_
_atom_site_type_symbol
_atom_site_label
_atom_site_fract_x
_atom_site_fract_y
_atom_site_fract_z
Si Si1 0.081795 0.189713 0.000029
Si Si2 0.975385 0.687712 0.429401
Si Si3 0.690618 0.813555 0.566860
Si Si4 0.850214 0.313083 0.273479
Si Si5 0.990606 0.186347 0.723872
Si Si6 0.636397 0.311846 0.139469
Si Si7 0.795579 0.186540 0.140157
O O1 0.141763 0.239153 0.929079
O O2 0.080474 0.000000 0.000084
O O3 0.106685 0.238069 0.071019
O O4 0.000000 0.242091 0.000000
O O5 0.981817 0.500000 0.423308
O O6 0.890537 0.729909 0.439143
O O7 0.017526 0.760223 0.353978
O O8 0.000000 0.737079 0.500000
O O9 0.750000 0.750000 0.500000
O O10 0.694275 0.762694 0.646589
O O11 0.695158 0.000000 0.565266
O O12 0.849619 0.500000 0.270895
O O13 0.933770 0.257998 0.265187
O O14 0.816818 0.245780 0.211394
O O15 0.922362 0.234447 0.787816
O O16 0.996974 0.000000 0.725345
O O17 0.640514 0.500000 0.138528
O O18 0.716435 0.246799 0.135942
O O19 0.795051 0.000000 0.140382
#
# Coordination Sequence:
#
# PCOD9196484 Si02
#       7
#     8   8   8   8   8   8   8
#     4   9  18  35  58  81 108 143 181 222 268 318
#     4   9  19  36  55  76 106 143 180 221 272 322
#     4   9  19  34  53  77 104 137 174 216 267 319
#     4  10  21  38  57  78 109 145 179 221 276 328
#     4  10  20  35  57  82 106 140 186 227 268 322
#     4  10  21  37  56  80 114 148 176 219 276 322
#     4  11  22  35  56  84 110 142 185 225 264 317
#
# _framework density 18.532624999999999
#
# number of rings (size 3 to 8) (size 9 to 14) (size 15 to 20)
#    0.000    2.286    0.000    3.429    0.000    7.714 
#    0.000    3.571    0.000    3.000    0.000    0.000 
#    0.000    0.000    0.000    0.000    0.000    0.000 
#
# Total GULP energy -156302.466372 kJ/mol
# GULP energy per Si atom -5582.230942 kJ/mol
# Density = 1.849044 g / cm^3
# Si number density = 18.532625 Si / 1000 Ang^3
#
#
#
# Elastic Constant Matrix: (Units=GPa)
#
#
# Indices 1 2 3 4 5 6 
#
# 1 138.0625 29.7427 125.5705 0.0000 2.2852 0.0000
# 2 29.7427 22.8392 40.0988 0.0000 -1.2507 0.0000
# 3 125.5705 40.0988 226.0752 0.0000 -0.8027 0.0000
# 4 0.0000 0.0000 0.0000 24.4285 0.0000 1.4470
# 5 2.2852 -1.2507 -0.8027 0.0000 40.3221 0.0000
# 6 0.0000 0.0000 0.0000 1.4470 0.0000 24.3593
#
#
#
# Elastic Compliance Matrix: (Units=1/GPa)
#
#
# Indices 1 2 3 4 5 6 
#
# 1 0.015503 -0.007452 -0.007294 0.000000 -0.001255 0.000000
# 2 -0.007452 0.067291 -0.007788 0.000000 0.002354 0.000000
# 3 -0.007294 -0.007788 0.009857 0.000000 0.000368 0.000000
# 4 0.000000 0.000000 0.000000 0.041080 0.000000 -0.002440
# 5 -0.001255 0.002354 0.000368 0.000000 0.024952 0.000000
# 6 0.000000 0.000000 0.000000 -0.002440 0.000000 0.041197
#
#
# Mechanical properties :
#
#
# Convention : Reuss Voigt Hill
#
# Bulk Modulus (GPa) = 21.01552 86.42231 53.71891
# Shear Modulus (GPa) = 19.17113 30.59297 24.88205
#
# Velocity S-wave (km/s) = 3.21978 4.06737 3.66814
# Velocity P-wave (km/s) = 5.01867 8.29408 6.85488
#
# Compressibility (1/GPa) = 0.04758389
#
# Stress axis : x y z
#
# Youngs Moduli (GPa) = 64.50390 14.86079 101.45061
#
# Poissons Ratio (x) = 0.11075 0.73993
# Poissons Ratio (y) = 0.48071 0.79007
# Poissons Ratio (z) = 0.47046 0.11573
#
# Static dielectric constant tensor:
#      x y z
#    x 1.606040 0.000000 -0.000860 
#    y 0.000000 1.635660 0.000000 
#    z -0.000860 0.000000 1.638520 
# 
# From -- ./inp_files/275102.got.cif
#   From: 2010.05.17/outbox.cif.g08.bks.cpg/sg12_138_cif.got.tgz:275102.got - 2010.06.03 13:09:07.
