data_PCOD9196006
_publ_section_title
;
Structure prediction by ZEFSAII (Michael W. Deem and Ramdas Pophale) SiO2 
 PCOD9196006
Probable space group: C 2/M
;
_chemical_formula_sum "Si O2"
_cell_formula_units_Z 40
_cell_length_a 20.877754
_cell_length_b 7.471288
_cell_length_c 15.118079
_cell_angle_alpha 90.000000
_cell_angle_beta 37.760220
_cell_angle_gamma 90.000000
_cell_volume 1444.047498
_symmetry_space_group_name_H-M "C 2/M"
_symmetry_group_IT_number 12
_symmetry_cell_setting 'monoclinic'
loop_
_space_group_symop_operation_xyz
x,y,z
-x,y,-z
-x,-y,-z
x,-y,z
1/2+x,1/2+y,z
1/2-x,1/2+y,-z
1/2-x,1/2-y,-z
1/2+x,1/2-y,z
loop_
_atom_site_type_symbol
_atom_site_label
_atom_site_fract_x
_atom_site_fract_y
_atom_site_fract_z
Si Si1 0.885612 0.214379 0.094535
Si Si2 0.971934 0.220564 0.756232
Si Si3 0.782437 0.212815 0.845159
Si Si4 0.657278 0.713768 0.669942
Si Si5 0.897064 0.799228 0.553669
O O1 0.839105 0.265202 0.048981
O O2 0.820661 0.272028 0.253684
O O3 0.890935 0.000000 0.084228
O O4 0.000000 0.277563 0.000000
O O5 0.855711 0.279101 0.846373
O O6 0.044042 0.278508 0.759704
O O7 0.054153 0.277986 0.588517
O O8 0.966727 0.000000 0.764959
O O9 0.827239 0.294851 0.704538
O O10 0.800177 0.000000 0.824685
O O11 0.648864 0.500000 0.683670
O O12 0.750000 0.750000 0.500000
O O13 0.000000 0.823184 0.500000
O O14 0.859538 0.000000 0.572901
#
# Coordination Sequence:
#
# PCOD9196006 Si02
#       5
#     8   8   8   8   8
#     4  10  22  38  52  71 107 150 178 201 255 331
#     4   8  14  26  47  75 101 127 167 218 264 300
#     4   9  16  29  52  76  96 127 177 227 258 292
#     4  10  20  35  56  80 107 139 175 217 262 309
#     4   7  10  18  37  67  96 116 141 190 252 297
#
# _framework density 27.699921
#
# number of rings (size 3 to 8) (size 9 to 14) (size 15 to 20)
#    0.000    3.200    0.000    3.600    0.000    2.800 
#    0.000    2.000    0.000    7.800    0.000    0.000 
#    0.000    0.000    0.000    0.000    0.000    0.000 
#
# Total GULP energy -111405.592707 kJ/mol
# GULP energy per Si atom -5570.279635 kJ/mol
# Density = 2.763687 g / cm^3
# Si number density = 27.699921 Si / 1000 Ang^3
#
#
#
# Elastic Constant Matrix: (Units=GPa)
#
#
# Indices 1 2 3 4 5 6 
#
# 1 332.2274 16.2169 75.1477 -0.0006 -15.3258 0.0000
# 2 16.2169 85.9951 0.7741 -0.0006 -8.1432 0.0012
# 3 75.1477 0.7741 82.7155 -0.0015 -26.1479 0.0007
# 4 -0.0006 -0.0006 -0.0015 -14.4551 0.0007 -11.3868
# 5 -15.3258 -8.1432 -26.1479 0.0007 49.3629 -0.0001
# 6 0.0000 0.0012 0.0007 -11.3868 -0.0001 20.6480
#
#
#
# Elastic Compliance Matrix: (Units=1/GPa)
#
#
# Indices 1 2 3 4 5 6 
#
# 1 0.003865 -0.000784 -0.003802 0.000000 -0.000943 0.000000
# 2 -0.000784 0.011998 0.001380 0.000000 0.002467 -0.000001
# 3 -0.003802 0.001380 0.018293 -0.000001 0.008737 -0.000001
# 4 0.000000 0.000000 -0.000001 -0.048228 0.000000 -0.026597
# 5 -0.000943 0.002467 0.008737 0.000000 0.025000 0.000000
# 6 0.000000 -0.000001 -0.000001 -0.026597 0.000000 0.033763
#
#
# Mechanical properties :
#
#
# Convention : Reuss Voigt Hill
#
# Bulk Modulus (GPa) = 36.04569 76.13505 56.09037
# Shear Modulus (GPa) = 82.84930 38.36443 60.60687
#
# Velocity S-wave (km/s) = 5.47490 3.72560 4.68266
# Velocity P-wave (km/s) = 7.28060 6.78617 7.03773
#
# Compressibility (1/GPa) = 0.02774256
#
# Stress axis : x y z
#
# Youngs Moduli (GPa) = 258.75060 83.35029 54.66619
#
# Poissons Ratio (x) = 0.06534 0.20784
# Poissons Ratio (y) = 0.20284 -0.07542
# Poissons Ratio (z) = 0.98378 -0.11499
#
# Static dielectric constant tensor:
#      x y z
#    x 2.180320 0.000000 0.008270 
#    y 0.000000 2.062230 0.000000 
#    z 0.008270 0.000000 2.664290 
# 
# From -- ./inp_files/280707.got.cif
#   From: 2010.05.17/outbox.cif.g08.bks.cpg/sg12_141_cif.got.tgz:280707.got - 2010.06.03 13:09:07.
