data_PCOD9196888
_publ_section_title
;
Structure prediction by ZEFSAII (Michael W. Deem and Ramdas Pophale) SiO2 
 PCOD9196888
Probable space group: C 2/M
;
_chemical_formula_sum "Si O2"
_cell_formula_units_Z 44
_cell_length_a 16.200411
_cell_length_b 29.218626
_cell_length_c 4.995060
_cell_angle_alpha 90.000000
_cell_angle_beta 63.660897
_cell_angle_gamma 90.000000
_cell_volume 2118.964291
_symmetry_space_group_name_H-M "C 2/M"
_symmetry_group_IT_number 12
_symmetry_cell_setting 'monoclinic'
loop_
_space_group_symop_operation_xyz
x,y,z
-x,y,-z
-x,-y,-z
x,-y,z
1/2+x,1/2+y,z
1/2-x,1/2+y,-z
1/2-x,1/2-y,-z
1/2+x,1/2-y,z
loop_
_atom_site_type_symbol
_atom_site_label
_atom_site_fract_x
_atom_site_fract_y
_atom_site_fract_z
Si Si1 0.914046 0.947981 0.277290
Si Si2 0.711949 0.448339 0.056609
Si Si3 0.000000 0.315693 0.500000
Si Si4 0.242633 0.311129 0.719329
Si Si5 0.312772 0.863510 0.730260
Si Si6 0.591248 0.742812 0.767387
O O1 0.860270 0.929872 0.614980
O O2 0.944634 0.000000 0.310363
O O3 0.840896 0.951384 0.146879
O O4 0.000000 0.924934 0.000000
O O5 0.738674 0.500000 0.103396
O O6 0.793636 0.414309 0.862152
O O7 0.913724 0.348187 0.678843
O O8 0.958962 0.281932 0.336316
O O9 0.208554 0.348507 0.545210
O O10 0.338349 0.289097 0.491828
O O11 0.163004 0.271823 0.847956
O O12 0.254163 0.332475 0.992938
O O13 0.500000 0.716782 0.000000
#
# Coordination Sequence:
#
# PCOD9196888 Si02
#       6
#     8   8   4   8   8   8
#     4   9  17  32  55  81 104 145 193 226 274 339
#     4  10  20  35  58  82 116 153 188 235 282 329
#     4  10  22  36  65  80 112 154 193 230 278 352
#     4  10  23  36  60  82 118 146 188 241 281 334
#     4  11  22  40  55  88 114 149 193 238 281 336
#     4  10  20  37  59  86 111 151 192 225 288 349
#
# _framework density 20.764859000000001
#
# number of rings (size 3 to 8) (size 9 to 14) (size 15 to 20)
#    0.000    2.000    1.818    1.636    2.545    4.364 
#    0.000    5.909    0.000    0.000    0.000    7.636 
#    0.000    0.000    0.000    0.000    0.000    0.000 
#
# Total GULP energy -122530.643563 kJ/mol
# GULP energy per Si atom -5569.574707 kJ/mol
# Density = 2.071760 g / cm^3
# Si number density = 20.764859 Si / 1000 Ang^3
#
#
#
# Elastic Constant Matrix: (Units=GPa)
#
#
# Indices 1 2 3 4 5 6 
#
# 1 64.4844 14.5149 27.5439 0.0000 -16.8599 0.0000
# 2 14.5149 46.3737 20.0417 0.0000 -20.0800 0.0000
# 3 27.5439 20.0417 85.0021 0.0000 -8.3776 0.0000
# 4 0.0000 0.0000 0.0000 52.9033 0.0000 -10.0902
# 5 -16.8599 -20.0800 -8.3776 0.0000 50.0521 0.0000
# 6 0.0000 0.0000 0.0000 -10.0902 0.0000 13.1781
#
#
#
# Elastic Compliance Matrix: (Units=1/GPa)
#
#
# Indices 1 2 3 4 5 6 
#
# 1 0.019506 -0.001571 -0.005455 0.000000 0.005027 0.000000
# 2 -0.001571 0.028706 -0.005263 0.000000 0.010106 0.000000
# 3 -0.005455 -0.005263 0.014625 0.000000 -0.001501 0.000000
# 4 0.000000 0.000000 0.000000 0.022135 0.000000 0.016948
# 5 0.005027 0.010106 -0.001501 0.000000 0.025476 0.000000
# 6 0.000000 0.000000 0.000000 0.016948 0.000000 0.088861
#
#
# Mechanical properties :
#
#
# Convention : Reuss Voigt Hill
#
# Bulk Modulus (GPa) = 26.13766 35.56238 30.85002
# Shear Modulus (GPa) = 21.12922 32.14402 26.63662
#
# Velocity S-wave (km/s) = 3.19336 3.93873 3.58547
# Velocity P-wave (km/s) = 5.11972 6.15209 5.65949
#
# Compressibility (1/GPa) = 0.03825898
#
# Stress axis : x y z
#
# Youngs Moduli (GPa) = 51.26745 34.83543 68.37630
#
# Poissons Ratio (x) = 0.05473 0.37297
# Poissons Ratio (y) = 0.08055 0.35988
# Poissons Ratio (z) = 0.27965 0.18335
#
# Static dielectric constant tensor:
#      x y z
#    x 1.732320 0.000000 -0.026300 
#    y 0.000000 1.847540 0.000000 
#    z -0.026300 0.000000 1.866270 
# 
# From -- ./inp_files/18055.got.cif
#   From: 2010.05.17/outbox.cif.g08.bks.cpg/sg12_10_cif.got.tgz:18055.got - 2010.06.03 13:09:07.
