data_PCOD9196799
_publ_section_title
;
Structure prediction by ZEFSAII (Michael W. Deem and Ramdas Pophale) SiO2 
 PCOD9196799
Probable space group: C 2/M
;
_chemical_formula_sum "Si O2"
_cell_formula_units_Z 50
_cell_length_a 20.350724
_cell_length_b 7.381365
_cell_length_c 20.026230
_cell_angle_alpha 90.000000
_cell_angle_beta 48.018730
_cell_angle_gamma 90.000000
_cell_volume 2236.232694
_symmetry_space_group_name_H-M "C 2/M"
_symmetry_group_IT_number 12
_symmetry_cell_setting 'monoclinic'
loop_
_space_group_symop_operation_xyz
x,y,z
-x,y,-z
-x,-y,-z
x,-y,z
1/2+x,1/2+y,z
1/2-x,1/2+y,-z
1/2-x,1/2-y,-z
1/2+x,1/2-y,z
loop_
_atom_site_type_symbol
_atom_site_label
_atom_site_fract_x
_atom_site_fract_y
_atom_site_fract_z
Si Si1 0.183592 0.220337 0.746853
Si Si2 0.169360 0.707764 0.252136
Si Si3 0.790857 0.283720 0.544198
Si Si4 0.986907 0.285426 0.429845
Si Si5 0.165289 0.786983 0.102914
Si Si6 0.979783 0.780630 0.905370
Si Si7 0.000000 0.500000 0.000000
O O1 0.246834 0.282546 0.764443
O O2 0.229569 0.281504 0.646775
O O3 0.082047 0.275739 0.824283
O O4 0.179313 0.000000 0.749313
O O5 0.164417 0.500000 0.280195
O O6 0.178251 0.705491 0.166982
O O7 0.074382 0.790705 0.335450
O O8 0.796803 0.500000 0.550560
O O9 0.750000 0.250000 0.500000
O O10 0.890634 0.210146 0.478332
O O11 0.983157 0.500000 0.415118
O O12 0.000000 0.269459 0.500000
O O13 0.079208 0.732616 0.118940
O O14 0.157176 0.000000 0.119780
O O15 0.250000 0.750000 0.000000
O O16 0.973157 0.000000 0.920626
O O17 0.951791 0.660969 0.987382
#
# Coordination Sequence:
#
# PCOD9196799 Si02
#       7
#     8   8   8   8   8   8   2
#     4   9  19  39  62  86 123 166 209 255 322 385
#     4  10  20  36  64  91 119 163 209 261 309 374
#     4  10  20  35  57  86 122 164 204 255 311 371
#     4   9  16  32  58  89 118 153 210 256 296 361
#     4  11  26  44  64  90 128 165 208 267 327 384
#     4  10  25  45  66  99 132 167 213 269 324 389
#     4  12  26  44  76  94 124 174 214 268 328 398
#
# _framework density 22.359031000000002
#
# number of rings (size 3 to 8) (size 9 to 14) (size 15 to 20)
#    0.000    2.080    1.600    0.720    6.720    0.000 
#    1.440    0.000    0.000    0.960    0.000    0.000 
#    0.000    0.000    0.000    0.000    0.000    0.000 
#
# Total GULP energy -139394.790451 kJ/mol
# GULP energy per Si atom -5575.791618 kJ/mol
# Density = 2.230814 g / cm^3
# Si number density = 22.359031 Si / 1000 Ang^3
#
#
#
# Elastic Constant Matrix: (Units=GPa)
#
#
# Indices 1 2 3 4 5 6 
#
# 1 150.0014 14.9313 26.6747 0.0001 -18.9470 0.0002
# 2 14.9313 89.5566 0.9804 0.0001 2.0317 -0.0003
# 3 26.6747 0.9804 77.6535 0.0000 -15.9672 0.0000
# 4 0.0001 0.0001 0.0000 -3.6483 0.0000 10.2393
# 5 -18.9470 2.0317 -15.9672 0.0000 37.2297 0.0001
# 6 0.0002 -0.0003 0.0000 10.2393 0.0001 15.4890
#
#
#
# Elastic Compliance Matrix: (Units=1/GPa)
#
#
# Indices 1 2 3 4 5 6 
#
# 1 0.007529 -0.001304 -0.001938 0.000000 0.003072 0.000000
# 2 -0.001304 0.011412 0.000043 0.000000 -0.001268 0.000000
# 3 -0.001938 0.000043 0.014630 0.000000 0.005286 0.000000
# 4 0.000000 0.000000 0.000000 -0.095995 0.000000 0.063460
# 5 0.003072 -0.001268 0.005286 0.000000 0.030760 0.000000
# 6 0.000000 0.000000 0.000000 0.063460 0.000000 0.022611
#
#
# Mechanical properties :
#
#
# Convention : Reuss Voigt Hill
#
# Bulk Modulus (GPa) = 36.80147 44.70937 40.75542
# Shear Modulus (GPa) = 781.09416 28.12241 404.60829
#
# Velocity S-wave (km/s) = 18.71096 3.55035 13.46672
# Velocity P-wave (km/s) = 21.98397 6.07010 16.12671
#
# Compressibility (1/GPa) = 0.02717283
#
# Stress axis : x y z
#
# Youngs Moduli (GPa) = 132.81911 87.62880 68.35348
#
# Poissons Ratio (x) = 0.11425 0.13249
# Poissons Ratio (y) = 0.17316 -0.00295
# Poissons Ratio (z) = 0.25744 -0.00378
#
# Static dielectric constant tensor:
#      x y z
#    x 2.052380 0.000020 0.122190 
#    y 0.000020 1.922380 0.000010 
#    z 0.122190 0.000010 1.920640 
# 
# From -- ./inp_files/274921.got.cif
#   From: 2010.05.17/outbox.cif.g08.bks.cpg/sg12_138_cif.got.tgz:274921.got - 2010.06.03 13:09:07.
