data_PCOD9196798
_publ_section_title
;
Structure prediction by ZEFSAII (Michael W. Deem and Ramdas Pophale) SiO2 
 PCOD9196798
Probable space group: C 2/M
;
_chemical_formula_sum "Si O2"
_cell_formula_units_Z 48
_cell_length_a 8.525214
_cell_length_b 23.291191
_cell_length_c 18.599180
_cell_angle_alpha 90.000000
_cell_angle_beta 33.883436
_cell_angle_gamma 90.000000
_cell_volume 2058.920859
_symmetry_space_group_name_H-M "C 2/M"
_symmetry_group_IT_number 12
_symmetry_cell_setting 'monoclinic'
loop_
_space_group_symop_operation_xyz
x,y,z
-x,y,-z
-x,-y,-z
x,-y,z
1/2+x,1/2+y,z
1/2-x,1/2+y,-z
1/2-x,1/2-y,-z
1/2+x,1/2-y,z
loop_
_atom_site_type_symbol
_atom_site_label
_atom_site_fract_x
_atom_site_fract_y
_atom_site_fract_z
Si Si1 0.726052 0.613493 0.693939
Si Si2 0.810726 0.206911 0.189424
Si Si3 0.648423 0.569519 0.563903
Si Si4 0.920326 0.383133 0.253811
Si Si5 0.072190 0.062441 0.896014
Si Si6 0.040552 0.325723 0.068979
O O1 0.728620 0.680778 0.715445
O O2 0.627683 0.592554 0.654171
O O3 0.536147 0.588363 0.831071
O O4 0.042298 0.589011 0.578422
O O5 0.576145 0.172397 0.231672
O O6 0.824202 0.274909 0.174709
O O7 0.132921 0.192061 0.042924
O O8 0.621871 0.500000 0.571648
O O9 0.405501 0.603259 0.614204
O O10 0.091535 0.435934 0.221887
O O11 0.974558 0.377120 0.147765
O O12 0.942922 0.000000 0.946084
O O13 0.000000 0.091119 0.000000
O O14 0.000000 0.335320 0.000000
#
# Coordination Sequence:
#
# PCOD9196798 Si02
#       6
#     8   8   8   8   8   8
#     4  10  21  41  64  89 122 165 213 261 308 367
#     4  10  21  37  61  91 122 156 203 259 319 377
#     4  11  23  40  64  92 126 172 219 259 304 363
#     4  11  22  36  57  91 126 161 206 258 310 368
#     4  10  20  35  57  86 122 161 201 255 318 374
#     4  11  21  38  64  91 122 163 205 255 318 383
#
# _framework density 23.313184
#
# number of rings (size 3 to 8) (size 9 to 14) (size 15 to 20)
#    0.000    1.500    0.000    8.000    0.000    3.333 
#    0.000    5.000    0.000    9.000    0.000    0.000 
#    0.000    0.000    0.000    0.000    0.000    0.000 
#
# Total GULP energy -133727.971644 kJ/mol
# GULP energy per Si atom -5571.998818 kJ/mol
# Density = 2.326012 g / cm^3
# Si number density = 23.313184 Si / 1000 Ang^3
#
#
#
# Elastic Constant Matrix: (Units=GPa)
#
#
# Indices 1 2 3 4 5 6 
#
# 1 107.1891 47.4399 60.5641 -0.0003 1.3170 0.0001
# 2 47.4399 92.0398 21.0187 0.0009 8.5308 -0.0004
# 3 60.5641 21.0187 77.0722 -0.0080 0.5505 0.0043
# 4 -0.0003 0.0009 -0.0080 29.3939 0.0009 1.2685
# 5 1.3170 8.5308 0.5505 0.0009 67.7135 -0.0003
# 6 0.0001 -0.0004 0.0043 1.2685 -0.0003 21.6778
#
#
#
# Elastic Compliance Matrix: (Units=1/GPa)
#
#
# Indices 1 2 3 4 5 6 
#
# 1 0.020640 -0.007458 -0.014189 -0.000004 0.000654 0.000003
# 2 -0.007458 0.014423 0.001940 0.000000 -0.001688 0.000000
# 3 -0.014189 0.001940 0.023597 0.000006 -0.000160 -0.000005
# 4 -0.000004 0.000000 0.000006 0.034107 0.000000 -0.001996
# 5 0.000654 -0.001688 -0.000160 0.000000 0.014969 0.000000
# 6 0.000003 0.000000 -0.000005 -0.001996 0.000000 0.046247
#
#
# Mechanical properties :
#
#
# Convention : Reuss Voigt Hill
#
# Bulk Modulus (GPa) = 51.96668 59.37181 55.66924
# Shear Modulus (GPa) = 25.02340 33.57561 29.29951
#
# Velocity S-wave (km/s) = 3.27977 3.79911 3.54895
# Velocity P-wave (km/s) = 6.05653 6.69079 6.38155
#
# Compressibility (1/GPa) = 0.01924310
#
# Stress axis : x y z
#
# Youngs Moduli (GPa) = 48.45069 69.33560 42.37790
#
# Poissons Ratio (x) = 0.51713 0.60132
# Poissons Ratio (y) = 0.36136 -0.08220
# Poissons Ratio (z) = 0.68749 -0.13449
#
# Static dielectric constant tensor:
#      x y z
#    x 1.944870 0.000000 -0.029340 
#    y 0.000000 1.972920 0.000000 
#    z -0.029340 0.000000 1.909640 
# 
# From -- ./inp_files/302856.got.cif
#   From: 2010.05.17/outbox.cif.g08.bks.cpg/sg12_152_cif.got.tgz:302856.got - 2010.06.03 13:09:07.
