data_PCOD9196632
_publ_section_title
;
Structure prediction by ZEFSAII (Michael W. Deem and Ramdas Pophale) SiO2 
 PCOD9196632
Probable space group: C 2/M
;
_chemical_formula_sum "Si O2"
_cell_formula_units_Z 56
_cell_length_a 29.447570
_cell_length_b 9.009931
_cell_length_c 11.560942
_cell_angle_alpha 90.000000
_cell_angle_beta 74.408201
_cell_angle_gamma 90.000000
_cell_volume 2954.480290
_symmetry_space_group_name_H-M "C 2/M"
_symmetry_group_IT_number 12
_symmetry_cell_setting 'monoclinic'
loop_
_space_group_symop_operation_xyz
x,y,z
-x,y,-z
-x,-y,-z
x,-y,z
1/2+x,1/2+y,z
1/2-x,1/2+y,-z
1/2-x,1/2-y,-z
1/2+x,1/2-y,z
loop_
_atom_site_type_symbol
_atom_site_label
_atom_site_fract_x
_atom_site_fract_y
_atom_site_fract_z
Si Si1 0.233247 0.177305 0.130480
Si Si2 0.560000 0.822893 0.211959
Si Si3 0.863807 0.178135 0.422935
Si Si4 0.690772 0.324746 0.763510
Si Si5 0.452490 0.177410 0.241142
Si Si6 0.635838 0.322148 0.311124
Si Si7 0.089097 0.824304 0.952781
O O1 0.268049 0.230875 0.207766
O O2 0.180084 0.220744 0.200957
O O3 0.234794 0.000000 0.118694
O O4 0.250000 0.250000 0.000000
O O5 0.504456 0.787383 0.252155
O O6 0.589184 0.757955 0.298604
O O7 0.565050 0.000000 0.203661
O O8 0.580934 0.750987 0.081178
O O9 0.823457 0.217598 0.357597
O O10 0.911519 0.258196 0.350276
O O11 0.852983 0.212170 0.563003
O O12 0.870778 0.000000 0.406359
O O13 0.702635 0.500000 0.759079
O O14 0.642681 0.304612 0.870693
O O15 0.444061 0.250525 0.121469
O O16 0.447971 0.000000 0.234067
O O17 0.629623 0.500000 0.306033
O O18 0.080043 0.000000 0.966003
#
# Coordination Sequence:
#
# PCOD9196632 Si02
#       7
#     8   8   8   8   8   8   8
#     4  11  23  38  58  85 114 144 180 223 274 330
#     4  11  23  36  53  81 115 149 185 230 283 330
#     4   9  20  40  61  81 108 145 189 230 271 326
#     4   9  19  36  58  83 111 142 178 226 277 324
#     4  10  21  36  55  82 115 146 181 230 282 331
#     4  10  23  41  58  79 110 147 189 233 272 323
#     4  10  20  35  57  84 113 147 188 229 272 329
#
# _framework density 18.954264999999999
#
# number of rings (size 3 to 8) (size 9 to 14) (size 15 to 20)
#    0.000    2.000    0.000    3.857    0.000   13.143 
#    0.000    2.857    0.000    0.000    0.000    0.000 
#    0.000    0.000    0.000    0.000    0.000    0.000 
#
# Total GULP energy -156449.275847 kJ/mol
# GULP energy per Si atom -5587.474137 kJ/mol
# Density = 1.891112 g / cm^3
# Si number density = 18.954265 Si / 1000 Ang^3
#
#
#
# Elastic Constant Matrix: (Units=GPa)
#
#
# Indices 1 2 3 4 5 6 
#
# 1 85.4878 26.7660 4.2184 0.0000 17.1894 0.0000
# 2 26.7660 27.2127 9.5343 0.0000 4.2439 0.0000
# 3 4.2184 9.5343 55.7513 0.0000 13.3966 0.0000
# 4 0.0000 0.0000 0.0000 21.8771 0.0000 9.4970
# 5 17.1894 4.2439 13.3966 0.0000 15.8820 0.0000
# 6 0.0000 0.0000 0.0000 9.4970 0.0000 33.3821
#
#
#
# Elastic Compliance Matrix: (Units=1/GPa)
#
#
# Indices 1 2 3 4 5 6 
#
# 1 0.023492 -0.021883 0.008365 0.000000 -0.026634 0.000000
# 2 -0.021883 0.059941 -0.013091 0.000000 0.018710 0.000000
# 3 0.008365 -0.013091 0.026185 0.000000 -0.027642 0.000000
# 4 0.000000 0.000000 0.000000 0.052150 0.000000 -0.014836
# 5 -0.026634 0.018710 -0.027642 0.000000 0.110107 0.000000
# 6 0.000000 0.000000 0.000000 -0.014836 0.000000 0.034177
#
#
# Mechanical properties :
#
#
# Convention : Reuss Voigt Hill
#
# Bulk Modulus (GPa) = 17.73105 27.72104 22.72604
# Shear Modulus (GPa) = 13.22506 22.75711 17.99109
#
# Velocity S-wave (km/s) = 2.64433 3.46877 3.08423
# Velocity P-wave (km/s) = 4.32415 5.54077 4.96983
#
# Compressibility (1/GPa) = 0.05639825
#
# Stress axis : x y z
#
# Youngs Moduli (GPa) = 42.56808 16.68321 38.19008
#
# Poissons Ratio (x) = 0.36508 -0.31945
# Poissons Ratio (y) = 0.93153 0.49994
# Poissons Ratio (z) = -0.35607 0.21840
#
# Static dielectric constant tensor:
#      x y z
#    x 1.646590 0.000000 0.005100 
#    y 0.000000 1.629980 0.000000 
#    z 0.005100 0.000000 1.649060 
# 
# From -- ./inp_files/180711.got.cif
#   From: 2010.05.17/outbox.cif.g08.bks.cpg/sg12_91_cif.got.tgz:180711.got - 2010.06.03 13:09:07.
