data_PCOD9196469
_publ_section_title
;
Structure prediction by ZEFSAII (Michael W. Deem and Ramdas Pophale) SiO2 
 PCOD9196469
Probable space group: C 2/M
;
_chemical_formula_sum "Si O2"
_cell_formula_units_Z 58
_cell_length_a 19.419727
_cell_length_b 7.561118
_cell_length_c 20.278806
_cell_angle_alpha 90.000000
_cell_angle_beta 71.498534
_cell_angle_gamma 90.000000
_cell_volume 2823.737896
_symmetry_space_group_name_H-M "C 2/M"
_symmetry_group_IT_number 12
_symmetry_cell_setting 'monoclinic'
loop_
_space_group_symop_operation_xyz
x,y,z
-x,y,-z
-x,-y,-z
x,-y,z
1/2+x,1/2+y,z
1/2-x,1/2+y,-z
1/2-x,1/2-y,-z
1/2+x,1/2-y,z
loop_
_atom_site_type_symbol
_atom_site_label
_atom_site_fract_x
_atom_site_fract_y
_atom_site_fract_z
Si Si1 0.000000 0.500000 0.000000
Si Si2 0.950965 0.283037 0.576112
Si Si3 0.355359 0.293638 0.261419
Si Si4 0.588385 0.295558 0.897616
Si Si5 0.297109 0.798920 0.657473
Si Si6 0.000957 0.288919 0.705583
Si Si7 0.229700 0.710941 0.931236
Si Si8 0.155082 0.791099 0.212323
O O1 0.970448 0.656884 0.059478
O O2 0.949151 0.500000 0.577413
O O3 0.867226 0.220531 0.599450
O O4 0.000000 0.227969 0.500000
O O5 0.984582 0.226767 0.636062
O O6 0.337746 0.500000 0.255994
O O7 0.377143 0.229301 0.182151
O O8 0.282589 0.214245 0.315781
O O9 0.424781 0.279453 0.286784
O O10 0.562736 0.500000 0.897548
O O11 0.654348 0.293259 0.930141
O O12 0.321749 0.800704 0.726730
O O13 0.290014 0.000000 0.634443
O O14 0.005353 0.500000 0.702871
O O15 0.930585 0.238746 0.770227
O O16 0.220613 0.500000 0.927236
O O17 0.294627 0.769021 0.862970
O O18 0.250000 0.750000 0.000000
O O19 0.167126 0.000000 0.217921
#
# Coordination Sequence:
#
# PCOD9196469 Si02
#       8
#     2   8   8   8   8   8   8   8
#     4  12  26  44  64  86 128 160 210 250 316 390
#     4   8  15  31  55  85 118 152 195 240 287 348
#     4  10  21  37  59  84 117 151 197 248 297 354
#     4  11  24  43  65  87 118 163 204 256 316 370
#     4   9  17  32  58  84 108 151 194 233 286 346
#     4  10  21  34  56  85 114 153 195 243 294 349
#     4  11  23  39  60  86 116 153 197 254 310 367
#     4  10  20  35  57  81 111 144 191 243 295 348
#
# _framework density 20.540149
#
# number of rings (size 3 to 8) (size 9 to 14) (size 15 to 20)
#    0.000    2.069    2.069    2.276    0.966    3.310 
#    0.000    2.069    0.000   10.345    0.000    0.000 
#    0.000    0.000    0.000    0.000    0.000    0.000 
#
# Total GULP energy -161586.726895 kJ/mol
# GULP energy per Si atom -5571.956100 kJ/mol
# Density = 2.049340 g / cm^3
# Si number density = 20.540149 Si / 1000 Ang^3
#
#
#
# Elastic Constant Matrix: (Units=GPa)
#
#
# Indices 1 2 3 4 5 6 
#
# 1 63.3214 4.9877 -7.6237 0.0001 -6.7066 0.0000
# 2 4.9877 79.5517 18.5911 0.0001 -13.3153 0.0001
# 3 -7.6237 18.5911 67.1056 0.0001 -18.4638 0.0000
# 4 0.0001 0.0001 0.0001 1.2322 0.0000 1.3128
# 5 -6.7066 -13.3153 -18.4638 0.0000 28.2252 0.0000
# 6 0.0000 0.0001 0.0000 1.3128 0.0000 23.0833
#
#
#
# Elastic Compliance Matrix: (Units=1/GPa)
#
#
# Indices 1 2 3 4 5 6 
#
# 1 0.016982 -0.000945 0.003877 -0.000001 0.006125 0.000000
# 2 -0.000945 0.014039 -0.002727 -0.000002 0.004614 0.000000
# 3 0.003877 -0.002727 0.019509 -0.000001 0.012396 0.000000
# 4 -0.000001 -0.000002 -0.000001 0.863896 -0.000003 -0.049131
# 5 0.006125 0.004614 0.012396 -0.000003 0.047171 0.000000
# 6 0.000000 0.000000 0.000000 -0.049131 0.000000 0.046115
#
#
# Mechanical properties :
#
#
# Convention : Reuss Voigt Hill
#
# Bulk Modulus (GPa) = 19.63172 26.87655 23.25413
# Shear Modulus (GPa) = 4.88146 23.44306 14.16226
#
# Velocity S-wave (km/s) = 1.54328 3.38202 2.62867
# Velocity P-wave (km/s) = 3.57129 5.32579 4.53421
#
# Compressibility (1/GPa) = 0.05093798
#
# Stress axis : x y z
#
# Youngs Moduli (GPa) = 58.88457 71.22798 51.25925
#
# Poissons Ratio (x) = 0.06735 -0.19871
# Poissons Ratio (y) = 0.05568 0.13980
# Poissons Ratio (z) = -0.22827 0.19426
#
# Static dielectric constant tensor:
#      x y z
#    x 1.739300 0.000000 -0.040370 
#    y 0.000000 1.778940 0.000000 
#    z -0.040370 0.000000 1.716690 
# 
# From -- ./inp_files/313910.got.cif
#   From: 2010.05.17/outbox.cif.g08.bks.cpg/sg12_157_cif.got.tgz:313910.got - 2010.06.03 13:09:07.
