data_PCOD9196573
_publ_section_title
;
Structure prediction by ZEFSAII (Michael W. Deem and Ramdas Pophale) SiO2 
 PCOD9196573
Probable space group: C 2/M
;
_chemical_formula_sum "Si O2"
_cell_formula_units_Z 56
_cell_length_a 24.466932
_cell_length_b 7.628138
_cell_length_c 18.238482
_cell_angle_alpha 90.000000
_cell_angle_beta 45.106096
_cell_angle_gamma 90.000000
_cell_volume 2411.428857
_symmetry_space_group_name_H-M "C 2/M"
_symmetry_group_IT_number 12
_symmetry_cell_setting 'monoclinic'
loop_
_space_group_symop_operation_xyz
x,y,z
-x,y,-z
-x,-y,-z
x,-y,z
1/2+x,1/2+y,z
1/2-x,1/2+y,-z
1/2-x,1/2-y,-z
1/2+x,1/2-y,z
loop_
_atom_site_type_symbol
_atom_site_label
_atom_site_fract_x
_atom_site_fract_y
_atom_site_fract_z
Si Si1 0.238076 0.214063 0.699558
Si Si2 0.880184 0.212532 0.314648
Si Si3 0.193331 0.215752 0.904830
Si Si4 0.383168 0.205054 0.473612
Si Si5 0.552670 0.701713 0.126578
Si Si6 0.537009 0.699823 0.390845
Si Si7 0.844709 0.299309 0.836060
O O1 0.174911 0.267696 0.699267
O O2 0.215796 0.271195 0.801935
O O3 0.321565 0.271318 0.591091
O O4 0.239642 0.000000 0.698427
O O5 0.852229 0.273627 0.420742
O O6 0.967993 0.278357 0.219475
O O7 0.880421 0.000000 0.316530
O O8 0.260146 0.272141 0.898154
O O9 0.193987 0.000000 0.905576
O O10 0.109811 0.276978 0.010957
O O11 0.465076 0.298477 0.403135
O O12 0.397259 0.000000 0.473436
O O13 0.538843 0.500000 0.118680
O O14 0.603620 0.705194 0.152356
O O15 0.500000 0.776261 0.500000
O O16 0.560501 0.500000 0.383716
O O17 0.607920 0.793874 0.285280
O O18 0.838385 0.500000 0.865980
#
# Coordination Sequence:
#
# PCOD9196573 Si02
#       7
#     8   8   8   8   8   8   8
#     4   9  19  35  55  82 113 146 189 236 278 325
#     4  10  20  35  57  83 113 148 187 232 278 328
#     4   9  19  35  55  82 113 146 189 236 278 325
#     4  11  21  35  57  82 112 149 187 229 276 331
#     4  10  20  35  57  83 113 148 187 232 278 328
#     4  11  23  37  55  81 114 147 182 229 281 334
#     4  11  21  35  57  82 112 149 187 229 276 331
#
# _framework density 23.222745
#
# number of rings (size 3 to 8) (size 9 to 14) (size 15 to 20)
#    0.000    1.857    1.429    3.000    0.000    2.857 
#    0.000    4.286    0.000    4.286    0.000    2.000 
#    0.000    0.000    0.000    0.000    0.000    0.000 
#
# Total GULP energy -156581.117680 kJ/mol
# GULP energy per Si atom -5592.182774 kJ/mol
# Density = 2.316989 g / cm^3
# Si number density = 23.222745 Si / 1000 Ang^3
#
#
#
# Elastic Constant Matrix: (Units=GPa)
#
#
# Indices 1 2 3 4 5 6 
#
# 1 47.4157 1.0453 -1.3000 0.0074 6.7287 -0.0049
# 2 1.0453 59.1769 6.1911 0.0142 -3.8977 -0.0165
# 3 -1.3000 6.1911 128.1408 0.0007 2.6114 -0.0020
# 4 0.0074 0.0142 0.0007 10.3189 -0.0133 6.1716
# 5 6.7287 -3.8977 2.6114 -0.0133 29.5404 0.0082
# 6 -0.0049 -0.0165 -0.0020 6.1716 0.0082 12.7341
#
#
#
# Elastic Compliance Matrix: (Units=1/GPa)
#
#
# Indices 1 2 3 4 5 6 
#
# 1 0.021842 -0.000760 0.000362 -0.000039 -0.005107 0.000030
# 2 -0.000760 0.017171 -0.000889 -0.000045 0.002517 0.000042
# 3 0.000362 -0.000889 0.007869 -0.000002 -0.000895 0.000002
# 4 -0.000039 -0.000045 -0.000002 0.136466 0.000083 -0.066139
# 5 -0.005107 0.002517 -0.000895 0.000083 0.035427 -0.000062
# 6 0.000030 0.000042 0.000002 -0.066139 -0.000062 0.110584
#
#
# Mechanical properties :
#
#
# Convention : Reuss Voigt Hill
#
# Bulk Modulus (GPa) = 22.56908 27.40068 24.98488
# Shear Modulus (GPa) = 14.42169 25.77182 20.09676
#
# Velocity S-wave (km/s) = 2.49472 3.33493 2.94494
# Velocity P-wave (km/s) = 4.24709 5.16272 4.72713
#
# Compressibility (1/GPa) = 0.04430841
#
# Stress axis : x y z
#
# Youngs Moduli (GPa) = 45.78426 58.23876 127.08466
#
# Poissons Ratio (x) = 0.04427 -0.04605
# Poissons Ratio (y) = 0.03480 0.11293
# Poissons Ratio (z) = -0.01659 0.05175
#
# Static dielectric constant tensor:
#      x y z
#    x 1.857720 0.000000 0.011080 
#    y 0.000000 1.879930 0.000000 
#    z 0.011080 0.000000 1.866900 
# 
# From -- ./inp_files/88067.got.cif
#   From: 2010.05.17/outbox.cif.g08.bks.cpg/sg12_45_cif.got.tgz:88067.got - 2010.06.03 13:09:07.
