data_PCOD9196537
_publ_section_title
;
Structure prediction by ZEFSAII (Michael W. Deem and Ramdas Pophale) SiO2 
 PCOD9196537
Probable space group: C 2/M
;
_chemical_formula_sum "Si O2"
_cell_formula_units_Z 48
_cell_length_a 12.613397
_cell_length_b 13.130621
_cell_length_c 22.572874
_cell_angle_alpha 90.000000
_cell_angle_beta 139.391019
_cell_angle_gamma 90.000000
_cell_volume 2433.402438
_symmetry_space_group_name_H-M "C 2/M"
_symmetry_group_IT_number 12
_symmetry_cell_setting 'monoclinic'
loop_
_space_group_symop_operation_xyz
x,y,z
-x,y,-z
-x,-y,-z
x,-y,z
1/2+x,1/2+y,z
1/2-x,1/2+y,-z
1/2-x,1/2-y,-z
1/2+x,1/2-y,z
loop_
_atom_site_type_symbol
_atom_site_label
_atom_site_fract_x
_atom_site_fract_y
_atom_site_fract_z
Si Si1 0.036285 0.622960 0.259677
Si Si2 0.492111 0.809613 0.564478
Si Si3 0.284212 0.382141 0.463582
Si Si4 0.919169 0.617488 0.081433
Si Si5 0.448507 0.669819 0.043179
Si Si6 0.228878 0.380248 0.757950
O O1 0.035108 0.500000 0.260635
O O2 0.016893 0.648330 0.182793
O O3 0.879236 0.656811 0.231550
O O4 0.193902 0.653236 0.364688
O O5 0.500000 0.844624 0.500000
O O6 0.432265 0.692742 0.539208
O O7 0.352737 0.867881 0.543432
O O8 0.658706 0.825634 0.670474
O O9 0.330095 0.500000 0.478654
O O10 0.957036 0.500000 0.081681
O O11 0.946980 0.707024 0.046376
O O12 0.728455 0.626496 0.017020
O O13 0.583992 0.634035 0.147059
O O14 0.500000 0.635415 0.000000
O O15 0.195313 0.500000 0.735990
#
# Coordination Sequence:
#
# PCOD9196537 Si02
#       6
#     8   8   8   8   8   8
#     4   8  15  31  56  78 103 142 182 220 265 313
#     4  10  21  35  56  82 109 148 182 225 270 328
#     4   9  19  36  55  80 113 146 181 227 270 318
#     4  10  21  36  56  83 112 144 180 222 275 327
#     4  11  22  36  58  85 109 143 184 226 271 324
#     4  10  20  35  57  83 110 141 185 231 269 316
#
# _framework density 19.725466999999998
#
# number of rings (size 3 to 8) (size 9 to 14) (size 15 to 20)
#    0.000    2.333    1.667    2.000    2.333    2.667 
#    0.000    0.833    0.000    0.000    0.000    0.000 
#    0.000    0.000    0.000    0.000    0.000    0.000 
#
# Total GULP energy -133938.318689 kJ/mol
# GULP energy per Si atom -5580.763279 kJ/mol
# Density = 1.968057 g / cm^3
# Si number density = 19.725467 Si / 1000 Ang^3
#
#
#
# Elastic Constant Matrix: (Units=GPa)
#
#
# Indices 1 2 3 4 5 6 
#
# 1 42.9578 -1.7848 21.1337 0.0000 -9.2064 0.0000
# 2 -1.7848 78.3587 24.6022 0.0000 3.3741 0.0000
# 3 21.1337 24.6022 122.3985 0.0000 -1.3383 0.0000
# 4 0.0000 0.0000 0.0000 28.4665 0.0000 -2.2721
# 5 -9.2064 3.3741 -1.3383 0.0000 18.7015 0.0000
# 6 0.0000 0.0000 0.0000 -2.2721 0.0000 8.9168
#
#
#
# Elastic Compliance Matrix: (Units=1/GPa)
#
#
# Indices 1 2 3 4 5 6 
#
# 1 0.028781 0.001695 -0.005163 0.000000 0.013493 0.000000
# 2 0.001695 0.013854 -0.003098 0.000000 -0.001887 0.000000
# 3 -0.005163 -0.003098 0.009670 0.000000 -0.001290 0.000000
# 4 0.000000 0.000000 0.000000 0.035858 0.000000 0.009137
# 5 0.013493 -0.001887 -0.001290 0.000000 0.060362 0.000000
# 6 0.000000 0.000000 0.000000 0.009137 0.000000 0.114477
#
#
# Mechanical properties :
#
#
# Convention : Reuss Voigt Hill
#
# Bulk Modulus (GPa) = 25.52684 36.84634 31.18659
# Shear Modulus (GPa) = 17.28965 24.53456 20.91210
#
# Velocity S-wave (km/s) = 2.96381 3.53058 3.25954
# Velocity P-wave (km/s) = 4.96804 5.94476 5.47821
#
# Compressibility (1/GPa) = 0.03917446
#
# Stress axis : x y z
#
# Youngs Moduli (GPa) = 34.74569 72.17931 103.41227
#
# Poissons Ratio (x) = -0.12238 0.53387
# Poissons Ratio (y) = -0.05891 0.32038
# Poissons Ratio (z) = 0.17938 0.22362
#
# Static dielectric constant tensor:
#      x y z
#    x 1.704460 0.000000 0.005500 
#    y 0.000000 1.690050 0.000000 
#    z 0.005500 0.000000 1.699050 
# 
# From -- ./inp_files/204837.got.cif
#   From: 2010.05.17/outbox.cif.g08.bks.cpg/sg12_103_cif.got.tgz:204837.got - 2010.06.03 13:09:07.
