data_PCOD9196871
_publ_section_title
;
Structure prediction by ZEFSAII (Michael W. Deem and Ramdas Pophale) SiO2 
 PCOD9196871
Probable space group: C 2/M
;
_chemical_formula_sum "Si O2"
_cell_formula_units_Z 64
_cell_length_a 18.934642
_cell_length_b 15.272632
_cell_length_c 9.527378
_cell_angle_alpha 90.000000
_cell_angle_beta 89.616016
_cell_angle_gamma 90.000000
_cell_volume 2755.082631
_symmetry_space_group_name_H-M "C 2/M"
_symmetry_group_IT_number 12
_symmetry_cell_setting 'monoclinic'
loop_
_space_group_symop_operation_xyz
x,y,z
-x,y,-z
-x,-y,-z
x,-y,z
1/2+x,1/2+y,z
1/2-x,1/2+y,-z
1/2-x,1/2-y,-z
1/2+x,1/2-y,z
loop_
_atom_site_type_symbol
_atom_site_label
_atom_site_fract_x
_atom_site_fract_y
_atom_site_fract_z
Si Si1 0.052108 0.902980 0.886341
Si Si2 0.544707 0.855166 0.867264
Si Si3 0.833688 0.351394 0.954779
Si Si4 0.363697 0.892419 0.383703
Si Si5 0.906831 0.601975 0.688806
Si Si6 0.680307 0.352803 0.053434
Si Si7 0.072767 0.892868 0.577149
Si Si8 0.302732 0.605588 0.626787
O O1 0.063817 0.859995 0.736310
O O2 0.022357 0.000000 0.857141
O O3 0.125061 0.907311 0.966172
O O4 0.000000 0.862131 0.000000
O O5 0.601774 0.836915 0.742372
O O6 0.481422 0.887736 0.767279
O O7 0.500000 0.813598 0.000000
O O8 0.602825 0.901479 0.968306
O O9 0.847513 0.356908 0.789441
O O10 0.834996 0.247817 0.989407
O O11 0.758242 0.381784 0.008019
O O12 0.402139 0.867948 0.528754
O O13 0.279863 0.874096 0.396082
O O14 0.372399 0.000000 0.359393
O O15 0.890141 0.500000 0.682449
O O16 0.673442 0.361990 0.220228
O O17 0.142130 0.862648 0.492213
O O18 0.000000 0.871372 0.500000
O O19 0.078282 0.000000 0.582604
O O20 0.307394 0.500000 0.630223
#
# Coordination Sequence:
#
# PCOD9196871 Si02
#       8
#     8   8   8   8   8   8   8   8
#     4  10  21  36  61  92 117 150 194 241 294 350
#     4  10  20  38  59  86 118 154 195 239 294 351
#     4  10  24  40  58  85 116 159 204 239 292 352
#     4  10  20  35  57  91 124 153 193 243 299 356
#     4  10  22  38  61  88 119 153 196 249 300 352
#     4  11  22  41  59  82 121 161 196 246 292 344
#     4   9  18  34  55  85 122 153 191 241 294 351
#     4  10  20  35  60  90 122 158 196 243 297 352
#
# _framework density 23.229793999999998
#
# number of rings (size 3 to 8) (size 9 to 14) (size 15 to 20)
#    0.000    2.000    1.250    1.875    1.750   10.000 
#    0.000    1.875    0.000    3.000    0.000    0.000 
#    0.000    0.000    0.000    0.000    0.000    0.000 
#
# Total GULP energy -178258.434477 kJ/mol
# GULP energy per Si atom -5570.576077 kJ/mol
# Density = 2.317692 g / cm^3
# Si number density = 23.229794 Si / 1000 Ang^3
#
#
#
# Elastic Constant Matrix: (Units=GPa)
#
#
# Indices 1 2 3 4 5 6 
#
# 1 144.4148 22.3439 104.2151 0.0000 -28.8187 0.0000
# 2 22.3439 60.2613 21.4007 0.0000 -2.3802 0.0000
# 3 104.2151 21.4007 205.0675 0.0000 -20.0784 0.0000
# 4 0.0000 0.0000 0.0000 15.5564 0.0000 30.7409
# 5 -28.8187 -2.3802 -20.0784 0.0000 50.4710 0.0000
# 6 0.0000 0.0000 0.0000 30.7409 0.0000 -10.6125
#
#
#
# Elastic Compliance Matrix: (Units=1/GPa)
#
#
# Indices 1 2 3 4 5 6 
#
# 1 0.012182 -0.002385 -0.005486 0.000000 0.004661 0.000000
# 2 -0.002385 0.017700 -0.000715 0.000000 -0.000811 0.000000
# 3 -0.005486 -0.000715 0.007730 0.000000 -0.000091 0.000000
# 4 0.000000 0.000000 0.000000 0.009560 0.000000 0.027692
# 5 0.004661 -0.000811 -0.000091 0.000000 0.022400 0.000000
# 6 0.000000 0.000000 0.000000 0.027692 0.000000 -0.014014
#
#
# Mechanical properties :
#
#
# Convention : Reuss Voigt Hill
#
# Bulk Modulus (GPa) = 48.91821 78.40701 63.66261
# Shear Modulus (GPa) = 62.85800 28.53525 45.69662
#
# Velocity S-wave (km/s) = 5.20749 3.50864 4.44007
# Velocity P-wave (km/s) = 7.56713 7.08803 7.33149
#
# Compressibility (1/GPa) = 0.02044228
#
# Stress axis : x y z
#
# Youngs Moduli (GPa) = 82.08550 56.49588 129.36580
#
# Poissons Ratio (x) = 0.13473 0.70968
# Poissons Ratio (y) = 0.19575 0.09246
# Poissons Ratio (z) = 0.45031 0.04038
#
# Static dielectric constant tensor:
#      x y z
#    x 2.083780 0.000000 -0.045620 
#    y 0.000000 1.911600 0.000000 
#    z -0.045620 0.000000 1.863200 
# 
# From -- ./inp_files/77484.got.cif
#   From: 2010.05.17/outbox.cif.g08.bks.cpg/sg12_39_cif.got.tgz:77484.got - 2010.06.03 13:09:07.
