data_PCOD9196334
_publ_section_title
;
Structure prediction by ZEFSAII (Michael W. Deem and Ramdas Pophale) SiO2 
 PCOD9196334
Probable space group: C 2/M
;
_chemical_formula_sum "Si O2"
_cell_formula_units_Z 52
_cell_length_a 15.176298
_cell_length_b 28.542678
_cell_length_c 9.570337
_cell_angle_alpha 90.000000
_cell_angle_beta 42.053448
_cell_angle_gamma 90.000000
_cell_volume 2776.823073
_symmetry_space_group_name_H-M "C 2/M"
_symmetry_group_IT_number 12
_symmetry_cell_setting 'monoclinic'
loop_
_space_group_symop_operation_xyz
x,y,z
-x,y,-z
-x,-y,-z
x,-y,z
1/2+x,1/2+y,z
1/2-x,1/2+y,-z
1/2-x,1/2-y,-z
1/2+x,1/2-y,z
loop_
_atom_site_type_symbol
_atom_site_label
_atom_site_fract_x
_atom_site_fract_y
_atom_site_fract_z
Si Si1 0.158968 0.600966 0.807105
Si Si2 0.177394 0.182686 0.501016
Si Si3 0.256972 0.775818 0.704076
Si Si4 0.809922 0.600228 0.907893
Si Si5 0.000000 0.339198 0.500000
Si Si6 0.936999 0.500000 0.724796
Si Si7 0.073665 0.843708 0.060673
Si Si8 0.629385 0.000000 0.751485
O O1 0.221065 0.640449 0.636720
O O2 0.197983 0.549061 0.706858
O O3 0.207023 0.609779 0.908117
O O4 0.000000 0.603415 0.000000
O O5 0.198142 0.208853 0.624185
O O6 0.206696 0.221323 0.347942
O O7 0.030759 0.162758 0.692010
O O8 0.387402 0.806094 0.571783
O O9 0.151862 0.794770 0.940495
O O10 0.932441 0.628738 0.697503
O O11 0.849070 0.545955 0.850466
O O12 0.682541 0.617765 0.972980
O O13 0.000000 0.500000 0.500000
O O14 0.063188 0.500000 0.678311
O O15 0.000000 0.855291 0.000000
O O16 0.500000 0.000000 0.000000
#
# Coordination Sequence:
#
# PCOD9196334 Si02
#       8
#     8   8   8   8   4   4   8   4
#     4  11  21  36  61  88 119 149 197 249 309 356
#     4  10  21  37  58  83 116 161 201 234 301 369
#     4   9  20  36  57  81 114 155 200 250 292 350
#     4  11  21  36  59  89 114 157 197 250 302 355
#     4  10  20  35  56  84 118 145 200 252 306 334
#     4  12  22  36  64  93 120 152 205 254 303 364
#     4   9  21  39  57  79 122 160 195 250 297 354
#     4  10  20  38  59  87 123 147 187 260 308 338
#
# _framework density 18.726436
#
# number of rings (size 3 to 8) (size 9 to 14) (size 15 to 20)
#    0.000    1.846    3.846    0.923    0.000    7.385 
#    0.000    4.231    0.000    1.846    0.000    0.000 
#    0.000    0.000    0.000    0.000    0.000    0.000 
#
# Total GULP energy -144986.315647 kJ/mol
# GULP energy per Si atom -5576.396756 kJ/mol
# Density = 1.868381 g / cm^3
# Si number density = 18.726436 Si / 1000 Ang^3
#
#
#
# Elastic Constant Matrix: (Units=GPa)
#
#
# Indices 1 2 3 4 5 6 
#
# 1 67.7371 3.8912 6.6346 0.0000 -3.9477 0.0000
# 2 3.8912 112.4590 21.5207 0.0000 -14.1914 0.0000
# 3 6.6346 21.5207 61.1276 0.0000 -10.9512 0.0000
# 4 0.0000 0.0000 0.0000 -47.4980 0.0000 1.3257
# 5 -3.9477 -14.1914 -10.9512 0.0000 31.0829 0.0000
# 6 0.0000 0.0000 0.0000 1.3257 0.0000 17.9485
#
#
#
# Elastic Compliance Matrix: (Units=1/GPa)
#
#
# Indices 1 2 3 4 5 6 
#
# 1 0.014981 -0.000085 -0.001347 0.000000 0.001389 0.000000
# 2 -0.000085 0.009881 -0.002842 0.000000 0.003499 0.000000
# 3 -0.001347 -0.002842 0.018405 0.000000 0.005015 0.000000
# 4 0.000000 0.000000 0.000000 -0.021010 0.000000 0.001552
# 5 0.001389 0.003499 0.005015 0.000000 0.035713 0.000000
# 6 0.000000 0.000000 0.000000 0.001552 0.000000 0.055600
#
#
# Mechanical properties :
#
#
# Convention : Reuss Voigt Hill
#
# Bulk Modulus (GPa) = 28.80489 33.93519 31.37004
# Shear Modulus (GPa) = 37.39973 14.25849 25.82911
#
# Velocity S-wave (km/s) = 4.47381 2.76236 3.71790
# Velocity P-wave (km/s) = 6.48860 5.32307 5.93452
#
# Compressibility (1/GPa) = 0.03471633
#
# Stress axis : x y z
#
# Youngs Moduli (GPa) = 66.75229 101.20890 54.33392
#
# Poissons Ratio (x) = 0.00863 0.07319
# Poissons Ratio (y) = 0.00569 0.15444
# Poissons Ratio (z) = 0.08992 0.28768
#
# Static dielectric constant tensor:
#      x y z
#    x 1.658270 0.000000 0.011260 
#    y 0.000000 1.639820 0.000000 
#    z 0.011260 0.000000 1.657340 
# 
# From -- ./inp_files/68563.got.cif
#   From: 2010.05.17/outbox.cif.g08.bks.cpg/sg12_35_cif.got.tgz:68563.got - 2010.06.03 13:09:07.
