data_PCOD9196157
_publ_section_title
;
Structure prediction by ZEFSAII (Michael W. Deem and Ramdas Pophale) SiO2 
 PCOD9196157
Probable space group: C 2/M
;
_chemical_formula_sum "Si O2"
_cell_formula_units_Z 48
_cell_length_a 15.628911
_cell_length_b 7.697580
_cell_length_c 21.172452
_cell_angle_alpha 90.000000
_cell_angle_beta 112.073459
_cell_angle_gamma 90.000000
_cell_volume 2360.448696
_symmetry_space_group_name_H-M "C 2/M"
_symmetry_group_IT_number 12
_symmetry_cell_setting 'monoclinic'
loop_
_space_group_symop_operation_xyz
x,y,z
-x,y,-z
-x,-y,-z
x,-y,z
1/2+x,1/2+y,z
1/2-x,1/2+y,-z
1/2-x,1/2-y,-z
1/2+x,1/2-y,z
loop_
_atom_site_type_symbol
_atom_site_label
_atom_site_fract_x
_atom_site_fract_y
_atom_site_fract_z
Si Si1 0.262075 0.792970 0.577189
Si Si2 0.763274 0.791027 0.077335
Si Si3 0.932349 0.212927 0.424070
Si Si4 0.032425 0.205529 0.326124
Si Si5 0.569789 0.791273 0.073757
Si Si6 0.965050 0.209630 0.172432
O O1 0.250000 0.750000 0.500000
O O2 0.171506 0.729205 0.589348
O O3 0.359411 0.726130 0.629550
O O4 0.264099 0.000000 0.583676
O O5 0.673114 0.725682 0.089361
O O6 0.861748 0.724701 0.128971
O O7 0.765472 0.000000 0.084212
O O8 0.750000 0.750000 0.000000
O O9 0.000000 0.264863 0.500000
O O10 0.974094 0.275139 0.369383
O O11 0.932326 0.000000 0.423642
O O12 0.003372 0.276310 0.249840
O O13 0.013101 0.000000 0.319204
O O14 0.530091 0.752014 0.131401
O O15 0.572665 0.000000 0.068012
O O16 0.500000 0.725264 0.000000
O O17 0.960877 0.000000 0.174470
#
# Coordination Sequence:
#
# PCOD9196157 Si02
#       6
#     8   8   8   8   8   8
#     4  11  21  35  59  87 111 145 188 229 275 327
#     4  10  20  35  56  82 109 144 187 227 274 329
#     4   9  17  33  58  82 106 145 186 218 265 332
#     4  10  21  39  57  79 114 147 184 231 277 329
#     4  10  20  35  57  84 112 144 183 231 279 327
#     4  10  22  37  56  82 112 147 183 229 281 330
#
# _framework density 20.335115999999999
#
# number of rings (size 3 to 8) (size 9 to 14) (size 15 to 20)
#    0.000    2.000    3.333    0.500    0.000    3.000 
#    0.000    5.833    0.000    0.000    0.000    0.000 
#    0.000    0.000    0.000    0.000    0.000    0.000 
#
# Total GULP energy -134046.373139 kJ/mol
# GULP energy per Si atom -5585.265547 kJ/mol
# Density = 2.028883 g / cm^3
# Si number density = 20.335116 Si / 1000 Ang^3
#
#
#
# Elastic Constant Matrix: (Units=GPa)
#
#
# Indices 1 2 3 4 5 6 
#
# 1 230.3043 -4.2042 121.0302 0.0000 -13.9227 0.0000
# 2 -4.2042 28.0065 -7.5535 0.0000 -4.1236 0.0000
# 3 121.0302 -7.5535 197.4206 0.0000 -10.6183 0.0000
# 4 0.0000 0.0000 0.0000 11.6015 0.0000 1.7255
# 5 -13.9227 -4.1236 -10.6183 0.0000 32.4154 0.0000
# 6 0.0000 0.0000 0.0000 1.7255 0.0000 20.9328
#
#
#
# Elastic Compliance Matrix: (Units=1/GPa)
#
#
# Indices 1 2 3 4 5 6 
#
# 1 0.006478 0.000150 -0.003883 0.000000 0.001529 0.000000
# 2 0.000150 0.036940 0.001606 0.000000 0.005290 0.000000
# 3 -0.003883 0.001606 0.007562 0.000000 0.001013 0.000000
# 4 0.000000 0.000000 0.000000 0.087265 0.000000 -0.007193
# 5 0.001529 0.005290 0.001013 0.000000 0.032511 0.000000
# 6 0.000000 0.000000 0.000000 -0.007193 0.000000 0.048365
#
#
# Mechanical properties :
#
#
# Convention : Reuss Voigt Hill
#
# Bulk Modulus (GPa) = 21.40146 74.91959 48.16052
# Shear Modulus (GPa) = 20.92467 36.08720 28.50594
#
# Velocity S-wave (km/s) = 3.21127 4.21720 3.74813
# Velocity P-wave (km/s) = 4.92919 7.78688 6.51661
#
# Compressibility (1/GPa) = 0.04672578
#
# Stress axis : x y z
#
# Youngs Moduli (GPa) = 154.36558 27.07060 132.23920
#
# Poissons Ratio (x) = -0.00407 0.51355
# Poissons Ratio (y) = -0.02320 -0.21235
# Poissons Ratio (z) = 0.59947 -0.04347
#
# Static dielectric constant tensor:
#      x y z
#    x 1.711860 0.000000 0.000090 
#    y 0.000000 1.760560 0.000000 
#    z 0.000090 0.000000 1.677580 
# 
# From -- ./inp_files/308582.got.cif
#   From: 2010.05.17/outbox.cif.g08.bks.cpg/sg12_155_cif.got.tgz:308582.got - 2010.06.03 13:09:07.
