data_PCOD9196935
_publ_section_title
;
Structure prediction by ZEFSAII (Michael W. Deem and Ramdas Pophale) SiO2 
 PCOD9196935
Probable space group: C 2/M
;
_chemical_formula_sum "Si O2"
_cell_formula_units_Z 64
_cell_length_a 17.379337
_cell_length_b 12.118008
_cell_length_c 29.998951
_cell_angle_alpha 90.000000
_cell_angle_beta 34.099771
_cell_angle_gamma 90.000000
_cell_volume 3542.021929
_symmetry_space_group_name_H-M "C 2/M"
_symmetry_group_IT_number 12
_symmetry_cell_setting 'monoclinic'
loop_
_space_group_symop_operation_xyz
x,y,z
-x,y,-z
-x,-y,-z
x,-y,z
1/2+x,1/2+y,z
1/2-x,1/2+y,-z
1/2-x,1/2-y,-z
1/2+x,1/2-y,z
loop_
_atom_site_type_symbol
_atom_site_label
_atom_site_fract_x
_atom_site_fract_y
_atom_site_fract_z
Si Si1 0.233706 0.234618 0.771382
Si Si2 0.610346 0.128084 0.382746
Si Si3 0.443073 0.128107 0.214496
Si Si4 0.634789 0.292526 0.521081
Si Si5 0.302155 0.250383 0.361942
Si Si6 0.972204 0.125265 0.061109
Si Si7 0.991090 0.876232 0.672186
Si Si8 0.262839 0.127714 0.970311
O O1 0.300419 0.146773 0.705088
O O2 0.144724 0.315111 0.782610
O O3 0.135227 0.183896 0.855489
O O4 0.358423 0.299024 0.734529
O O5 0.470461 0.195917 0.442464
O O6 0.697173 0.180474 0.381555
O O7 0.583884 0.000000 0.403077
O O8 0.399784 0.185048 0.281347
O O9 0.603262 0.137853 0.125197
O O10 0.407166 0.000000 0.233967
O O11 0.750000 0.250000 0.500000
O O12 0.713553 0.325750 0.438278
O O13 0.548298 0.373962 0.593792
O O14 0.394935 0.327987 0.348933
O O15 0.921445 0.000000 0.077600
O O16 0.000000 0.179669 0.000000
O O17 0.119019 0.120205 0.014199
O O18 0.956246 0.000000 0.701856
O O19 0.278270 0.000000 0.984301
O O20 0.250000 0.250000 0.000000
#
# Coordination Sequence:
#
# PCOD9196935 Si02
#       8
#     8   8   8   8   8   8   8   8
#     4  10  20  37  57  79 115 147 191 230 278 344
#     4  10  20  35  58  84 112 147 186 234 283 332
#     4  10  21  37  59  83 112 149 189 233 287 343
#     4   9  20  36  53  80 112 145 185 226 273 337
#     4  10  21  36  56  86 114 141 187 236 281 336
#     4  10  21  36  59  85 114 149 188 238 293 343
#     4  10  21  37  56  78 111 153 186 229 285 341
#     4  10  20  38  62  88 117 155 196 242 295 352
#
# _framework density 18.068774999999999
#
# number of rings (size 3 to 8) (size 9 to 14) (size 15 to 20)
#    0.000    2.125    1.250    1.500    1.750    3.500 
#    0.000    5.625    0.000    6.375    0.000    0.000 
#    0.000    0.000    0.000    0.000    0.000    0.000 
#
# Total GULP energy -178216.286173 kJ/mol
# GULP energy per Si atom -5569.258943 kJ/mol
# Density = 1.802765 g / cm^3
# Si number density = 18.068775 Si / 1000 Ang^3
#
#
#
# Elastic Constant Matrix: (Units=GPa)
#
#
# Indices 1 2 3 4 5 6 
#
# 1 86.7167 34.1379 59.1036 0.0000 2.0347 0.0000
# 2 34.1379 92.3937 37.8042 0.0000 10.3241 0.0000
# 3 59.1036 37.8042 108.9383 -0.0001 6.7572 0.0000
# 4 0.0000 0.0000 -0.0001 -2.2055 0.0000 5.3264
# 5 2.0347 10.3241 6.7572 0.0000 35.1931 0.0000
# 6 0.0000 0.0000 0.0000 5.3264 0.0000 14.1730
#
#
#
# Elastic Compliance Matrix: (Units=1/GPa)
#
#
# Indices 1 2 3 4 5 6 
#
# 1 0.019215 -0.003474 -0.009325 0.000000 0.001699 0.000000
# 2 -0.003474 0.013541 -0.002611 0.000000 -0.003270 0.000000
# 3 -0.009325 -0.002611 0.015245 0.000000 -0.001622 0.000000
# 4 0.000000 0.000000 0.000000 -0.237687 0.000000 0.089325
# 5 0.001699 -0.003270 -0.001622 0.000000 0.029587 0.000000
# 6 0.000000 0.000000 0.000000 0.089325 0.000000 0.036987
#
#
# Mechanical properties :
#
#
# Convention : Reuss Voigt Hill
#
# Bulk Modulus (GPa) = 58.20417 61.12670 59.66543
# Shear Modulus (GPa) = -57.76076 19.89900 -18.93088
#
# Velocity S-wave (km/s) = -5.66009 3.32217 -3.24035
# Velocity P-wave (km/s) = 3.23000 6.97275 4.36957
#
# Compressibility (1/GPa) = 0.01718090
#
# Stress axis : x y z
#
# Youngs Moduli (GPa) = 52.04246 73.85140 65.59372
#
# Poissons Ratio (x) = 0.25657 0.61165
# Poissons Ratio (y) = 0.18080 0.17128
# Poissons Ratio (z) = 0.48528 0.19285
#
# Static dielectric constant tensor:
#      x y z
#    x 1.601850 0.000000 0.014190 
#    y 0.000000 1.629650 0.000000 
#    z 0.014190 0.000000 1.628090 
# 
# From -- ./inp_files/361031.got.cif
#   From: 2010.05.17/outbox.cif.g08.bks.cpg/sg12_181_cif.got.tgz:361031.got - 2010.06.03 13:09:07.
