data_PCOD9196126
_publ_section_title
;
Structure prediction by ZEFSAII (Michael W. Deem and Ramdas Pophale) SiO2 
 PCOD9196126
Probable space group: C 2/M
;
_chemical_formula_sum "Si O2"
_cell_formula_units_Z 56
_cell_length_a 19.605070
_cell_length_b 15.873737
_cell_length_c 18.505945
_cell_angle_alpha 90.000000
_cell_angle_beta 30.003896
_cell_angle_gamma 90.000000
_cell_volume 2879.917154
_symmetry_space_group_name_H-M "C 2/M"
_symmetry_group_IT_number 12
_symmetry_cell_setting 'monoclinic'
loop_
_space_group_symop_operation_xyz
x,y,z
-x,y,-z
-x,-y,-z
x,-y,z
1/2+x,1/2+y,z
1/2-x,1/2+y,-z
1/2-x,1/2-y,-z
1/2+x,1/2-y,z
loop_
_atom_site_type_symbol
_atom_site_label
_atom_site_fract_x
_atom_site_fract_y
_atom_site_fract_z
Si Si1 0.918836 0.234518 0.890656
Si Si2 0.496835 0.907028 0.264344
Si Si3 0.219018 0.092524 0.436897
Si Si4 0.971188 0.354733 0.448356
Si Si5 0.697988 0.742559 0.720873
Si Si6 0.283150 0.271257 0.798878
Si Si7 0.090904 0.903547 0.225112
O O1 0.898508 0.161063 0.851148
O O2 0.934164 0.326077 0.837157
O O3 0.058272 0.222795 0.808094
O O4 0.796329 0.233754 0.059896
O O5 0.337034 0.901060 0.389004
O O6 0.503918 0.902080 0.344351
O O7 0.545832 0.000000 0.195078
O O8 0.247581 0.167907 0.357049
O O9 0.068327 0.099304 0.606890
O O10 0.232877 0.000000 0.390024
O O11 0.815023 0.324359 0.593163
O O12 0.000000 0.395906 0.500000
O O13 0.073667 0.274588 0.349755
O O14 0.691220 0.754404 0.813123
O O15 0.320878 0.365468 0.789651
O O16 0.126615 0.000000 0.175667
#
# Coordination Sequence:
#
# PCOD9196126 Si02
#       7
#     8   8   8   8   8   8   8
#     4  11  22  39  59  85 116 156 192 233 283 346
#     4  10  20  35  58  83 114 151 191 235 282 340
#     4   9  18  33  55  86 112 144 192 234 279 339
#     4  10  20  35  56  81 111 145 189 237 286 333
#     4  10  20  37  61  80 113 157 189 232 289 340
#     4  11  22  37  55  87 117 149 189 236 290 341
#     4  11  22  36  60  88 117 151 193 240 289 341
#
# _framework density 19.445004000000001
#
# number of rings (size 3 to 8) (size 9 to 14) (size 15 to 20)
#    0.000    1.714    2.857    1.714    0.000    3.714 
#    0.000    1.429    0.000    7.714    0.000    0.000 
#    0.000    0.000    0.000    0.000    0.000    0.000 
#
# Total GULP energy -156214.508090 kJ/mol
# GULP energy per Si atom -5579.089575 kJ/mol
# Density = 1.940075 g / cm^3
# Si number density = 19.445004 Si / 1000 Ang^3
#
#
#
# Elastic Constant Matrix: (Units=GPa)
#
#
# Indices 1 2 3 4 5 6 
#
# 1 87.4308 25.8495 21.1685 0.0002 0.4832 0.0001
# 2 25.8495 83.8823 7.9870 0.0000 8.8292 0.0003
# 3 21.1685 7.9870 68.0541 0.0000 -1.3255 0.0004
# 4 0.0002 0.0000 0.0000 -3.2682 0.0000 -11.6225
# 5 0.4832 8.8292 -1.3255 0.0000 34.1507 -0.0003
# 6 0.0001 0.0003 0.0004 -11.6225 -0.0003 10.2522
#
#
#
# Elastic Compliance Matrix: (Units=1/GPa)
#
#
# Indices 1 2 3 4 5 6 
#
# 1 0.013480 -0.003869 -0.003726 0.000000 0.000665 0.000000
# 2 -0.003869 0.013521 -0.000451 0.000000 -0.003458 0.000000
# 3 -0.003726 -0.000451 0.015921 0.000000 0.000787 0.000000
# 4 0.000000 0.000000 0.000000 -0.060812 -0.000001 -0.068940
# 5 0.000665 -0.003458 0.000787 -0.000001 0.030197 0.000000
# 6 0.000000 0.000000 0.000000 -0.068940 0.000000 0.019386
#
#
# Mechanical properties :
#
#
# Convention : Reuss Voigt Hill
#
# Bulk Modulus (GPa) = 37.27108 38.81967 38.04538
# Shear Modulus (GPa) = 88.13956 20.51776 54.32866
#
# Velocity S-wave (km/s) = 6.73988 3.25186 5.29153
# Velocity P-wave (km/s) = 8.93180 5.84009 7.54598
#
# Compressibility (1/GPa) = 0.02683045
#
# Stress axis : x y z
#
# Youngs Moduli (GPa) = 74.18374 73.96033 62.80855
#
# Poissons Ratio (x) = 0.28617 0.23402
# Poissons Ratio (y) = 0.28704 0.02830
# Poissons Ratio (z) = 0.27641 0.03333
#
# Static dielectric constant tensor:
#      x y z
#    x 1.709590 0.000000 -0.004830 
#    y 0.000000 1.687080 0.000000 
#    z -0.004830 0.000000 1.653820 
# 
# From -- ./inp_files/284475.got.cif
#   From: 2010.05.17/outbox.cif.g08.bks.cpg/sg12_143_cif.got.tgz:284475.got - 2010.06.03 13:09:07.
