data_PCOD9196848
_publ_section_title
;
Structure prediction by ZEFSAII (Michael W. Deem and Ramdas Pophale) SiO2 
 PCOD9196848
Probable space group: C 2/M
;
_chemical_formula_sum "Si O2"
_cell_formula_units_Z 52
_cell_length_a 21.964809
_cell_length_b 11.857718
_cell_length_c 18.139866
_cell_angle_alpha 90.000000
_cell_angle_beta 144.492454
_cell_angle_gamma 90.000000
_cell_volume 2744.080433
_symmetry_space_group_name_H-M "C 2/M"
_symmetry_group_IT_number 12
_symmetry_cell_setting 'monoclinic'
loop_
_space_group_symop_operation_xyz
x,y,z
-x,y,-z
-x,-y,-z
x,-y,z
1/2+x,1/2+y,z
1/2-x,1/2+y,-z
1/2-x,1/2-y,-z
1/2+x,1/2-y,z
loop_
_atom_site_type_symbol
_atom_site_label
_atom_site_fract_x
_atom_site_fract_y
_atom_site_fract_z
Si Si1 0.420635 0.365352 0.989831
Si Si2 0.236172 0.760775 0.738577
Si Si3 0.971740 0.622220 0.636902
Si Si4 0.534050 0.757688 0.234736
Si Si5 0.527018 0.000000 0.152969
Si Si6 0.162388 0.500000 0.137369
Si Si7 0.727697 0.630236 0.376962
Si Si8 0.500000 0.196724 0.500000
O O1 0.422843 0.500000 0.998007
O O2 0.303874 0.321440 0.857740
O O3 0.500000 0.333344 0.000000
O O4 0.463317 0.306486 0.105379
O O5 0.273201 0.885689 0.792753
O O6 0.268072 0.711708 0.689807
O O7 0.110917 0.758238 0.618356
O O8 0.013060 0.500000 0.700727
O O9 0.013161 0.720429 0.730663
O O10 0.845580 0.626051 0.523517
O O11 0.988854 0.632300 0.566572
O O12 0.551548 0.884380 0.220148
O O13 0.640167 0.683961 0.342789
O O14 0.591395 0.000000 0.140660
O O15 0.407619 0.000000 0.005517
O O16 0.699824 0.500000 0.329092
#
# Coordination Sequence:
#
# PCOD9196848 Si02
#       8
#     8   8   8   8   4   4   8   4
#     4  11  21  35  61  95 129 160 192 243 307 364
#     4  11  21  38  63  89 121 160 210 245 295 357
#     4  10  22  39  61  85 118 162 210 254 297 353
#     4  12  20  35  58  93 126 154 192 251 310 361
#     4  11  20  32  58  95 126 154 190 236 312 375
#     4  11  20  35  60  92 126 163 191 240 299 378
#     4  10  20  35  57  89 125 160 197 247 304 361
#     4  10  25  45  64  82 114 166 214 256 288 358
#
# _framework density 18.949881000000001
#
# number of rings (size 3 to 8) (size 9 to 14) (size 15 to 20)
#    0.000    1.231    5.385    1.615    0.000    2.154 
#    0.000    0.769   10.154    0.000    0.000    0.000 
#    0.000    0.000    0.000    0.000    0.000    0.000 
#
# Total GULP energy -144975.531623 kJ/mol
# GULP energy per Si atom -5575.981985 kJ/mol
# Density = 1.890675 g / cm^3
# Si number density = 18.949881 Si / 1000 Ang^3
#
#
#
# Elastic Constant Matrix: (Units=GPa)
#
#
# Indices 1 2 3 4 5 6 
#
# 1 68.3031 29.8999 35.6384 0.0000 -9.3293 0.0000
# 2 29.8999 115.4159 39.5453 0.0000 -0.7415 0.0000
# 3 35.6384 39.5453 74.3248 0.0000 -1.4892 0.0000
# 4 0.0000 0.0000 0.0000 26.7815 0.0000 -14.2267
# 5 -9.3293 -0.7415 -1.4892 0.0000 32.5401 0.0000
# 6 0.0000 0.0000 0.0000 -14.2267 0.0000 -2.2289
#
#
#
# Elastic Compliance Matrix: (Units=1/GPa)
#
#
# Indices 1 2 3 4 5 6 
#
# 1 0.020982 -0.002435 -0.008654 0.000000 0.005564 0.000000
# 2 -0.002435 0.010879 -0.004634 0.000000 -0.000662 0.000000
# 3 -0.008654 -0.004634 0.020036 0.000000 -0.001670 0.000000
# 4 0.000000 0.000000 0.000000 0.008504 0.000000 -0.054281
# 5 0.005564 -0.000662 -0.001670 0.000000 0.032235 0.000000
# 6 0.000000 0.000000 0.000000 -0.054281 0.000000 -0.102183
#
#
# Mechanical properties :
#
#
# Convention : Reuss Voigt Hill
#
# Bulk Modulus (GPa) = 48.89621 52.02344 50.45983
# Shear Modulus (GPa) = 174.13132 21.61587 97.87359
#
# Velocity S-wave (km/s) = 9.59635 3.38107 7.19450
# Velocity P-wave (km/s) = 12.19203 6.53873 9.78265
#
# Compressibility (1/GPa) = 0.02045148
#
# Stress axis : x y z
#
# Youngs Moduli (GPa) = 47.66070 91.92409 49.91038
#
# Poissons Ratio (x) = 0.22381 0.43191
# Poissons Ratio (y) = 0.11604 0.23128
# Poissons Ratio (z) = 0.41244 0.42596
#
# Static dielectric constant tensor:
#      x y z
#    x 1.680380 0.000000 -0.018380 
#    y 0.000000 1.640600 0.000000 
#    z -0.018380 0.000000 1.691630 
# 
# From -- ./inp_files/283396.got.cif
#   From: 2010.05.17/outbox.cif.g08.bks.cpg/sg12_142_cif.got.tgz:283396.got - 2010.06.03 13:09:07.
