data_PCOD9196406
_publ_section_title
;
Structure prediction by ZEFSAII (Michael W. Deem and Ramdas Pophale) SiO2 
 PCOD9196406
Probable space group: C 2/M
;
_chemical_formula_sum "Si O2"
_cell_formula_units_Z 56
_cell_length_a 27.733092
_cell_length_b 19.657042
_cell_length_c 8.765704
_cell_angle_alpha 90.000000
_cell_angle_beta 40.218320
_cell_angle_gamma 90.000000
_cell_volume 3085.569310
_symmetry_space_group_name_H-M "C 2/M"
_symmetry_group_IT_number 12
_symmetry_cell_setting 'monoclinic'
loop_
_space_group_symop_operation_xyz
x,y,z
-x,y,-z
-x,-y,-z
x,-y,z
1/2+x,1/2+y,z
1/2-x,1/2+y,-z
1/2-x,1/2-y,-z
1/2+x,1/2-y,z
loop_
_atom_site_type_symbol
_atom_site_label
_atom_site_fract_x
_atom_site_fract_y
_atom_site_fract_z
Si Si1 0.944539 0.200899 0.492518
Si Si2 0.928854 0.686776 0.281195
Si Si3 0.723136 0.323099 0.117014
Si Si4 0.671128 0.425754 0.783510
Si Si5 0.001512 0.072861 0.180392
Si Si6 0.307077 0.920210 0.694314
Si Si7 0.692010 0.707433 0.539271
O O1 0.947760 0.271950 0.391529
O O2 0.861532 0.177704 0.740564
O O3 0.000000 0.203074 0.500000
O O4 0.965665 0.140995 0.325868
O O5 0.876016 0.622799 0.455370
O O6 0.877292 0.742036 0.318807
O O7 0.000000 0.671132 0.000000
O O8 0.721090 0.317086 0.304382
O O9 0.750000 0.250000 0.000000
O O10 0.775713 0.381018 0.919333
O O11 0.683367 0.500000 0.678037
O O12 0.736199 0.417848 0.750315
O O13 0.672970 0.361376 0.671014
O O14 0.585504 0.427554 0.044141
O O15 0.965909 0.000000 0.311555
O O16 0.000000 0.074204 0.000000
O O17 0.325183 0.000000 0.675774
O O18 0.750000 0.750000 0.500000
#
# Coordination Sequence:
#
# PCOD9196406 Si02
#       7
#     8   8   8   8   8   8   8
#     4  11  22  36  60  88 122 153 197 246 300 364
#     4  11  23  41  62  89 117 159 209 256 306 357
#     4  11  21  38  59  86 122 154 196 244 301 358
#     4  10  20  36  58  88 123 158 200 244 299 361
#     4  10  20  35  56  86 125 160 193 236 290 362
#     4  11  23  42  62  87 123 163 205 255 306 359
#     4  11  20  36  64  91 120 154 201 250 296 362
#
# _framework density 18.149000000000001
#
# number of rings (size 3 to 8) (size 9 to 14) (size 15 to 20)
#    0.000    1.286    4.286    3.857    0.000    2.857 
#    0.000    0.000    0.000    0.429    0.000    0.000 
#    0.000    0.000    0.000    0.000    0.000    0.000 
#
# Total GULP energy -156086.872159 kJ/mol
# GULP energy per Si atom -5574.531149 kJ/mol
# Density = 1.810769 g / cm^3
# Si number density = 18.149000 Si / 1000 Ang^3
#
#
#
# Elastic Constant Matrix: (Units=GPa)
#
#
# Indices 1 2 3 4 5 6 
#
# 1 79.3029 27.5068 22.7701 0.0000 -8.8063 0.0000
# 2 27.5068 154.0816 58.2416 0.0000 -6.3497 0.0000
# 3 22.7701 58.2416 101.4864 0.0000 -16.0689 0.0000
# 4 0.0000 0.0000 0.0000 17.3210 0.0000 7.6108
# 5 -8.8063 -6.3497 -16.0689 0.0000 13.9119 0.0000
# 6 0.0000 0.0000 0.0000 7.6108 0.0000 12.3122
#
#
#
# Elastic Compliance Matrix: (Units=1/GPa)
#
#
# Indices 1 2 3 4 5 6 
#
# 1 0.014338 -0.001883 -0.001022 0.000000 0.007036 0.000000
# 2 -0.001883 0.008585 -0.004984 0.000000 -0.003031 0.000000
# 3 -0.001022 -0.004984 0.015274 0.000000 0.014720 0.000000
# 4 0.000000 0.000000 0.000000 0.079262 0.000000 -0.048996
# 5 0.007036 -0.003031 0.014720 0.000000 0.091954 0.000000
# 6 0.000000 0.000000 0.000000 -0.048996 0.000000 0.111507
#
#
# Mechanical properties :
#
#
# Convention : Reuss Voigt Hill
#
# Bulk Modulus (GPa) = 44.60743 61.32311 52.96527
# Shear Modulus (GPa) = 14.52759 23.79917 19.16338
#
# Velocity S-wave (km/s) = 2.83231 3.62515 3.25297
# Velocity P-wave (km/s) = 5.94372 7.16828 6.58453
#
# Compressibility (1/GPa) = 0.02241779
#
# Stress axis : x y z
#
# Youngs Moduli (GPa) = 69.74522 116.47621 65.47038
#
# Poissons Ratio (x) = 0.21936 0.06692
# Poissons Ratio (y) = 0.13135 0.32633
# Poissons Ratio (z) = 0.07129 0.58056
#
# Static dielectric constant tensor:
#      x y z
#    x 1.641410 0.000000 0.016810 
#    y 0.000000 1.723610 0.000000 
#    z 0.016810 0.000000 1.538920 
# 
# From -- ./inp_files/105956.got.cif
#   From: 2010.05.17/outbox.cif.g08.bks.cpg/sg12_53_cif.got.tgz:105956.got - 2010.06.03 13:09:07.
