data_PCOD9196291
_publ_section_title
;
Structure prediction by ZEFSAII (Michael W. Deem and Ramdas Pophale) SiO2 
 PCOD9196291
Probable space group: C 2/M
;
_chemical_formula_sum "Si O2"
_cell_formula_units_Z 56
_cell_length_a 25.488523
_cell_length_b 8.803601
_cell_length_c 15.519160
_cell_angle_alpha 90.000000
_cell_angle_beta 132.567547
_cell_angle_gamma 90.000000
_cell_volume 2564.687181
_symmetry_space_group_name_H-M "C 2/M"
_symmetry_group_IT_number 12
_symmetry_cell_setting 'monoclinic'
loop_
_space_group_symop_operation_xyz
x,y,z
-x,y,-z
-x,-y,-z
x,-y,z
1/2+x,1/2+y,z
1/2-x,1/2+y,-z
1/2-x,1/2-y,-z
1/2+x,1/2-y,z
loop_
_atom_site_type_symbol
_atom_site_label
_atom_site_fract_x
_atom_site_fract_y
_atom_site_fract_z
Si Si1 0.856661 0.823085 0.971582
Si Si2 0.787206 0.682329 0.126245
Si Si3 0.453370 0.683476 0.531727
Si Si4 0.566833 0.817849 0.778358
Si Si5 0.659248 0.326072 0.327713
Si Si6 0.581507 0.834966 0.114049
Si Si7 0.802482 0.178130 0.428241
O O1 0.773214 0.775552 0.872747
O O2 0.888253 0.792235 0.914402
O O3 0.859488 0.000000 0.998831
O O4 0.902392 0.733280 0.094465
O O5 0.790174 0.500000 0.123861
O O6 0.868756 0.732361 0.215402
O O7 0.750000 0.750000 0.000000
O O8 0.500000 0.733190 0.500000
O O9 0.452648 0.500000 0.531867
O O10 0.495882 0.741992 0.663029
O O11 0.370033 0.731598 0.445908
O O12 0.559166 0.000000 0.769284
O O13 0.642329 0.500000 0.289593
O O14 0.597053 0.214783 0.228006
O O15 0.729738 0.273523 0.353153
O O16 0.672100 0.315019 0.443637
O O17 0.614558 0.000000 0.133087
O O18 0.500000 0.844927 0.000000
O O19 0.787818 0.000000 0.392328
#
# Coordination Sequence:
#
# PCOD9196291 Si02
#       7
#     8   8   8   8   8   8   8
#     4  10  20  36  58  83 113 153 198 240 291 350
#     4   8  16  31  51  77 108 143 185 228 271 332
#     4  10  22  39  58  85 118 153 196 244 299 356
#     4  10  20  35  56  83 117 154 193 238 293 352
#     4  10  21  39  64  91 117 155 203 251 301 353
#     4  11  25  41  57  85 123 158 196 243 298 355
#     4   9  20  40  64  89 118 156 201 249 301 356
#
# _framework density 21.835021000000001
#
# number of rings (size 3 to 8) (size 9 to 14) (size 15 to 20)
#    0.000    2.286    0.000    1.714    2.000    4.857 
#    0.000    2.857    0.000    0.000    0.000    0.000 
#    0.000    0.000    0.000    0.000    0.000    0.000 
#
# Total GULP energy -156151.452365 kJ/mol
# GULP energy per Si atom -5576.837584 kJ/mol
# Density = 2.178532 g / cm^3
# Si number density = 21.835021 Si / 1000 Ang^3
#
#
#
# Elastic Constant Matrix: (Units=GPa)
#
#
# Indices 1 2 3 4 5 6 
#
# 1 62.6396 2.6389 -6.3992 0.0000 3.0565 0.0000
# 2 2.6389 20.4607 9.3759 0.0000 5.0921 0.0000
# 3 -6.3992 9.3759 67.5943 0.0000 7.0072 0.0000
# 4 0.0000 0.0000 0.0000 20.4756 0.0000 7.5937
# 5 3.0565 5.0921 7.0072 0.0000 25.5210 0.0000
# 6 0.0000 0.0000 0.0000 7.5937 0.0000 17.3553
#
#
#
# Elastic Compliance Matrix: (Units=1/GPa)
#
#
# Indices 1 2 3 4 5 6 
#
# 1 0.016389 -0.002580 0.002120 0.000000 -0.002030 0.000000
# 2 -0.002580 0.054532 -0.006909 0.000000 -0.008674 0.000000
# 3 0.002120 -0.006909 0.016301 0.000000 -0.003351 0.000000
# 4 0.000000 0.000000 0.000000 0.058299 0.000000 -0.025508
# 5 -0.002030 -0.008674 -0.003351 0.000000 0.042077 0.000000
# 6 0.000000 0.000000 0.000000 -0.025508 0.000000 0.068780
#
#
# Mechanical properties :
#
#
# Convention : Reuss Voigt Hill
#
# Bulk Modulus (GPa) = 13.79637 17.99174 15.89405
# Shear Modulus (GPa) = 16.93328 22.34232 19.63780
#
# Velocity S-wave (km/s) = 2.78782 3.20227 3.00221
# Velocity P-wave (km/s) = 4.08592 4.68300 4.39461
#
# Compressibility (1/GPa) = 0.07248286
#
# Stress axis : x y z
#
# Youngs Moduli (GPa) = 61.01781 18.33794 61.34758
#
# Poissons Ratio (x) = 0.04731 -0.13005
# Poissons Ratio (y) = 0.15742 0.42385
# Poissons Ratio (z) = -0.12935 0.12670
#
# Static dielectric constant tensor:
#      x y z
#    x 1.865000 0.000000 0.014640 
#    y 0.000000 1.753090 0.000000 
#    z 0.014640 0.000000 1.821300 
# 
# From -- ./inp_files/292536.got.cif
#   From: 2010.05.17/outbox.cif.g08.bks.cpg/sg12_147_cif.got.tgz:292536.got - 2010.06.03 13:09:07.
