data_PCOD9196511
_publ_section_title
;
Structure prediction by ZEFSAII (Michael W. Deem and Ramdas Pophale) SiO2 
 PCOD9196511
Probable space group: C 2/M
;
_chemical_formula_sum "Si O2"
_cell_formula_units_Z 64
_cell_length_a 15.138624
_cell_length_b 8.953194
_cell_length_c 30.996919
_cell_angle_alpha 90.000000
_cell_angle_beta 126.830811
_cell_angle_gamma 90.000000
_cell_volume 3362.752922
_symmetry_space_group_name_H-M "C 2/M"
_symmetry_group_IT_number 12
_symmetry_cell_setting 'monoclinic'
loop_
_space_group_symop_operation_xyz
x,y,z
-x,y,-z
-x,-y,-z
x,-y,z
1/2+x,1/2+y,z
1/2-x,1/2+y,-z
1/2-x,1/2-y,-z
1/2+x,1/2-y,z
loop_
_atom_site_type_symbol
_atom_site_label
_atom_site_fract_x
_atom_site_fract_y
_atom_site_fract_z
Si Si1 0.758250 0.170663 0.934975
Si Si2 0.037925 0.680840 0.636699
Si Si3 0.074179 0.329008 0.958031
Si Si4 0.656819 0.820150 0.759722
Si Si5 0.411070 0.320197 0.846602
Si Si6 0.399722 0.818969 0.440195
Si Si7 0.412929 0.678022 0.175355
Si Si8 0.299158 0.679660 0.558013
O O1 0.669261 0.170172 0.948391
O O2 0.698452 0.264573 0.880517
O O3 0.775008 0.000000 0.925900
O O4 0.869732 0.241711 0.986149
O O5 0.027249 0.500000 0.633273
O O6 0.110412 0.722209 0.699321
O O7 0.089194 0.728437 0.605885
O O8 0.918100 0.754089 0.602884
O O9 0.050876 0.500000 0.962497
O O10 0.969608 0.251293 0.905319
O O11 0.585067 0.750426 0.777087
O O12 0.784577 0.774602 0.803175
O O13 0.652960 0.000000 0.761984
O O14 0.415965 0.500000 0.852150
O O15 0.485827 0.279461 0.826697
O O16 0.500000 0.765050 0.500000
O O17 0.285355 0.779049 0.428794
O O18 0.406426 0.000000 0.442196
O O19 0.411417 0.500000 0.178138
O O20 0.302803 0.500000 0.554922
O O21 0.250000 0.750000 0.500000
#
# Coordination Sequence:
#
# PCOD9196511 Si02
#       8
#     8   8   8   8   8   8   8   8
#     4   9  16  28  49  77 110 146 183 224 278 344
#     4  10  21  39  59  81 112 149 189 230 273 325
#     4   9  16  27  48  79 110 141 180 230 286 335
#     4  10  22  39  58  79 108 147 189 231 276 331
#     4   9  19  36  56  78 106 146 190 229 277 337
#     4   9  17  33  58  84 112 149 185 216 263 329
#     4  10  20  35  57  82 110 143 185 237 283 329
#     4  11  21  35  59  88 117 148 183 223 270 324
#
# _framework density 19.032026999999999
#
# number of rings (size 3 to 8) (size 9 to 14) (size 15 to 20)
#    0.000    2.375    1.250    1.500    0.000    5.500 
#    0.000    5.000    0.000    3.750    0.000    0.000 
#    0.000    0.000    0.000    0.000    0.000    0.000 
#
# Total GULP energy -178681.097015 kJ/mol
# GULP energy per Si atom -5583.784282 kJ/mol
# Density = 1.898871 g / cm^3
# Si number density = 19.032027 Si / 1000 Ang^3
#
#
#
# Elastic Constant Matrix: (Units=GPa)
#
#
# Indices 1 2 3 4 5 6 
#
# 1 90.9064 17.4204 37.3056 0.0000 -2.3772 0.0000
# 2 17.4204 27.0557 18.2654 0.0000 3.9589 0.0000
# 3 37.3056 18.2654 85.9722 0.0000 0.9212 0.0000
# 4 0.0000 0.0000 0.0000 27.9362 0.0000 0.9038
# 5 -2.3772 3.9589 0.9212 0.0000 33.2332 0.0000
# 6 0.0000 0.0000 0.0000 0.9038 0.0000 22.6980
#
#
#
# Elastic Compliance Matrix: (Units=1/GPa)
#
#
# Indices 1 2 3 4 5 6 
#
# 1 0.014233 -0.006137 -0.004893 0.000000 0.001885 0.000000
# 2 -0.006137 0.046605 -0.007176 0.000000 -0.005792 0.000000
# 3 -0.004893 -0.007176 0.015278 0.000000 0.000081 0.000000
# 4 0.000000 0.000000 0.000000 0.035842 0.000000 -0.001427
# 5 0.001885 -0.005792 0.000081 0.000000 0.030913 0.000000
# 6 0.000000 0.000000 0.000000 -0.001427 0.000000 0.044114
#
#
# Mechanical properties :
#
#
# Convention : Reuss Voigt Hill
#
# Bulk Modulus (GPa) = 25.18625 38.87969 32.03297
# Shear Modulus (GPa) = 21.12984 25.50301 23.31642
#
# Velocity S-wave (km/s) = 3.33562 3.66458 3.50396
# Velocity P-wave (km/s) = 5.30071 6.19503 5.76524
#
# Compressibility (1/GPa) = 0.03970420
#
# Stress axis : x y z
#
# Youngs Moduli (GPa) = 70.25684 21.45710 65.45163
#
# Poissons Ratio (x) = 0.13169 0.32023
# Poissons Ratio (y) = 0.43119 0.46970
# Poissons Ratio (z) = 0.34374 0.15398
#
# Static dielectric constant tensor:
#      x y z
#    x 1.682430 0.000000 -0.015360 
#    y 0.000000 1.640970 0.000000 
#    z -0.015360 0.000000 1.630410 
# 
# From -- ./inp_files/375670.got.cif
#   From: 2010.05.17/outbox.cif.g08.bks.cpg/sg12_188_cif.got.tgz:375670.got - 2010.06.03 13:09:07.
