data_PCOD9196181
_publ_section_title
;
Structure prediction by ZEFSAII (Michael W. Deem and Ramdas Pophale) SiO2 
 PCOD9196181
Probable space group: C 2/M
;
_chemical_formula_sum "Si O2"
_cell_formula_units_Z 40
_cell_length_a 16.532805
_cell_length_b 9.905122
_cell_length_c 16.387418
_cell_angle_alpha 90.000000
_cell_angle_beta 50.941452
_cell_angle_gamma 90.000000
_cell_volume 2083.817841
_symmetry_space_group_name_H-M "C 2/M"
_symmetry_group_IT_number 12
_symmetry_cell_setting 'monoclinic'
loop_
_space_group_symop_operation_xyz
x,y,z
-x,y,-z
-x,-y,-z
x,-y,z
1/2+x,1/2+y,z
1/2-x,1/2+y,-z
1/2-x,1/2-y,-z
1/2+x,1/2-y,z
loop_
_atom_site_type_symbol
_atom_site_label
_atom_site_fract_x
_atom_site_fract_y
_atom_site_fract_z
Si Si1 0.673637 0.500000 0.882166
Si Si2 0.587437 0.723644 0.715008
Si Si3 0.376691 0.500000 0.601561
Si Si4 0.606036 0.000000 0.388029
Si Si5 0.020354 0.000000 0.123426
Si Si6 0.734369 0.761025 0.272928
Si Si7 0.951083 0.500000 0.346948
Si Si8 0.207345 0.000000 0.531707
O O1 0.579300 0.500000 0.875330
O O2 0.734370 0.359423 0.822937
O O3 0.622207 0.500000 0.003305
O O4 0.496923 0.629944 0.809199
O O5 0.661502 0.767799 0.742895
O O6 0.547789 0.859245 0.700633
O O7 0.653493 0.629816 0.609800
O O8 0.500000 0.500000 0.500000
O O9 0.337917 0.629114 0.679172
O O10 0.319510 0.500000 0.548567
O O11 0.500000 0.000000 0.500000
O O12 0.670722 0.130992 0.366297
O O13 0.559014 0.000000 0.327544
O O14 0.832985 0.500000 0.460553
#
# Coordination Sequence:
#
# PCOD9196181 Si02
#       8
#     4   8   4   4   4   8   4   4
#     4   8  16  34  64  80 106 142 187 236 278 335
#     4  10  20  35  56  82 112 143 187 233 274 339
#     4  12  25  33  51  79 119 151 187 224 274 330
#     4  11  23  33  54  77 111 151 192 222 265 337
#     4   8  16  34  59  88 105 138 185 233 291 330
#     4  10  20  38  53  79 111 145 189 227 276 327
#     4  12  22  34  55  82 116 148 189 231 276 322
#     4  11  22  34  52  76 113 158 179 220 281 329
#
# _framework density 19.195536000000001
#
# number of rings (size 3 to 8) (size 9 to 14) (size 15 to 20)
#    0.000    1.800    2.000    4.200    5.600    0.000 
#    0.000    1.000    0.000    9.600    0.000    0.000 
#    0.000    0.000    0.000    0.000    0.000    0.000 
#
# Total GULP energy -111355.779131 kJ/mol
# GULP energy per Si atom -5567.788957 kJ/mol
# Density = 1.915185 g / cm^3
# Si number density = 19.195536 Si / 1000 Ang^3
#
#
#
# Elastic Constant Matrix: (Units=GPa)
#
#
# Indices 1 2 3 4 5 6 
#
# 1 48.7983 12.3988 5.7556 0.0000 -2.8479 0.0000
# 2 12.3988 166.8376 60.5634 0.0000 1.9129 0.0000
# 3 5.7556 60.5634 129.9868 0.0000 -5.6177 0.0000
# 4 0.0000 0.0000 0.0000 25.0292 0.0000 -2.3555
# 5 -2.8479 1.9129 -5.6177 0.0000 17.6671 0.0000
# 6 0.0000 0.0000 0.0000 -2.3555 0.0000 47.5424
#
#
#
# Elastic Compliance Matrix: (Units=1/GPa)
#
#
# Indices 1 2 3 4 5 6 
#
# 1 0.021110 -0.001596 -0.000037 0.000000 0.003564 0.000000
# 2 -0.001596 0.007397 -0.003469 0.000000 -0.002161 0.000000
# 3 -0.000037 -0.003469 0.009457 0.000000 0.003377 0.000000
# 4 0.000000 0.000000 0.000000 0.040141 0.000000 0.001989
# 5 0.003564 -0.002161 0.003377 0.000000 0.058485 0.000000
# 6 0.000000 0.000000 0.000000 0.001989 0.000000 0.021132
#
#
# Mechanical properties :
#
#
# Convention : Reuss Voigt Hill
#
# Bulk Modulus (GPa) = 36.02364 55.89537 45.95951
# Shear Modulus (GPa) = 28.22004 35.84139 32.03072
#
# Velocity S-wave (km/s) = 3.83839 4.32577 4.08935
# Velocity P-wave (km/s) = 6.20095 7.35743 6.80381
#
# Compressibility (1/GPa) = 0.02775955
#
# Stress axis : x y z
#
# Youngs Moduli (GPa) = 47.36982 135.19906 105.74308
#
# Poissons Ratio (x) = 0.21582 0.00391
# Poissons Ratio (y) = 0.07562 0.36681
# Poissons Ratio (z) = 0.00175 0.46899
#
# Static dielectric constant tensor:
#      x y z
#    x 1.631870 0.000000 -0.016080 
#    y 0.000000 1.661350 0.000000 
#    z -0.016080 0.000000 1.673780 
# 
# From -- ./inp_files/273994.got.cif
#   From: 2010.05.17/outbox.cif.g08.bks.cpg/sg12_137_cif.got.tgz:273994.got - 2010.06.03 13:09:07.
