data_PCOD9196571
_publ_section_title
;
Structure prediction by ZEFSAII (Michael W. Deem and Ramdas Pophale) SiO2 
 PCOD9196571
Probable space group: C 2/M
;
_chemical_formula_sum "Si O2"
_cell_formula_units_Z 48
_cell_length_a 12.806547
_cell_length_b 18.795028
_cell_length_c 11.778450
_cell_angle_alpha 90.000000
_cell_angle_beta 71.859861
_cell_angle_gamma 90.000000
_cell_volume 2694.157090
_symmetry_space_group_name_H-M "C 2/M"
_symmetry_group_IT_number 12
_symmetry_cell_setting 'monoclinic'
loop_
_space_group_symop_operation_xyz
x,y,z
-x,y,-z
-x,-y,-z
x,-y,z
1/2+x,1/2+y,z
1/2-x,1/2+y,-z
1/2-x,1/2-y,-z
1/2+x,1/2-y,z
loop_
_atom_site_type_symbol
_atom_site_label
_atom_site_fract_x
_atom_site_fract_y
_atom_site_fract_z
Si Si1 0.245489 0.823174 0.791987
Si Si2 0.147579 0.827432 0.234848
Si Si3 0.904904 0.779949 0.360719
Si Si4 0.124963 0.578779 0.419421
Si Si5 0.234857 0.644858 0.583610
Si Si6 0.621086 0.584285 0.014749
O O1 0.288622 0.746007 0.816222
O O2 0.144044 0.809925 0.740582
O O3 0.335549 0.861906 0.682229
O O4 0.206490 0.874555 0.904804
O O5 0.218548 0.867961 0.307109
O O6 0.126243 0.877163 0.134549
O O7 0.031034 0.800959 0.324566
O O8 0.870475 0.697317 0.372786
O O9 0.832898 0.813264 0.486274
O O10 0.138263 0.500000 0.364740
O O11 0.198718 0.584717 0.508293
O O12 0.000000 0.588269 0.500000
O O13 0.644337 0.500000 0.015175
O O14 0.500000 0.591894 0.000000
#
# Coordination Sequence:
#
# PCOD9196571 Si02
#       6
#     8   8   8   8   8   8
#     4  10  20  36  58  81 108 145 192 235 269 329
#     4  11  20  34  58  83 110 142 189 236 278 325
#     4   9  17  32  52  81 112 138 178 226 281 326
#     4  10  20  35  57  83 113 148 184 224 280 342
#     4   9  19  31  52  82 112 145 174 228 281 327
#     4  11  23  39  56  76 112 154 190 229 281 337
#
# _framework density 17.816333
#
# number of rings (size 3 to 8) (size 9 to 14) (size 15 to 20)
#    0.000    2.000    1.667    3.500    0.000    0.667 
#    0.000    0.000    0.000    3.000    0.000    8.167 
#    0.000    0.000    0.000    0.000    0.000    0.000 
#
# Total GULP energy -133821.924976 kJ/mol
# GULP energy per Si atom -5575.913541 kJ/mol
# Density = 1.777578 g / cm^3
# Si number density = 17.816333 Si / 1000 Ang^3
#
#
#
# Elastic Constant Matrix: (Units=GPa)
#
#
# Indices 1 2 3 4 5 6 
#
# 1 66.1116 21.0740 21.5057 0.0000 7.9349 0.0000
# 2 21.0740 69.7028 39.2505 0.0000 9.2765 0.0000
# 3 21.5057 39.2505 81.3745 0.0000 14.0053 0.0000
# 4 0.0000 0.0000 0.0000 22.9622 0.0000 5.2045
# 5 7.9349 9.2765 14.0053 0.0000 28.9181 0.0000
# 6 0.0000 0.0000 0.0000 5.2045 0.0000 16.9262
#
#
#
# Elastic Compliance Matrix: (Units=1/GPa)
#
#
# Indices 1 2 3 4 5 6 
#
# 1 0.017345 -0.003535 -0.002460 0.000000 -0.002434 0.000000
# 2 -0.003535 0.020510 -0.008720 0.000000 -0.001386 0.000000
# 3 -0.002460 -0.008720 0.018052 0.000000 -0.005271 0.000000
# 4 0.000000 0.000000 0.000000 0.046812 0.000000 -0.014394
# 5 -0.002434 -0.001386 -0.005271 0.000000 0.038246 0.000000
# 6 0.000000 0.000000 0.000000 -0.014394 0.000000 0.063506
#
#
# Mechanical properties :
#
#
# Convention : Reuss Voigt Hill
#
# Bulk Modulus (GPa) = 37.76816 42.31658 40.04237
# Shear Modulus (GPa) = 20.59919 22.78519 21.69219
#
# Velocity S-wave (km/s) = 3.40398 3.58004 3.49312
# Velocity P-wave (km/s) = 6.05756 6.39469 6.22841
#
# Compressibility (1/GPa) = 0.02647733
#
# Stress axis : x y z
#
# Youngs Moduli (GPa) = 57.65315 48.75586 55.39474
#
# Poissons Ratio (x) = 0.17235 0.13627
# Poissons Ratio (y) = 0.20380 0.48306
# Poissons Ratio (z) = 0.14183 0.42516
#
# Static dielectric constant tensor:
#      x y z
#    x 1.599880 0.000000 0.005850 
#    y 0.000000 1.606820 0.000000 
#    z 0.005850 0.000000 1.602230 
# 
# From -- ./inp_files/131014.got.cif
#   From: 2010.05.17/outbox.cif.g08.bks.cpg/sg12_66_cif.got.tgz:131014.got - 2010.06.03 13:09:07.
