data_PCOD9196721
_publ_section_title
;
Structure prediction by ZEFSAII (Michael W. Deem and Ramdas Pophale) SiO2 
 PCOD9196721
Probable space group: C 2/M
;
_chemical_formula_sum "Si O2"
_cell_formula_units_Z 56
_cell_length_a 28.330967
_cell_length_b 10.228760
_cell_length_c 15.282643
_cell_angle_alpha 90.000000
_cell_angle_beta 136.314957
_cell_angle_gamma 90.000000
_cell_volume 3058.921439
_symmetry_space_group_name_H-M "C 2/M"
_symmetry_group_IT_number 12
_symmetry_cell_setting 'monoclinic'
loop_
_space_group_symop_operation_xyz
x,y,z
-x,y,-z
-x,-y,-z
x,-y,z
1/2+x,1/2+y,z
1/2-x,1/2+y,-z
1/2-x,1/2-y,-z
1/2+x,1/2-y,z
loop_
_atom_site_type_symbol
_atom_site_label
_atom_site_fract_x
_atom_site_fract_y
_atom_site_fract_z
Si Si1 0.796615 0.157001 0.812949
Si Si2 0.916512 0.143354 0.319100
Si Si3 0.424897 0.343073 0.871298
Si Si4 0.488021 0.148276 0.631676
Si Si5 0.935767 0.852677 0.683517
Si Si6 0.646874 0.731104 0.586776
Si Si7 0.799148 0.852670 0.020433
O O1 0.860721 0.205403 0.841617
O O2 0.724571 0.223431 0.692666
O O3 0.789524 0.000000 0.790654
O O4 0.810835 0.179183 0.934731
O O5 0.873454 0.158225 0.350679
O O6 0.866716 0.147185 0.169309
O O7 0.967235 0.263561 0.373035
O O8 0.950626 0.000000 0.363715
O O9 0.426589 0.500000 0.888529
O O10 0.414162 0.324052 0.753420
O O11 0.500000 0.292989 0.000000
O O12 0.485448 0.238129 0.715726
O O13 0.409130 0.152084 0.493835
O O14 0.511520 0.000000 0.672968
O O15 0.874822 0.847227 0.529981
O O16 0.965666 0.000000 0.721928
O O17 0.769628 0.000000 0.983837
O O18 0.750000 0.750000 0.000000
#
# Coordination Sequence:
#
# PCOD9196721 Si02
#       7
#     8   8   8   8   8   8   8
#     4  10  20  35  57  85 117 150 191 241 287 334
#     4  11  22  36  58  86 119 154 193 239 287 339
#     4   9  19  36  61  88 112 143 191 243 290 341
#     4  10  23  37  55  83 117 157 194 232 284 343
#     4   9  20  37  58  84 113 147 191 242 288 334
#     4  10  21  34  58  80 119 151 193 229 289 339
#     4  10  21  37  57  84 115 151 190 234 283 337
#
# _framework density 18.307106999999998
#
# number of rings (size 3 to 8) (size 9 to 14) (size 15 to 20)
#    0.857    1.286    1.429    1.714    2.000    3.429 
#    0.000    0.000    0.000    2.143    0.000    0.000 
#    0.000    0.000    0.000    0.000    0.000    0.000 
#
# Total GULP energy -155882.524603 kJ/mol
# GULP energy per Si atom -5567.233022 kJ/mol
# Density = 1.826544 g / cm^3
# Si number density = 18.307107 Si / 1000 Ang^3
#
#
#
# Elastic Constant Matrix: (Units=GPa)
#
#
# Indices 1 2 3 4 5 6 
#
# 1 151.2525 61.9910 60.5197 0.0000 -7.8840 0.0000
# 2 61.9910 110.3064 30.2995 0.0000 -6.8217 0.0000
# 3 60.5197 30.2995 97.3386 0.0000 -7.1387 0.0000
# 4 0.0000 0.0000 0.0000 13.0215 0.0000 2.1840
# 5 -7.8840 -6.8217 -7.1387 0.0000 28.9359 0.0000
# 6 0.0000 0.0000 0.0000 2.1840 0.0000 24.6484
#
#
#
# Elastic Compliance Matrix: (Units=1/GPa)
#
#
# Indices 1 2 3 4 5 6 
#
# 1 0.010517 -0.004474 -0.005106 0.000000 0.000551 0.000000
# 2 -0.004474 0.011890 -0.000818 0.000000 0.001382 0.000000
# 3 -0.005106 -0.000818 0.013837 0.000000 0.001830 0.000000
# 4 0.000000 0.000000 0.000000 0.077955 0.000000 -0.006907
# 5 0.000551 0.001382 0.001830 0.000000 0.035487 0.000000
# 6 0.000000 0.000000 0.000000 -0.006907 0.000000 0.041183
#
#
# Mechanical properties :
#
#
# Convention : Reuss Voigt Hill
#
# Bulk Modulus (GPa) = 64.73257 73.83532 69.28394
# Shear Modulus (GPa) = 23.06147 27.06031 25.06089
#
# Velocity S-wave (km/s) = 3.55308 3.84882 3.70390
# Velocity P-wave (km/s) = 7.22970 7.75695 7.49796
#
# Compressibility (1/GPa) = 0.01544817
#
# Stress axis : x y z
#
# Youngs Moduli (GPa) = 95.08747 84.10377 72.27145
#
# Poissons Ratio (x) = 0.37625 0.36899
# Poissons Ratio (y) = 0.42539 0.05914
# Poissons Ratio (z) = 0.48548 0.06882
#
# Static dielectric constant tensor:
#      x y z
#    x 1.630330 0.000000 0.004640 
#    y 0.000000 1.633490 0.000000 
#    z 0.004640 0.000000 1.662110 
# 
# From -- ./inp_files/238894.got.cif
#   From: 2010.05.17/outbox.cif.g08.bks.cpg/sg12_120_cif.got.tgz:238894.got - 2010.06.03 13:09:07.
