data_PCOD9196530
_publ_section_title
;
Structure prediction by ZEFSAII (Michael W. Deem and Ramdas Pophale) SiO2 
 PCOD9196530
Probable space group: C 2/M
;
_chemical_formula_sum "Si O2"
_cell_formula_units_Z 56
_cell_length_a 19.154720
_cell_length_b 8.475468
_cell_length_c 26.269712
_cell_angle_alpha 90.000000
_cell_angle_beta 134.730957
_cell_angle_gamma 90.000000
_cell_volume 3029.769397
_symmetry_space_group_name_H-M "C 2/M"
_symmetry_group_IT_number 12
_symmetry_cell_setting 'monoclinic'
loop_
_space_group_symop_operation_xyz
x,y,z
-x,y,-z
-x,-y,-z
x,-y,z
1/2+x,1/2+y,z
1/2-x,1/2+y,-z
1/2-x,1/2-y,-z
1/2+x,1/2-y,z
loop_
_atom_site_type_symbol
_atom_site_label
_atom_site_fract_x
_atom_site_fract_y
_atom_site_fract_z
Si Si1 0.595811 0.309221 0.425801
Si Si2 0.984686 0.190280 0.146371
Si Si3 0.705146 0.688685 0.281557
Si Si4 0.337338 0.692081 0.161059
Si Si5 0.236568 0.311087 0.411010
Si Si6 0.124754 0.809157 0.704485
Si Si7 0.325366 0.811110 0.995643
O O1 0.598307 0.500000 0.424348
O O2 0.663639 0.261244 0.508305
O O3 0.648120 0.244379 0.402064
O O4 0.482887 0.258537 0.370063
O O5 0.919098 0.243128 0.161524
O O6 0.096265 0.245418 0.209547
O O7 0.983292 0.000000 0.146088
O O8 0.929927 0.245812 0.067081
O O9 0.704350 0.500000 0.279026
O O10 0.726470 0.740698 0.350079
O O11 0.788635 0.751940 0.287119
O O12 0.340505 0.500000 0.162993
O O13 0.359556 0.746146 0.229327
O O14 0.229375 0.737463 0.084524
O O15 0.236255 0.500000 0.407486
O O16 0.125538 0.000000 0.705260
O O17 0.328934 0.000000 0.998848
O O18 0.250000 0.750000 0.000000
#
# Coordination Sequence:
#
# PCOD9196530 Si02
#       7
#     8   8   8   8   8   8   8
#     4   9  19  36  58  82 107 137 172 214 262 310
#     4   9  18  34  54  74  99 134 175 217 263 312
#     4  11  23  37  52  74 107 142 177 219 266 312
#     4   8  15  30  53  76  97 128 169 210 254 306
#     4  10  20  35  57  83 107 134 174 217 259 314
#     4  10  20  36  55  74 103 142 179 212 255 313
#     4   9  16  28  49  78 106 131 167 213 260 310
#
# _framework density 18.483253999999999
#
# number of rings (size 3 to 8) (size 9 to 14) (size 15 to 20)
#    0.000    2.571    0.000    3.000    0.000    5.143 
#    0.000    7.143    0.000    4.286    0.000    0.000 
#    0.000    0.000    0.000    0.000    0.000    0.000 
#
# Total GULP energy -156144.677366 kJ/mol
# GULP energy per Si atom -5576.595620 kJ/mol
# Density = 1.844119 g / cm^3
# Si number density = 18.483254 Si / 1000 Ang^3
#
#
#
# Elastic Constant Matrix: (Units=GPa)
#
#
# Indices 1 2 3 4 5 6 
#
# 1 103.7609 17.6110 91.7125 0.0000 34.6265 0.0000
# 2 17.6110 10.8706 23.5998 0.0000 7.0664 0.0000
# 3 91.7125 23.5998 144.5927 0.0000 39.4063 0.0000
# 4 0.0000 0.0000 0.0000 24.6313 0.0000 -0.1716
# 5 34.6265 7.0664 39.4063 0.0000 9.2489 0.0000
# 6 0.0000 0.0000 0.0000 -0.1716 0.0000 27.7194
#
#
#
# Elastic Compliance Matrix: (Units=1/GPa)
#
#
# Indices 1 2 3 4 5 6 
#
# 1 0.009844 -0.009107 -0.021035 0.000000 0.059729 0.000000
# 2 -0.009107 0.145617 -0.018852 0.000000 0.003160 0.000000
# 3 -0.021035 -0.018852 0.012738 0.000000 0.038884 0.000000
# 4 0.000000 0.000000 0.000000 0.040600 0.000000 0.000251
# 5 0.059729 0.003160 0.038884 0.000000 -0.283578 0.000000
# 6 0.000000 0.000000 0.000000 0.000251 0.000000 0.036077
#
#
# Mechanical properties :
#
#
# Convention : Reuss Voigt Hill
#
# Bulk Modulus (GPa) = 14.24279 58.34117 36.29198
# Shear Modulus (GPa) = 60.46624 20.73999 40.60312
#
# Velocity S-wave (km/s) = 5.72583 3.35340 4.69204
# Velocity P-wave (km/s) = 7.17189 6.82837 7.00223
#
# Compressibility (1/GPa) = 0.07021098
#
# Stress axis : x y z
#
# Youngs Moduli (GPa) = 101.58912 6.86732 78.50376
#
# Poissons Ratio (x) = 0.06254 1.65136
# Poissons Ratio (y) = 0.92514 1.47995
# Poissons Ratio (z) = 2.13697 0.12946
#
# Static dielectric constant tensor:
#      x y z
#    x 1.595450 0.000000 0.019860 
#    y 0.000000 1.633160 0.000000 
#    z 0.019860 0.000000 1.666510 
# 
# From -- ./inp_files/342506.got.cif
#   From: 2010.05.17/outbox.cif.g08.bks.cpg/sg12_172_cif.got.tgz:342506.got - 2010.06.03 13:09:07.
