data_PCOD9196703
_publ_section_title
;
Structure prediction by ZEFSAII (Michael W. Deem and Ramdas Pophale) SiO2 
 PCOD9196703
Probable space group: C 2/M
;
_chemical_formula_sum "Si O2"
_cell_formula_units_Z 56
_cell_length_a 15.623084
_cell_length_b 23.504545
_cell_length_c 9.456722
_cell_angle_alpha 90.000000
_cell_angle_beta 52.281008
_cell_angle_gamma 90.000000
_cell_volume 2746.927099
_symmetry_space_group_name_H-M "C 2/M"
_symmetry_group_IT_number 12
_symmetry_cell_setting 'monoclinic'
loop_
_space_group_symop_operation_xyz
x,y,z
-x,y,-z
-x,-y,-z
x,-y,z
1/2+x,1/2+y,z
1/2-x,1/2+y,-z
1/2-x,1/2-y,-z
1/2+x,1/2-y,z
loop_
_atom_site_type_symbol
_atom_site_label
_atom_site_fract_x
_atom_site_fract_y
_atom_site_fract_z
Si Si1 0.124583 0.563491 0.824145
Si Si2 0.684900 0.894504 0.054990
Si Si3 0.385959 0.346662 0.205829
Si Si4 0.439422 0.145373 0.348583
Si Si5 0.702071 0.063972 0.335640
Si Si6 0.955954 0.775327 0.383891
Si Si7 0.172647 0.206698 0.002808
O O1 0.151990 0.500000 0.742399
O O2 0.124220 0.617127 0.719280
O O3 0.191036 0.577546 0.896643
O O4 0.000000 0.560097 0.000000
O O5 0.568132 0.862235 0.188217
O O6 0.691242 0.937291 0.178046
O O7 0.785231 0.853084 0.981032
O O8 0.311384 0.402549 0.269356
O O9 0.389228 0.323599 0.364421
O O10 0.500000 0.355765 0.000000
O O11 0.328498 0.298639 0.164984
O O12 0.396558 0.103442 0.513128
O O13 0.413128 0.210436 0.415704
O O14 0.697830 0.000000 0.393725
O O15 0.000000 0.786088 0.500000
O O16 0.057307 0.776051 0.175816
O O17 0.250000 0.250000 0.000000
#
# Coordination Sequence:
#
# PCOD9196703 Si02
#       7
#     8   8   8   8   8   8   8
#     4   9  19  33  50  76 112 155 197 231 276 341
#     4  10  20  35  57  85 114 155 197 236 291 350
#     4   9  23  42  61  86 115 155 201 245 298 349
#     4  11  22  34  54  85 121 154 189 236 300 350
#     4  11  23  39  60  86 117 155 199 246 294 349
#     4  11  23  39  59  86 122 153 195 246 296 350
#     4  10  20  36  60  84 119 156 195 236 290 360
#
# _framework density 20.386416000000001
#
# number of rings (size 3 to 8) (size 9 to 14) (size 15 to 20)
#    0.000    1.857    1.429    2.143    4.000    6.000 
#    0.000    0.000    0.000    0.429    0.000    0.000 
#    0.000    0.000    0.000    0.000    0.000    0.000 
#
# Total GULP energy -155899.553927 kJ/mol
# GULP energy per Si atom -5567.841212 kJ/mol
# Density = 2.034002 g / cm^3
# Si number density = 20.386416 Si / 1000 Ang^3
#
#
#
# Elastic Constant Matrix: (Units=GPa)
#
#
# Indices 1 2 3 4 5 6 
#
# 1 80.9004 34.7594 25.0488 0.0000 32.5064 0.0000
# 2 34.7594 88.1911 34.1475 0.0000 10.6698 0.0000
# 3 25.0488 34.1475 58.5552 0.0000 26.8848 0.0000
# 4 0.0000 0.0000 0.0000 17.5189 0.0000 -3.3486
# 5 32.5064 10.6698 26.8848 0.0000 53.5453 0.0000
# 6 0.0000 0.0000 0.0000 -3.3486 0.0000 6.7722
#
#
#
# Elastic Compliance Matrix: (Units=1/GPa)
#
#
# Indices 1 2 3 4 5 6 
#
# 1 0.019284 -0.006470 0.000399 0.000000 -0.010618 0.000000
# 2 -0.006470 0.016949 -0.009577 0.000000 0.005359 0.000000
# 3 0.000399 -0.009577 0.028236 0.000000 -0.012511 0.000000
# 4 0.000000 0.000000 0.000000 0.063039 0.000000 0.031170
# 5 -0.010618 0.005359 -0.012511 0.000000 0.030336 0.000000
# 6 0.000000 0.000000 0.000000 0.031170 0.000000 0.163074
#
#
# Mechanical properties :
#
#
# Convention : Reuss Voigt Hill
#
# Bulk Modulus (GPa) = 30.14490 46.17311 38.15900
# Shear Modulus (GPa) = 13.76383 24.48003 19.12193
#
# Velocity S-wave (km/s) = 2.60118 3.46902 3.06596
# Velocity P-wave (km/s) = 4.88266 6.22443 5.59392
#
# Compressibility (1/GPa) = 0.03317311
#
# Stress axis : x y z
#
# Youngs Moduli (GPa) = 51.85739 59.00075 35.41540
#
# Poissons Ratio (x) = 0.38176 -0.01414
# Poissons Ratio (y) = 0.33554 0.33916
# Poissons Ratio (z) = -0.02070 0.56503
#
# Static dielectric constant tensor:
#      x y z
#    x 2.024870 0.000000 -0.009120 
#    y 0.000000 1.887760 0.000000 
#    z -0.009120 0.000000 1.821000 
# 
# From -- ./inp_files/65758.got.cif
#   From: 2010.05.17/outbox.cif.g08.bks.cpg/sg12_33_cif.got.tgz:65758.got - 2010.06.03 13:09:07.
