data_PCOD9196190
_publ_section_title
;
Structure prediction by ZEFSAII (Michael W. Deem and Ramdas Pophale) SiO2 
 PCOD9196190
Probable space group: C 2/M
;
_chemical_formula_sum "Si O2"
_cell_formula_units_Z 56
_cell_length_a 9.451457
_cell_length_b 19.327977
_cell_length_c 16.558141
_cell_angle_alpha 90.000000
_cell_angle_beta 76.136868
_cell_angle_gamma 90.000000
_cell_volume 2936.690684
_symmetry_space_group_name_H-M "C 2/M"
_symmetry_group_IT_number 12
_symmetry_cell_setting 'monoclinic'
loop_
_space_group_symop_operation_xyz
x,y,z
-x,y,-z
-x,-y,-z
x,-y,z
1/2+x,1/2+y,z
1/2-x,1/2+y,-z
1/2-x,1/2-y,-z
1/2+x,1/2-y,z
loop_
_atom_site_type_symbol
_atom_site_label
_atom_site_fract_x
_atom_site_fract_y
_atom_site_fract_z
Si Si1 0.710634 0.419393 0.726846
Si Si2 0.007325 0.203454 0.270033
Si Si3 0.657248 0.821511 0.802858
Si Si4 0.490028 0.923463 0.404896
Si Si5 0.661626 0.815883 0.986791
Si Si6 0.389686 0.783170 0.440665
Si Si7 0.101480 0.580973 0.141009
O O1 0.673664 0.500000 0.718446
O O2 0.576883 0.368557 0.731078
O O3 0.774276 0.411497 0.808315
O O4 0.850659 0.402925 0.650939
O O5 0.947010 0.256159 0.208101
O O6 0.950721 0.236804 0.360614
O O7 0.181929 0.193969 0.254156
O O8 0.700481 0.835650 0.890580
O O9 0.547003 0.885590 0.802176
O O10 0.500000 0.930605 0.500000
O O11 0.378240 0.860910 0.406020
O O12 0.454808 0.000000 0.376000
O O13 0.500000 0.788236 0.000000
O O14 0.750000 0.750000 0.000000
O O15 0.650109 0.876392 0.054797
O O16 0.500000 0.787949 0.500000
O O17 0.250000 0.750000 0.500000
O O18 0.080636 0.500000 0.126179
#
# Coordination Sequence:
#
# PCOD9196190 Si02
#       7
#     8   8   8   8   8   8   8
#     4  10  21  38  60  83 113 153 197 247 300 355
#     4  12  22  38  59  87 122 153 199 247 295 354
#     4  11  22  34  58  84 113 155 191 240 294 347
#     4   9  17  32  55  80 107 144 190 236 285 346
#     4  10  20  35  56  82 112 149 194 239 288 349
#     4  11  22  36  57  86 117 152 193 241 295 352
#     4  10  22  40  60  85 117 155 200 249 302 360
#
# _framework density 19.069082999999999
#
# number of rings (size 3 to 8) (size 9 to 14) (size 15 to 20)
#    0.000    1.571    0.000    7.714    0.000    3.143 
#    0.000    0.000    0.000    5.571    0.000    0.000 
#    0.000    0.000    0.000    0.000    0.000    0.000 
#
# Total GULP energy -156022.774224 kJ/mol
# GULP energy per Si atom -5572.241937 kJ/mol
# Density = 1.902568 g / cm^3
# Si number density = 19.069083 Si / 1000 Ang^3
#
#
#
# Elastic Constant Matrix: (Units=GPa)
#
#
# Indices 1 2 3 4 5 6 
#
# 1 49.1755 58.9184 8.2293 0.0000 -6.2707 0.0000
# 2 58.9184 140.8501 21.9256 0.0000 -8.9561 0.0000
# 3 8.2293 21.9256 81.4507 0.0000 -3.8793 0.0000
# 4 0.0000 0.0000 0.0000 -928.1812 0.0000-1064.3760
# 5 -6.2707 -8.9561 -3.8793 0.0000 29.3911 0.0000
# 6 0.0000 0.0000 0.0000-1064.3760 0.0000-1145.1690
#
#
#
# Elastic Compliance Matrix: (Units=1/GPa)
#
#
# Indices 1 2 3 4 5 6 
#
# 1 0.041167 -0.017083 0.000614 0.000000 0.003658 0.000000
# 2 -0.017083 0.014619 -0.002184 0.000000 0.000522 0.000000
# 3 0.000614 -0.002184 0.012859 0.000000 0.001162 0.000000
# 4 0.000000 0.000000 0.000000 0.016366 0.000000 -0.015211
# 5 0.003658 0.000522 0.001162 0.000000 0.035117 0.000000
# 6 0.000000 0.000000 0.000000 -0.015211 0.000000 0.013265
#
#
# Mechanical properties :
#
#
# Convention : Reuss Voigt Hill
#
# Bulk Modulus (GPa) = 31.91159 49.95810 40.93485
# Shear Modulus (GPa) = 27.60191 -396.63164 -184.51486
#
# Velocity S-wave (km/s) = 3.80869 -14.43775 -9.84740
# Velocity P-wave (km/s) = 6.00937 15.86431 10.38181
#
# Compressibility (1/GPa) = 0.03133657
#
# Stress axis : x y z
#
# Youngs Moduli (GPa) = 24.29123 68.40399 77.76797
#
# Poissons Ratio (x) = 1.16857 -0.04772
# Poissons Ratio (y) = 0.41498 0.16988
# Poissons Ratio (z) = -0.01491 0.14942
#
# Static dielectric constant tensor:
#      x y z
#    x 1.658000 0.000000 -0.001890 
#    y 0.000000 1.712400 0.000000 
#    z -0.001890 0.000000 1.765450 
# 
# From -- ./inp_files/256985.got.cif
#   From: 2010.05.17/outbox.cif.g08.bks.cpg/sg12_129_cif.got.tgz:256985.got - 2010.06.03 13:09:07.
