data_PCOD9196637
_publ_section_title
;
Structure prediction by ZEFSAII (Michael W. Deem and Ramdas Pophale) SiO2 
 PCOD9196637
Probable space group: C 2/M
;
_chemical_formula_sum "Si O2"
_cell_formula_units_Z 64
_cell_length_a 28.682921
_cell_length_b 8.592313
_cell_length_c 13.405565
_cell_angle_alpha 90.000000
_cell_angle_beta 89.896871
_cell_angle_gamma 90.000000
_cell_volume 3303.831466
_symmetry_space_group_name_H-M "C 2/M"
_symmetry_group_IT_number 12
_symmetry_cell_setting 'monoclinic'
loop_
_space_group_symop_operation_xyz
x,y,z
-x,y,-z
-x,-y,-z
x,-y,z
1/2+x,1/2+y,z
1/2-x,1/2+y,-z
1/2-x,1/2-y,-z
1/2+x,1/2-y,z
loop_
_atom_site_type_symbol
_atom_site_label
_atom_site_fract_x
_atom_site_fract_y
_atom_site_fract_z
Si Si1 0.054240 0.313385 0.602605
Si Si2 0.304364 0.687707 0.281710
Si Si3 0.550996 0.313024 0.392524
Si Si4 0.393640 0.185862 0.195500
Si Si5 0.303713 0.814296 0.713698
Si Si6 0.802812 0.186705 0.502678
Si Si7 0.891657 0.812314 0.804310
Si Si8 0.053758 0.188145 0.997625
O O1 0.056598 0.500000 0.594336
O O2 0.071904 0.239814 0.498721
O O3 0.080879 0.262399 0.702223
O O4 0.000488 0.260444 0.613032
O O5 0.305657 0.500000 0.276228
O O6 0.340345 0.758429 0.203948
O O7 0.250184 0.736370 0.270836
O O8 0.321174 0.734130 0.393692
O O9 0.547041 0.500000 0.393157
O O10 0.579989 0.265243 0.295188
O O11 0.395369 0.000000 0.191797
O O12 0.420156 0.253686 0.100590
O O13 0.321519 0.752125 0.606238
O O14 0.339716 0.753681 0.795152
O O15 0.303640 0.000000 0.710258
O O16 0.750000 0.250000 0.500000
O O17 0.803421 0.000000 0.507517
O O18 0.919039 0.761376 0.902846
O O19 0.889324 0.000000 0.804392
O O20 0.053585 0.000000 0.996597
O O21 0.000000 0.240752 0.000000
#
# Coordination Sequence:
#
# PCOD9196637 Si02
#       8
#     8   8   8   8   8   8   8   8
#     4  10  21  36  53  81 119 152 184 231 291 350
#     4   9  20  37  56  81 115 156 200 241 284 341
#     4  10  20  35  57  84 113 149 191 233 284 350
#     4  11  24  38  58  88 118 151 194 242 295 350
#     4  10  21  36  56  84 118 158 199 241 292 348
#     4   9  17  31  52  80 114 154 197 240 286 339
#     4  10  22  38  59  88 116 148 195 244 293 348
#     4  10  22  43  68  89 114 150 195 245 295 352
#
# _framework density 19.371448000000001
#
# number of rings (size 3 to 8) (size 9 to 14) (size 15 to 20)
#    0.000    2.125    0.000    4.125    1.750    7.750 
#    0.000    0.625    0.000    0.000    0.000    0.000 
#    0.000    0.000    0.000    0.000    0.000    0.000 
#
# Total GULP energy -178676.650102 kJ/mol
# GULP energy per Si atom -5583.645316 kJ/mol
# Density = 1.932736 g / cm^3
# Si number density = 19.371448 Si / 1000 Ang^3
#
#
#
# Elastic Constant Matrix: (Units=GPa)
#
#
# Indices 1 2 3 4 5 6 
#
# 1 129.7328 20.3195 89.2540 0.0000 0.7345 0.0000
# 2 20.3195 20.1118 29.8941 0.0000 1.4498 0.0000
# 3 89.2540 29.8941 150.4586 0.0000 0.4117 0.0000
# 4 0.0000 0.0000 0.0000 28.2410 0.0000 3.7823
# 5 0.7345 1.4498 0.4117 0.0000 38.4404 0.0000
# 6 0.0000 0.0000 0.0000 3.7823 0.0000 13.7646
#
#
#
# Elastic Compliance Matrix: (Units=1/GPa)
#
#
# Indices 1 2 3 4 5 6 
#
# 1 0.013104 -0.002383 -0.007300 0.000000 -0.000082 0.000000
# 2 -0.002383 0.071237 -0.012733 0.000000 -0.002505 0.000000
# 3 -0.007300 -0.012733 0.013505 0.000000 0.000475 0.000000
# 4 0.000000 0.000000 0.000000 0.036762 0.000000 -0.010102
# 5 -0.000082 -0.002505 0.000475 0.000000 0.026105 0.000000
# 6 0.000000 0.000000 0.000000 -0.010102 0.000000 0.075426
#
#
# Mechanical properties :
#
#
# Convention : Reuss Voigt Hill
#
# Bulk Modulus (GPa) = 18.86293 64.35982 41.61137
# Shear Modulus (GPa) = 16.74238 26.81157 21.77698
#
# Velocity S-wave (km/s) = 2.94306 3.72435 3.35652
# Velocity P-wave (km/s) = 4.61599 7.19657 6.04558
#
# Compressibility (1/GPa) = 0.05301404
#
# Stress axis : x y z
#
# Youngs Moduli (GPa) = 76.31278 14.03765 74.04514
#
# Poissons Ratio (x) = 0.03345 0.54051
# Poissons Ratio (y) = 0.18186 0.94284
# Poissons Ratio (z) = 0.55706 0.17875
#
# Static dielectric constant tensor:
#      x y z
#    x 1.682950 0.000000 0.011980 
#    y 0.000000 1.651240 0.000000 
#    z 0.011980 0.000000 1.674660 
# 
# From -- ./inp_files/187630.got.cif
#   From: 2010.05.17/outbox.cif.g08.bks.cpg/sg12_94_cif.got.tgz:187630.got - 2010.06.03 13:09:07.
