data_PCOD9196220
_publ_section_title
;
Structure prediction by ZEFSAII (Michael W. Deem and Ramdas Pophale) SiO2 
 PCOD9196220
Probable space group: C 2/M
;
_chemical_formula_sum "Si O2"
_cell_formula_units_Z 64
_cell_length_a 20.401235
_cell_length_b 8.810544
_cell_length_c 25.651166
_cell_angle_alpha 90.000000
_cell_angle_beta 128.238363
_cell_angle_gamma 90.000000
_cell_volume 3621.435687
_symmetry_space_group_name_H-M "C 2/M"
_symmetry_group_IT_number 12
_symmetry_cell_setting 'monoclinic'
loop_
_space_group_symop_operation_xyz
x,y,z
-x,y,-z
-x,-y,-z
x,-y,z
1/2+x,1/2+y,z
1/2-x,1/2+y,-z
1/2-x,1/2-y,-z
1/2+x,1/2-y,z
loop_
_atom_site_type_symbol
_atom_site_label
_atom_site_fract_x
_atom_site_fract_y
_atom_site_fract_z
Si Si1 0.203887 0.180386 0.827064
Si Si2 0.178887 0.680841 0.928444
Si Si3 0.327775 0.681099 0.808696
Si Si4 0.254995 0.318991 0.658583
Si Si5 0.080720 0.319585 0.301795
Si Si6 0.075831 0.182685 0.575463
Si Si7 0.040099 0.181784 0.677422
Si Si8 0.500078 0.318094 0.842103
O O1 0.195385 0.266125 0.877341
O O2 0.284898 0.230946 0.834562
O O3 0.123764 0.216488 0.751451
O O4 0.204403 0.000000 0.836686
O O5 0.179162 0.500000 0.931789
O O6 0.088085 0.745001 0.899221
O O7 0.250000 0.750000 0.000000
O O8 0.320209 0.500000 0.813530
O O9 0.279609 0.717649 0.730879
O O10 0.424622 0.716329 0.844798
O O11 0.261558 0.500000 0.655998
O O12 0.325005 0.239376 0.657890
O O13 0.162326 0.261041 0.602758
O O14 0.077540 0.500000 0.295152
O O15 0.036216 0.265310 0.332431
O O16 0.029847 0.244320 0.228722
O O17 0.000000 0.222445 0.500000
O O18 0.053622 0.224245 0.624048
O O19 0.087374 0.000000 0.579513
O O20 0.026867 0.000000 0.673642
O O21 0.508009 0.500000 0.842180
#
# Coordination Sequence:
#
# PCOD9196220 Si02
#       8
#     8   8   8   8   8   8   8   8
#     4  11  21  35  59  87 117 150 190 238 284 334
#     4  12  25  41  61  85 117 155 193 235 285 342
#     4   9  19  34  56  85 116 148 186 235 284 334
#     4  10  20  35  56  82 116 152 189 236 289 343
#     4  11  21  33  56  86 114 147 191 240 285 337
#     4  10  21  38  59  84 116 153 192 236 288 346
#     4  10  20  35  56  84 117 150 188 238 287 335
#     4  10  20  37  58  85 119 152 188 234 288 340
#
# _framework density 17.672549
#
# number of rings (size 3 to 8) (size 9 to 14) (size 15 to 20)
#    0.000    1.625    2.500    4.125    0.000    3.750 
#    0.000    1.250    0.000    3.750    0.000    0.000 
#    0.000    0.000    0.000    0.000    0.000    0.000 
#
# Total GULP energy -178778.573288 kJ/mol
# GULP energy per Si atom -5586.830415 kJ/mol
# Density = 1.763233 g / cm^3
# Si number density = 17.672549 Si / 1000 Ang^3
#
#
#
# Elastic Constant Matrix: (Units=GPa)
#
#
# Indices 1 2 3 4 5 6 
#
# 1 140.3570 69.8034 64.5118 0.0000 19.6721 0.0000
# 2 69.8034 85.5012 56.1523 0.0000 8.4191 0.0000
# 3 64.5118 56.1523 105.9718 0.0000 16.5675 0.0000
# 4 0.0000 0.0000 0.0000 22.2202 0.0000 3.2497
# 5 19.6721 8.4191 16.5675 0.0000 26.2639 0.0000
# 6 0.0000 0.0000 0.0000 3.2497 0.0000 35.9537
#
#
#
# Elastic Compliance Matrix: (Units=1/GPa)
#
#
# Indices 1 2 3 4 5 6 
#
# 1 0.013467 -0.008641 -0.002747 0.000000 -0.005585 0.000000
# 2 -0.008641 0.023484 -0.007786 0.000000 0.003856 0.000000
# 3 -0.002747 -0.007786 0.016111 0.000000 -0.005610 0.000000
# 4 0.000000 0.000000 0.000000 0.045607 0.000000 -0.004122
# 5 -0.005585 0.003856 -0.005610 0.000000 0.044561 0.000000
# 6 0.000000 0.000000 0.000000 -0.004122 0.000000 0.028186
#
#
# Mechanical properties :
#
#
# Convention : Reuss Voigt Hill
#
# Bulk Modulus (GPa) = 67.95761 79.19611 73.57686
# Shear Modulus (GPa) = 23.29162 26.31172 24.80167
#
# Velocity S-wave (km/s) = 3.63430 3.86274 3.75026
# Velocity P-wave (km/s) = 7.49321 8.05014 7.77666
#
# Compressibility (1/GPa) = 0.01471505
#
# Stress axis : x y z
#
# Youngs Moduli (GPa) = 74.25440 42.58184 62.06810
#
# Poissons Ratio (x) = 0.36795 0.17047
# Poissons Ratio (y) = 0.64163 0.48328
# Poissons Ratio (z) = 0.20395 0.33155
#
# Static dielectric constant tensor:
#      x y z
#    x 1.597930 0.000000 0.003920 
#    y 0.000000 1.588490 0.000000 
#    z 0.003920 0.000000 1.578960 
# 
# From -- ./inp_files/346268.got.cif
#   From: 2010.05.17/outbox.cif.g08.bks.cpg/sg12_174_cif.got.tgz:346268.got - 2010.06.03 13:09:07.
