data_PCOD9196307
_publ_section_title
;
Structure prediction by ZEFSAII (Michael W. Deem and Ramdas Pophale) SiO2 
 PCOD9196307
Probable space group: C 2/M
;
_chemical_formula_sum "Si O2"
_cell_formula_units_Z 56
_cell_length_a 29.268051
_cell_length_b 16.656549
_cell_length_c 8.149139
_cell_angle_alpha 90.000000
_cell_angle_beta 136.578107
_cell_angle_gamma 90.000000
_cell_volume 2730.725374
_symmetry_space_group_name_H-M "C 2/M"
_symmetry_group_IT_number 12
_symmetry_cell_setting 'monoclinic'
loop_
_space_group_symop_operation_xyz
x,y,z
-x,y,-z
-x,-y,-z
x,-y,z
1/2+x,1/2+y,z
1/2-x,1/2+y,-z
1/2-x,1/2-y,-z
1/2+x,1/2-y,z
loop_
_atom_site_type_symbol
_atom_site_label
_atom_site_fract_x
_atom_site_fract_y
_atom_site_fract_z
Si Si1 0.930529 0.908860 0.714125
Si Si2 0.147893 0.407936 0.069552
Si Si3 0.779312 0.598192 0.416864
Si Si4 0.639638 0.903365 0.687669
Si Si5 0.006003 0.628411 0.827691
Si Si6 0.992533 0.798164 0.296266
Si Si7 0.130669 0.096034 0.114226
O O1 0.875303 0.887812 0.705217
O O2 0.943965 0.847781 0.602988
O O3 0.920074 0.000000 0.628435
O O4 0.000000 0.908266 0.000000
O O5 0.172097 0.500000 0.122681
O O6 0.157164 0.370527 0.913933
O O7 0.069576 0.408936 0.905431
O O8 0.183654 0.371651 0.322149
O O9 0.784418 0.500000 0.429708
O O10 0.815393 0.626554 0.345711
O O11 0.701926 0.618055 0.228814
O O12 0.563019 0.887531 0.443438
O O13 0.647035 0.000000 0.714290
O O14 0.018163 0.723808 0.851827
O O15 0.000000 0.600855 0.000000
O O16 0.000000 0.767604 0.500000
O O17 0.929418 0.856767 0.125362
O O18 0.120500 0.000000 0.070051
#
# Coordination Sequence:
#
# PCOD9196307 Si02
#       7
#     8   8   8   8   8   8   8
#     4   8  15  31  54  75  98 133 175 220 269 320
#     4  10  20  35  56  84 114 145 185 228 273 324
#     4   9  18  35  57  82 114 149 180 220 275 331
#     4  10  20  35  57  86 116 143 183 230 270 326
#     4  12  22  35  58  78 108 149 188 229 280 324
#     4  11  22  35  53  80 113 140 184 236 279 324
#     4   9  18  36  59  81 109 144 182 223 274 334
#
# _framework density 20.507373000000001
#
# number of rings (size 3 to 8) (size 9 to 14) (size 15 to 20)
#    0.000    2.143    1.429    4.286    0.000    2.857 
#    2.571    0.714    0.000    1.714    0.000    0.000 
#    0.000    0.000    0.000    0.000    0.000    0.000 
#
# Total GULP energy -156239.429601 kJ/mol
# GULP energy per Si atom -5579.979629 kJ/mol
# Density = 2.046070 g / cm^3
# Si number density = 20.507373 Si / 1000 Ang^3
#
#
#
# Elastic Constant Matrix: (Units=GPa)
#
#
# Indices 1 2 3 4 5 6 
#
# 1 121.2302 8.2063 63.6244 0.0000 -9.8908 0.0000
# 2 8.2063 26.1095 3.2781 0.0000 -3.4837 0.0000
# 3 63.6244 3.2781 50.9865 0.0000 -9.5888 0.0000
# 4 0.0000 0.0000 0.0000 7.0585 0.0000 -8.6446
# 5 -9.8908 -3.4837 -9.5888 0.0000 35.8677 0.0000
# 6 0.0000 0.0000 0.0000 -8.6446 0.0000 12.5703
#
#
#
# Elastic Compliance Matrix: (Units=1/GPa)
#
#
# Indices 1 2 3 4 5 6 
#
# 1 0.024395 -0.004079 -0.030524 0.000000 -0.001829 0.000000
# 2 -0.004079 0.039657 0.003215 0.000000 0.003586 0.000000
# 3 -0.030524 0.003215 0.058935 0.000000 0.007651 0.000000
# 4 0.000000 0.000000 0.000000 0.898027 0.000000 0.617576
# 5 -0.001829 0.003586 0.007651 0.000000 0.029769 0.000000
# 6 0.000000 0.000000 0.000000 0.617576 0.000000 0.504261
#
#
# Mechanical properties :
#
#
# Convention : Reuss Voigt Hill
#
# Bulk Modulus (GPa) = 16.60811 38.72709 27.66760
# Shear Modulus (GPa) = 3.05271 19.31380 11.18325
#
# Velocity S-wave (km/s) = 1.22140 3.07220 2.33776
# Velocity P-wave (km/s) = 3.17888 5.61338 4.56154
#
# Compressibility (1/GPa) = 0.06021154
#
# Stress axis : x y z
#
# Youngs Moduli (GPa) = 40.99162 25.21607 16.96791
#
# Poissons Ratio (x) = 0.10286 0.51792
# Poissons Ratio (y) = 0.16722 -0.05455
# Poissons Ratio (z) = 1.25122 -0.08107
#
# Static dielectric constant tensor:
#      x y z
#    x 1.753430 0.000000 -0.027290 
#    y 0.000000 1.738590 0.000000 
#    z -0.027290 0.000000 1.716740 
# 
# From -- ./inp_files/112637.got.cif
#   From: 2010.05.17/outbox.cif.g08.bks.cpg/sg12_57_cif.got.tgz:112637.got - 2010.06.03 13:09:07.
