data_PCOD9196300
_publ_section_title
;
Structure prediction by ZEFSAII (Michael W. Deem and Ramdas Pophale) SiO2 
 PCOD9196300
Probable space group: C 2/M
;
_chemical_formula_sum "Si O2"
_cell_formula_units_Z 48
_cell_length_a 22.582204
_cell_length_b 20.767935
_cell_length_c 10.434794
_cell_angle_alpha 90.000000
_cell_angle_beta 154.153612
_cell_angle_gamma 90.000000
_cell_volume 2133.487202
_symmetry_space_group_name_H-M "C 2/M"
_symmetry_group_IT_number 12
_symmetry_cell_setting 'monoclinic'
loop_
_space_group_symop_operation_xyz
x,y,z
-x,y,-z
-x,-y,-z
x,-y,z
1/2+x,1/2+y,z
1/2-x,1/2+y,-z
1/2-x,1/2-y,-z
1/2+x,1/2-y,z
loop_
_atom_site_type_symbol
_atom_site_label
_atom_site_fract_x
_atom_site_fract_y
_atom_site_fract_z
Si Si1 0.353453 0.299945 0.488797
Si Si2 0.291134 0.196827 0.185302
Si Si3 0.850902 0.615730 0.665467
Si Si4 0.070130 0.427600 0.463558
Si Si5 0.365857 0.707795 0.882830
Si Si6 0.766347 0.428839 0.777251
O O1 0.389122 0.240429 0.465714
O O2 0.203775 0.278152 0.246340
O O3 0.332008 0.369223 0.385275
O O4 0.475072 0.298270 0.825014
O O5 0.365225 0.128228 0.321956
O O6 0.161014 0.183860 0.022568
O O7 0.250000 0.250000 0.000000
O O8 0.874841 0.579429 0.576381
O O9 0.735310 0.666256 0.400188
O O10 0.797715 0.576424 0.685009
O O11 0.000000 0.640373 0.000000
O O12 0.098985 0.500000 0.565902
O O13 0.908638 0.420123 0.127890
O O14 0.712624 0.500000 0.700253
#
# Coordination Sequence:
#
# PCOD9196300 Si02
#       6
#     8   8   8   8   8   8
#     4  10  21  38  55  82 116 153 196 245 296 346
#     4   9  20  37  60  85 114 151 194 245 302 348
#     4   9  18  33  56  86 118 159 197 234 289 351
#     4   9  17  35  59  89 119 150 198 248 289 345
#     4   9  21  37  56  85 114 150 197 243 292 341
#     4  10  20  35  56  83 122 161 192 238 293 348
#
# _framework density 22.498377000000001
#
# number of rings (size 3 to 8) (size 9 to 14) (size 15 to 20)
#    1.000    1.667    0.000    1.500    2.333    4.000 
#    0.000    5.833    0.000    2.000    0.000    5.833 
#    0.000    0.000    0.000    0.000    0.000    0.000 
#
# Total GULP energy -133650.343076 kJ/mol
# GULP energy per Si atom -5568.764295 kJ/mol
# Density = 2.244717 g / cm^3
# Si number density = 22.498377 Si / 1000 Ang^3
#
#
#
# Elastic Constant Matrix: (Units=GPa)
#
#
# Indices 1 2 3 4 5 6 
#
# 1 49.7454 16.7480 12.2382 0.0000 -11.7432 0.0000
# 2 16.7480 191.8732 70.9280 0.0000 0.9891 0.0000
# 3 12.2382 70.9280 96.4330 0.0000 11.5787 0.0000
# 4 0.0000 0.0000 0.0000 34.1934 0.0000 -0.8787
# 5 -11.7432 0.9891 11.5787 0.0000 31.2850 0.0000
# 6 0.0000 0.0000 0.0000 -0.8787 0.0000 17.6060
#
#
#
# Elastic Compliance Matrix: (Units=1/GPa)
#
#
# Indices 1 2 3 4 5 6 
#
# 1 0.023691 -0.000760 -0.003682 0.000000 0.010279 0.000000
# 2 -0.000760 0.007281 -0.005438 0.000000 0.001497 0.000000
# 3 -0.003682 -0.005438 0.015679 0.000000 -0.007013 0.000000
# 4 0.000000 0.000000 0.000000 0.029283 0.000000 0.001461
# 5 0.010279 0.001497 -0.007013 0.000000 0.038371 0.000000
# 6 0.000000 0.000000 0.000000 0.001461 0.000000 0.056872
#
#
# Mechanical properties :
#
#
# Convention : Reuss Voigt Hill
#
# Bulk Modulus (GPa) = 37.18827 59.76445 48.47636
# Shear Modulus (GPa) = 25.01248 32.49270 28.75259
#
# Velocity S-wave (km/s) = 3.33790 3.80442 3.57877
# Velocity P-wave (km/s) = 5.60541 6.77641 6.21853
#
# Compressibility (1/GPa) = 0.02689020
#
# Stress axis : x y z
#
# Youngs Moduli (GPa) = 42.21091 137.34806 63.77820
#
# Poissons Ratio (x) = 0.10435 0.23483
# Poissons Ratio (y) = 0.03207 0.34686
# Poissons Ratio (z) = 0.15542 0.74697
#
# Static dielectric constant tensor:
#      x y z
#    x 2.000510 0.000000 -0.049890 
#    y 0.000000 1.851440 0.000000 
#    z -0.049890 0.000000 1.825630 
# 
# From -- ./inp_files/190291.got.cif
#   From: 2010.05.17/outbox.cif.g08.bks.cpg/sg12_96_cif.got.tgz:190291.got - 2010.06.03 13:09:07.
