data_PCOD9196966
_publ_section_title
;
Structure prediction by ZEFSAII (Michael W. Deem and Ramdas Pophale) SiO2 
 PCOD9196966
Probable space group: C 2/M
;
_chemical_formula_sum "Si O2"
_cell_formula_units_Z 64
_cell_length_a 20.688072
_cell_length_b 8.959297
_cell_length_c 34.519110
_cell_angle_alpha 90.000000
_cell_angle_beta 144.916342
_cell_angle_gamma 90.000000
_cell_volume 3677.469260
_symmetry_space_group_name_H-M "C 2/M"
_symmetry_group_IT_number 12
_symmetry_cell_setting 'monoclinic'
loop_
_space_group_symop_operation_xyz
x,y,z
-x,y,-z
-x,-y,-z
x,-y,z
1/2+x,1/2+y,z
1/2-x,1/2+y,-z
1/2-x,1/2-y,-z
1/2+x,1/2-y,z
loop_
_atom_site_type_symbol
_atom_site_label
_atom_site_fract_x
_atom_site_fract_y
_atom_site_fract_z
Si Si1 0.468836 0.678695 0.421629
Si Si2 0.561229 0.821768 0.676542
Si Si3 0.233271 0.322657 0.179462
Si Si4 0.079601 0.178972 0.323653
Si Si5 0.129010 0.176842 0.831192
Si Si6 0.738627 0.322232 0.036211
Si Si7 0.996268 0.179031 0.952773
Si Si8 0.683617 0.321448 0.580832
O O1 0.463107 0.500000 0.411895
O O2 0.461066 0.764841 0.377683
O O3 0.369758 0.717330 0.403500
O O4 0.585661 0.708638 0.501383
O O5 0.681891 0.759834 0.749994
O O6 0.470477 0.753679 0.662130
O O7 0.558778 0.000000 0.677434
O O8 0.237464 0.500000 0.188403
O O9 0.283426 0.294776 0.160963
O O10 0.107545 0.260850 0.118366
O O11 0.202942 0.236297 0.373854
O O12 0.992055 0.216871 0.246151
O O13 0.077143 0.000000 0.327278
O O14 0.168313 0.263802 0.888128
O O15 0.129991 0.000000 0.839778
O O16 0.745595 0.500000 0.036881
O O17 0.750000 0.250000 0.000000
O O18 0.616024 0.282867 0.993134
O O19 0.979489 0.000000 0.941942
O O20 0.000000 0.219203 0.000000
O O21 0.703820 0.500000 0.590494
#
# Coordination Sequence:
#
# PCOD9196966 Si02
#       8
#     8   8   8   8   8   8   8   8
#     4   9  19  38  60  83 115 149 185 230 280 330
#     4  11  22  36  57  84 115 150 188 232 280 328
#     4  10  20  35  58  85 112 144 183 231 281 330
#     4  10  21  37  58  85 115 148 186 232 279 331
#     4   9  19  36  56  79 109 145 182 224 278 330
#     4  11  23  38  57  80 111 146 182 229 278 327
#     4  10  20  36  58  84 110 141 184 230 275 327
#     4   9  19  37  61  85 111 149 189 228 276 335
#
# _framework density 17.403272999999999
#
# number of rings (size 3 to 8) (size 9 to 14) (size 15 to 20)
#    0.000    2.125    1.250    3.750    0.000    5.250 
#    2.250    1.250    0.000    0.000    0.000    0.000 
#    0.000    0.000    0.000    0.000    0.000    0.000 
#
# Total GULP energy -178647.222057 kJ/mol
# GULP energy per Si atom -5582.725689 kJ/mol
# Density = 1.736366 g / cm^3
# Si number density = 17.403273 Si / 1000 Ang^3
#
#
#
# Elastic Constant Matrix: (Units=GPa)
#
#
# Indices 1 2 3 4 5 6 
#
# 1 127.4128 72.9381 96.1718 0.0000 -7.2992 0.0001
# 2 72.9381 73.6565 75.1300 -0.0001 -7.8108 0.0003
# 3 96.1718 75.1300 124.1142 0.0000 -4.7649 0.0001
# 4 0.0000 -0.0001 0.0000 34.4663 0.0000 0.7448
# 5 -7.2992 -7.8108 -4.7649 0.0000 26.3523 0.0000
# 6 0.0001 0.0003 0.0001 0.7448 0.0000 28.9113
#
#
#
# Elastic Compliance Matrix: (Units=1/GPa)
#
#
# Indices 1 2 3 4 5 6 
#
# 1 0.022144 -0.011412 -0.010216 0.000000 0.000904 0.000000
# 2 -0.011412 0.042577 -0.016683 0.000000 0.006442 0.000000
# 3 -0.010216 -0.016683 0.025954 0.000000 -0.003082 0.000000
# 4 0.000000 0.000000 0.000000 0.029030 0.000000 -0.000748
# 5 0.000904 0.006442 -0.003082 0.000000 0.039550 0.000000
# 6 0.000000 0.000000 0.000000 -0.000748 0.000000 0.034608
#
#
# Mechanical properties :
#
#
# Convention : Reuss Voigt Hill
#
# Bulk Modulus (GPa) = 71.16067 90.40701 80.78384
# Shear Modulus (GPa) = 18.17055 23.34221 20.75638
#
# Velocity S-wave (km/s) = 3.23474 3.66629 3.45725
# Velocity P-wave (km/s) = 7.41144 8.36560 7.90293
#
# Compressibility (1/GPa) = 0.01405271
#
# Stress axis : x y z
#
# Youngs Moduli (GPa) = 45.15827 23.48666 38.52993
#
# Poissons Ratio (x) = 0.26803 0.39363
# Poissons Ratio (y) = 0.51534 0.64281
# Poissons Ratio (z) = 0.46135 0.39183
#
# Static dielectric constant tensor:
#      x y z
#    x 1.570140 0.000000 0.004640 
#    y 0.000000 1.581070 0.000000 
#    z 0.004640 0.000000 1.572560 
# 
# From -- ./inp_files/378417.got.cif
#   From: 2010.05.17/outbox.cif.g08.bks.cpg/sg12_190_cif.got.tgz:378417.got - 2010.06.03 13:09:07.
