data_PCOD9196741
_publ_section_title
;
Structure prediction by ZEFSAII (Michael W. Deem and Ramdas Pophale) SiO2 
 PCOD9196741
Probable space group: C 2/M
;
_chemical_formula_sum "Si O2"
_cell_formula_units_Z 40
_cell_length_a 13.783712
_cell_length_b 13.591624
_cell_length_c 12.038292
_cell_angle_alpha 90.000000
_cell_angle_beta 132.713667
_cell_angle_gamma 90.000000
_cell_volume 1657.080745
_symmetry_space_group_name_H-M "C 2/M"
_symmetry_group_IT_number 12
_symmetry_cell_setting 'monoclinic'
loop_
_space_group_symop_operation_xyz
x,y,z
-x,y,-z
-x,-y,-z
x,-y,z
1/2+x,1/2+y,z
1/2-x,1/2+y,-z
1/2-x,1/2-y,-z
1/2+x,1/2-y,z
loop_
_atom_site_type_symbol
_atom_site_label
_atom_site_fract_x
_atom_site_fract_y
_atom_site_fract_z
Si Si1 0.431015 0.308786 0.595735
Si Si2 0.655733 0.889910 0.369907
Si Si3 0.292282 0.758645 0.210252
Si Si4 0.904607 0.884785 0.819354
Si Si5 0.379487 0.114419 0.064862
O O1 0.378840 0.197805 0.573615
O O2 0.308041 0.372722 0.456636
O O3 0.574263 0.297393 0.653843
O O4 0.460442 0.350234 0.744263
O O5 0.539391 0.881428 0.188095
O O6 0.641914 0.000000 0.405651
O O7 0.221845 0.819577 0.250967
O O8 0.331764 0.836856 0.144109
O O9 0.190328 0.680529 0.080762
O O10 0.873950 0.000000 0.788585
O O11 0.000000 0.871238 0.000000
O O12 0.340739 0.000000 0.028839
#
# Coordination Sequence:
#
# PCOD9196741 Si02
#       5
#     8   8   8   8   8
#     4  10  21  37  58  84 117 154 193 238 289 343
#     4   9  18  35  57  79 110 153 193 233 287 345
#     4  10  20  35  57  85 119 152 192 241 288 339
#     4  11  22  36  59  91 121 151 192 241 290 341
#     4   9  17  32  55  81 112 151 191 234 286 341
#
# _framework density 24.138838
#
# number of rings (size 3 to 8) (size 9 to 14) (size 15 to 20)
#    0.000    2.200    0.000    4.800    0.000    4.000 
#    0.000   10.000    0.000   25.200    0.000    0.000 
#    0.000    0.000    0.000    0.000    0.000    0.000 
#
# Total GULP energy -111911.195826 kJ/mol
# GULP energy per Si atom -5595.559791 kJ/mol
# Density = 2.408390 g / cm^3
# Si number density = 24.138838 Si / 1000 Ang^3
#
#
#
# Elastic Constant Matrix: (Units=GPa)
#
#
# Indices 1 2 3 4 5 6 
#
# 1 49.0927 4.7303 30.8517 0.0000 2.4483 0.0000
# 2 4.7303 150.6880 73.3687 0.0000 0.9687 0.0000
# 3 30.8517 73.3687 154.4910 0.0000 15.4426 0.0000
# 4 0.0000 0.0000 0.0000 25.7977 0.0000 10.9695
# 5 2.4483 0.9687 15.4426 0.0000 29.7040 0.0000
# 6 0.0000 0.0000 0.0000 10.9695 0.0000 12.4481
#
#
#
# Elastic Compliance Matrix: (Units=1/GPa)
#
#
# Indices 1 2 3 4 5 6 
#
# 1 0.023792 0.002093 -0.005846 0.000000 0.001010 0.000000
# 2 0.002093 0.008925 -0.004863 0.000000 0.002065 0.000000
# 3 -0.005846 -0.004863 0.010428 0.000000 -0.004781 0.000000
# 4 0.000000 0.000000 0.000000 0.061992 0.000000 -0.054628
# 5 0.001010 0.002065 -0.004781 0.000000 0.036000 0.000000
# 6 0.000000 0.000000 0.000000 -0.054628 0.000000 0.128473
#
#
# Mechanical properties :
#
#
# Convention : Reuss Voigt Hill
#
# Bulk Modulus (GPa) = 38.59177 63.57477 51.08327
# Shear Modulus (GPa) = 16.92173 29.94470 23.43322
#
# Velocity S-wave (km/s) = 2.65054 3.52592 3.11910
# Velocity P-wave (km/s) = 5.03878 6.55519 5.84636
#
# Compressibility (1/GPa) = 0.02591226
#
# Stress axis : x y z
#
# Youngs Moduli (GPa) = 42.03181 112.04559 95.89931
#
# Poissons Ratio (x) = -0.23452 0.56064
# Poissons Ratio (y) = -0.08798 0.46635
# Poissons Ratio (z) = 0.24572 0.54486
#
# Static dielectric constant tensor:
#      x y z
#    x 1.924470 0.000000 -0.013780 
#    y 0.000000 1.851580 0.000000 
#    z -0.013780 0.000000 1.999690 
# 
# From -- ./inp_files/215073.got.cif
#   From: 2010.05.17/outbox.cif.g08.bks.cpg/sg12_108_cif.got.tgz:215073.got - 2010.06.03 13:09:07.
