data_PCOD9196148
_publ_section_title
;
Structure prediction by ZEFSAII (Michael W. Deem and Ramdas Pophale) SiO2 
 PCOD9196148
Probable space group: C 2/M
;
_chemical_formula_sum "Si O2"
_cell_formula_units_Z 40
_cell_length_a 14.219822
_cell_length_b 18.490803
_cell_length_c 14.590745
_cell_angle_alpha 90.000000
_cell_angle_beta 29.973055
_cell_angle_gamma 90.000000
_cell_volume 1916.652844
_symmetry_space_group_name_H-M "C 2/M"
_symmetry_group_IT_number 12
_symmetry_cell_setting 'monoclinic'
loop_
_space_group_symop_operation_xyz
x,y,z
-x,y,-z
-x,-y,-z
x,-y,z
1/2+x,1/2+y,z
1/2-x,1/2+y,-z
1/2-x,1/2-y,-z
1/2+x,1/2-y,z
loop_
_atom_site_type_symbol
_atom_site_label
_atom_site_fract_x
_atom_site_fract_y
_atom_site_fract_z
Si Si1 0.633056 0.920565 0.297960
Si Si2 0.345964 0.710257 0.193975
Si Si3 0.947771 0.356183 0.821915
Si Si4 0.463685 0.315921 0.779927
Si Si5 0.663502 0.349475 0.423696
O O1 0.500000 0.917963 0.500000
O O2 0.768381 0.853154 0.196997
O O3 0.538879 0.905970 0.279175
O O4 0.722294 0.000000 0.221298
O O5 0.432365 0.673695 0.211240
O O6 0.198524 0.769870 0.350487
O O7 0.500000 0.748941 0.000000
O O8 0.960281 0.272001 0.777789
O O9 0.120925 0.375179 0.742928
O O10 0.741088 0.353327 0.042519
O O11 0.579979 0.342959 0.595774
O O12 0.500000 0.385450 0.500000
#
# Coordination Sequence:
#
# PCOD9196148 Si02
#       5
#     8   8   8   8   8
#     4  11  22  37  59  86 122 162 196 233 285 359
#     4  11  20  35  56  85 126 157 185 235 295 364
#     4  10  20  36  54  79 116 152 198 233 287 342
#     4  10  20  35  56  81 117 158 185 242 292 352
#     4  11  23  33  57  84 115 152 197 245 296 339
#
# _framework density 20.869716
#
# number of rings (size 3 to 8) (size 9 to 14) (size 15 to 20)
#    0.000    1.400    2.000    6.600    5.600    0.400 
#    0.000    0.000    0.000    0.600    0.000    1.400 
#    0.000    0.000    0.000    0.000    0.000    0.000 
#
# Total GULP energy -111557.128050 kJ/mol
# GULP energy per Si atom -5577.856402 kJ/mol
# Density = 2.082222 g / cm^3
# Si number density = 20.869716 Si / 1000 Ang^3
#
#
#
# Elastic Constant Matrix: (Units=GPa)
#
#
# Indices 1 2 3 4 5 6 
#
# 1 112.1565 11.7328 37.1518 -0.0064 -9.8375 -0.0137
# 2 11.7328 27.5027 -10.0492 -0.0329 0.4928 -0.0099
# 3 37.1518 -10.0492 87.4454 -0.0054 -7.5347 -0.0313
# 4 -0.0064 -0.0329 -0.0054 1.3299 0.0123 -3.0248
# 5 -9.8375 0.4928 -7.5347 0.0123 34.5209 0.0065
# 6 -0.0137 -0.0099 -0.0313 -3.0248 0.0065 -14.9080
#
#
#
# Elastic Compliance Matrix: (Units=1/GPa)
#
#
# Indices 1 2 3 4 5 6 
#
# 1 0.011704 -0.007077 -0.005595 -0.000101 0.002215 0.000027
# 2 -0.007077 0.042240 0.007782 0.000660 -0.000922 -0.000172
# 3 -0.005595 0.007782 0.014839 0.000098 0.001533 -0.000050
# 4 -0.000101 0.000660 0.000098 0.514521 -0.000181 -0.104396
# 5 0.002215 -0.000922 0.001533 -0.000181 0.029947 0.000045
# 6 0.000027 -0.000172 -0.000050 -0.104396 0.000045 -0.045896
#
#
# Mechanical properties :
#
#
# Convention : Reuss Voigt Hill
#
# Bulk Modulus (GPa) = 16.94864 33.86393 25.40628
# Shear Modulus (GPa) = 8.37796 16.73982 12.55889
#
# Velocity S-wave (km/s) = 2.00577 2.83523 2.45577
# Velocity P-wave (km/s) = 3.67464 5.19419 4.49903
#
# Compressibility (1/GPa) = 0.05900177
#
# Stress axis : x y z
#
# Youngs Moduli (GPa) = 85.44003 23.67436 67.38926
#
# Poissons Ratio (x) = 0.16755 0.37704
# Poissons Ratio (y) = 0.60468 -0.52440
# Poissons Ratio (z) = 0.47804 -0.18422
#
# Static dielectric constant tensor:
#      x y z
#    x 1.748600 -0.000060 -0.103660 
#    y -0.000060 1.727470 -0.000020 
#    z -0.103660 -0.000020 1.747290 
# 
# From -- ./inp_files/216616.got.cif
#   From: 2010.05.17/outbox.cif.g08.bks.cpg/sg12_109_cif.got.tgz:216616.got - 2010.06.03 13:09:07.
