data_PCOD9196482
_publ_section_title
;
Structure prediction by ZEFSAII (Michael W. Deem and Ramdas Pophale) SiO2 
 PCOD9196482
Probable space group: C 2/M
;
_chemical_formula_sum "Si O2"
_cell_formula_units_Z 48
_cell_length_a 19.754273
_cell_length_b 7.670051
_cell_length_c 12.185905
_cell_angle_alpha 90.000000
_cell_angle_beta 84.491828
_cell_angle_gamma 90.000000
_cell_volume 1837.837463
_symmetry_space_group_name_H-M "C 2/M"
_symmetry_group_IT_number 12
_symmetry_cell_setting 'monoclinic'
loop_
_space_group_symop_operation_xyz
x,y,z
-x,y,-z
-x,-y,-z
x,-y,z
1/2+x,1/2+y,z
1/2-x,1/2+y,-z
1/2-x,1/2-y,-z
1/2+x,1/2-y,z
loop_
_atom_site_type_symbol
_atom_site_label
_atom_site_fract_x
_atom_site_fract_y
_atom_site_fract_z
Si Si1 0.590958 0.201889 0.410094
Si Si2 0.446406 0.699059 0.350943
Si Si3 0.499395 0.702720 0.120877
Si Si4 0.852983 0.702534 0.916819
Si Si5 0.294808 0.710947 0.148610
Si Si6 0.239470 0.709070 0.375159
O O1 0.591508 0.208806 0.543236
O O2 0.524997 0.302290 0.379794
O O3 0.663204 0.270680 0.358634
O O4 0.581875 0.000000 0.379081
O O5 0.420729 0.500000 0.348806
O O6 0.454300 0.774786 0.227375
O O7 0.478096 0.500000 0.113406
O O8 0.579439 0.707792 0.137511
O O9 0.500000 0.785681 0.000000
O O10 0.858317 0.500000 0.887100
O O11 0.780440 0.765330 0.882650
O O12 0.846937 0.721766 0.049877
O O13 0.299480 0.500000 0.142951
O O14 0.294067 0.767623 0.275890
O O15 0.237096 0.500000 0.366494
O O16 0.250000 0.750000 0.500000
#
# Coordination Sequence:
#
# PCOD9196482 Si02
#       6
#     8   8   8   8   8   8
#     4  10  20  36  57  80 108 139 174 221 272 312
#     4  10  20  35  57  82 105 137 182 221 258 313
#     4  10  22  38  54  76 110 147 177 212 264 320
#     4  10  20  35  58  84 106 134 178 225 264 310
#     4   9  19  37  57  78 108 142 175 216 268 317
#     4  10  22  37  54  78 109 145 179 215 263 317
#
# _framework density 26.117650999999999
#
# number of rings (size 3 to 8) (size 9 to 14) (size 15 to 20)
#    0.000    2.167    0.000    3.500    0.000    7.000 
#    0.000    5.000    0.000    0.000    0.000    0.000 
#    0.000    0.000    0.000    0.000    0.000    0.000 
#
# Total GULP energy -134257.516907 kJ/mol
# GULP energy per Si atom -5594.063204 kJ/mol
# Density = 2.605821 g / cm^3
# Si number density = 26.117651 Si / 1000 Ang^3
#
#
#
# Elastic Constant Matrix: (Units=GPa)
#
#
# Indices 1 2 3 4 5 6 
#
# 1 85.2824 -6.5922 19.5997 0.0000 -21.6707 0.0000
# 2 -6.5922 58.2372 -2.4994 0.0000 -3.8986 0.0000
# 3 19.5997 -2.4994 192.9358 0.0000 -28.8942 0.0000
# 4 0.0000 0.0000 0.0000 15.5092 0.0000 -5.2863
# 5 -21.6707 -3.8986 -28.8942 0.0000 50.9082 0.0000
# 6 0.0000 0.0000 0.0000 -5.2863 0.0000 11.2334
#
#
#
# Elastic Compliance Matrix: (Units=1/GPa)
#
#
# Indices 1 2 3 4 5 6 
#
# 1 0.013399 0.001867 -0.000504 0.000000 0.005560 0.000000
# 2 0.001867 0.017557 0.000391 0.000000 0.002362 0.000000
# 3 -0.000504 0.000391 0.005696 0.000000 0.003048 0.000000
# 4 0.000000 0.000000 0.000000 0.076796 0.000000 0.036139
# 5 0.005560 0.002362 0.003048 0.000000 0.023921 0.000000
# 6 0.000000 0.000000 0.000000 0.036139 0.000000 0.106027
#
#
# Mechanical properties :
#
#
# Convention : Reuss Voigt Hill
#
# Bulk Modulus (GPa) = 24.89964 39.71907 32.30936
# Shear Modulus (GPa) = 19.74146 37.25997 28.50072
#
# Velocity S-wave (km/s) = 2.75229 3.78116 3.30698
# Velocity P-wave (km/s) = 4.43333 5.85693 5.19414
#
# Compressibility (1/GPa) = 0.04016122
#
# Stress axis : x y z
#
# Youngs Moduli (GPa) = 74.63297 56.95594 175.56613
#
# Poissons Ratio (x) = -0.10635 0.08852
# Poissons Ratio (y) = -0.13936 -0.06872
# Poissons Ratio (z) = 0.03763 -0.02229
#
# Static dielectric constant tensor:
#      x y z
#    x 2.067330 0.000000 0.083150 
#    y 0.000000 1.990610 0.000000 
#    z 0.083150 0.000000 2.123830 
# 
# From -- ./inp_files/172171.got.cif
#   From: 2010.05.17/outbox.cif.g08.bks.cpg/sg12_87_cif.got.tgz:172171.got - 2010.06.03 13:09:07.
