data_PCOD9196284
_publ_section_title
;
Structure prediction by ZEFSAII (Michael W. Deem and Ramdas Pophale) SiO2 
 PCOD9196284
Probable space group: C 2/M
;
_chemical_formula_sum "Si O2"
_cell_formula_units_Z 56
_cell_length_a 29.774899
_cell_length_b 8.859121
_cell_length_c 22.067212
_cell_angle_alpha 90.000000
_cell_angle_beta 149.613229
_cell_angle_gamma 90.000000
_cell_volume 2944.400852
_symmetry_space_group_name_H-M "C 2/M"
_symmetry_group_IT_number 12
_symmetry_cell_setting 'monoclinic'
loop_
_space_group_symop_operation_xyz
x,y,z
-x,y,-z
-x,-y,-z
x,-y,z
1/2+x,1/2+y,z
1/2-x,1/2+y,-z
1/2-x,1/2-y,-z
1/2+x,1/2-y,z
loop_
_atom_site_type_symbol
_atom_site_label
_atom_site_fract_x
_atom_site_fract_y
_atom_site_fract_z
Si Si1 0.917180 0.320898 0.135347
Si Si2 0.457783 0.321613 0.516850
Si Si3 0.233994 0.679275 0.696511
Si Si4 0.892416 0.821754 0.651223
Si Si5 0.784840 0.819232 0.892435
Si Si6 0.216723 0.321402 0.369216
Si Si7 0.868314 0.179778 0.202434
O O1 0.909360 0.500000 0.124309
O O2 0.866048 0.256254 0.134363
O O3 0.018901 0.269604 0.258942
O O4 0.873313 0.247630 0.025016
O O5 0.500000 0.290508 0.500000
O O6 0.434545 0.500000 0.491811
O O7 0.369334 0.227021 0.423786
O O8 0.534386 0.294252 0.655197
O O9 0.241447 0.500000 0.696249
O O10 0.272325 0.718281 0.807273
O O11 0.282101 0.764716 0.697906
O O12 0.850751 0.768449 0.666387
O O13 0.815139 0.794881 0.511829
O O14 0.912292 0.000000 0.674817
O O15 0.703717 0.748613 0.836023
O O16 0.783398 0.000000 0.897086
O O17 0.198983 0.500000 0.352813
O O18 0.854858 0.000000 0.181550
#
# Coordination Sequence:
#
# PCOD9196284 Si02
#       7
#     8   8   8   8   8   8   8
#     4  12  25  40  60  85 115 153 198 244 291 344
#     4  10  20  35  56  83 116 153 191 234 285 342
#     4  11  23  37  58  87 120 156 194 240 292 345
#     4  10  21  40  64  91 121 151 189 238 289 341
#     4  11  24  41  58  81 116 157 200 243 290 343
#     4  10  21  38  64  93 121 153 188 232 289 349
#     4  11  22  38  60  85 116 155 197 242 292 344
#
# _framework density 19.01915
#
# number of rings (size 3 to 8) (size 9 to 14) (size 15 to 20)
#    0.000    1.286    1.429    4.714    0.000    8.286 
#    0.000    0.714    0.000    4.286    0.000    0.000 
#    0.000    0.000    0.000    0.000    0.000    0.000 
#
# Total GULP energy -156634.017456 kJ/mol
# GULP energy per Si atom -5594.072052 kJ/mol
# Density = 1.897586 g / cm^3
# Si number density = 19.019150 Si / 1000 Ang^3
#
#
#
# Elastic Constant Matrix: (Units=GPa)
#
#
# Indices 1 2 3 4 5 6 
#
# 1 81.8475 34.5474 27.3756 0.0000 -21.9795 0.0000
# 2 34.5474 69.7861 34.8254 0.0000 -14.2728 0.0000
# 3 27.3756 34.8254 40.3232 0.0000 -11.0663 0.0000
# 4 0.0000 0.0000 0.0000 27.5912 0.0000 4.3675
# 5 -21.9795 -14.2728 -11.0663 0.0000 19.5219 0.0000
# 6 0.0000 0.0000 0.0000 4.3675 0.0000 33.2931
#
#
#
# Elastic Compliance Matrix: (Units=1/GPa)
#
#
# Indices 1 2 3 4 5 6 
#
# 1 0.020254 -0.003573 -0.006068 0.000000 0.016752 0.000000
# 2 -0.003573 0.026699 -0.019398 0.000000 0.004502 0.000000
# 3 -0.006068 -0.019398 0.047257 0.000000 0.005775 0.000000
# 4 0.000000 0.000000 0.000000 0.037012 0.000000 -0.004855
# 5 0.016752 0.004502 0.005775 0.000000 0.076650 0.000000
# 6 0.000000 0.000000 0.000000 -0.004855 0.000000 0.030673
#
#
# Mechanical properties :
#
#
# Convention : Reuss Voigt Hill
#
# Bulk Modulus (GPa) = 27.67493 42.82817 35.25155
# Shear Modulus (GPa) = 16.19878 22.42846 19.31362
#
# Velocity S-wave (km/s) = 2.92157 3.43776 3.19012
# Velocity P-wave (km/s) = 5.09543 6.19071 5.66958
#
# Compressibility (1/GPa) = 0.03613379
#
# Stress axis : x y z
#
# Youngs Moduli (GPa) = 49.37328 37.45482 21.16103
#
# Poissons Ratio (x) = 0.13381 0.12840
# Poissons Ratio (y) = 0.17639 0.41048
# Poissons Ratio (z) = 0.29958 0.72654
#
# Static dielectric constant tensor:
#      x y z
#    x 1.641130 0.000000 -0.006160 
#    y 0.000000 1.627790 0.000000 
#    z -0.006160 0.000000 1.658280 
# 
# From -- ./inp_files/329635.got.cif
#   From: 2010.05.17/outbox.cif.g08.bks.cpg/sg12_165_cif.got.tgz:329635.got - 2010.06.03 13:09:07.
