data_PCOD9196483
_publ_section_title
;
Structure prediction by ZEFSAII (Michael W. Deem and Ramdas Pophale) SiO2 
 PCOD9196483
Probable space group: C 2/M
;
_chemical_formula_sum "Si O2"
_cell_formula_units_Z 48
_cell_length_a 23.684191
_cell_length_b 14.769584
_cell_length_c 12.148026
_cell_angle_alpha 90.000000
_cell_angle_beta 42.775969
_cell_angle_gamma 90.000000
_cell_volume 2885.942584
_symmetry_space_group_name_H-M "C 2/M"
_symmetry_group_IT_number 12
_symmetry_cell_setting 'monoclinic'
loop_
_space_group_symop_operation_xyz
x,y,z
-x,y,-z
-x,-y,-z
x,-y,z
1/2+x,1/2+y,z
1/2-x,1/2+y,-z
1/2-x,1/2-y,-z
1/2+x,1/2-y,z
loop_
_atom_site_type_symbol
_atom_site_label
_atom_site_fract_x
_atom_site_fract_y
_atom_site_fract_z
Si Si1 0.845281 0.256236 0.325441
Si Si2 0.908363 0.895468 0.390088
Si Si3 0.138265 0.273526 0.960566
Si Si4 0.601390 0.603817 0.160539
Si Si5 0.481819 0.896416 0.157374
Si Si6 0.797693 0.106260 0.761021
O O1 0.750000 0.250000 0.500000
O O2 0.893229 0.171975 0.311381
O O3 0.853161 0.256333 0.182410
O O4 0.893530 0.346371 0.297406
O O5 0.845137 0.873374 0.579332
O O6 0.001647 0.888380 0.302742
O O7 0.894765 0.000000 0.376792
O O8 0.217061 0.331999 0.885454
O O9 0.134088 0.179259 0.030519
O O10 0.054962 0.332954 0.099819
O O11 0.621617 0.500000 0.098901
O O12 0.640683 0.618870 0.224393
O O13 0.482950 0.000000 0.196206
O O14 0.500000 0.899625 0.000000
O O15 0.773894 0.000000 0.791977
#
# Coordination Sequence:
#
# PCOD9196483 Si02
#       6
#     8   8   8   8   8   8
#     4  11  21  35  53  80 110 140 178 218 268 326
#     4  10  20  36  56  79 108 142 180 224 267 315
#     4  11  20  34  57  79 112 140 174 221 273 321
#     4  10  21  36  55  80 110 143 180 221 268 318
#     4   9  19  34  53  77 104 137 175 218 264 312
#     4  10  20  35  57  82 105 140 187 226 260 309
#
# _framework density 16.632348
#
# number of rings (size 3 to 8) (size 9 to 14) (size 15 to 20)
#    0.000    1.833    3.333    1.500    0.000    4.000 
#    0.000    1.667    0.000    0.000    0.000    1.167 
#    0.000    0.000    0.000    0.000    0.000    0.000 
#
# Total GULP energy -133874.538029 kJ/mol
# GULP energy per Si atom -5578.105751 kJ/mol
# Density = 1.659449 g / cm^3
# Si number density = 16.632348 Si / 1000 Ang^3
#
#
#
# Elastic Constant Matrix: (Units=GPa)
#
#
# Indices 1 2 3 4 5 6 
#
# 1 68.2375 44.3231 12.0326 0.0000 -13.7150 0.0000
# 2 44.3231 100.3114 38.2983 0.0000 -6.5779 0.0000
# 3 12.0326 38.2983 61.5874 0.0000 -17.5922 0.0000
# 4 0.0000 0.0000 0.0000 27.4820 0.0000 -2.4045
# 5 -13.7150 -6.5779 -17.5922 0.0000 24.5693 0.0000
# 6 0.0000 0.0000 0.0000 -2.4045 0.0000 33.2199
#
#
#
# Elastic Compliance Matrix: (Units=1/GPa)
#
#
# Indices 1 2 3 4 5 6 
#
# 1 0.024874 -0.012889 0.007714 0.000000 0.015957 0.000000
# 2 -0.012889 0.019920 -0.013075 0.000000 -0.011224 0.000000
# 3 0.007714 -0.013075 0.029028 0.000000 0.021590 0.000000
# 4 0.000000 0.000000 0.000000 0.036619 0.000000 0.002651
# 5 0.015957 -0.011224 0.021590 0.000000 0.062063 0.000000
# 6 0.000000 0.000000 0.000000 0.002651 0.000000 0.030294
#
#
# Mechanical properties :
#
#
# Convention : Reuss Voigt Hill
#
# Bulk Modulus (GPa) = 26.79507 46.60493 36.70000
# Shear Modulus (GPa) = 19.86172 26.08639 22.97406
#
# Velocity S-wave (km/s) = 3.45941 3.96462 3.72060
# Velocity P-wave (km/s) = 5.66585 7.00279 6.36950
#
# Compressibility (1/GPa) = 0.03732030
#
# Stress axis : x y z
#
# Youngs Moduli (GPa) = 40.20270 50.20021 34.44949
#
# Poissons Ratio (x) = 0.64705 -0.26573
# Poissons Ratio (y) = 0.51819 0.45044
# Poissons Ratio (z) = -0.31011 0.65638
#
# Static dielectric constant tensor:
#      x y z
#    x 1.548970 0.000000 -0.017290 
#    y 0.000000 1.554320 0.000000 
#    z -0.017290 0.000000 1.543470 
# 
# From -- ./inp_files/142721.got.cif
#   From: 2010.05.17/outbox.cif.g08.bks.cpg/sg12_72_cif.got.tgz:142721.got - 2010.06.03 13:09:07.
