data_PCOD9196635
_publ_section_title
;
Structure prediction by ZEFSAII (Michael W. Deem and Ramdas Pophale) SiO2 
 PCOD9196635
Probable space group: C 2/M
;
_chemical_formula_sum "Si O2"
_cell_formula_units_Z 32
_cell_length_a 17.700390
_cell_length_b 11.585301
_cell_length_c 12.733676
_cell_angle_alpha 90.000000
_cell_angle_beta 28.818489
_cell_angle_gamma 90.000000
_cell_volume 1258.704579
_symmetry_space_group_name_H-M "C 2/M"
_symmetry_group_IT_number 12
_symmetry_cell_setting 'monoclinic'
loop_
_space_group_symop_operation_xyz
x,y,z
-x,y,-z
-x,-y,-z
x,-y,z
1/2+x,1/2+y,z
1/2-x,1/2+y,-z
1/2-x,1/2-y,-z
1/2+x,1/2-y,z
loop_
_atom_site_type_symbol
_atom_site_label
_atom_site_fract_x
_atom_site_fract_y
_atom_site_fract_z
Si Si1 0.883871 0.129018 0.993556
Si Si2 0.501928 0.128414 0.856706
Si Si3 0.857705 0.875362 0.496999
Si Si4 0.544668 0.162092 0.331951
O O1 0.904864 0.259002 0.014503
O O2 0.039915 0.120670 0.734524
O O3 0.866776 0.000000 0.067402
O O4 0.731851 0.147307 0.105949
O O5 0.679913 0.143734 0.678251
O O6 0.502056 0.124462 0.728994
O O7 0.445750 0.000000 0.957594
O O8 0.946803 0.780544 0.455173
O O9 0.870021 0.000000 0.533648
O O10 0.500000 0.110966 0.500000
#
# Coordination Sequence:
#
# PCOD9196635 Si02
#       4
#     8   8   8   8
#     4  10  20  35  57  84 113 148 190 230 274 334
#     4  10  20  38  63  84 108 147 192 234 276 332
#     4   9  19  38  61  82 107 148 197 233 270 330
#     4  11  22  34  53  84 120 148 180 231 289 334
#
# _framework density 25.422965000000001
#
# number of rings (size 3 to 8) (size 9 to 14) (size 15 to 20)
#    0.000    2.000    0.000    6.750    0.000    5.500 
#    0.000    6.250    0.000   12.000    0.000    0.000 
#    0.000    0.000    0.000    0.000    0.000    0.000 
#
# Total GULP energy -89092.589237 kJ/mol
# GULP energy per Si atom -5568.286827 kJ/mol
# Density = 2.536510 g / cm^3
# Si number density = 25.422965 Si / 1000 Ang^3
#
#
#
# Elastic Constant Matrix: (Units=GPa)
#
#
# Indices 1 2 3 4 5 6 
#
# 1 142.9685 68.4543 27.9231 0.0000 6.2789 0.0000
# 2 68.4543 274.7568 46.0139 0.0000 -40.2923 0.0000
# 3 27.9231 46.0139 76.9912 0.0000 -13.3780 0.0000
# 4 0.0000 0.0000 0.0000 38.8236 0.0000 -101.8680
# 5 6.2789 -40.2923 -13.3780 0.0000 48.0468 0.0000
# 6 0.0000 0.0000 0.0000 -101.8680 0.0000 124.7770
#
#
#
# Elastic Compliance Matrix: (Units=1/GPa)
#
#
# Indices 1 2 3 4 5 6 
#
# 1 0.008750 -0.002325 -0.002439 0.000000 -0.003772 0.000000
# 2 -0.002325 0.005073 -0.001468 0.000000 0.004149 0.000000
# 3 -0.002439 -0.001468 0.015334 0.000000 0.003357 0.000000
# 4 0.000000 0.000000 0.000000 -0.022552 0.000000 -0.018412
# 5 -0.003772 0.004149 0.003357 0.000000 0.025720 0.000000
# 6 0.000000 0.000000 0.000000 -0.018412 0.000000 -0.007017
#
#
# Mechanical properties :
#
#
# Convention : Reuss Voigt Hill
#
# Bulk Modulus (GPa) = 59.90598 86.61100 73.25849
# Shear Modulus (GPa) = 115.37768 65.81783 90.59775
#
# Velocity S-wave (km/s) = 6.74402 5.09366 5.97608
# Velocity P-wave (km/s) = 9.17917 8.29070 8.74623
#
# Compressibility (1/GPa) = 0.01669282
#
# Stress axis : x y z
#
# Youngs Moduli (GPa) = 114.28996 197.12015 65.21505
#
# Poissons Ratio (x) = 0.45822 0.15909
# Poissons Ratio (y) = 0.26567 0.09573
# Poissons Ratio (z) = 0.27881 0.28934
#
# Static dielectric constant tensor:
#      x y z
#    x 1.922180 0.000000 0.053290 
#    y 0.000000 2.205230 0.000000 
#    z 0.053290 0.000000 1.994580 
# 
# From -- ./inp_files/212308.got.cif
#   From: 2010.05.17/outbox.cif.g08.bks.cpg/sg12_107_cif.got.tgz:212308.got - 2010.06.03 13:09:07.
