data_PCOD9196208
_publ_section_title
;
Structure prediction by ZEFSAII (Michael W. Deem and Ramdas Pophale) SiO2 
 PCOD9196208
Probable space group: C 2/M
;
_chemical_formula_sum "Si O2"
_cell_formula_units_Z 48
_cell_length_a 18.964074
_cell_length_b 8.598254
_cell_length_c 18.545880
_cell_angle_alpha 90.000000
_cell_angle_beta 59.122113
_cell_angle_gamma 90.000000
_cell_volume 2595.432675
_symmetry_space_group_name_H-M "C 2/M"
_symmetry_group_IT_number 12
_symmetry_cell_setting 'monoclinic'
loop_
_space_group_symop_operation_xyz
x,y,z
-x,y,-z
-x,-y,-z
x,-y,z
1/2+x,1/2+y,z
1/2-x,1/2+y,-z
1/2-x,1/2-y,-z
1/2+x,1/2-y,z
loop_
_atom_site_type_symbol
_atom_site_label
_atom_site_fract_x
_atom_site_fract_y
_atom_site_fract_z
Si Si1 0.923757 0.685432 0.737477
Si Si2 0.086554 0.813258 0.418263
Si Si3 0.994715 0.188473 0.921839
Si Si4 0.668891 0.686181 0.080180
Si Si5 0.583477 0.311648 0.735389
Si Si6 0.257284 0.186970 0.577058
O O1 0.924290 0.500000 0.735865
O O2 0.909948 0.750184 0.664862
O O3 0.854285 0.743660 0.829957
O O4 0.011065 0.746091 0.722832
O O5 0.162538 0.751369 0.425160
O O6 0.000000 0.765677 0.500000
O O7 0.089186 0.000000 0.415457
O O8 0.063176 0.238116 0.827990
O O9 0.907962 0.226600 0.930978
O O10 0.999806 0.000000 0.922940
O O11 0.000000 0.249922 0.000000
O O12 0.672933 0.500000 0.084455
O O13 0.750000 0.750000 0.000000
O O14 0.577498 0.500000 0.735158
O O15 0.673664 0.266325 0.662293
O O16 0.250000 0.250000 0.500000
O O17 0.261239 0.000000 0.573737
#
# Coordination Sequence:
#
# PCOD9196208 Si02
#       6
#     8   8   8   8   8   8
#     4  11  22  37  59  84 112 149 193 238 285 339
#     4  11  24  41  60  83 114 150 188 235 290 343
#     4   8  15  30  53  78 104 138 179 221 268 325
#     4  10  20  35  56  82 114 150 189 235 286 338
#     4   9  19  36  56  80 112 147 182 227 283 337
#     4  11  23  38  58  84 114 148 187 231 281 338
#
# _framework density 18.494025000000001
#
# number of rings (size 3 to 8) (size 9 to 14) (size 15 to 20)
#    0.000    2.000    0.000    5.000    0.000    8.000 
#    0.000    3.333    0.000   12.500    0.000    0.000 
#    0.000    0.000    0.000    0.000    0.000    0.000 
#
# Total GULP energy -134025.396608 kJ/mol
# GULP energy per Si atom -5584.391525 kJ/mol
# Density = 1.845193 g / cm^3
# Si number density = 18.494025 Si / 1000 Ang^3
#
#
#
# Elastic Constant Matrix: (Units=GPa)
#
#
# Indices 1 2 3 4 5 6 
#
# 1 128.4321 42.1293 127.7561 0.0000 1.1054 0.0000
# 2 42.1293 53.8303 56.7336 0.0000 -5.0460 -0.0002
# 3 127.7561 56.7336 221.6291 0.0000 0.2548 0.0000
# 4 0.0000 0.0000 0.0000 29.2104 0.0000 -1.8375
# 5 1.1054 -5.0460 0.2548 0.0000 43.8750 0.0000
# 6 0.0000 -0.0002 0.0000 -1.8375 0.0000 29.4171
#
#
#
# Elastic Compliance Matrix: (Units=1/GPa)
#
#
# Indices 1 2 3 4 5 6 
#
# 1 0.019078 -0.004700 -0.009793 0.000000 -0.000964 0.000000
# 2 -0.004700 0.026990 -0.004203 0.000000 0.003247 0.000000
# 3 -0.009793 -0.004203 0.011233 0.000000 -0.000302 0.000000
# 4 0.000000 0.000000 0.000000 0.034369 0.000000 0.002147
# 5 -0.000964 0.003247 -0.000302 0.000000 0.023191 0.000000
# 6 0.000000 0.000000 0.000000 0.002147 0.000000 0.034128
#
#
# Mechanical properties :
#
#
# Convention : Reuss Voigt Hill
#
# Bulk Modulus (GPa) = 50.23070 95.23659 72.73365
# Shear Modulus (GPa) = 25.90429 32.31867 29.11148
#
# Velocity S-wave (km/s) = 3.74663 4.18487 3.97180
# Velocity P-wave (km/s) = 6.77760 8.65786 7.77478
#
# Compressibility (1/GPa) = 0.01990814
#
# Stress axis : x y z
#
# Youngs Moduli (GPa) = 52.41760 37.05103 89.02041
#
# Poissons Ratio (x) = 0.17414 0.87176
# Poissons Ratio (y) = 0.24637 0.37419
# Poissons Ratio (z) = 0.51332 0.15574
#
# Static dielectric constant tensor:
#      x y z
#    x 1.601190 0.000000 -0.004700 
#    y 0.000000 1.629710 0.000000 
#    z -0.004700 0.000000 1.639650 
# 
# From -- ./inp_files/274077.got.cif
#   From: 2010.05.17/outbox.cif.g08.bks.cpg/sg12_138_cif.got.tgz:274077.got - 2010.06.03 13:09:07.
