data_PCOD9196531
_publ_section_title
;
Structure prediction by ZEFSAII (Michael W. Deem and Ramdas Pophale) SiO2 
 PCOD9196531
Probable space group: C 2/M
;
_chemical_formula_sum "Si O2"
_cell_formula_units_Z 40
_cell_length_a 10.192609
_cell_length_b 19.305421
_cell_length_c 14.670091
_cell_angle_alpha 90.000000
_cell_angle_beta 41.082739
_cell_angle_gamma 90.000000
_cell_volume 1896.971340
_symmetry_space_group_name_H-M "C 2/M"
_symmetry_group_IT_number 12
_symmetry_cell_setting 'monoclinic'
loop_
_space_group_symop_operation_xyz
x,y,z
-x,y,-z
-x,-y,-z
x,-y,z
1/2+x,1/2+y,z
1/2-x,1/2+y,-z
1/2-x,1/2-y,-z
1/2+x,1/2-y,z
loop_
_atom_site_type_symbol
_atom_site_label
_atom_site_fract_x
_atom_site_fract_y
_atom_site_fract_z
Si Si1 0.611781 0.218417 0.344392
Si Si2 0.514806 0.367511 0.602459
Si Si3 0.590298 0.925351 0.852036
Si Si4 0.548368 0.077352 0.582277
Si Si5 0.468745 0.222764 0.906750
O O1 0.500000 0.214972 0.500000
O O2 0.516821 0.287702 0.349262
O O3 0.573487 0.144270 0.318602
O O4 0.846455 0.233482 0.229554
O O5 0.500000 0.367221 0.500000
O O6 0.325958 0.410856 0.735394
O O7 0.721649 0.400989 0.523544
O O8 0.498682 0.856129 0.857153
O O9 0.556154 0.000000 0.825393
O O10 0.500000 0.928588 0.000000
O O11 0.500000 0.073115 0.500000
O O12 0.510741 0.000000 0.638859
O O13 0.500000 0.223059 0.000000
O O14 0.250000 0.250000 0.000000
#
# Coordination Sequence:
#
# PCOD9196531 Si02
#       5
#     8   8   8   8   8
#     4   9  20  37  60  84 109 143 188 229 269 323
#     4  10  20  35  57  83 109 139 181 232 275 313
#     4   9  19  35  56  80 106 142 187 227 265 319
#     4  10  21  35  53  81 115 146 178 221 274 328
#     4  10  22  39  58  81 112 147 182 225 276 327
#
# _framework density 21.086245000000002
#
# number of rings (size 3 to 8) (size 9 to 14) (size 15 to 20)
#    0.000    2.400    0.000    1.200    0.000   16.000 
#    0.000    3.000    0.000    1.200    0.000    0.000 
#    0.000    0.000    0.000    0.000    0.000    0.000 
#
# Total GULP energy -111617.611335 kJ/mol
# GULP energy per Si atom -5580.880567 kJ/mol
# Density = 2.103825 g / cm^3
# Si number density = 21.086245 Si / 1000 Ang^3
#
#
#
# Elastic Constant Matrix: (Units=GPa)
#
#
# Indices 1 2 3 4 5 6 
#
# 1 121.2621 55.4748 41.3928 0.0000 -16.5144 0.0000
# 2 55.4748 219.8752 76.5633 -0.0001 -38.7172 0.0002
# 3 41.3928 76.5633 120.9912 0.0001 -27.3220 -0.0002
# 4 0.0000 -0.0001 0.0001 37.4697 -0.0001 16.6609
# 5 -16.5144 -38.7172 -27.3220 -0.0001 37.9159 0.0002
# 6 0.0000 0.0002 -0.0002 16.6609 0.0002 51.2451
#
#
#
# Elastic Compliance Matrix: (Units=1/GPa)
#
#
# Indices 1 2 3 4 5 6 
#
# 1 0.009835 -0.001532 -0.002128 0.000000 0.001187 0.000000
# 2 -0.001532 0.006609 -0.002729 0.000000 0.004115 0.000000
# 3 -0.002128 -0.002729 0.011802 0.000000 0.004791 0.000000
# 4 0.000000 0.000000 0.000000 0.031198 0.000000 -0.010143
# 5 0.001187 0.004115 0.004791 0.000000 0.034546 0.000000
# 6 0.000000 0.000000 0.000000 -0.010143 0.000000 0.022812
#
#
# Mechanical properties :
#
#
# Convention : Reuss Voigt Hill
#
# Bulk Modulus (GPa) = 64.64240 89.88781 77.26511
# Shear Modulus (GPa) = 37.10972 44.57264 40.84118
#
# Velocity S-wave (km/s) = 4.19967 4.60262 4.40576
# Velocity P-wave (km/s) = 7.36472 8.42417 7.91220
#
# Compressibility (1/GPa) = 0.01546972
#
# Stress axis : x y z
#
# Youngs Moduli (GPa) = 101.67633 151.29822 84.73296
#
# Poissons Ratio (x) = 0.23173 0.18027
# Poissons Ratio (y) = 0.15573 0.23125
# Poissons Ratio (z) = 0.21632 0.41291
#
# Static dielectric constant tensor:
#      x y z
#    x 1.758690 0.000000 0.024110 
#    y 0.000000 1.840620 0.000000 
#    z 0.024110 0.000000 1.686170 
# 
# From -- ./inp_files/264952.got.cif
#   From: 2010.05.17/outbox.cif.g08.bks.cpg/sg12_133_cif.got.tgz:264952.got - 2010.06.03 13:09:07.
