data_PCOD9196527
_publ_section_title
;
Structure prediction by ZEFSAII (Michael W. Deem and Ramdas Pophale) SiO2 
 PCOD9196527
Probable space group: C 2/M
;
_chemical_formula_sum "Si O2"
_cell_formula_units_Z 40
_cell_length_a 30.977745
_cell_length_b 14.193150
_cell_length_c 9.364914
_cell_angle_alpha 90.000000
_cell_angle_beta 30.848600
_cell_angle_gamma 90.000000
_cell_volume 2111.329792
_symmetry_space_group_name_H-M "C 2/M"
_symmetry_group_IT_number 12
_symmetry_cell_setting 'monoclinic'
loop_
_space_group_symop_operation_xyz
x,y,z
-x,y,-z
-x,-y,-z
x,-y,z
1/2+x,1/2+y,z
1/2-x,1/2+y,-z
1/2-x,1/2-y,-z
1/2+x,1/2-y,z
loop_
_atom_site_type_symbol
_atom_site_label
_atom_site_fract_x
_atom_site_fract_y
_atom_site_fract_z
Si Si1 0.074945 0.392150 0.179716
Si Si2 0.366856 0.740680 0.543418
Si Si3 0.015714 0.894648 0.126702
Si Si4 0.151047 0.247388 0.743073
Si Si5 0.708054 0.107128 0.048690
O O1 0.054771 0.500000 0.191835
O O2 0.157786 0.394665 0.043336
O O3 0.000000 0.361178 0.500000
O O4 0.099324 0.324318 0.980999
O O5 0.449581 0.685281 0.359439
O O6 0.364849 0.761172 0.380394
O O7 0.349504 0.836599 0.676216
O O8 0.291690 0.667715 0.789846
O O9 0.002340 0.000000 0.221988
O O10 0.000000 0.900125 0.000000
O O11 0.108251 0.854267 0.895236
O O12 0.250000 0.250000 0.500000
O O13 0.725549 0.000000 0.042821
#
# Coordination Sequence:
#
# PCOD9196527 Si02
#       5
#     8   8   8   8   8
#     4  10  21  37  57  82 116 157 195 239 300 361
#     4  10  20  36  59  85 116 155 199 251 291 352
#     4   9  19  35  57  82 112 151 194 237 291 352
#     4  11  21  36  58  89 118 151 195 252 295 347
#     4  10  20  35  57  82 115 157 199 242 296 356
#
# _framework density 18.945406999999999
#
# number of rings (size 3 to 8) (size 9 to 14) (size 15 to 20)
#    0.000    2.000    2.000    1.800    0.000    2.400 
#    0.000    0.000    0.000    9.000    0.000    0.000 
#    0.000    0.000    0.000    0.000    0.000    0.000 
#
# Total GULP energy -111525.543894 kJ/mol
# GULP energy per Si atom -5576.277195 kJ/mol
# Density = 1.890229 g / cm^3
# Si number density = 18.945407 Si / 1000 Ang^3
#
#
#
# Elastic Constant Matrix: (Units=GPa)
#
#
# Indices 1 2 3 4 5 6 
#
# 1 52.5795 45.7980 30.0301 0.0000 -4.4701 0.0000
# 2 45.7980 136.3256 58.3679 0.0000 21.9444 0.0000
# 3 30.0301 58.3679 97.7859 0.0000 0.5137 0.0000
# 4 0.0000 0.0000 0.0000 24.7141 0.0000 1.6679
# 5 -4.4701 21.9444 0.5137 0.0000 39.4048 0.0000
# 6 0.0000 0.0000 0.0000 1.6679 0.0000 23.5029
#
#
#
# Elastic Compliance Matrix: (Units=1/GPa)
#
#
# Indices 1 2 3 4 5 6 
#
# 1 0.030779 -0.010447 -0.003265 0.000000 0.009352 0.000000
# 2 -0.010447 0.014706 -0.005521 0.000000 -0.009303 0.000000
# 3 -0.003265 -0.005521 0.014511 0.000000 0.002515 0.000000
# 4 0.000000 0.000000 0.000000 0.040657 0.000000 -0.002885
# 5 0.009352 -0.009303 0.002515 0.000000 0.031587 0.000000
# 6 0.000000 0.000000 0.000000 -0.002885 0.000000 0.042753
#
#
# Mechanical properties :
#
#
# Convention : Reuss Voigt Hill
#
# Bulk Modulus (GPa) = 46.44822 61.67591 54.06207
# Shear Modulus (GPa) = 22.66162 27.69067 25.17614
#
# Velocity S-wave (km/s) = 3.46230 3.82724 3.64933
# Velocity P-wave (km/s) = 6.36816 7.22188 6.80841
#
# Compressibility (1/GPa) = 0.02152935
#
# Stress axis : x y z
#
# Youngs Moduli (GPa) = 32.48991 67.99726 68.91128
#
# Poissons Ratio (x) = 0.71039 0.22502
# Poissons Ratio (y) = 0.33943 0.38046
# Poissons Ratio (z) = 0.10609 0.37541
#
# Static dielectric constant tensor:
#      x y z
#    x 1.644000 0.000000 -0.017740 
#    y 0.000000 1.661180 0.000000 
#    z -0.017740 0.000000 1.694910 
# 
# From -- ./inp_files/59197.got.cif
#   From: 2010.05.17/outbox.cif.g08.bks.cpg/sg12_30_cif.got.tgz:59197.got - 2010.06.03 13:09:07.
