data_PCOD9196652
_publ_section_title
;
Structure prediction by ZEFSAII (Michael W. Deem and Ramdas Pophale) SiO2 
 PCOD9196652
Probable space group: C 2/M
;
_chemical_formula_sum "Si O2"
_cell_formula_units_Z 64
_cell_length_a 29.959233
_cell_length_b 7.479740
_cell_length_c 16.805134
_cell_angle_alpha 90.000000
_cell_angle_beta 138.419609
_cell_angle_gamma 90.000000
_cell_volume 2499.260468
_symmetry_space_group_name_H-M "C 2/M"
_symmetry_group_IT_number 12
_symmetry_cell_setting 'monoclinic'
loop_
_space_group_symop_operation_xyz
x,y,z
-x,y,-z
-x,-y,-z
x,-y,z
1/2+x,1/2+y,z
1/2-x,1/2+y,-z
1/2-x,1/2-y,-z
1/2+x,1/2-y,z
loop_
_atom_site_type_symbol
_atom_site_label
_atom_site_fract_x
_atom_site_fract_y
_atom_site_fract_z
Si Si1 0.535386 0.717566 0.463925
Si Si2 0.170973 0.786145 0.894341
Si Si3 0.291521 0.712866 0.785795
Si Si4 0.666903 0.285443 0.714148
Si Si5 0.541007 0.283884 0.797811
Si Si6 0.071959 0.202047 0.081213
Si Si7 0.416817 0.208553 0.730931
Si Si8 0.208473 0.286954 0.524922
O O1 0.500000 0.768021 0.500000
O O2 0.533574 0.500000 0.458822
O O3 0.612758 0.777781 0.577139
O O4 0.497782 0.776633 0.334381
O O5 0.147189 0.722278 0.775556
O O6 0.118131 0.722031 0.890143
O O7 0.164736 0.000000 0.887243
O O8 0.250000 0.750000 0.000000
O O9 0.300622 0.500000 0.786824
O O10 0.243099 0.736431 0.795871
O O11 0.367362 0.784532 0.887869
O O12 0.248285 0.787179 0.653863
O O13 0.663321 0.500000 0.710124
O O14 0.540717 0.500000 0.800340
O O15 0.494110 0.226007 0.807840
O O16 0.099297 0.195127 0.208209
O O17 0.058291 0.000000 0.032650
O O18 0.000000 0.292344 0.000000
O O19 0.367110 0.277204 0.595252
O O20 0.401858 0.000000 0.723648
O O21 0.204809 0.500000 0.532625
O O22 0.250000 0.250000 0.500000
#
# Coordination Sequence:
#
# PCOD9196652 Si02
#       8
#     8   8   8   8   8   8   8   8
#     4   9  15  30  58  86 110 139 181 231 276 323
#     4  10  22  39  58  82 112 149 193 235 274 326
#     4  10  21  37  57  83 115 146 181 229 279 333
#     4  10  20  35  58  86 112 141 183 231 278 331
#     4  10  20  36  60  85 112 149 189 228 277 339
#     4  10  22  41  62  81 106 148 198 237 274 331
#     4  11  23  37  57  87 119 147 182 233 288 338
#     4  10  20  35  57  84 115 149 184 225 279 341
#
# _framework density 25.607576000000002
#
# number of rings (size 3 to 8) (size 9 to 14) (size 15 to 20)
#    0.000    2.000    2.500    1.125    0.000    3.750 
#    0.000    3.750    0.000    0.750    0.000    0.000 
#    0.000    0.000    0.000    0.000    0.000    0.000 
#
# Total GULP energy -178910.613766 kJ/mol
# GULP energy per Si atom -5590.956680 kJ/mol
# Density = 2.554929 g / cm^3
# Si number density = 25.607576 Si / 1000 Ang^3
#
#
#
# Elastic Constant Matrix: (Units=GPa)
#
#
# Indices 1 2 3 4 5 6 
#
# 1 147.8490 -6.1597 21.9867 0.0000 32.9101 0.0000
# 2 -6.1597 80.9698 0.7356 0.0000 -0.0604 0.0000
# 3 21.9867 0.7356 78.7625 0.0000 30.0884 0.0000
# 4 0.0000 0.0000 0.0000 6.1779 0.0000 7.5819
# 5 32.9101 -0.0604 30.0884 0.0000 52.7489 0.0000
# 6 0.0000 0.0000 0.0000 7.5819 0.0000 15.4010
#
#
#
# Elastic Compliance Matrix: (Units=1/GPa)
#
#
# Indices 1 2 3 4 5 6 
#
# 1 0.007894 0.000601 -0.000419 0.000000 -0.004685 0.000000
# 2 0.000601 0.012397 -0.000186 0.000000 -0.000254 0.000000
# 3 -0.000419 -0.000186 0.016258 0.000000 -0.009012 0.000000
# 4 0.000000 0.000000 0.000000 0.408938 0.000000 -0.201320
# 5 -0.004685 -0.000254 -0.009012 0.000000 0.027021 0.000000
# 6 0.000000 0.000000 0.000000 -0.201320 0.000000 0.164040
#
#
# Mechanical properties :
#
#
# Convention : Reuss Voigt Hill
#
# Bulk Modulus (GPa) = 27.36758 37.85627 32.61192
# Shear Modulus (GPa) = 7.70726 34.26681 20.98703
#
# Velocity S-wave (km/s) = 1.73675 3.66204 2.86591
# Velocity P-wave (km/s) = 3.83826 5.71805 4.86972
#
# Compressibility (1/GPa) = 0.03653959
#
# Stress axis : x y z
#
# Youngs Moduli (GPa) = 126.67954 80.66143 61.50811
#
# Poissons Ratio (x) = -0.04846 0.02580
# Poissons Ratio (y) = -0.07611 0.01146
# Poissons Ratio (z) = 0.05314 0.01503
#
# Static dielectric constant tensor:
#      x y z
#    x 1.993540 0.000000 0.038990 
#    y 0.000000 1.999130 0.000000 
#    z 0.038990 0.000000 2.089840 
# 
# From -- ./inp_files/295841.got.cif
#   From: 2010.05.17/outbox.cif.g08.bks.cpg/sg12_148_cif.got.tgz:295841.got - 2010.06.03 13:09:07.
