data_PCOD9196808
_publ_section_title
;
Structure prediction by ZEFSAII (Michael W. Deem and Ramdas Pophale) SiO2 
 PCOD9196808
Probable space group: C 2/M
;
_chemical_formula_sum "Si O2"
_cell_formula_units_Z 48
_cell_length_a 22.906264
_cell_length_b 11.610927
_cell_length_c 15.073535
_cell_angle_alpha 90.000000
_cell_angle_beta 36.928904
_cell_angle_gamma 90.000000
_cell_volume 2408.702861
_symmetry_space_group_name_H-M "C 2/M"
_symmetry_group_IT_number 12
_symmetry_cell_setting 'monoclinic'
loop_
_space_group_symop_operation_xyz
x,y,z
-x,y,-z
-x,-y,-z
x,-y,z
1/2+x,1/2+y,z
1/2-x,1/2+y,-z
1/2-x,1/2-y,-z
1/2+x,1/2-y,z
loop_
_atom_site_type_symbol
_atom_site_label
_atom_site_fract_x
_atom_site_fract_y
_atom_site_fract_z
Si Si1 0.973652 0.676588 0.436531
Si Si2 0.635409 0.371346 0.035882
Si Si3 0.477993 0.871970 0.819057
Si Si4 0.104629 0.369297 0.824826
Si Si5 0.365582 0.629856 0.761977
Si Si6 0.759603 0.731143 0.744098
O O1 0.858705 0.695204 0.576432
O O2 0.000000 0.622822 0.500000
O O3 0.005418 0.621560 0.305904
O O4 0.037840 0.793254 0.358582
O O5 0.586586 0.500000 0.091282
O O6 0.577156 0.249775 0.095762
O O7 0.675906 0.363902 0.087258
O O8 0.713487 0.366477 0.862623
O O9 0.577230 0.859908 0.754729
O O10 0.436451 0.000000 0.896702
O O11 0.137984 0.500000 0.801589
O O12 0.181335 0.281171 0.771270
O O13 0.000000 0.353899 0.000000
O O14 0.391933 0.500000 0.711260
O O15 0.291402 0.674412 0.778786
#
# Coordination Sequence:
#
# PCOD9196808 Si02
#       6
#     8   8   8   8   8   8
#     4   9  21  37  56  87 119 151 192 238 294 352
#     4  10  21  38  59  87 120 151 194 245 291 346
#     4  10  21  40  62  84 117 158 198 239 286 343
#     4  10  20  35  57  87 117 151 201 245 280 337
#     4   9  19  36  57  84 118 155 196 240 289 346
#     4  11  20  34  57  85 118 154 190 238 297 344
#
# _framework density 19.927737
#
# number of rings (size 3 to 8) (size 9 to 14) (size 15 to 20)
#    0.000    2.167    1.667    1.000    0.000    6.000 
#    0.000   11.667    0.000    0.000    0.000    0.000 
#    0.000    0.000    0.000    0.000    0.000    0.000 
#
# Total GULP energy -133647.873375 kJ/mol
# GULP energy per Si atom -5568.661391 kJ/mol
# Density = 1.988238 g / cm^3
# Si number density = 19.927737 Si / 1000 Ang^3
#
#
#
# Elastic Constant Matrix: (Units=GPa)
#
#
# Indices 1 2 3 4 5 6 
#
# 1 41.5230 36.2547 24.7190 0.0000 5.4304 0.0000
# 2 36.2547 152.2931 33.0043 0.0000 -5.4981 0.0000
# 3 24.7190 33.0043 52.7019 0.0000 -0.8757 0.0000
# 4 0.0000 0.0000 0.0000 -14.2372 0.0000 -2.4654
# 5 5.4304 -5.4981 -0.8757 0.0000 27.7856 0.0000
# 6 0.0000 0.0000 0.0000 -2.4654 0.0000 1.0208
#
#
#
# Elastic Compliance Matrix: (Units=1/GPa)
#
#
# Indices 1 2 3 4 5 6 
#
# 1 0.039904 -0.006658 -0.014706 0.000000 -0.009580 0.000000
# 2 -0.006658 0.008760 -0.002313 0.000000 0.002962 0.000000
# 3 -0.014706 -0.002313 0.027375 0.000000 0.003279 0.000000
# 4 0.000000 0.000000 0.000000 -0.049526 0.000000 -0.119610
# 5 -0.009580 0.002962 0.003279 0.000000 0.038552 0.000000
# 6 0.000000 0.000000 0.000000 -0.119610 0.000000 0.690732
#
#
# Mechanical properties :
#
#
# Convention : Reuss Voigt Hill
#
# Bulk Modulus (GPa) = 34.86279 48.27489 41.56884
# Shear Modulus (GPa) = 6.15224 13.08316 9.61770
#
# Velocity S-wave (km/s) = 1.75897 2.56506 2.19926
# Velocity P-wave (km/s) = 4.65380 5.74894 5.23011
#
# Compressibility (1/GPa) = 0.02868388
#
# Stress axis : x y z
#
# Youngs Moduli (GPa) = 25.06023 114.15965 36.52913
#
# Poissons Ratio (x) = 0.76012 0.53719
# Poissons Ratio (y) = 0.16686 0.08451
# Poissons Ratio (z) = 0.36853 0.26411
#
# Static dielectric constant tensor:
#      x y z
#    x 1.696360 0.000000 0.027820 
#    y 0.000000 1.724640 0.000000 
#    z 0.027820 0.000000 1.740600 
# 
# From -- ./inp_files/232800.got.cif
#   From: 2010.05.17/outbox.cif.g08.bks.cpg/sg12_117_cif.got.tgz:232800.got - 2010.06.03 13:09:07.
