data_PCOD9196870
_publ_section_title
;
Structure prediction by ZEFSAII (Michael W. Deem and Ramdas Pophale) SiO2 
 PCOD9196870
Probable space group: C 2/M
;
_chemical_formula_sum "Si O2"
_cell_formula_units_Z 64
_cell_length_a 24.924033
_cell_length_b 14.735701
_cell_length_c 7.979490
_cell_angle_alpha 90.000000
_cell_angle_beta 60.907311
_cell_angle_gamma 90.000000
_cell_volume 2560.904170
_symmetry_space_group_name_H-M "C 2/M"
_symmetry_group_IT_number 12
_symmetry_cell_setting 'monoclinic'
loop_
_space_group_symop_operation_xyz
x,y,z
-x,y,-z
-x,-y,-z
x,-y,z
1/2+x,1/2+y,z
1/2-x,1/2+y,-z
1/2-x,1/2-y,-z
1/2+x,1/2-y,z
loop_
_atom_site_type_symbol
_atom_site_label
_atom_site_fract_x
_atom_site_fract_y
_atom_site_fract_z
Si Si1 0.564413 0.107479 0.553302
Si Si2 0.004824 0.100065 0.790244
Si Si3 0.737695 0.200953 0.801537
Si Si4 0.537979 0.786412 0.121600
Si Si5 0.648517 0.604746 0.498889
Si Si6 0.323693 0.897401 0.799723
Si Si7 0.861427 0.393767 0.216009
Si Si8 0.209515 0.900913 0.773209
O O1 0.501951 0.157061 0.686856
O O2 0.610734 0.143166 0.343232
O O3 0.603024 0.118252 0.665935
O O4 0.554744 0.000000 0.543063
O O5 0.959982 0.183180 0.817173
O O6 0.075301 0.122948 0.629207
O O7 0.989444 0.000000 0.745546
O O8 0.000000 0.092839 0.000000
O O9 0.810050 0.179132 0.662774
O O10 0.705784 0.147662 0.696191
O O11 0.704764 0.298798 0.849116
O O12 0.716515 0.153770 0.004010
O O13 0.500000 0.783389 0.000000
O O14 0.598949 0.839453 0.981318
O O15 0.656239 0.500000 0.421740
O O16 0.676158 0.602646 0.645420
O O17 0.283333 0.905673 0.690676
O O18 0.332948 0.000000 0.845578
O O19 0.859502 0.500000 0.183542
O O20 0.188886 0.000000 0.879319
#
# Coordination Sequence:
#
# PCOD9196870 Si02
#       8
#     8   8   8   8   8   8   8   8
#     4   9  18  33  56  82 117 156 193 235 289 348
#     4   9  19  34  55  85 120 149 189 245 295 336
#     4  12  23  36  61  88 122 154 194 242 291 346
#     4   9  18  31  55  80 114 150 198 236 290 338
#     4  10  21  37  60  92 119 150 192 245 295 344
#     4  10  21  38  56  82 118 159 195 237 291 352
#     4  10  20  35  57  91 123 154 194 246 294 344
#     4  10  23  39  56  81 117 156 198 237 290 350
#
# _framework density 24.991171999999999
#
# number of rings (size 3 to 8) (size 9 to 14) (size 15 to 20)
#    0.000    2.125    0.000    3.000    7.000    3.500 
#    0.000    0.625    0.000    2.250    0.000    0.875 
#    0.000    8.000    0.000    0.000    0.000    0.000 
#
# Total GULP energy -178630.669073 kJ/mol
# GULP energy per Si atom -5582.208409 kJ/mol
# Density = 2.493429 g / cm^3
# Si number density = 24.991172 Si / 1000 Ang^3
#
#
#
# Elastic Constant Matrix: (Units=GPa)
#
#
# Indices 1 2 3 4 5 6 
#
# 1 58.4808 3.8371 0.7127 0.0000 3.7675 0.0000
# 2 3.8371 162.3272 47.2519 0.0000 -21.1718 0.0000
# 3 0.7127 47.2519 72.4480 0.0000 -8.7279 0.0000
# 4 0.0000 0.0000 0.0000 61.5186 0.0000 -25.6253
# 5 3.7675 -21.1718 -8.7279 0.0000 32.0880 0.0000
# 6 0.0000 0.0000 0.0000 -25.6253 0.0000 17.9992
#
#
#
# Elastic Compliance Matrix: (Units=1/GPa)
#
#
# Indices 1 2 3 4 5 6 
#
# 1 0.017310 -0.000740 0.000009 0.000000 -0.002518 0.000000
# 2 -0.000740 0.008110 -0.004784 0.000000 0.004137 0.000000
# 3 0.000009 -0.004784 0.017103 0.000000 0.001495 0.000000
# 4 0.000000 0.000000 0.000000 0.039942 0.000000 0.056865
# 5 -0.002518 0.004137 0.001495 0.000000 0.034596 0.000000
# 6 0.000000 0.000000 0.000000 0.056865 0.000000 0.136516
#
#
# Mechanical properties :
#
#
# Convention : Reuss Voigt Hill
#
# Bulk Modulus (GPa) = 31.75269 44.09550 37.92409
# Shear Modulus (GPa) = 18.17485 38.41811 28.29648
#
# Velocity S-wave (km/s) = 2.69968 3.92505 3.36856
# Velocity P-wave (km/s) = 4.73823 6.18257 5.50795
#
# Compressibility (1/GPa) = 0.03149340
#
# Stress axis : x y z
#
# Youngs Moduli (GPa) = 57.76894 123.30512 58.46904
#
# Poissons Ratio (x) = 0.09128 -0.00054
# Poissons Ratio (y) = 0.04277 0.27971
# Poissons Ratio (z) = -0.00053 0.58987
#
# Static dielectric constant tensor:
#      x y z
#    x 2.030100 0.000000 0.031150 
#    y 0.000000 2.054930 0.000000 
#    z 0.031150 0.000000 1.972060 
# 
# From -- ./inp_files/111982.got.cif
#   From: 2010.05.17/outbox.cif.g08.bks.cpg/sg12_56_cif.got.tgz:111982.got - 2010.06.03 13:09:07.
