data_PCOD9196854
_publ_section_title
;
Structure prediction by ZEFSAII (Michael W. Deem and Ramdas Pophale) SiO2 
 PCOD9196854
Probable space group: C 2/M
;
_chemical_formula_sum "Si O2"
_cell_formula_units_Z 48
_cell_length_a 17.222436
_cell_length_b 20.924926
_cell_length_c 14.837413
_cell_angle_alpha 90.000000
_cell_angle_beta 148.097508
_cell_angle_gamma 90.000000
_cell_volume 2825.799579
_symmetry_space_group_name_H-M "C 2/M"
_symmetry_group_IT_number 12
_symmetry_cell_setting 'monoclinic'
loop_
_space_group_symop_operation_xyz
x,y,z
-x,y,-z
-x,-y,-z
x,-y,z
1/2+x,1/2+y,z
1/2-x,1/2+y,-z
1/2-x,1/2-y,-z
1/2+x,1/2-y,z
loop_
_atom_site_type_symbol
_atom_site_label
_atom_site_fract_x
_atom_site_fract_y
_atom_site_fract_z
Si Si1 0.639744 0.260203 0.307909
Si Si2 0.182927 0.808325 0.991993
Si Si3 0.672754 0.767232 0.680758
Si Si4 0.701119 0.071015 0.001825
Si Si5 0.832789 0.112286 0.320288
Si Si6 0.429536 0.880371 0.829889
O O1 0.750000 0.250000 0.500000
O O2 0.494337 0.301574 0.184659
O O3 0.737192 0.284382 0.320312
O O4 0.579600 0.190996 0.217605
O O5 0.250000 0.750000 0.000000
O O6 0.248313 0.798780 0.156166
O O7 0.240114 0.873811 0.005107
O O8 0.500000 0.782970 0.500000
O O9 0.681229 0.689820 0.701556
O O10 0.530642 0.080878 0.861368
O O11 0.726680 0.000000 0.992317
O O12 0.779061 0.081227 0.175211
O O13 0.731886 0.094014 0.306046
O O14 0.000000 0.096140 0.500000
O O15 0.500000 0.878079 0.000000
#
# Coordination Sequence:
#
# PCOD9196854 Si02
#       6
#     8   8   8   8   8   8
#     4  11  21  32  58  91 114 141 184 239 288 336
#     4  12  20  36  59  83 114 152 186 236 280 333
#     4  10  20  35  57  90 115 142 184 237 288 339
#     4  11  23  36  54  80 114 156 194 229 280 339
#     4   9  18  32  55  82 118 147 183 228 283 347
#     4   9  18  34  53  79 114 149 184 223 284 341
#
# _framework density 16.986343000000002
#
# number of rings (size 3 to 8) (size 9 to 14) (size 15 to 20)
#    0.000    1.667    3.333    3.500    4.667    3.333 
#    0.000    0.000    0.000    2.500    0.000    0.000 
#    0.000    0.000    0.000    0.000    0.000    0.000 
#
# Total GULP energy -133901.954945 kJ/mol
# GULP energy per Si atom -5579.248123 kJ/mol
# Density = 1.694768 g / cm^3
# Si number density = 16.986343 Si / 1000 Ang^3
#
#
#
# Elastic Constant Matrix: (Units=GPa)
#
#
# Indices 1 2 3 4 5 6 
#
# 1 146.3290 56.8618 71.0955 0.0000 14.3726 0.0000
# 2 56.8618 83.2900 30.0291 0.0000 3.1076 0.0000
# 3 71.0955 30.0291 85.3397 0.0000 15.2115 0.0000
# 4 0.0000 0.0000 0.0000 4.6778 0.0000 -2.6246
# 5 14.3726 3.1076 15.2115 0.0000 38.3853 0.0000
# 6 0.0000 0.0000 0.0000 -2.6246 0.0000 16.4006
#
#
#
# Elastic Compliance Matrix: (Units=1/GPa)
#
#
# Indices 1 2 3 4 5 6 
#
# 1 0.013707 -0.006034 -0.009112 0.000000 -0.001033 0.000000
# 2 -0.006034 0.016434 -0.000991 0.000000 0.001322 0.000000
# 3 -0.009112 -0.000991 0.020482 0.000000 -0.004625 0.000000
# 4 0.000000 0.000000 0.000000 0.234865 0.000000 0.037586
# 5 -0.001033 0.001322 -0.004625 0.000000 0.028164 0.000000
# 6 0.000000 0.000000 0.000000 0.037586 0.000000 0.066988
#
#
# Mechanical properties :
#
#
# Convention : Reuss Voigt Hill
#
# Bulk Modulus (GPa) = 54.50082 70.10350 62.30216
# Shear Modulus (GPa) = 11.93227 22.35756 17.14492
#
# Velocity S-wave (km/s) = 2.65328 3.63189 3.18045
# Velocity P-wave (km/s) = 6.44525 7.67774 7.08833
#
# Compressibility (1/GPa) = 0.01834835
#
# Stress axis : x y z
#
# Youngs Moduli (GPa) = 72.95335 60.84998 48.82305
#
# Poissons Ratio (x) = 0.36718 0.44488
# Poissons Ratio (y) = 0.44022 0.04840
# Poissons Ratio (z) = 0.66475 0.06032
#
# Static dielectric constant tensor:
#      x y z
#    x 1.599780 0.000000 0.035880 
#    y 0.000000 1.574600 0.000000 
#    z 0.035880 0.000000 1.591330 
# 
# From -- ./inp_files/75116.got.cif
#   From: 2010.05.17/outbox.cif.g08.bks.cpg/sg12_38_cif.got.tgz:75116.got - 2010.06.03 13:09:07.
