data_PCOD9196191
_publ_section_title
;
Structure prediction by ZEFSAII (Michael W. Deem and Ramdas Pophale) SiO2 
 PCOD9196191
Probable space group: C 2/M
;
_chemical_formula_sum "Si O2"
_cell_formula_units_Z 64
_cell_length_a 29.649822
_cell_length_b 7.454377
_cell_length_c 17.053880
_cell_angle_alpha 90.000000
_cell_angle_beta 41.585796
_cell_angle_gamma 90.000000
_cell_volume 2501.814851
_symmetry_space_group_name_H-M "C 2/M"
_symmetry_group_IT_number 12
_symmetry_cell_setting 'monoclinic'
loop_
_space_group_symop_operation_xyz
x,y,z
-x,y,-z
-x,-y,-z
x,-y,z
1/2+x,1/2+y,z
1/2-x,1/2+y,-z
1/2-x,1/2-y,-z
1/2+x,1/2-y,z
loop_
_atom_site_type_symbol
_atom_site_label
_atom_site_fract_x
_atom_site_fract_y
_atom_site_fract_z
Si Si1 0.459250 0.284177 0.477255
Si Si2 0.794879 0.793197 0.185301
Si Si3 0.327844 0.789019 0.561909
Si Si4 0.084882 0.218121 0.222059
Si Si5 0.050712 0.293130 0.868062
Si Si6 0.330792 0.785357 0.389094
Si Si7 0.574555 0.718103 0.062136
Si Si8 0.217193 0.786855 0.127972
O O1 0.500000 0.219549 0.500000
O O2 0.456680 0.500000 0.485916
O O3 0.383624 0.226863 0.556940
O O4 0.508802 0.230286 0.342248
O O5 0.743077 0.709524 0.314818
O O6 0.756782 0.792404 0.150227
O O7 0.805112 0.000000 0.193781
O O8 0.869646 0.717373 0.073344
O O9 0.354363 0.717473 0.444429
O O10 0.316094 0.000000 0.564833
O O11 0.100202 0.276293 0.114229
O O12 0.139879 0.277364 0.214626
O O13 0.088149 0.000000 0.219080
O O14 0.061587 0.500000 0.876763
O O15 0.122279 0.214870 0.743402
O O16 0.000125 0.285990 0.859186
O O17 0.000000 0.209465 0.000000
O O18 0.250000 0.750000 0.500000
O O19 0.339763 0.000000 0.372576
O O20 0.573331 0.500000 0.063105
O O21 0.216792 0.000000 0.141890
O O22 0.250000 0.750000 0.000000
#
# Coordination Sequence:
#
# PCOD9196191 Si02
#       8
#     8   8   8   8   8   8   8   8
#     4  10  20  35  56  82 112 150 196 243 288 345
#     4  10  21  37  55  81 118 156 196 246 294 345
#     4  10  22  39  59  84 119 157 197 247 302 359
#     4   9  18  33  53  76 109 146 185 235 285 333
#     4  10  23  42  62  89 124 152 186 245 306 363
#     4  10  23  43  66  92 123 160 200 249 310 371
#     4  10  20  36  58  83 112 151 196 240 286 347
#     4  11  20  34  54  80 116 156 197 244 295 349
#
# _framework density 25.581427999999999
#
# number of rings (size 3 to 8) (size 9 to 14) (size 15 to 20)
#    0.000    2.000    1.250    1.875    1.750    3.500 
#    0.000    1.250    0.000    0.000    0.000    0.000 
#    0.000    0.000    0.000    0.000    0.000    0.000 
#
# Total GULP energy -178849.686109 kJ/mol
# GULP energy per Si atom -5589.052691 kJ/mol
# Density = 2.552320 g / cm^3
# Si number density = 25.581428 Si / 1000 Ang^3
#
#
#
# Elastic Constant Matrix: (Units=GPa)
#
#
# Indices 1 2 3 4 5 6 
#
# 1 95.4843 1.2581 32.2209 -0.0002 -8.1054 -0.0012
# 2 1.2581 91.8958 7.5598 0.0035 4.2361 0.0074
# 3 32.2209 7.5598 189.1658 -0.0116 -5.0198 0.0122
# 4 -0.0002 0.0035 -0.0116 5.6840 0.0059 -6.6771
# 5 -8.1054 4.2361 -5.0198 0.0059 46.0574 -0.0006
# 6 -0.0012 0.0074 0.0122 -6.6771 -0.0006 20.9256
#
#
#
# Elastic Compliance Matrix: (Units=1/GPa)
#
#
# Indices 1 2 3 4 5 6 
#
# 1 0.011255 -0.000083 -0.001866 -0.000005 0.001785 0.000000
# 2 -0.000083 0.010970 -0.000453 -0.000017 -0.001073 -0.000009
# 3 -0.001866 -0.000453 0.005631 0.000012 0.000327 0.000001
# 4 -0.000005 -0.000017 0.000012 0.281419 -0.000033 0.089798
# 5 0.001785 -0.001073 0.000327 -0.000033 0.022160 -0.000010
# 6 0.000000 -0.000009 0.000001 0.089798 -0.000010 0.076442
#
#
# Mechanical properties :
#
#
# Convention : Reuss Voigt Hill
#
# Bulk Modulus (GPa) = 43.38011 50.95818 47.16914
# Shear Modulus (GPa) = 11.89440 36.90054 24.39747
#
# Velocity S-wave (km/s) = 2.15864 3.80211 3.09158
# Velocity P-wave (km/s) = 4.81741 6.26402 5.58773
#
# Compressibility (1/GPa) = 0.02305204
#
# Stress axis : x y z
#
# Youngs Moduli (GPa) = 88.84646 91.15999 177.58654
#
# Poissons Ratio (x) = 0.00755 0.33146
# Poissons Ratio (y) = 0.00736 0.08040
# Poissons Ratio (z) = 0.16583 0.04127
#
# Static dielectric constant tensor:
#      x y z
#    x 2.003250 0.000020 0.026590 
#    y 0.000020 2.046040 0.000070 
#    z 0.026590 0.000070 2.085620 
# 
# From -- ./inp_files/295556.got.cif
#   From: 2010.05.17/outbox.cif.g08.bks.cpg/sg12_148_cif.got.tgz:295556.got - 2010.06.03 13:09:07.
