data_PCOD9196989
_publ_section_title
;
Structure prediction by ZEFSAII (Michael W. Deem and Ramdas Pophale) SiO2 
 PCOD9196989
Probable space group: C 2/M
;
_chemical_formula_sum "Si O2"
_cell_formula_units_Z 48
_cell_length_a 20.149725
_cell_length_b 7.726953
_cell_length_c 20.683521
_cell_angle_alpha 90.000000
_cell_angle_beta 136.501668
_cell_angle_gamma 90.000000
_cell_volume 2216.668479
_symmetry_space_group_name_H-M "C 2/M"
_symmetry_group_IT_number 12
_symmetry_cell_setting 'monoclinic'
loop_
_space_group_symop_operation_xyz
x,y,z
-x,y,-z
-x,-y,-z
x,-y,z
1/2+x,1/2+y,z
1/2-x,1/2+y,-z
1/2-x,1/2-y,-z
1/2+x,1/2-y,z
loop_
_atom_site_type_symbol
_atom_site_label
_atom_site_fract_x
_atom_site_fract_y
_atom_site_fract_z
Si Si1 0.700339 0.294037 0.397558
Si Si2 0.019792 0.291995 0.087029
Si Si3 0.861891 0.794768 0.083906
Si Si4 0.009537 0.211273 0.711029
Si Si5 0.438824 0.287441 0.394416
Si Si6 0.770213 0.299900 0.722063
O O1 0.703503 0.500000 0.390133
O O2 0.750000 0.250000 0.500000
O O3 0.590040 0.236049 0.326425
O O4 0.744117 0.208334 0.365200
O O5 0.026391 0.500000 0.088985
O O6 0.124344 0.225210 0.186007
O O7 0.932140 0.255833 0.074349
O O8 0.000000 0.229005 0.000000
O O9 0.905726 0.726631 0.182344
O O10 0.868187 0.000000 0.091492
O O11 0.750000 0.750000 0.000000
O O12 0.015836 0.267830 0.641500
O O13 0.010259 0.000000 0.709772
O O14 0.500000 0.231383 0.500000
O O15 0.437660 0.500000 0.395247
O O16 0.327945 0.225412 0.318012
O O17 0.773144 0.500000 0.744991
#
# Coordination Sequence:
#
# PCOD9196989 Si02
#       6
#     8   8   8   8   8   8
#     4  11  21  36  58  85 115 151 193 239 292 349
#     4  10  22  39  61  89 119 154 200 251 301 357
#     4  11  23  40  62  88 119 156 199 248 302 362
#     4   9  19  35  57  83 114 149 192 240 287 345
#     4   9  17  31  54  83 112 146 191 235 280 340
#     4  10  20  35  58  85 114 149 192 242 294 348
#
# _framework density 21.654118
#
# number of rings (size 3 to 8) (size 9 to 14) (size 15 to 20)
#    0.000    2.000    1.667    2.000    2.333    3.000 
#    0.000    0.000    0.000    5.500    0.000    0.000 
#    0.000    0.000    0.000    0.000    0.000    0.000 
#
# Total GULP energy -134025.146790 kJ/mol
# GULP energy per Si atom -5584.381116 kJ/mol
# Density = 2.160483 g / cm^3
# Si number density = 21.654118 Si / 1000 Ang^3
#
#
#
# Elastic Constant Matrix: (Units=GPa)
#
#
# Indices 1 2 3 4 5 6 
#
# 1 74.3558 0.7381 -6.0569 0.0000 -5.0445 0.0000
# 2 0.7381 39.3404 2.4514 0.0000 3.1879 0.0000
# 3 -6.0569 2.4514 86.8759 0.0000 -2.2211 0.0000
# 4 0.0000 0.0000 0.0000 11.0723 0.0000 -1.4463
# 5 -5.0445 3.1879 -2.2211 0.0000 42.2887 0.0000
# 6 0.0000 0.0000 0.0000 -1.4463 0.0000 16.7410
#
#
#
# Elastic Compliance Matrix: (Units=1/GPa)
#
#
# Indices 1 2 3 4 5 6 
#
# 1 0.013652 -0.000458 0.001009 0.000000 0.001716 0.000000
# 2 -0.000458 0.025643 -0.000807 0.000000 -0.002030 0.000000
# 3 0.001009 -0.000807 0.011624 0.000000 0.000792 0.000000
# 4 0.000000 0.000000 0.000000 0.091346 0.000000 0.007891
# 5 0.001716 -0.002030 0.000792 0.000000 0.024046 0.000000
# 6 0.000000 0.000000 0.000000 0.007891 0.000000 0.060415
#
#
# Mechanical properties :
#
#
# Convention : Reuss Voigt Hill
#
# Bulk Modulus (GPa) = 19.83936 21.64860 20.74398
# Shear Modulus (GPa) = 20.48832 27.58304 24.03568
#
# Velocity S-wave (km/s) = 3.07931 3.57291 3.33525
# Velocity P-wave (km/s) = 4.67169 5.20000 4.94291
#
# Compressibility (1/GPa) = 0.05040485
#
# Stress axis : x y z
#
# Youngs Moduli (GPa) = 73.24946 38.99765 86.02880
#
# Poissons Ratio (x) = 0.01786 -0.08677
# Poissons Ratio (y) = 0.03355 0.06946
# Poissons Ratio (z) = -0.07388 0.03149
#
# Static dielectric constant tensor:
#      x y z
#    x 1.689030 0.000000 0.095200 
#    y 0.000000 1.812710 0.000000 
#    z 0.095200 0.000000 2.654640 
# 
# From -- ./inp_files/230440.got.cif
#   From: 2010.05.17/outbox.cif.g08.bks.cpg/sg12_116_cif.got.tgz:230440.got - 2010.06.03 13:09:07.
