data_PCOD9196752
_publ_section_title
;
Structure prediction by ZEFSAII (Michael W. Deem and Ramdas Pophale) SiO2 
 PCOD9196752
Probable space group: C 2/M
;
_chemical_formula_sum "Si O2"
_cell_formula_units_Z 64
_cell_length_a 20.581568
_cell_length_b 9.149421
_cell_length_c 21.719940
_cell_angle_alpha 90.000000
_cell_angle_beta 49.877632
_cell_angle_gamma 90.000000
_cell_volume 3127.552977
_symmetry_space_group_name_H-M "C 2/M"
_symmetry_group_IT_number 12
_symmetry_cell_setting 'monoclinic'
loop_
_space_group_symop_operation_xyz
x,y,z
-x,y,-z
-x,-y,-z
x,-y,z
1/2+x,1/2+y,z
1/2-x,1/2+y,-z
1/2-x,1/2-y,-z
1/2+x,1/2-y,z
loop_
_atom_site_type_symbol
_atom_site_label
_atom_site_fract_x
_atom_site_fract_y
_atom_site_fract_z
Si Si1 0.678735 0.821923 0.346719
Si Si2 0.081980 0.664593 0.222746
Si Si3 0.656787 0.325253 0.682608
Si Si4 0.341843 0.176130 0.442456
Si Si5 0.504219 0.828841 0.408157
Si Si6 0.916526 0.333437 0.008762
Si Si7 0.237068 0.169915 0.833186
Si Si8 0.010735 0.829047 0.152560
O O1 0.746746 0.786338 0.357823
O O2 0.580325 0.769934 0.405182
O O3 0.725365 0.775770 0.254941
O O4 0.673490 0.000000 0.348556
O O5 0.059970 0.500000 0.214622
O O6 0.045054 0.677390 0.314496
O O7 0.183170 0.675432 0.169204
O O8 0.048872 0.781391 0.194829
O O9 0.654111 0.500000 0.669667
O O10 0.626483 0.228943 0.643811
O O11 0.590620 0.301082 0.778691
O O12 0.250000 0.250000 0.500000
O O13 0.409099 0.227913 0.453471
O O14 0.335994 0.000000 0.449378
O O15 0.493061 0.000000 0.431109
O O16 0.891819 0.500000 0.011691
O O17 0.942726 0.257107 0.929413
O O18 0.841406 0.254709 0.091066
O O19 0.000000 0.330465 0.000000
O O20 0.213485 0.000000 0.838394
O O21 0.022130 0.000000 0.135060
#
# Coordination Sequence:
#
# PCOD9196752 Si02
#       8
#     8   8   8   8   8   8   8   8
#     4   8  15  31  57  84 108 139 184 230 269 317
#     4   9  17  33  56  81 106 138 180 226 273 323
#     4  10  20  35  57  86 113 138 178 229 274 323
#     4  11  22  37  59  84 113 146 179 219 269 325
#     4   8  15  31  56  82 107 142 182 219 263 317
#     4  11  24  38  51  71 104 145 185 228 279 333
#     4   9  18  34  57  80 106 141 183 231 278 320
#     4  11  22  34  54  81 108 141 180 225 277 327
#
# _framework density 20.463282
#
# number of rings (size 3 to 8) (size 9 to 14) (size 15 to 20)
#    0.000    2.375    1.250    3.375    0.000    3.500 
#    0.000    1.250    0.000    6.000    0.000    0.000 
#    0.000    0.000    0.000    0.000    0.000    0.000 
#
# Total GULP energy -178529.471017 kJ/mol
# GULP energy per Si atom -5579.045969 kJ/mol
# Density = 2.041671 g / cm^3
# Si number density = 20.463282 Si / 1000 Ang^3
#
#
#
# Elastic Constant Matrix: (Units=GPa)
#
#
# Indices 1 2 3 4 5 6 
#
# 1 119.5553 24.3616 25.7651 0.0000 -16.9145 0.0000
# 2 24.3616 44.9378 27.7797 0.0000 -12.0632 -0.0001
# 3 25.7651 27.7797 82.8813 0.0000 -16.6120 0.0000
# 4 0.0000 0.0000 0.0000 20.9116 0.0000 -5.0905
# 5 -16.9145 -12.0632 -16.6120 0.0000 36.1975 0.0000
# 6 0.0000 -0.0001 0.0000 -5.0905 0.0000 20.6440
#
#
#
# Elastic Compliance Matrix: (Units=1/GPa)
#
#
# Indices 1 2 3 4 5 6 
#
# 1 0.009793 -0.003822 -0.001213 0.000000 0.002746 0.000000
# 2 -0.003822 0.030610 -0.008133 0.000000 0.004683 0.000000
# 3 -0.001213 -0.008133 0.015982 0.000000 0.004057 0.000000
# 4 0.000000 0.000000 0.000000 0.050874 0.000000 0.012545
# 5 0.002746 0.004683 0.004057 0.000000 0.032332 0.000000
# 6 0.000000 0.000000 0.000000 0.012545 0.000000 0.051533
#
#
# Mechanical properties :
#
#
# Convention : Reuss Voigt Hill
#
# Bulk Modulus (GPa) = 33.27957 44.79857 39.03907
# Shear Modulus (GPa) = 21.98041 26.84850 24.41445
#
# Velocity S-wave (km/s) = 3.28096 3.62613 3.45785
# Velocity P-wave (km/s) = 5.53636 6.28263 5.92127
#
# Compressibility (1/GPa) = 0.03004846
#
# Stress axis : x y z
#
# Youngs Moduli (GPa) = 102.11373 32.66951 62.57184
#
# Poissons Ratio (x) = 0.12487 0.07590
# Poissons Ratio (y) = 0.39029 0.50889
# Poissons Ratio (z) = 0.12386 0.26570
#
# Static dielectric constant tensor:
#      x y z
#    x 1.762810 0.000000 -0.012190 
#    y 0.000000 1.680000 0.000000 
#    z -0.012190 0.000000 1.778830 
# 
# From -- ./inp_files/346086.got.cif
#   From: 2010.05.17/outbox.cif.g08.bks.cpg/sg12_174_cif.got.tgz:346086.got - 2010.06.03 13:09:07.
