data_PCOD9196409
_publ_section_title
;
Structure prediction by ZEFSAII (Michael W. Deem and Ramdas Pophale) SiO2 
 PCOD9196409
Probable space group: C 2/M
;
_chemical_formula_sum "Si O2"
_cell_formula_units_Z 48
_cell_length_a 17.293531
_cell_length_b 15.988453
_cell_length_c 16.429865
_cell_angle_alpha 90.000000
_cell_angle_beta 24.915221
_cell_angle_gamma 90.000000
_cell_volume 1913.778268
_symmetry_space_group_name_H-M "C 2/M"
_symmetry_group_IT_number 12
_symmetry_cell_setting 'monoclinic'
loop_
_space_group_symop_operation_xyz
x,y,z
-x,y,-z
-x,-y,-z
x,-y,z
1/2+x,1/2+y,z
1/2-x,1/2+y,-z
1/2-x,1/2-y,-z
1/2+x,1/2-y,z
loop_
_atom_site_type_symbol
_atom_site_label
_atom_site_fract_x
_atom_site_fract_y
_atom_site_fract_z
Si Si1 0.772911 0.727110 0.765543
Si Si2 0.357018 0.163462 0.526479
Si Si3 0.982767 0.761297 0.838608
Si Si4 0.625285 0.911120 0.652366
Si Si5 0.778686 0.408750 0.204227
Si Si6 0.060128 0.093397 0.242789
O O1 0.785107 0.653285 0.687335
O O2 0.774320 0.815495 0.715568
O O3 0.956449 0.714975 0.642611
O O4 0.608188 0.727235 0.986257
O O5 0.195000 0.213488 0.638931
O O6 0.385265 0.089872 0.435920
O O7 0.998253 0.664465 0.801539
O O8 0.898394 0.828382 0.856153
O O9 0.840241 0.901872 0.471339
O O10 0.559057 0.000000 0.748297
O O11 0.719492 0.500000 0.295260
O O12 0.683305 0.405286 0.206225
O O13 0.000000 0.409170 0.000000
O O14 0.085017 0.000000 0.181045
#
# Coordination Sequence:
#
# PCOD9196409 Si02
#       6
#     8   8   8   8   8   8
#     4  11  23  40  63  91 127 175 221 265 327 393
#     4  10  22  42  63  90 131 174 217 267 326 394
#     4  11  21  39  67  97 128 169 221 275 329 387
#     4  10  21  39  66  97 131 174 221 273 331 389
#     4  10  20  35  56  86 125 164 206 261 325 393
#     4   9  19  37  62  94 131 169 214 271 333 395
#
# _framework density 25.081275999999999
#
# number of rings (size 3 to 8) (size 9 to 14) (size 15 to 20)
#    0.000    1.833    0.000    5.500    0.000    3.333 
#    0.000    9.167    0.000    5.000    0.000    0.000 
#    0.000    6.000    0.000    0.000    0.000    0.000 
#
# Total GULP energy -134130.479316 kJ/mol
# GULP energy per Si atom -5588.769972 kJ/mol
# Density = 2.502419 g / cm^3
# Si number density = 25.081276 Si / 1000 Ang^3
#
#
#
# Elastic Constant Matrix: (Units=GPa)
#
#
# Indices 1 2 3 4 5 6 
#
# 1 136.3249 49.7279 28.8570 0.0002 -1.0104 -0.0002
# 2 49.7279 133.1150 30.8504 -0.0053 -0.4262 0.0010
# 3 28.8570 30.8504 116.6521 -0.0363 -25.8882 -0.0006
# 4 0.0002 -0.0053 -0.0363 11.2331 0.0074 -5.1989
# 5 -1.0104 -0.4262 -25.8882 0.0074 51.9400 0.0028
# 6 -0.0002 0.0010 -0.0006 -5.1989 0.0028 20.7669
#
#
#
# Elastic Compliance Matrix: (Units=1/GPa)
#
#
# Indices 1 2 3 4 5 6 
#
# 1 0.008713 -0.002904 -0.001524 -0.000007 -0.000614 -0.000001
# 2 -0.002904 0.009028 -0.001873 -0.000001 -0.000916 -0.000001
# 3 -0.001524 -0.001873 0.010608 0.000034 0.005242 0.000008
# 4 -0.000007 -0.000001 0.000034 0.100689 0.000001 0.025207
# 5 -0.000614 -0.000916 0.005242 0.000001 0.021846 -0.000002
# 6 -0.000001 -0.000001 0.000008 0.025207 -0.000002 0.054464
#
#
# Mechanical properties :
#
#
# Convention : Reuss Voigt Hill
#
# Bulk Modulus (GPa) = 63.49546 67.21806 65.35676
# Shear Modulus (GPa) = 22.40169 35.23178 28.81673
#
# Velocity S-wave (km/s) = 2.99183 3.75200 3.39327
# Velocity P-wave (km/s) = 6.10783 6.75487 6.43948
#
# Compressibility (1/GPa) = 0.01574916
#
# Stress axis : x y z
#
# Youngs Moduli (GPa) = 114.77705 110.76584 94.26817
#
# Poissons Ratio (x) = 0.32162 0.14362
# Poissons Ratio (y) = 0.33327 0.17652
# Poissons Ratio (z) = 0.17487 0.20741
#
# Static dielectric constant tensor:
#      x y z
#    x 2.044830 0.000000 0.000990 
#    y 0.000000 1.983340 0.000010 
#    z 0.000990 0.000010 1.967780 
# 
# From -- ./inp_files/343546.got.cif
#   From: 2010.05.17/outbox.cif.g08.bks.cpg/sg12_172_cif.got.tgz:343546.got - 2010.06.03 13:09:07.
