data_PCOD9196903
_publ_section_title
;
Structure prediction by ZEFSAII (Michael W. Deem and Ramdas Pophale) SiO2 
 PCOD9196903
Probable space group: C 2/M
;
_chemical_formula_sum "Si O2"
_cell_formula_units_Z 56
_cell_length_a 14.265604
_cell_length_b 11.235039
_cell_length_c 25.367441
_cell_angle_alpha 90.000000
_cell_angle_beta 139.494219
_cell_angle_gamma 90.000000
_cell_volume 2640.809806
_symmetry_space_group_name_H-M "C 2/M"
_symmetry_group_IT_number 12
_symmetry_cell_setting 'monoclinic'
loop_
_space_group_symop_operation_xyz
x,y,z
-x,y,-z
-x,-y,-z
x,-y,z
1/2+x,1/2+y,z
1/2-x,1/2+y,-z
1/2-x,1/2-y,-z
1/2+x,1/2-y,z
loop_
_atom_site_type_symbol
_atom_site_label
_atom_site_fract_x
_atom_site_fract_y
_atom_site_fract_z
Si Si1 0.814266 0.202422 0.841305
Si Si2 0.570312 0.367630 0.688769
Si Si3 0.667985 0.790006 0.882033
Si Si4 0.408135 0.364458 0.513203
Si Si5 0.248238 0.134263 0.401944
Si Si6 0.093167 0.633812 0.965636
Si Si7 0.394206 0.631521 0.761191
O O1 0.686920 0.286042 0.765424
O O2 0.746957 0.148578 0.866170
O O3 0.854481 0.130388 0.805939
O O4 0.958345 0.277868 0.915193
O O5 0.632618 0.500000 0.713487
O O6 0.515796 0.337669 0.607054
O O7 0.420527 0.368173 0.656055
O O8 0.644354 0.860934 0.926218
O O9 0.512249 0.733820 0.802464
O O10 0.773742 0.681617 0.943300
O O11 0.500000 0.376172 0.500000
O O12 0.343862 0.500000 0.496077
O O13 0.311974 0.246963 0.460641
O O14 0.242154 0.150951 0.336014
O O15 0.307104 0.000000 0.438969
O O16 0.052953 0.500000 0.961740
O O17 0.453255 0.500000 0.773719
#
# Coordination Sequence:
#
# PCOD9196903 Si02
#       7
#     8   8   8   8   8   8   8
#     4  11  21  36  59  86 116 149 195 242 290 348
#     4  10  20  35  58  83 113 154 196 239 294 353
#     4  10  21  38  57  83 118 151 188 240 293 349
#     4  10  21  37  56  83 118 153 192 245 302 353
#     4  10  20  37  60  84 113 155 203 245 290 354
#     4  10  22  37  58  86 114 148 193 239 287 345
#     4  10  21  37  58  84 117 157 197 241 296 355
#
# _framework density 21.205615999999999
#
# number of rings (size 3 to 8) (size 9 to 14) (size 15 to 20)
#    0.000    1.857    1.429    2.571    0.000    3.143 
#    0.000    4.286    0.000    5.143    0.000    0.000 
#    0.000    0.000    0.000    0.000    0.000    0.000 
#
# Total GULP energy -156080.873253 kJ/mol
# GULP energy per Si atom -5574.316902 kJ/mol
# Density = 2.115735 g / cm^3
# Si number density = 21.205616 Si / 1000 Ang^3
#
#
#
# Elastic Constant Matrix: (Units=GPa)
#
#
# Indices 1 2 3 4 5 6 
#
# 1 109.4748 -3.7244 1.1098 0.0000 -20.6713 0.0000
# 2 -3.7244 91.6252 27.6521 0.0000 11.2656 0.0000
# 3 1.1098 27.6521 52.3985 0.0000 -8.7684 0.0000
# 4 0.0000 0.0000 0.0000 11.1246 0.0000 4.4612
# 5 -20.6713 11.2656 -8.7684 0.0000 35.6808 0.0000
# 6 0.0000 0.0000 0.0000 4.4612 0.0000 12.4035
#
#
#
# Elastic Compliance Matrix: (Units=1/GPa)
#
#
# Indices 1 2 3 4 5 6 
#
# 1 0.010331 -0.000772 0.001284 0.000000 0.006544 0.000000
# 2 -0.000772 0.014415 -0.008789 0.000000 -0.007159 0.000000
# 3 0.001284 -0.008789 0.025326 0.000000 0.009742 0.000000
# 4 0.000000 0.000000 0.000000 0.105042 0.000000 -0.037781
# 5 0.006544 -0.007159 0.009742 0.000000 0.036472 0.000000
# 6 0.000000 0.000000 0.000000 -0.037781 0.000000 0.094212
#
#
# Mechanical properties :
#
#
# Convention : Reuss Voigt Hill
#
# Bulk Modulus (GPa) = 29.83509 33.73037 31.78273
# Shear Modulus (GPa) = 15.94769 27.07250 21.51010
#
# Velocity S-wave (km/s) = 2.74533 3.57692 3.18835
# Velocity P-wave (km/s) = 4.91417 5.74457 5.34552
#
# Compressibility (1/GPa) = 0.03351758
#
# Stress axis : x y z
#
# Youngs Moduli (GPa) = 96.79628 69.37093 39.48544
#
# Poissons Ratio (x) = 0.05357 -0.05069
# Poissons Ratio (y) = 0.07474 0.34703
# Poissons Ratio (z) = -0.12427 0.60969
#
# Static dielectric constant tensor:
#      x y z
#    x 1.856560 0.000000 -0.080690 
#    y 0.000000 1.777980 0.000000 
#    z -0.080690 0.000000 1.765210 
# 
# From -- ./inp_files/268611.got.cif
#   From: 2010.05.17/outbox.cif.g08.bks.cpg/sg12_135_cif.got.tgz:268611.got - 2010.06.03 13:09:07.
