data_PCOD9196509
_publ_section_title
;
Structure prediction by ZEFSAII (Michael W. Deem and Ramdas Pophale) SiO2 
 PCOD9196509
Probable space group: C 2/M
;
_chemical_formula_sum "Si O2"
_cell_formula_units_Z 48
_cell_length_a 18.995321
_cell_length_b 14.363457
_cell_length_c 15.652021
_cell_angle_alpha 90.000000
_cell_angle_beta 32.449915
_cell_angle_gamma 90.000000
_cell_volume 2291.374493
_symmetry_space_group_name_H-M "C 2/M"
_symmetry_group_IT_number 12
_symmetry_cell_setting 'monoclinic'
loop_
_space_group_symop_operation_xyz
x,y,z
-x,y,-z
-x,-y,-z
x,-y,z
1/2+x,1/2+y,z
1/2-x,1/2+y,-z
1/2-x,1/2-y,-z
1/2+x,1/2-y,z
loop_
_atom_site_type_symbol
_atom_site_label
_atom_site_fract_x
_atom_site_fract_y
_atom_site_fract_z
Si Si1 0.254862 0.610597 0.351293
Si Si2 0.345314 0.891784 0.178977
Si Si3 0.096931 0.250110 0.180669
Si Si4 0.289517 0.780311 0.763901
Si Si5 0.609157 0.889551 0.675755
Si Si6 0.953179 0.889196 0.901256
O O1 0.240426 0.500000 0.351276
O O2 0.180470 0.666846 0.354560
O O3 0.202370 0.630443 0.499963
O O4 0.410053 0.632749 0.191679
O O5 0.264597 0.821324 0.204071
O O6 0.329822 0.866672 0.294915
O O7 0.309670 0.000000 0.202740
O O8 0.500000 0.882606 0.000000
O O9 0.098262 0.269482 0.280029
O O10 0.040116 0.154426 0.200766
O O11 0.021225 0.330790 0.207788
O O12 0.250000 0.250000 0.000000
O O13 0.169332 0.840621 0.927111
O O14 0.580250 0.000000 0.706737
O O15 0.937146 0.000000 0.916019
#
# Coordination Sequence:
#
# PCOD9196509 Si02
#       6
#     8   8   8   8   8   8
#     4  10  21  37  60  86 112 148 193 240 288 337
#     4  10  20  35  57  82 109 146 192 238 281 332
#     4  10  22  36  54  82 113 149 186 226 283 344
#     4  11  21  35  57  87 119 150 190 237 288 341
#     4  10  22  40  60  84 114 149 191 238 287 339
#     4  10  21  38  59  83 114 152 194 238 285 340
#
# _framework density 20.948125000000001
#
# number of rings (size 3 to 8) (size 9 to 14) (size 15 to 20)
#    0.000    1.833    0.000    5.000    0.000    8.667 
#    0.000    1.667    0.000    0.000    0.000    7.000 
#    0.000    0.000    0.000    0.000    0.000    0.000 
#
# Total GULP energy -134140.017674 kJ/mol
# GULP energy per Si atom -5589.167403 kJ/mol
# Density = 2.090045 g / cm^3
# Si number density = 20.948125 Si / 1000 Ang^3
#
#
#
# Elastic Constant Matrix: (Units=GPa)
#
#
# Indices 1 2 3 4 5 6 
#
# 1 100.3877 43.0573 11.2773 0.0000 19.6521 0.0000
# 2 43.0573 78.8662 17.0924 0.0000 9.5309 0.0000
# 3 11.2773 17.0924 55.8785 0.0000 11.9383 0.0000
# 4 0.0000 0.0000 0.0000 23.8198 0.0000 12.7848
# 5 19.6521 9.5309 11.9383 0.0000 28.8351 0.0000
# 6 0.0000 0.0000 0.0000 12.7848 0.0000 6.2511
#
#
#
# Elastic Compliance Matrix: (Units=1/GPa)
#
#
# Indices 1 2 3 4 5 6 
#
# 1 0.014466 -0.007151 0.000954 0.000000 -0.007890 0.000000
# 2 -0.007151 0.017362 -0.004040 0.000000 0.000808 0.000000
# 3 0.000954 -0.004040 0.020617 0.000000 -0.007850 -0.000001
# 4 0.000000 0.000000 0.000000 -0.429608 -0.000001 0.878638
# 5 -0.007890 0.000808 -0.007850 -0.000001 0.043041 0.000001
# 6 0.000000 0.000000 -0.000001 0.878638 0.000001 -1.637025
#
#
# Mechanical properties :
#
#
# Convention : Reuss Voigt Hill
#
# Bulk Modulus (GPa) = 31.27986 41.99850 36.63918
# Shear Modulus (GPa) = -2.57730 22.69488 10.05879
#
# Velocity S-wave (km/s) = -1.11040 3.29505 2.19367
# Velocity P-wave (km/s) = 3.64972 5.87953 4.89333
#
# Compressibility (1/GPa) = 0.03196945
#
# Stress axis : x y z
#
# Youngs Moduli (GPa) = 69.12785 57.59782 48.50482
#
# Poissons Ratio (x) = 0.41188 -0.04625
# Poissons Ratio (y) = 0.49433 0.19596
# Poissons Ratio (z) = -0.06592 0.23270
#
# Static dielectric constant tensor:
#      x y z
#    x 1.759080 0.000000 0.058740 
#    y 0.000000 1.728480 0.000000 
#    z 0.058740 0.000000 1.822850 
# 
# From -- ./inp_files/225079.got.cif
#   From: 2010.05.17/outbox.cif.g08.bks.cpg/sg12_113_cif.got.tgz:225079.got - 2010.06.03 13:09:07.
