data_PCOD9196581
_publ_section_title
;
Structure prediction by ZEFSAII (Michael W. Deem and Ramdas Pophale) SiO2 
 PCOD9196581
Probable space group: C 2/M
;
_chemical_formula_sum "Si O2"
_cell_formula_units_Z 58
_cell_length_a 23.989927
_cell_length_b 7.488595
_cell_length_c 14.692542
_cell_angle_alpha 90.000000
_cell_angle_beta 102.468790
_cell_angle_gamma 90.000000
_cell_volume 2577.271090
_symmetry_space_group_name_H-M "C 2/M"
_symmetry_group_IT_number 12
_symmetry_cell_setting 'monoclinic'
loop_
_space_group_symop_operation_xyz
x,y,z
-x,y,-z
-x,-y,-z
x,-y,z
1/2+x,1/2+y,z
1/2-x,1/2+y,-z
1/2-x,1/2-y,-z
1/2+x,1/2-y,z
loop_
_atom_site_type_symbol
_atom_site_label
_atom_site_fract_x
_atom_site_fract_y
_atom_site_fract_z
Si Si1 0.992372 0.204038 0.784488
Si Si2 0.500000 0.000000 0.500000
Si Si3 0.692407 0.716506 0.251670
Si Si4 0.819456 0.717290 0.248234
Si Si5 0.588365 0.792134 0.083534
Si Si6 0.387857 0.796265 0.106398
Si Si7 0.610408 0.716653 0.377206
Si Si8 0.416429 0.706930 0.427978
O O1 0.959944 0.206000 0.870378
O O2 0.945204 0.279101 0.698416
O O3 0.052836 0.296257 0.817260
O O4 0.004402 0.000000 0.761719
O O5 0.532374 0.157962 0.571052
O O6 0.692115 0.500000 0.250124
O O7 0.756271 0.776497 0.253708
O O8 0.647244 0.777746 0.160107
O O9 0.665776 0.773387 0.339373
O O10 0.819997 0.500000 0.247106
O O11 0.840143 0.781191 0.156243
O O12 0.866075 0.776428 0.337931
O O13 0.571468 0.000000 0.068895
O O14 0.598538 0.714044 0.986955
O O15 0.370379 0.000000 0.080547
O O16 0.609499 0.500000 0.374432
O O17 0.606632 0.768910 0.480549
O O18 0.434363 0.500000 0.439234
#
# Coordination Sequence:
#
# PCOD9196581 Si02
#       8
#     8   2   8   8   8   8   8   8
#     4  10  20  35  57  83 114 150 194 246 300 360
#     4  12  26  44  64  94 132 166 202 252 300 370
#     4   9  19  39  64  84 116 154 198 255 302 356
#     4  10  22  41  60  87 120 160 203 248 307 362
#     4  10  20  36  55  83 115 153 198 248 301 358
#     4  10  22  36  54  80 120 159 194 242 305 366
#     4   8  18  37  59  87 116 153 199 247 304 358
#     4  11  24  42  65  93 128 166 207 248 300 363
#
# _framework density 22.504422000000002
#
# number of rings (size 3 to 8) (size 9 to 14) (size 15 to 20)
#    0.000    2.207    0.690    2.276    1.931    4.966 
#    4.966    0.000    0.000    0.000    0.000    0.000 
#    0.000    0.000    0.000    0.000    0.000    0.000 
#
# Total GULP energy -161837.757640 kJ/mol
# GULP energy per Si atom -5580.612332 kJ/mol
# Density = 2.245320 g / cm^3
# Si number density = 22.504422 Si / 1000 Ang^3
#
#
#
# Elastic Constant Matrix: (Units=GPa)
#
#
# Indices 1 2 3 4 5 6 
#
# 1 111.0182 5.8300 33.3219 0.0000 -20.8701 0.0000
# 2 5.8300 93.4214 -8.1548 0.0000 -0.0391 0.0000
# 3 33.3219 -8.1548 95.0616 0.0000 -30.8620 0.0000
# 4 0.0000 0.0000 0.0000 13.8788 0.0000 9.7691
# 5 -20.8701 -0.0391 -30.8620 0.0000 34.4811 0.0000
# 6 0.0000 0.0000 0.0000 9.7691 0.0000 12.1961
#
#
#
# Elastic Compliance Matrix: (Units=1/GPa)
#
#
# Indices 1 2 3 4 5 6 
#
# 1 0.010573 -0.000868 -0.002401 0.000000 0.004249 0.000000
# 2 -0.000868 0.010891 0.001511 0.000000 0.000840 0.000000
# 3 -0.002401 0.001511 0.015533 0.000000 0.012451 0.000000
# 4 0.000000 0.000000 0.000000 0.165187 0.000000 -0.132315
# 5 0.004249 0.000840 0.012451 0.000000 0.042719 0.000000
# 6 0.000000 0.000000 0.000000 -0.132315 0.000000 0.187979
#
#
# Mechanical properties :
#
#
# Convention : Reuss Voigt Hill
#
# Bulk Modulus (GPa) = 29.86764 40.16617 35.01691
# Shear Modulus (GPa) = 11.17178 30.01145 20.59162
#
# Velocity S-wave (km/s) = 2.23048 3.65578 3.02818
# Velocity P-wave (km/s) = 4.46476 5.97549 5.27450
#
# Compressibility (1/GPa) = 0.03348105
#
# Stress axis : x y z
#
# Youngs Moduli (GPa) = 94.58475 91.82256 64.37905
#
# Poissons Ratio (x) = 0.07966 0.15457
# Poissons Ratio (y) = 0.08206 -0.09727
# Poissons Ratio (z) = 0.22709 -0.13874
#
# Static dielectric constant tensor:
#      x y z
#    x 1.818760 0.000000 -0.058180 
#    y 0.000000 1.822640 0.000000 
#    z -0.058180 0.000000 1.839760 
# 
# From -- ./inp_files/237684.got.cif
#   From: 2010.05.17/outbox.cif.g08.bks.cpg/sg12_119_cif.got.tgz:237684.got - 2010.06.03 13:09:07.
