data_PCOD9196357
_publ_section_title
;
Structure prediction by ZEFSAII (Michael W. Deem and Ramdas Pophale) SiO2 
 PCOD9196357
Probable space group: C 2/M
;
_chemical_formula_sum "Si O2"
_cell_formula_units_Z 56
_cell_length_a 28.695658
_cell_length_b 9.009703
_cell_length_c 19.924018
_cell_angle_alpha 90.000000
_cell_angle_beta 141.864521
_cell_angle_gamma 90.000000
_cell_volume 3180.949386
_symmetry_space_group_name_H-M "C 2/M"
_symmetry_group_IT_number 12
_symmetry_cell_setting 'monoclinic'
loop_
_space_group_symop_operation_xyz
x,y,z
-x,y,-z
-x,-y,-z
x,-y,z
1/2+x,1/2+y,z
1/2-x,1/2+y,-z
1/2-x,1/2-y,-z
1/2+x,1/2-y,z
loop_
_atom_site_type_symbol
_atom_site_label
_atom_site_fract_x
_atom_site_fract_y
_atom_site_fract_z
Si Si1 0.194376 0.678103 0.236158
Si Si2 0.631904 0.323621 0.724279
Si Si3 0.003292 0.323575 0.666810
Si Si4 0.867124 0.822828 0.434091
Si Si5 0.806436 0.322096 0.922071
Si Si6 0.452293 0.322121 0.143955
Si Si7 0.047109 0.821522 0.119102
O O1 0.188514 0.500000 0.233870
O O2 0.280400 0.718114 0.351582
O O3 0.182691 0.717830 0.144303
O O4 0.129971 0.753126 0.206985
O O5 0.619814 0.500000 0.722269
O O6 0.573197 0.230868 0.700490
O O7 0.621555 0.297874 0.632855
O O8 0.719187 0.289509 0.840069
O O9 0.002729 0.500000 0.671495
O O10 0.013762 0.250014 0.751229
O O11 0.927651 0.264960 0.545578
O O12 0.875992 0.000000 0.455190
O O13 0.816751 0.500000 0.939788
O O14 0.867982 0.237599 0.035328
O O15 0.451436 0.500000 0.148800
O O16 0.502079 0.280438 0.135161
O O17 0.052639 0.000000 0.123318
O O18 0.000000 0.772933 0.000000
#
# Coordination Sequence:
#
# PCOD9196357 Si02
#       7
#     8   8   8   8   8   8   8
#     4   9  18  33  58  88 113 141 178 225 275 323
#     4   9  19  37  61  84 110 146 184 224 274 329
#     4  12  25  38  54  80 112 147 189 233 274 321
#     4   9  19  38  61  84 111 145 186 225 270 329
#     4   9  18  34  56  85 114 141 180 226 271 325
#     4  11  23  38  56  78 112 153 185 221 276 333
#     4  10  20  35  56  85 114 142 181 225 273 329
#
# _framework density 17.604807999999998
#
# number of rings (size 3 to 8) (size 9 to 14) (size 15 to 20)
#    0.000    2.143    1.429    3.857    0.000    5.429 
#    0.000    3.571    0.000    0.000    0.000    0.000 
#    0.000    0.000    0.000    0.000    0.000    0.000 
#
# Total GULP energy -156342.695043 kJ/mol
# GULP energy per Si atom -5583.667680 kJ/mol
# Density = 1.756474 g / cm^3
# Si number density = 17.604808 Si / 1000 Ang^3
#
#
#
# Elastic Constant Matrix: (Units=GPa)
#
#
# Indices 1 2 3 4 5 6 
#
# 1 -61.1801 129.1589 483.7915 0.0000 47.5649 0.0000
# 2 129.1589 22.0693 -124.6802 0.0000 -15.8515 0.0000
# 3 483.7915 -124.6802 -908.8481 0.0000 -90.6747 0.0000
# 4 0.0000 0.0000 0.0000 32.0373 0.0000 3.5781
# 5 47.5649 -15.8515 -90.6747 0.0000 7.4271 0.0000
# 6 0.0000 0.0000 0.0000 3.5781 0.0000 9.0320
#
#
#
# Elastic Compliance Matrix: (Units=1/GPa)
#
#
# Indices 1 2 3 4 5 6 
#
# 1 0.010605 -0.017270 0.008326 0.000000 -0.003125 0.000000
# 2 -0.017270 0.054121 -0.017663 0.000000 0.010474 0.000000
# 3 0.008326 -0.017663 0.006689 0.000000 -0.009360 0.000000
# 4 0.000000 0.000000 0.000000 0.032659 0.000000 -0.012938
# 5 -0.003125 0.010474 -0.009360 0.000000 0.062739 0.000000
# 6 0.000000 0.000000 0.000000 -0.012938 0.000000 0.115843
#
#
# Mechanical properties :
#
#
# Convention : Reuss Voigt Hill
#
# Bulk Modulus (GPa) = 54.94186 3.17571 29.05879
# Shear Modulus (GPa) = 14.62264 -86.04933 -35.71335
#
# Velocity S-wave (km/s) = 2.88515 -6.99889 -4.50890
# Velocity P-wave (km/s) = 6.50961 7.96899 3.25037
#
# Compressibility (1/GPa) = 0.01820106
#
# Stress axis : x y z
#
# Youngs Moduli (GPa) = 94.29938 18.47708 149.50959
#
# Poissons Ratio (x) = 0.31910 -1.24480
# Poissons Ratio (y) = 1.62854 2.64072
# Poissons Ratio (z) = -0.78512 0.32635
#
# Static dielectric constant tensor:
#      x y z
#    x 1.586160 0.000000 0.003950 
#    y 0.000000 1.581510 0.000000 
#    z 0.003950 0.000000 1.583700 
# 
# From -- ./inp_files/292454.got.cif
#   From: 2010.05.17/outbox.cif.g08.bks.cpg/sg12_147_cif.got.tgz:292454.got - 2010.06.03 13:09:07.
