data_PCOD9196296
_publ_section_title
;
Structure prediction by ZEFSAII (Michael W. Deem and Ramdas Pophale) SiO2 
 PCOD9196296
Probable space group: C 2/M
;
_chemical_formula_sum "Si O2"
_cell_formula_units_Z 40
_cell_length_a 31.290143
_cell_length_b 7.935598
_cell_length_c 21.950114
_cell_angle_alpha 90.000000
_cell_angle_beta 162.508174
_cell_angle_gamma 90.000000
_cell_volume 1638.208735
_symmetry_space_group_name_H-M "C 2/M"
_symmetry_group_IT_number 12
_symmetry_cell_setting 'monoclinic'
loop_
_space_group_symop_operation_xyz
x,y,z
-x,y,-z
-x,-y,-z
x,-y,z
1/2+x,1/2+y,z
1/2-x,1/2+y,-z
1/2-x,1/2-y,-z
1/2+x,1/2-y,z
loop_
_atom_site_type_symbol
_atom_site_label
_atom_site_fract_x
_atom_site_fract_y
_atom_site_fract_z
Si Si1 0.090235 0.810959 0.795663
Si Si2 0.665833 0.302060 0.209951
Si Si3 0.123465 0.687491 0.402705
Si Si4 0.621964 0.702374 0.014048
Si Si5 0.112605 0.692419 0.705611
O O1 0.038397 0.802606 0.656303
O O2 0.002423 0.689230 0.718545
O O3 0.078049 0.000000 0.803690
O O4 0.250000 0.750000 0.000000
O O5 0.712274 0.500000 0.269746
O O6 0.753573 0.229319 0.387402
O O7 0.500000 0.299158 0.000000
O O8 0.668500 0.232279 0.144224
O O9 0.171925 0.500000 0.451672
O O10 0.038116 0.758182 0.227776
O O11 0.631049 0.500000 0.030170
O O12 0.739218 0.753551 0.122627
O O13 0.132312 0.500000 0.755623
O O14 0.000000 0.682056 0.500000
#
# Coordination Sequence:
#
# PCOD9196296 Si02
#       5
#     8   8   8   8   8
#     4  12  23  36  56  84 119 158 197 242 291 351
#     4   9  20  40  64  89 118 157 204 248 300 367
#     4  11  22  38  62  90 121 160 201 250 303 360
#     4  10  20  36  60  87 118 158 201 249 297 356
#     4  10  20  35  56  83 118 161 202 240 290 357
#
# _framework density 24.416913000000001
#
# number of rings (size 3 to 8) (size 9 to 14) (size 15 to 20)
#    0.000    1.600    2.000    3.600    0.000    4.400 
#    0.000    4.000    0.000    4.200    0.000    0.000 
#    0.000    0.000    0.000    0.000    0.000    0.000 
#
# Total GULP energy -111487.263437 kJ/mol
# GULP energy per Si atom -5574.363172 kJ/mol
# Density = 2.436134 g / cm^3
# Si number density = 24.416913 Si / 1000 Ang^3
#
#
#
# Elastic Constant Matrix: (Units=GPa)
#
#
# Indices 1 2 3 4 5 6 
#
# 1 66.0658 2.7813 11.4037 0.0000 -15.0292 0.0000
# 2 2.7813 42.0966 0.9348 0.0000 -2.3495 0.0000
# 3 11.4037 0.9348 155.7434 0.0000 -32.5381 0.0000
# 4 0.0000 0.0000 0.0000 23.5492 0.0000 -5.5031
# 5 -15.0292 -2.3495 -32.5381 0.0000 27.1223 0.0000
# 6 0.0000 0.0000 0.0000 -5.5031 0.0000 8.0554
#
#
#
# Elastic Compliance Matrix: (Units=1/GPa)
#
#
# Indices 1 2 3 4 5 6 
#
# 1 0.017447 -0.000572 0.000981 0.000000 0.010796 0.000000
# 2 -0.000572 0.023906 0.000353 0.000000 0.002178 0.000000
# 3 0.000981 0.000353 0.008630 0.000000 0.010927 0.000000
# 4 0.000000 0.000000 0.000000 0.050531 0.000000 0.034521
# 5 0.010796 0.002178 0.010927 0.000000 0.056150 0.000000
# 6 0.000000 0.000000 0.000000 0.034521 0.000000 0.147723
#
#
# Mechanical properties :
#
#
# Convention : Reuss Voigt Hill
#
# Bulk Modulus (GPa) = 19.41414 32.68282 26.04848
# Shear Modulus (GPa) = 15.62342 28.33110 21.97726
#
# Velocity S-wave (km/s) = 2.53229 3.41002 3.00339
# Velocity P-wave (km/s) = 4.06428 5.37761 4.76640
#
# Compressibility (1/GPa) = 0.05150886
#
# Stress axis : x y z
#
# Youngs Moduli (GPa) = 57.31645 41.82978 115.87738
#
# Poissons Ratio (x) = 0.02393 -0.11372
# Poissons Ratio (y) = 0.03278 -0.04095
# Poissons Ratio (z) = -0.05625 -0.01478
#
# Static dielectric constant tensor:
#      x y z
#    x 2.057610 0.000000 -0.158420 
#    y 0.000000 2.181930 0.000000 
#    z -0.158420 0.000000 2.103340 
# 
# From -- ./inp_files/313532.got.cif
#   From: 2010.05.17/outbox.cif.g08.bks.cpg/sg12_157_cif.got.tgz:313532.got - 2010.06.03 13:09:07.
