data_PCOD9196634
_publ_section_title
;
Structure prediction by ZEFSAII (Michael W. Deem and Ramdas Pophale) SiO2 
 PCOD9196634
Probable space group: C 2/M
;
_chemical_formula_sum "Si O2"
_cell_formula_units_Z 48
_cell_length_a 28.464797
_cell_length_b 13.743873
_cell_length_c 5.090982
_cell_angle_alpha 90.000000
_cell_angle_beta 71.545072
_cell_angle_gamma 90.000000
_cell_volume 1889.250437
_symmetry_space_group_name_H-M "C 2/M"
_symmetry_group_IT_number 12
_symmetry_cell_setting 'monoclinic'
loop_
_space_group_symop_operation_xyz
x,y,z
-x,y,-z
-x,-y,-z
x,-y,z
1/2+x,1/2+y,z
1/2-x,1/2+y,-z
1/2-x,1/2-y,-z
1/2+x,1/2-y,z
loop_
_atom_site_type_symbol
_atom_site_label
_atom_site_fract_x
_atom_site_fract_y
_atom_site_fract_z
Si Si1 0.806513 0.881128 0.937818
Si Si2 0.532703 0.691048 0.676963
Si Si3 0.361669 0.616230 0.338275
Si Si4 0.854950 0.617613 0.038023
Si Si5 0.447165 0.892380 0.233071
Si Si6 0.798087 0.381318 0.639053
O O1 0.849084 0.849250 0.067539
O O2 0.754243 0.850215 0.150160
O O3 0.805451 0.000000 0.932579
O O4 0.820336 0.850134 0.620393
O O5 0.500000 0.648389 0.500000
O O6 0.584426 0.640825 0.649811
O O7 0.546683 0.802905 0.582103
O O8 0.500000 0.690501 0.000000
O O9 0.358004 0.500000 0.333540
O O10 0.854053 0.500000 0.031736
O O11 0.906652 0.639562 0.088777
O O12 0.812592 0.648218 0.320590
O O13 0.840781 0.647869 0.770663
O O14 0.433796 0.000000 0.364757
O O15 0.500000 0.902055 0.000000
O O16 0.796560 0.500000 0.635627
#
# Coordination Sequence:
#
# PCOD9196634 Si02
#       6
#     8   8   8   8   8   8
#     4   9  17  31  54  82 112 148 187 226 269 322
#     4  11  24  40  59  83 112 147 184 229 283 331
#     4  10  20  35  57  84 113 148 187 225 270 325
#     4   9  17  29  49  77 107 140 178 224 274 321
#     4   9  20  39  61  84 111 145 187 232 279 333
#     4   9  16  28  49  79 110 141 181 222 267 324
#
# _framework density 25.406901999999999
#
# number of rings (size 3 to 8) (size 9 to 14) (size 15 to 20)
#    0.000    2.500    0.000    2.000    0.000    7.667 
#    0.000    5.000    0.000    6.000    0.000    0.000 
#    0.000    0.000    0.000    0.000    0.000    0.000 
#
# Total GULP energy -134373.282475 kJ/mol
# GULP energy per Si atom -5598.886770 kJ/mol
# Density = 2.534907 g / cm^3
# Si number density = 25.406902 Si / 1000 Ang^3
#
#
#
# Elastic Constant Matrix: (Units=GPa)
#
#
# Indices 1 2 3 4 5 6 
#
# 1 89.0945 -11.7835 6.0122 0.0000 -3.4746 0.0000
# 2 -11.7835 62.1934 2.2443 0.0000 6.5864 0.0000
# 3 6.0122 2.2443 91.2171 0.0000 -1.5933 0.0000
# 4 0.0000 0.0000 0.0000 11.6287 0.0000 13.0661
# 5 -3.4746 6.5864 -1.5933 0.0000 43.5851 0.0000
# 6 0.0000 0.0000 0.0000 13.0661 0.0000 20.1694
#
#
#
# Elastic Compliance Matrix: (Units=1/GPa)
#
#
# Indices 1 2 3 4 5 6 
#
# 1 0.011587 0.002164 -0.000807 0.000000 0.000567 0.000000
# 2 0.002164 0.016763 -0.000597 0.000000 -0.002382 0.000000
# 3 -0.000807 -0.000597 0.011038 0.000000 0.000429 0.000000
# 4 0.000000 0.000000 0.000000 0.316029 0.000000 -0.204729
# 5 0.000567 -0.002382 0.000429 0.000000 0.023365 0.000000
# 6 0.000000 0.000000 0.000000 -0.204729 0.000000 0.182207
#
#
# Mechanical properties :
#
#
# Convention : Reuss Voigt Hill
#
# Bulk Modulus (GPa) = 24.44443 26.16124 25.30284
# Shear Modulus (GPa) = 8.72443 31.47876 20.10160
#
# Velocity S-wave (km/s) = 1.85508 3.52374 2.81586
# Velocity P-wave (km/s) = 3.77234 5.18410 4.53351
#
# Compressibility (1/GPa) = 0.04090911
#
# Stress axis : x y z
#
# Youngs Moduli (GPa) = 86.30459 59.65598 90.59420
#
# Poissons Ratio (x) = -0.12912 0.07311
# Poissons Ratio (y) = -0.18680 0.05406
# Poissons Ratio (z) = 0.06965 0.03560
#
# Static dielectric constant tensor:
#      x y z
#    x 1.967590 0.000000 -0.003340 
#    y 0.000000 2.078510 0.000000 
#    z -0.003340 0.000000 1.945100 
# 
# From -- ./inp_files/31400.got.cif
#   From: 2010.05.17/outbox.cif.g08.bks.cpg/sg12_16_cif.got.tgz:31400.got - 2010.06.03 13:09:07.
