data_PCOD9196179
_publ_section_title
;
Structure prediction by ZEFSAII (Michael W. Deem and Ramdas Pophale) SiO2 
 PCOD9196179
Probable space group: C 2/M
;
_chemical_formula_sum "Si O2"
_cell_formula_units_Z 64
_cell_length_a 15.204091
_cell_length_b 7.666723
_cell_length_c 31.189732
_cell_angle_alpha 90.000000
_cell_angle_beta 125.366409
_cell_angle_gamma 90.000000
_cell_volume 2964.752282
_symmetry_space_group_name_H-M "C 2/M"
_symmetry_group_IT_number 12
_symmetry_cell_setting 'monoclinic'
loop_
_space_group_symop_operation_xyz
x,y,z
-x,y,-z
-x,-y,-z
x,-y,z
1/2+x,1/2+y,z
1/2-x,1/2+y,-z
1/2-x,1/2-y,-z
1/2+x,1/2-y,z
loop_
_atom_site_type_symbol
_atom_site_label
_atom_site_fract_x
_atom_site_fract_y
_atom_site_fract_z
Si Si1 0.536649 0.207616 0.637158
Si Si2 0.408303 0.289705 0.176041
Si Si3 0.933312 0.701435 0.045841
Si Si4 0.295504 0.209892 0.559869
Si Si5 0.253879 0.787176 0.938099
Si Si6 0.091560 0.793240 0.162067
Si Si7 0.402668 0.710937 0.441636
Si Si8 0.331729 0.207715 0.245113
O O1 0.415076 0.279833 0.601463
O O2 0.583228 0.233868 0.603063
O O3 0.611435 0.279022 0.696202
O O4 0.527949 0.000000 0.642129
O O5 0.410747 0.500000 0.175398
O O6 0.295956 0.234610 0.121413
O O7 0.507106 0.224981 0.174249
O O8 0.405690 0.234838 0.224301
O O9 0.956817 0.500000 0.044050
O O10 0.836470 0.721618 0.053599
O O11 0.037246 0.770977 0.099990
O O12 0.872378 0.773839 0.986394
O O13 0.250000 0.250000 0.500000
O O14 0.208883 0.273612 0.569689
O O15 0.299992 0.000000 0.564178
O O16 0.253931 0.000000 0.940538
O O17 0.211738 0.720527 0.201635
O O18 0.096657 0.000000 0.170425
O O19 0.500000 0.771158 0.500000
O O20 0.404352 0.500000 0.443114
O O21 0.319450 0.000000 0.247332
#
# Coordination Sequence:
#
# PCOD9196179 Si02
#       8
#     8   8   8   8   8   8   8   8
#     4  10  22  38  56  80 109 142 180 221 263 310
#     4   9  18  34  55  76 100 137 179 217 264 320
#     4   9  15  25  47  77 103 132 176 222 264 318
#     4  10  20  35  56  82 112 142 172 210 257 309
#     4   8  15  28  46  72 107 140 169 213 274 329
#     4   9  19  36  54  72 104 144 176 216 273 326
#     4  10  20  35  56  83 114 144 173 209 259 315
#     4  10  22  39  55  75 106 141 180 224 267 312
#
# _framework density 21.586964999999999
#
# number of rings (size 3 to 8) (size 9 to 14) (size 15 to 20)
#    0.000    2.625    1.250    1.125    0.000    5.250 
#    0.000    0.625    0.000    3.750    0.000    0.000 
#    0.000    0.000    0.000    0.000    0.000    0.000 
#
# Total GULP energy -178534.509062 kJ/mol
# GULP energy per Si atom -5579.203408 kJ/mol
# Density = 2.153783 g / cm^3
# Si number density = 21.586965 Si / 1000 Ang^3
#
#
#
# Elastic Constant Matrix: (Units=GPa)
#
#
# Indices 1 2 3 4 5 6 
#
# 1 90.2758 3.1185 48.1013 0.0000 10.4657 0.0000
# 2 3.1185 37.4369 7.9781 0.0000 7.1111 0.0000
# 3 48.1013 7.9781 129.4230 0.0000 -1.8048 0.0000
# 4 0.0000 0.0000 0.0000 20.8547 0.0000 -5.7281
# 5 10.4657 7.1111 -1.8048 0.0000 31.6133 0.0000
# 6 0.0000 0.0000 0.0000 -5.7281 0.0000 10.2342
#
#
#
# Elastic Compliance Matrix: (Units=1/GPa)
#
#
# Indices 1 2 3 4 5 6 
#
# 1 0.014639 0.000993 -0.005577 0.000000 -0.005388 0.000000
# 2 0.000993 0.028401 -0.002215 0.000000 -0.006844 0.000000
# 3 -0.005577 -0.002215 0.009977 0.000000 0.002914 0.000000
# 4 0.000000 0.000000 0.000000 0.056662 0.000000 0.031714
# 5 -0.005388 -0.006844 0.002914 0.000000 0.035122 0.000000
# 6 0.000000 0.000000 0.000000 0.031714 0.000000 0.115462
#
#
# Mechanical properties :
#
#
# Convention : Reuss Voigt Hill
#
# Bulk Modulus (GPa) = 25.36953 41.72571 33.54762
# Shear Modulus (GPa) = 17.42157 25.73627 21.57892
#
# Velocity S-wave (km/s) = 2.84393 3.45659 3.16512
# Velocity P-wave (km/s) = 4.74991 5.94153 5.37882
#
# Compressibility (1/GPa) = 0.03941737
#
# Stress axis : x y z
#
# Youngs Moduli (GPa) = 68.31006 35.21014 100.23493
#
# Poissons Ratio (x) = -0.03495 0.55902
# Poissons Ratio (y) = -0.06780 0.22202
# Poissons Ratio (z) = 0.38097 0.07799
#
# Static dielectric constant tensor:
#      x y z
#    x 1.784210 0.000000 0.026970 
#    y 0.000000 1.842730 0.000000 
#    z 0.026970 0.000000 1.794610 
# 
# From -- ./inp_files/375686.got.cif
#   From: 2010.05.17/outbox.cif.g08.bks.cpg/sg12_188_cif.got.tgz:375686.got - 2010.06.03 13:09:07.
