data_PCOD9196774
_publ_section_title
;
Structure prediction by ZEFSAII (Michael W. Deem and Ramdas Pophale) SiO2 
 PCOD9196774
Probable space group: C 2/M
;
_chemical_formula_sum "Si O2"
_cell_formula_units_Z 56
_cell_length_a 29.132419
_cell_length_b 9.047095
_cell_length_c 11.439187
_cell_angle_alpha 90.000000
_cell_angle_beta 74.423249
_cell_angle_gamma 90.000000
_cell_volume 2904.220707
_symmetry_space_group_name_H-M "C 2/M"
_symmetry_group_IT_number 12
_symmetry_cell_setting 'monoclinic'
loop_
_space_group_symop_operation_xyz
x,y,z
-x,y,-z
-x,-y,-z
x,-y,z
1/2+x,1/2+y,z
1/2-x,1/2+y,-z
1/2-x,1/2-y,-z
1/2+x,1/2-y,z
loop_
_atom_site_type_symbol
_atom_site_label
_atom_site_fract_x
_atom_site_fract_y
_atom_site_fract_z
Si Si1 0.728605 0.676458 0.129286
Si Si2 0.055612 0.675428 0.218621
Si Si3 0.403944 0.675769 0.042268
Si Si4 0.645330 0.674637 0.572770
Si Si5 0.184568 0.675870 0.766748
Si Si6 0.458049 0.672086 0.242654
Si Si7 0.632544 0.678253 0.314186
O O1 0.727883 0.500000 0.112772
O O2 0.764020 0.707166 0.213040
O O3 0.675215 0.723175 0.198012
O O4 0.750000 0.750000 0.000000
O O5 0.059750 0.500000 0.213933
O O6 0.084396 0.743564 0.307421
O O7 0.000849 0.725968 0.253963
O O8 0.079384 0.745576 0.086392
O O9 0.398307 0.500000 0.027385
O O10 0.355212 0.743234 0.126658
O O11 0.443136 0.696864 0.117912
O O12 0.656194 0.500000 0.578166
O O13 0.677612 0.765180 0.640460
O O14 0.590594 0.694594 0.652055
O O15 0.648012 0.714955 0.435442
O O16 0.176400 0.500000 0.776193
O O17 0.472474 0.500000 0.244584
O O18 0.626759 0.500000 0.312428
#
# Coordination Sequence:
#
# PCOD9196774 Si02
#       7
#     8   8   8   8   8   8   8
#     4  10  22  38  58  85 114 146 183 224 274 330
#     4  12  24  35  52  82 115 146 183 231 288 334
#     4  10  20  36  58  83 111 147 190 228 269 330
#     4   9  20  39  61  83 107 144 193 231 266 324
#     4  10  20  35  57  86 118 146 177 227 285 330
#     4   9  19  36  57  80 107 143 186 229 273 329
#     4  10  22  41  60  78 108 150 193 231 267 323
#
# _framework density 19.282281999999999
#
# number of rings (size 3 to 8) (size 9 to 14) (size 15 to 20)
#    0.000    2.000    0.000    4.286    0.000   10.286 
#    0.000    2.857    0.000    0.000    0.000    0.000 
#    0.000    0.000    0.000    0.000    0.000    0.000 
#
# Total GULP energy -156469.647556 kJ/mol
# GULP energy per Si atom -5588.201698 kJ/mol
# Density = 1.923839 g / cm^3
# Si number density = 19.282282 Si / 1000 Ang^3
#
#
#
# Elastic Constant Matrix: (Units=GPa)
#
#
# Indices 1 2 3 4 5 6 
#
# 1 70.1944 43.2094 0.3602 0.0000 14.7179 0.0000
# 2 43.2094 65.1748 20.2935 0.0000 13.7641 0.0000
# 3 0.3602 20.2935 60.9084 0.0000 16.4264 0.0000
# 4 0.0000 0.0000 0.0000 26.4764 0.0000 6.2351
# 5 14.7179 13.7641 16.4264 0.0000 14.3481 0.0000
# 6 0.0000 0.0000 0.0000 6.2351 0.0000 29.0190
#
#
#
# Elastic Compliance Matrix: (Units=1/GPa)
#
#
# Indices 1 2 3 4 5 6 
#
# 1 0.033187 -0.019898 0.015141 0.000000 -0.032289 0.000000
# 2 -0.019898 0.031354 -0.011171 0.000000 0.003122 0.000000
# 3 0.015141 -0.011171 0.030885 0.000000 -0.040174 0.000000
# 4 0.000000 0.000000 0.000000 0.039782 0.000000 -0.008548
# 5 -0.032289 0.003122 -0.040174 0.000000 0.145816 0.000000
# 6 0.000000 0.000000 0.000000 -0.008548 0.000000 0.036297
#
#
# Mechanical properties :
#
#
# Convention : Reuss Voigt Hill
#
# Bulk Modulus (GPa) = 15.73022 36.00043 25.86533
# Shear Modulus (GPa) = 13.50011 22.79632 18.14822
#
# Velocity S-wave (km/s) = 2.64887 3.44210 3.07120
# Velocity P-wave (km/s) = 4.18699 5.87437 5.10094
#
# Compressibility (1/GPa) = 0.06357189
#
# Stress axis : x y z
#
# Youngs Moduli (GPa) = 30.13213 31.89365 32.37808
#
# Poissons Ratio (x) = 0.63462 -0.49025
# Poissons Ratio (y) = 0.59957 0.36169
# Poissons Ratio (z) = -0.45624 0.35628
#
# Static dielectric constant tensor:
#      x y z
#    x 1.663250 0.000000 0.003840 
#    y 0.000000 1.641730 0.000000 
#    z 0.003840 0.000000 1.667350 
# 
# From -- ./inp_files/180852.got.cif
#   From: 2010.05.17/outbox.cif.g08.bks.cpg/sg12_91_cif.got.tgz:180852.got - 2010.06.03 13:09:07.
