data_PCOD9196941
_publ_section_title
;
Structure prediction by ZEFSAII (Michael W. Deem and Ramdas Pophale) SiO2 
 PCOD9196941
Probable space group: C 2/M
;
_chemical_formula_sum "Si O2"
_cell_formula_units_Z 64
_cell_length_a 33.619239
_cell_length_b 11.197269
_cell_length_c 19.869289
_cell_angle_alpha 90.000000
_cell_angle_beta 152.310762
_cell_angle_gamma 90.000000
_cell_volume 3475.620168
_symmetry_space_group_name_H-M "C 2/M"
_symmetry_group_IT_number 12
_symmetry_cell_setting 'monoclinic'
loop_
_space_group_symop_operation_xyz
x,y,z
-x,y,-z
-x,-y,-z
x,-y,z
1/2+x,1/2+y,z
1/2-x,1/2+y,-z
1/2-x,1/2-y,-z
1/2+x,1/2-y,z
loop_
_atom_site_type_symbol
_atom_site_label
_atom_site_fract_x
_atom_site_fract_y
_atom_site_fract_z
Si Si1 0.795452 0.294344 0.968168
Si Si2 0.192503 0.866920 0.689070
Si Si3 0.145662 0.630620 0.801424
Si Si4 0.614484 0.358026 0.358966
Si Si5 0.459685 0.362527 0.217769
Si Si6 0.285237 0.142664 0.684899
Si Si7 0.011745 0.791376 0.443221
Si Si8 0.095071 0.861725 0.172027
O O1 0.761868 0.359683 0.852014
O O2 0.712326 0.222916 0.869634
O O3 0.830560 0.369268 0.083782
O O4 0.873794 0.206380 0.070247
O O5 0.239295 0.850908 0.688550
O O6 0.112906 0.778797 0.582178
O O7 0.152926 0.000000 0.629879
O O8 0.158885 0.500000 0.792459
O O9 0.049052 0.675186 0.645936
O O10 0.615903 0.500000 0.374029
O O11 0.541834 0.310708 0.301014
O O12 0.710638 0.320978 0.520571
O O13 0.592472 0.339734 0.248427
O O14 0.449233 0.500000 0.183101
O O15 0.475524 0.355583 0.321934
O O16 0.354971 0.247855 0.783981
O O17 0.310280 0.000000 0.712553
O O18 0.000000 0.848329 0.500000
O O19 0.129305 0.000000 0.213279
O O20 0.000000 0.862207 0.000000
#
# Coordination Sequence:
#
# PCOD9196941 Si02
#       8
#     8   8   8   8   8   8   8   8
#     4  10  21  36  54  80 107 147 194 233 289 347
#     4  11  22  38  58  83 112 144 189 245 293 336
#     4  10  21  38  53  74 111 150 191 239 291 346
#     4   9  18  36  60  85 115 154 190 236 288 338
#     4  10  20  35  58  84 113 149 192 236 282 340
#     4  10  21  39  64  88 118 153 193 243 291 344
#     4  11  21  37  55  83 110 146 194 240 285 340
#     4  10  22  39  62  91 123 155 189 234 290 351
#
# _framework density 18.413979999999999
#
# number of rings (size 3 to 8) (size 9 to 14) (size 15 to 20)
#    0.000    1.875    2.500    1.500    1.750    1.500 
#    0.000    1.250    0.000    0.750    0.000    0.000 
#    0.000    0.000    0.000    0.000    0.000    0.000 
#
# Total GULP energy -178227.810628 kJ/mol
# GULP energy per Si atom -5569.619082 kJ/mol
# Density = 1.837207 g / cm^3
# Si number density = 18.413980 Si / 1000 Ang^3
#
#
#
# Elastic Constant Matrix: (Units=GPa)
#
#
# Indices 1 2 3 4 5 6 
#
# 1 62.5753 32.3006 32.8742 0.0000 0.2576 0.0000
# 2 32.3006 76.8718 33.5970 0.0000 7.2415 0.0000
# 3 32.8742 33.5970 106.8252 0.0000 -6.6915 0.0000
# 4 0.0000 0.0000 0.0000 19.6901 0.0000 7.0364
# 5 0.2576 7.2415 -6.6915 0.0000 24.1762 0.0000
# 6 0.0000 0.0000 0.0000 7.0364 0.0000 37.6388
#
#
#
# Elastic Compliance Matrix: (Units=1/GPa)
#
#
# Indices 1 2 3 4 5 6 
#
# 1 0.022145 -0.007443 -0.004426 0.000000 0.000768 0.000000
# 2 -0.007443 0.018469 -0.003928 0.000000 -0.006540 0.000000
# 3 -0.004426 -0.003928 0.012247 0.000000 0.004613 0.000000
# 4 0.000000 0.000000 0.000000 0.054423 0.000000 -0.010174
# 5 0.000768 -0.006540 0.004613 0.000000 0.044591 0.000000
# 6 0.000000 0.000000 0.000000 -0.010174 0.000000 0.028470
#
#
# Mechanical properties :
#
#
# Convention : Reuss Voigt Hill
#
# Bulk Modulus (GPa) = 47.01923 49.31286 48.16605
# Shear Modulus (GPa) = 22.82827 26.13438 24.48132
#
# Velocity S-wave (km/s) = 3.52479 3.77140 3.65018
# Velocity P-wave (km/s) = 6.49273 6.76779 6.63168
#
# Compressibility (1/GPa) = 0.02126789
#
# Stress axis : x y z
#
# Youngs Moduli (GPa) = 45.15765 54.14548 81.65060
#
# Poissons Ratio (x) = 0.40300 0.36137
# Poissons Ratio (y) = 0.33611 0.32070
# Poissons Ratio (z) = 0.19986 0.21266
#
# Static dielectric constant tensor:
#      x y z
#    x 1.641890 0.000000 -0.009030 
#    y 0.000000 1.665090 0.000000 
#    z -0.009030 0.000000 1.642300 
# 
# From -- ./inp_files/296497.got.cif
#   From: 2010.05.17/outbox.cif.g08.bks.cpg/sg12_149_cif.got.tgz:296497.got - 2010.06.03 13:09:07.
