data_PCOD9196772
_publ_section_title
;
Structure prediction by ZEFSAII (Michael W. Deem and Ramdas Pophale) SiO2 
 PCOD9196772
Probable space group: C 2/M
;
_chemical_formula_sum "Si O2"
_cell_formula_units_Z 64
_cell_length_a 29.877278
_cell_length_b 15.061517
_cell_length_c 9.845381
_cell_angle_alpha 90.000000
_cell_angle_beta 131.860084
_cell_angle_gamma 90.000000
_cell_volume 3299.653279
_symmetry_space_group_name_H-M "C 2/M"
_symmetry_group_IT_number 12
_symmetry_cell_setting 'monoclinic'
loop_
_space_group_symop_operation_xyz
x,y,z
-x,y,-z
-x,-y,-z
x,-y,z
1/2+x,1/2+y,z
1/2-x,1/2+y,-z
1/2-x,1/2-y,-z
1/2+x,1/2-y,z
loop_
_atom_site_type_symbol
_atom_site_label
_atom_site_fract_x
_atom_site_fract_y
_atom_site_fract_z
Si Si1 0.133512 0.657675 0.506259
Si Si2 0.290236 0.396846 0.224094
Si Si3 0.965102 0.784735 0.216325
Si Si4 0.089033 0.809912 0.594139
Si Si5 0.302745 0.298546 0.525855
Si Si6 0.741304 0.396161 0.127239
Si Si7 0.996018 0.400590 0.829611
Si Si8 0.136296 0.105181 0.114852
O O1 0.118730 0.718126 0.606313
O O2 0.147303 0.725736 0.412150
O O3 0.196588 0.611939 0.666516
O O4 0.074462 0.602625 0.353422
O O5 0.276577 0.500000 0.222738
O O6 0.360427 0.384006 0.325344
O O7 0.279825 0.339440 0.337637
O O8 0.255788 0.361464 0.020820
O O9 0.933668 0.797627 0.299200
O O10 0.032127 0.821991 0.378979
O O11 0.972801 0.682398 0.184026
O O12 0.924707 0.840417 0.030880
O O13 0.250000 0.250000 0.500000
O O14 0.333279 0.373157 0.679829
O O15 0.728220 0.500000 0.082517
O O16 0.685646 0.361719 0.103547
O O17 0.019670 0.500000 0.845593
O O18 0.000000 0.387439 0.000000
O O19 0.126549 0.000000 0.079185
#
# Coordination Sequence:
#
# PCOD9196772 Si02
#       8
#     8   8   8   8   8   8   8   8
#     4  10  20  37  59  85 117 157 200 249 305 367
#     4  10  21  38  57  84 122 160 203 256 308 365
#     4  10  20  38  59  89 121 154 204 255 302 364
#     4   9  20  35  59  86 114 156 202 246 308 362
#     4  11  22  37  57  85 120 165 205 248 308 368
#     4  10  20  35  57  86 117 153 199 247 302 368
#     4  10  21  39  62  86 118 161 202 251 308 364
#     4  11  22  37  59  90 123 159 202 251 305 365
#
# _framework density 19.395976999999998
#
# number of rings (size 3 to 8) (size 9 to 14) (size 15 to 20)
#    0.000    1.875    2.500    1.500    0.000    3.500 
#    0.000    6.875    0.000   11.625    0.000    0.000 
#    0.000    0.000    0.000    0.000    0.000    0.000 
#
# Total GULP energy -178446.124900 kJ/mol
# GULP energy per Si atom -5576.441403 kJ/mol
# Density = 1.935183 g / cm^3
# Si number density = 19.395977 Si / 1000 Ang^3
#
#
#
# Elastic Constant Matrix: (Units=GPa)
#
#
# Indices 1 2 3 4 5 6 
#
# 1 58.9864 21.4127 17.6857 0.0000 -2.3593 0.0000
# 2 21.4127 78.6389 30.3997 0.0000 1.1623 0.0000
# 3 17.6857 30.3997 100.8877 0.0000 0.6997 0.0000
# 4 0.0000 0.0000 0.0000 26.9249 0.0000 4.0746
# 5 -2.3593 1.1623 0.6997 0.0000 29.6657 0.0000
# 6 0.0000 0.0000 0.0000 4.0746 0.0000 18.3888
#
#
#
# Elastic Compliance Matrix: (Units=1/GPa)
#
#
# Indices 1 2 3 4 5 6 
#
# 1 0.019262 -0.004483 -0.002038 0.000000 0.001756 0.000000
# 2 -0.004483 0.015443 -0.003861 0.000000 -0.000870 0.000000
# 3 -0.002038 -0.003861 0.011435 0.000000 -0.000281 0.000000
# 4 0.000000 0.000000 0.000000 0.038429 0.000000 -0.008515
# 5 0.001756 -0.000870 -0.000281 0.000000 0.033889 0.000000
# 6 0.000000 0.000000 0.000000 -0.008515 0.000000 0.056268
#
#
# Mechanical properties :
#
#
# Convention : Reuss Voigt Hill
#
# Bulk Modulus (GPa) = 39.40949 41.94546 40.67747
# Shear Modulus (GPa) = 24.51610 26.26351 25.38981
#
# Velocity S-wave (km/s) = 3.55910 3.68376 3.62197
# Velocity P-wave (km/s) = 6.10345 6.30605 6.20558
#
# Compressibility (1/GPa) = 0.02537460
#
# Stress axis : x y z
#
# Youngs Moduli (GPa) = 51.91659 64.75610 87.45301
#
# Poissons Ratio (x) = 0.29030 0.17823
# Poissons Ratio (y) = 0.23274 0.33768
# Poissons Ratio (z) = 0.10580 0.25004
#
# Static dielectric constant tensor:
#      x y z
#    x 1.685630 0.000000 -0.011990 
#    y 0.000000 1.675230 0.000000 
#    z -0.011990 0.000000 1.701870 
# 
# From -- ./inp_files/112047.got.cif
#   From: 2010.05.17/outbox.cif.g08.bks.cpg/sg12_57_cif.got.tgz:112047.got - 2010.06.03 13:09:07.
