data_PCOD9196099
_publ_section_title
;
Structure prediction by ZEFSAII (Michael W. Deem and Ramdas Pophale) SiO2 
 PCOD9196099
Probable space group: C 2/M
;
_chemical_formula_sum "Si O2"
_cell_formula_units_Z 32
_cell_length_a 18.931994
_cell_length_b 8.540853
_cell_length_c 11.561291
_cell_angle_alpha 90.000000
_cell_angle_beta 66.087840
_cell_angle_gamma 90.000000
_cell_volume 1708.952255
_symmetry_space_group_name_H-M "C 2/M"
_symmetry_group_IT_number 12
_symmetry_cell_setting 'monoclinic'
loop_
_space_group_symop_operation_xyz
x,y,z
-x,y,-z
-x,-y,-z
x,-y,z
1/2+x,1/2+y,z
1/2-x,1/2+y,-z
1/2-x,1/2-y,-z
1/2+x,1/2-y,z
loop_
_atom_site_type_symbol
_atom_site_label
_atom_site_fract_x
_atom_site_fract_y
_atom_site_fract_z
Si Si1 0.822838 0.187330 0.880469
Si Si2 0.296526 0.187051 0.642688
Si Si3 0.134616 0.189131 0.633231
Si Si4 0.985928 0.191227 0.877540
O O1 0.816930 0.239903 0.751821
O O2 0.903233 0.242714 0.883977
O O3 0.822038 0.000000 0.886521
O O4 0.750000 0.250000 0.000000
O O5 0.209896 0.233456 0.659238
O O6 0.352552 0.241666 0.502390
O O7 0.298178 0.000000 0.651265
O O8 0.056578 0.240137 0.748503
O O9 0.134224 0.000000 0.624734
O O10 0.986080 0.000000 0.877954
O O11 0.000000 0.241982 0.000000
#
# Coordination Sequence:
#
# PCOD9196099 Si02
#       4
#     8   8   8   8
#     4  11  22  36  56  80 107 139 177 221 267 316
#     4  10  20  35  56  81 110 141 174 217 267 316
#     4   9  18  35  58  80 105 141 183 220 256 307
#     4   9  18  34  56  79 103 137 181 222 259 308
#
# _framework density 18.724924000000001
#
# number of rings (size 3 to 8) (size 9 to 14) (size 15 to 20)
#    0.000    2.250    0.000    3.000    0.000    6.000 
#    0.000    7.500    0.000    5.250    0.000    0.000 
#    0.000    0.000    0.000    0.000    0.000    0.000 
#
# Total GULP energy -89351.944069 kJ/mol
# GULP energy per Si atom -5584.496504 kJ/mol
# Density = 1.868231 g / cm^3
# Si number density = 18.724924 Si / 1000 Ang^3
#
#
#
# Elastic Constant Matrix: (Units=GPa)
#
#
# Indices 1 2 3 4 5 6 
#
# 1 158.3379 32.7034 138.0663 0.0000 -0.9277 0.0000
# 2 32.7034 23.5765 36.3458 0.0000 1.9301 0.0000
# 3 138.0663 36.3458 197.4687 0.0000 -3.9930 0.0000
# 4 0.0000 0.0000 0.0000 34.2019 0.0000 0.6062
# 5 -0.9277 1.9301 -3.9930 0.0000 41.7788 0.0000
# 6 0.0000 0.0000 0.0000 0.6062 0.0000 23.7313
#
#
#
# Elastic Compliance Matrix: (Units=1/GPa)
#
#
# Indices 1 2 3 4 5 6 
#
# 1 0.017052 -0.007316 -0.010582 0.000000 -0.000295 0.000000
# 2 -0.007316 0.062960 -0.006548 0.000000 -0.003697 0.000000
# 3 -0.010582 -0.006548 0.013696 0.000000 0.001376 0.000000
# 4 0.000000 0.000000 0.000000 0.029251 0.000000 -0.000747
# 5 -0.000295 -0.003697 0.001376 0.000000 0.024231 0.000000
# 6 0.000000 0.000000 0.000000 -0.000747 0.000000 0.042157
#
#
# Mechanical properties :
#
#
# Convention : Reuss Voigt Hill
#
# Bulk Modulus (GPa) = 22.31323 88.17934 55.24629
# Shear Modulus (GPa) = 19.74893 31.42691 25.58792
#
# Velocity S-wave (km/s) = 3.25112 4.10121 3.70065
# Velocity P-wave (km/s) = 5.10247 8.34390 6.91578
#
# Compressibility (1/GPa) = 0.04481645
#
# Stress axis : x y z
#
# Youngs Moduli (GPa) = 58.64428 15.88307 73.01557
#
# Poissons Ratio (x) = 0.11620 0.77264
# Poissons Ratio (y) = 0.42904 0.47810
# Poissons Ratio (z) = 0.62056 0.10400
#
# Static dielectric constant tensor:
#      x y z
#    x 1.638670 0.000000 -0.007960 
#    y 0.000000 1.644830 0.000000 
#    z -0.007960 0.000000 1.610430 
# 
# From -- ./inp_files/56783.got.cif
#   From: 2010.05.17/outbox.cif.g08.bks.cpg/sg12_29_cif.got.tgz:56783.got - 2010.06.03 13:09:07.
