data_PCOD9196493
_publ_section_title
;
Structure prediction by ZEFSAII (Michael W. Deem and Ramdas Pophale) SiO2 
 PCOD9196493
Probable space group: C 2/M
;
_chemical_formula_sum "Si O2"
_cell_formula_units_Z 56
_cell_length_a 8.128864
_cell_length_b 12.330037
_cell_length_c 30.283633
_cell_angle_alpha 90.000000
_cell_angle_beta 58.513879
_cell_angle_gamma 90.000000
_cell_volume 2588.406300
_symmetry_space_group_name_H-M "C 2/M"
_symmetry_group_IT_number 12
_symmetry_cell_setting 'monoclinic'
loop_
_space_group_symop_operation_xyz
x,y,z
-x,y,-z
-x,-y,-z
x,-y,z
1/2+x,1/2+y,z
1/2-x,1/2+y,-z
1/2-x,1/2-y,-z
1/2+x,1/2-y,z
loop_
_atom_site_type_symbol
_atom_site_label
_atom_site_fract_x
_atom_site_fract_y
_atom_site_fract_z
Si Si1 0.508397 0.157682 0.566975
Si Si2 0.486159 0.115581 0.669748
Si Si3 0.668059 0.384959 0.551697
Si Si4 0.290588 0.691184 0.801403
Si Si5 0.222528 0.626091 0.983237
Si Si6 0.017285 0.118252 0.140437
Si Si7 0.188277 0.311695 0.723727
O O1 0.549823 0.117769 0.610080
O O2 0.524951 0.286961 0.565447
O O3 0.673039 0.120627 0.509751
O O4 0.299641 0.126409 0.577188
O O5 0.343080 0.216863 0.694230
O O6 0.652088 0.126512 0.683235
O O7 0.384867 0.000000 0.692226
O O8 0.568615 0.500000 0.565108
O O9 0.335874 0.624804 0.838877
O O10 0.241476 0.630815 0.762395
O O11 0.485848 0.755186 0.762943
O O12 0.129451 0.781962 0.834369
O O13 0.254393 0.500000 0.999430
O O14 0.363752 0.626700 0.921314
O O15 0.250000 0.750000 0.000000
O O16 0.000000 0.624319 0.000000
O O17 0.918069 0.000000 0.155734
#
# Coordination Sequence:
#
# PCOD9196493 Si02
#       7
#     8   8   8   8   8   8   8
#     4  10  20  35  57  82 107 141 185 220 264 337
#     4  11  21  37  57  78 110 145 177 224 282 335
#     4  10  20  37  56  78 110 143 177 225 272 314
#     4   9  19  37  56  80 111 140 187 239 273 329
#     4  10  21  37  58  88 125 161 199 242 291 347
#     4  10  20  36  60  83 111 154 193 233 285 333
#     4   9  21  36  54  82 108 138 184 228 278 342
#
# _framework density 21.634934999999999
#
# number of rings (size 3 to 8) (size 9 to 14) (size 15 to 20)
#    0.000    2.143    0.000    3.429    0.000    6.000 
#    0.000   14.286    0.000    0.000    0.000    0.000 
#    0.000    0.000    0.000    0.000    0.000    0.000 
#
# Total GULP energy -156057.961602 kJ/mol
# GULP energy per Si atom -5573.498629 kJ/mol
# Density = 2.158569 g / cm^3
# Si number density = 21.634935 Si / 1000 Ang^3
#
#
#
# Elastic Constant Matrix: (Units=GPa)
#
#
# Indices 1 2 3 4 5 6 
#
# 1 45.8229 22.8272 16.7848 0.0000 11.0877 0.0000
# 2 22.8272 170.9071 25.6158 0.0000 11.6527 0.0000
# 3 16.7848 25.6158 65.6971 0.0000 23.4114 0.0001
# 4 0.0000 0.0000 0.0000 152.9647 0.0000 159.3918
# 5 11.0877 11.6527 23.4114 0.0000 30.0641 0.0000
# 6 0.0000 0.0000 0.0001 159.3918 0.0000 180.6797
#
#
#
# Elastic Compliance Matrix: (Units=1/GPa)
#
#
# Indices 1 2 3 4 5 6 
#
# 1 0.025772 -0.002517 -0.003548 0.000000 -0.005766 0.000000
# 2 -0.002517 0.006472 -0.001823 0.000000 -0.000160 0.000000
# 3 -0.003548 -0.001823 0.022312 0.000000 -0.015360 0.000000
# 4 0.000000 0.000000 0.000000 0.080954 0.000000 -0.071416
# 5 -0.005766 -0.000160 -0.015360 0.000000 0.047412 0.000000
# 6 0.000000 0.000000 0.000000 -0.071416 0.000000 0.068536
#
#
# Mechanical properties :
#
#
# Convention : Reuss Voigt Hill
#
# Bulk Modulus (GPa) = 25.78728 45.87587 35.83158
# Shear Modulus (GPa) = 17.84687 87.22165 52.53426
#
# Velocity S-wave (km/s) = 2.87524 6.35631 4.93304
# Velocity P-wave (km/s) = 4.79248 8.66723 7.00317
#
# Compressibility (1/GPa) = 0.03877880
#
# Stress axis : x y z
#
# Youngs Moduli (GPa) = 38.80170 154.52306 44.81858
#
# Poissons Ratio (x) = 0.38898 0.15902
# Poissons Ratio (y) = 0.09768 0.08171
# Poissons Ratio (z) = 0.13767 0.28170
#
# Static dielectric constant tensor:
#      x y z
#    x 1.775100 0.000000 0.053990 
#    y 0.000000 1.837100 0.000000 
#    z 0.053990 0.000000 1.784700 
# 
# From -- ./inp_files/372092.got.cif
#   From: 2010.05.17/outbox.cif.g08.bks.cpg/sg12_187_cif.got.tgz:372092.got - 2010.06.03 13:09:07.
