data_PCOD9196797
_publ_section_title
;
Structure prediction by ZEFSAII (Michael W. Deem and Ramdas Pophale) SiO2 
 PCOD9196797
Probable space group: C 2/M
;
_chemical_formula_sum "Si O2"
_cell_formula_units_Z 40
_cell_length_a 16.190740
_cell_length_b 8.702600
_cell_length_c 31.882996
_cell_angle_alpha 90.000000
_cell_angle_beta 152.514012
_cell_angle_gamma 90.000000
_cell_volume 2073.367844
_symmetry_space_group_name_H-M "C 2/M"
_symmetry_group_IT_number 12
_symmetry_cell_setting 'monoclinic'
loop_
_space_group_symop_operation_xyz
x,y,z
-x,y,-z
-x,-y,-z
x,-y,z
1/2+x,1/2+y,z
1/2-x,1/2+y,-z
1/2-x,1/2-y,-z
1/2+x,1/2-y,z
loop_
_atom_site_type_symbol
_atom_site_label
_atom_site_fract_x
_atom_site_fract_y
_atom_site_fract_z
Si Si1 0.429753 0.315798 0.601056
Si Si2 0.054151 0.682734 0.904793
Si Si3 0.713139 0.812464 0.286974
Si Si4 0.962799 0.316282 0.708958
Si Si5 0.873345 0.816680 0.904376
O O1 0.426163 0.500000 0.598148
O O2 0.250000 0.250000 0.500000
O O3 0.602569 0.263386 0.651866
O O4 0.446091 0.262074 0.656448
O O5 0.069533 0.500000 0.909028
O O6 0.951313 0.737266 0.816783
O O7 0.933502 0.729661 0.889892
O O8 0.250000 0.750000 0.000000
O O9 0.676590 0.763755 0.318213
O O10 0.712597 0.000000 0.286929
O O11 0.941825 0.500000 0.693503
O O12 0.163319 0.290642 0.816998
O O13 0.898902 0.000000 0.909411
O O14 0.000000 0.770701 0.000000
#
# Coordination Sequence:
#
# PCOD9196797 Si02
#       5
#     8   8   8   8   8
#     4  11  23  42  64  89 120 156 201 253 307 358
#     4  11  21  36  57  85 121 161 205 248 298 356
#     4   9  20  39  62  85 119 161 198 241 299 367
#     4  10  20  38  63  88 117 158 203 245 297 359
#     4  10  20  35  57  86 122 160 202 248 299 358
#
# _framework density 19.292283000000001
#
# number of rings (size 3 to 8) (size 9 to 14) (size 15 to 20)
#    0.000    1.800    2.000    2.400    0.000    4.400 
#    0.000   10.000    0.000    0.000    0.000    0.000 
#    0.000    0.000    0.000    0.000    0.000    0.000 
#
# Total GULP energy -111704.269471 kJ/mol
# GULP energy per Si atom -5585.213474 kJ/mol
# Density = 1.924837 g / cm^3
# Si number density = 19.292283 Si / 1000 Ang^3
#
#
#
# Elastic Constant Matrix: (Units=GPa)
#
#
# Indices 1 2 3 4 5 6 
#
# 1 161.3331 38.2053 64.4847 0.0000 8.0711 0.0000
# 2 38.2053 27.7235 34.9903 0.0000 1.8777 0.0000
# 3 64.4847 34.9903 123.3872 -0.0001 4.5575 0.0000
# 4 0.0000 0.0000 -0.0001 27.3408 0.0000 -2.0893
# 5 8.0711 1.8777 4.5575 0.0000 26.9559 0.0000
# 6 0.0000 0.0000 0.0000 -2.0893 0.0000 31.1854
#
#
#
# Elastic Compliance Matrix: (Units=1/GPa)
#
#
# Indices 1 2 3 4 5 6 
#
# 1 0.009579 -0.010659 -0.001917 0.000000 -0.001801 0.000000
# 2 -0.010659 0.068079 -0.013764 0.000000 0.000776 0.000000
# 3 -0.001917 -0.013764 0.013034 0.000000 -0.000671 0.000000
# 4 0.000000 0.000000 0.000000 0.036764 0.000000 0.002463
# 5 -0.001801 0.000776 -0.000671 0.000000 0.037696 0.000000
# 6 0.000000 0.000000 0.000000 0.002463 0.000000 0.032231
#
#
# Mechanical properties :
#
#
# Convention : Reuss Voigt Hill
#
# Bulk Modulus (GPa) = 26.30732 65.31160 45.80946
# Shear Modulus (GPa) = 19.03067 28.74731 23.88899
#
# Velocity S-wave (km/s) = 3.14417 3.86436 3.52272
# Velocity P-wave (km/s) = 5.18140 7.33746 6.35158
#
# Compressibility (1/GPa) = 0.03801224
#
# Stress axis : x y z
#
# Youngs Moduli (GPa) = 104.39694 14.68885 76.72070
#
# Poissons Ratio (x) = 0.15657 0.14706
# Poissons Ratio (y) = 1.11279 1.05597
# Poissons Ratio (z) = 0.20011 0.20218
#
# Static dielectric constant tensor:
#      x y z
#    x 1.672350 0.000000 0.012760 
#    y 0.000000 1.661310 0.000000 
#    z 0.012760 0.000000 1.673600 
# 
# From -- ./inp_files/211195.got.cif
#   From: 2010.05.17/outbox.cif.g08.bks.cpg/sg12_106_cif.got.tgz:211195.got - 2010.06.03 13:09:07.
