data_PCOD9196396
_publ_section_title
;
Structure prediction by ZEFSAII (Michael W. Deem and Ramdas Pophale) SiO2 
 PCOD9196396
Probable space group: C 2/M
;
_chemical_formula_sum "Si O2"
_cell_formula_units_Z 64
_cell_length_a 25.813552
_cell_length_b 14.878586
_cell_length_c 14.858130
_cell_angle_alpha 90.000000
_cell_angle_beta 142.006101
_cell_angle_gamma 90.000000
_cell_volume 3512.823776
_symmetry_space_group_name_H-M "C 2/M"
_symmetry_group_IT_number 12
_symmetry_cell_setting 'monoclinic'
loop_
_space_group_symop_operation_xyz
x,y,z
-x,y,-z
-x,-y,-z
x,-y,z
1/2+x,1/2+y,z
1/2-x,1/2+y,-z
1/2-x,1/2-y,-z
1/2+x,1/2-y,z
loop_
_atom_site_type_symbol
_atom_site_label
_atom_site_fract_x
_atom_site_fract_y
_atom_site_fract_z
Si Si1 0.672614 0.270397 0.828465
Si Si2 0.018433 0.107022 0.630944
Si Si3 0.454012 0.101359 0.158178
Si Si4 0.199302 0.603655 0.323723
Si Si5 0.065575 0.600150 0.669800
Si Si6 0.603959 0.606230 0.369820
Si Si7 0.731703 0.901107 0.157558
Si Si8 0.548210 0.761490 0.160475
O O1 0.598642 0.332652 0.768407
O O2 0.633127 0.176282 0.747777
O O3 0.706325 0.324841 0.789238
O O4 0.750000 0.250000 0.000000
O O5 0.000000 0.128338 0.500000
O O6 0.942378 0.124570 0.597389
O O7 0.036192 0.000000 0.659793
O O8 0.479547 0.116607 0.296170
O O9 0.489343 0.175446 0.140922
O O10 0.478372 0.000000 0.163409
O O11 0.352705 0.104293 0.017094
O O12 0.176246 0.500000 0.317987
O O13 0.295381 0.620307 0.485682
O O14 0.202757 0.606021 0.220217
O O15 0.132652 0.678378 0.262739
O O16 0.102636 0.500000 0.726313
O O17 0.000000 0.602676 0.500000
O O18 0.590168 0.500000 0.332038
O O19 0.568187 0.671406 0.243738
O O20 0.771296 0.000000 0.199846
O O21 0.500000 0.745505 0.000000
#
# Coordination Sequence:
#
# PCOD9196396 Si02
#       8
#     8   8   8   8   8   8   8   8
#     4  12  22  32  56  86 118 150 194 237 289 340
#     4  10  21  39  62  88 116 152 195 241 292 347
#     4  10  20  36  58  87 119 147 184 242 300 347
#     4  10  21  39  63  90 115 145 190 252 309 348
#     4  10  22  40  58  80 118 164 198 228 280 350
#     4  10  23  41  59  83 122 161 197 238 287 349
#     4  10  20  35  56  86 120 147 182 240 305 346
#     4  12  23  37  63  89 117 150 200 243 296 355
#
# _framework density 18.218961
#
# number of rings (size 3 to 8) (size 9 to 14) (size 15 to 20)
#    0.000    1.500    2.500    3.000    0.000    4.250 
#    0.000    0.000    0.000    0.750    0.000    0.000 
#    0.000    0.000    0.000    0.000    0.000    0.000 
#
# Total GULP energy -178613.402936 kJ/mol
# GULP energy per Si atom -5581.668842 kJ/mol
# Density = 1.817749 g / cm^3
# Si number density = 18.218961 Si / 1000 Ang^3
#
#
#
# Elastic Constant Matrix: (Units=GPa)
#
#
# Indices 1 2 3 4 5 6 
#
# 1 80.7029 68.1568 39.9459 0.0000 -2.6923 0.0000
# 2 68.1568 125.6322 62.3275 0.0000 0.4068 0.0000
# 3 39.9459 62.3275 97.1128 0.0000 -8.6413 0.0000
# 4 0.0000 0.0000 0.0000 28.1001 0.0000 3.1094
# 5 -2.6923 0.4068 -8.6413 0.0000 31.9332 0.0000
# 6 0.0000 0.0000 0.0000 3.1094 0.0000 34.0540
#
#
#
# Elastic Compliance Matrix: (Units=1/GPa)
#
#
# Indices 1 2 3 4 5 6 
#
# 1 0.023247 -0.011653 -0.001942 0.000000 0.001583 0.000000
# 2 -0.011653 0.017677 -0.006823 0.000000 -0.003054 0.000000
# 3 -0.001942 -0.006823 0.015850 0.000000 0.004212 0.000000
# 4 0.000000 0.000000 0.000000 0.035950 0.000000 -0.003283
# 5 0.001583 -0.003054 0.004212 0.000000 0.032628 0.000000
# 6 0.000000 0.000000 0.000000 -0.003283 0.000000 0.029665
#
#
# Mechanical properties :
#
#
# Convention : Reuss Voigt Hill
#
# Bulk Modulus (GPa) = 62.75052 71.58981 67.17016
# Shear Modulus (GPa) = 24.85498 27.68532 26.27015
#
# Velocity S-wave (km/s) = 3.69756 3.90242 3.80137
# Velocity P-wave (km/s) = 7.26268 7.72558 7.49770
#
# Compressibility (1/GPa) = 0.01593612
#
# Stress axis : x y z
#
# Youngs Moduli (GPa) = 43.01641 56.57127 63.08981
#
# Poissons Ratio (x) = 0.65924 0.12254
# Poissons Ratio (y) = 0.50128 0.43049
# Poissons Ratio (z) = 0.08355 0.38601
#
# Static dielectric constant tensor:
#      x y z
#    x 1.622530 0.000000 0.002580 
#    y 0.000000 1.635080 0.000000 
#    z 0.002580 0.000000 1.642810 
# 
# From -- ./inp_files/240724.got.cif
#   From: 2010.05.17/outbox.cif.g08.bks.cpg/sg12_121_cif.got.tgz:240724.got - 2010.06.03 13:09:07.
