data_PCOD9196058
_publ_section_title
;
Structure prediction by ZEFSAII (Michael W. Deem and Ramdas Pophale) SiO2 
 PCOD9196058
Probable space group: C 2/M
;
_chemical_formula_sum "Si O2"
_cell_formula_units_Z 52
_cell_length_a 8.999366
_cell_length_b 13.330520
_cell_length_c 26.601900
_cell_angle_alpha 90.000000
_cell_angle_beta 124.343059
_cell_angle_gamma 90.000000
_cell_volume 2634.999672
_symmetry_space_group_name_H-M "C 2/M"
_symmetry_group_IT_number 12
_symmetry_cell_setting 'monoclinic'
loop_
_space_group_symop_operation_xyz
x,y,z
-x,y,-z
-x,-y,-z
x,-y,z
1/2+x,1/2+y,z
1/2-x,1/2+y,-z
1/2-x,1/2-y,-z
1/2+x,1/2-y,z
loop_
_atom_site_type_symbol
_atom_site_label
_atom_site_fract_x
_atom_site_fract_y
_atom_site_fract_z
Si Si1 0.943517 0.111457 0.341381
Si Si2 0.382250 0.617892 0.926922
Si Si3 0.524688 0.748098 0.862553
Si Si4 0.528952 0.111189 0.295561
Si Si5 0.608185 0.189448 0.415661
Si Si6 0.000000 0.745272 0.500000
Si Si7 0.865992 0.810153 0.221970
O O1 0.735524 0.128804 0.317742
O O2 0.947305 0.123165 0.281787
O O3 0.061290 0.197216 0.389004
O O4 0.995548 0.000000 0.366790
O O5 0.349446 0.500000 0.909068
O O6 0.487455 0.675549 0.902402
O O7 0.198645 0.680823 0.900006
O O8 0.500000 0.622323 0.000000
O O9 0.348528 0.817631 0.822281
O O10 0.549800 0.682147 0.816880
O O11 0.531032 0.122337 0.356307
O O12 0.407767 0.196390 0.248093
O O13 0.475215 0.000000 0.269909
O O14 0.524335 0.179400 0.454594
O O15 0.823084 0.186350 0.460659
#
# Coordination Sequence:
#
# PCOD9196058 Si02
#       7
#     8   8   8   8   8   4   8
#     4  10  20  35  56  80 111 147 183 224 285 352
#     4  10  22  41  64  89 122 165 207 249 298 348
#     4  10  21  37  61  90 123 156 200 249 293 349
#     4  10  20  36  59  81 110 150 186 224 287 355
#     4  10  20  38  55  81 102 145 177 235 276 345
#     4  10  20  36  58  72 110 138 180 230 292 318
#     4  10  20  36  57  87 119 150 185 237 291 346
#
# _framework density 19.734347
#
# number of rings (size 3 to 8) (size 9 to 14) (size 15 to 20)
#    0.000    2.000    3.077    0.462    0.000    3.692 
#    0.000    9.231    0.000    8.308    0.000    0.000 
#    0.000    0.000    0.000    0.000    0.000    0.000 
#
# Total GULP energy -145165.892444 kJ/mol
# GULP energy per Si atom -5583.303556 kJ/mol
# Density = 1.968943 g / cm^3
# Si number density = 19.734347 Si / 1000 Ang^3
#
#
#
# Elastic Constant Matrix: (Units=GPa)
#
#
# Indices 1 2 3 4 5 6 
#
# 1 102.1627 27.5081 40.3224 0.0000 -17.6871 0.0000
# 2 27.5081 93.5519 28.1808 0.0000 7.7311 0.0000
# 3 40.3224 28.1808 88.2211 0.0000 -20.7419 0.0000
# 4 0.0000 0.0000 0.0000 -8.2316 0.0000 0.7694
# 5 -17.6871 7.7311 -20.7419 0.0000 33.7369 0.0000
# 6 0.0000 0.0000 0.0000 0.7694 0.0000 12.1644
#
#
#
# Elastic Compliance Matrix: (Units=1/GPa)
#
#
# Indices 1 2 3 4 5 6 
#
# 1 0.013008 -0.003144 -0.003704 0.000000 0.005263 0.000000
# 2 -0.003144 0.013679 -0.004742 0.000000 -0.007699 0.000000
# 3 -0.003704 -0.004742 0.016765 0.000000 0.009453 0.000000
# 4 0.000000 0.000000 0.000000 -0.120769 0.000000 0.007638
# 5 0.005263 -0.007699 0.009453 0.000000 0.039976 0.000000
# 6 0.000000 0.000000 0.000000 0.007638 0.000000 0.081724
#
#
# Mechanical properties :
#
#
# Convention : Reuss Voigt Hill
#
# Bulk Modulus (GPa) = 49.33068 52.88427 51.10747
# Shear Modulus (GPa) = 67.27640 20.06223 43.66932
#
# Velocity S-wave (km/s) = 5.84509 3.19190 4.70921
# Velocity P-wave (km/s) = 8.40268 6.35929 7.45136
#
# Compressibility (1/GPa) = 0.02027136
#
# Stress axis : x y z
#
# Youngs Moduli (GPa) = 76.87682 73.10742 59.64726
#
# Poissons Ratio (x) = 0.22986 0.22091
# Poissons Ratio (y) = 0.24171 0.28287
# Poissons Ratio (z) = 0.28472 0.34670
#
# Static dielectric constant tensor:
#      x y z
#    x 1.708140 0.000000 -0.019190 
#    y 0.000000 1.648100 0.000000 
#    z -0.019190 0.000000 1.697570 
# 
# From -- ./inp_files/356023.got.cif
#   From: 2010.05.17/outbox.cif.g08.bks.cpg/sg12_179_cif.got.tgz:356023.got - 2010.06.03 13:09:07.
