data_PCOD9196574
_publ_section_title
;
Structure prediction by ZEFSAII (Michael W. Deem and Ramdas Pophale) SiO2 
 PCOD9196574
Probable space group: C 2/M
;
_chemical_formula_sum "Si O2"
_cell_formula_units_Z 56
_cell_length_a 26.448329
_cell_length_b 8.977524
_cell_length_c 15.920542
_cell_angle_alpha 90.000000
_cell_angle_beta 52.259633
_cell_angle_gamma 90.000000
_cell_volume 2989.339221
_symmetry_space_group_name_H-M "C 2/M"
_symmetry_group_IT_number 12
_symmetry_cell_setting 'monoclinic'
loop_
_space_group_symop_operation_xyz
x,y,z
-x,y,-z
-x,-y,-z
x,-y,z
1/2+x,1/2+y,z
1/2-x,1/2+y,-z
1/2-x,1/2-y,-z
1/2+x,1/2-y,z
loop_
_atom_site_type_symbol
_atom_site_label
_atom_site_fract_x
_atom_site_fract_y
_atom_site_fract_z
Si Si1 0.656315 0.179279 0.660509
Si Si2 0.057555 0.174836 0.182145
Si Si3 0.662639 0.169965 0.317353
Si Si4 0.197450 0.823527 0.450686
Si Si5 0.546556 0.335239 0.374780
Si Si6 0.975931 0.680129 0.117752
Si Si7 0.190735 0.322313 0.105819
O O1 0.727298 0.221312 0.621375
O O2 0.657304 0.246000 0.565676
O O3 0.596268 0.225989 0.779793
O O4 0.654029 0.000000 0.657476
O O5 0.018547 0.187391 0.310227
O O6 0.126142 0.244410 0.137495
O O7 0.023280 0.257526 0.140899
O O8 0.063973 0.000000 0.155578
O O9 0.673122 0.276464 0.384562
O O10 0.592757 0.200876 0.351006
O O11 0.702983 0.202121 0.192878
O O12 0.671459 0.000000 0.335063
O O13 0.193671 0.000000 0.466456
O O14 0.500000 0.344474 0.500000
O O15 0.579828 0.500000 0.335868
O O16 0.977458 0.500000 0.117455
O O17 0.000000 0.726809 0.000000
O O18 0.185350 0.500000 0.098628
O O19 0.250000 0.250000 0.000000
#
# Coordination Sequence:
#
# PCOD9196574 Si02
#       7
#     8   8   8   8   8   8   8
#     4   9  20  38  57  80 110 147 192 241 293 347
#     4  10  21  37  57  84 117 150 189 236 285 338
#     4  10  21  35  53  82 114 144 183 228 278 338
#     4  10  20  35  57  83 113 149 190 237 292 348
#     4   9  19  35  54  80 113 147 183 224 275 337
#     4  10  22  40  60  83 114 153 197 243 295 353
#     4  10  21  38  59  83 114 152 192 234 283 338
#
# _framework density 18.733236999999999
#
# number of rings (size 3 to 8) (size 9 to 14) (size 15 to 20)
#    0.000    2.286    0.000    1.714    2.000    5.143 
#    0.000    1.429    0.000    0.000    0.000    0.000 
#    0.000    0.000    0.000    0.000    0.000    0.000 
#
# Total GULP energy -155994.004429 kJ/mol
# GULP energy per Si atom -5571.214444 kJ/mol
# Density = 1.869060 g / cm^3
# Si number density = 18.733237 Si / 1000 Ang^3
#
#
#
# Elastic Constant Matrix: (Units=GPa)
#
#
# Indices 1 2 3 4 5 6 
#
# 1 64.6204 9.5329 48.9912 0.0000 18.7596 0.0000
# 2 9.5329 16.7814 37.7026 0.0000 5.3250 0.0000
# 3 48.9912 37.7026 148.4373 0.0000 7.3494 0.0000
# 4 0.0000 0.0000 0.0000 21.4063 0.0000 0.6253
# 5 18.7596 5.3250 7.3494 0.0000 26.8136 0.0000
# 6 0.0000 0.0000 0.0000 0.6253 0.0000 28.3843
#
#
#
# Elastic Compliance Matrix: (Units=1/GPa)
#
#
# Indices 1 2 3 4 5 6 
#
# 1 0.028908 0.021602 -0.014004 0.000000 -0.020676 0.000000
# 2 0.021602 0.164226 -0.047119 0.000000 -0.034812 0.000000
# 3 -0.014004 -0.047119 0.022686 0.000000 0.012937 0.000000
# 4 0.000000 0.000000 0.000000 0.046745 0.000000 -0.001030
# 5 -0.020676 -0.034812 0.012937 0.000000 0.055128 0.000000
# 6 0.000000 0.000000 0.000000 -0.001030 0.000000 0.035253
#
#
# Mechanical properties :
#
#
# Convention : Reuss Voigt Hill
#
# Bulk Modulus (GPa) = 7.31111 46.92140 27.11625
# Shear Modulus (GPa) = 10.46942 24.22831 17.34887
#
# Velocity S-wave (km/s) = 2.36661 3.60020 3.04649
# Velocity P-wave (km/s) = 3.37327 6.51025 5.18471
#
# Compressibility (1/GPa) = 0.13677808
#
# Stress axis : x y z
#
# Youngs Moduli (GPa) = 34.59303 6.08917 44.07944
#
# Poissons Ratio (x) = -0.13154 0.61728
# Poissons Ratio (y) = -0.74727 2.07697
# Poissons Ratio (z) = 0.48444 0.28691
#
# Static dielectric constant tensor:
#      x y z
#    x 2.650700 0.000000 3.604250 
#    y 0.000000 1.661180 0.000000 
#    z 3.604250 0.000000 14.674910 
# 
# From -- ./inp_files/238424.got.cif
#   From: 2010.05.17/outbox.cif.g08.bks.cpg/sg12_120_cif.got.tgz:238424.got - 2010.06.03 13:09:07.
