data_PCOD9196668
_publ_section_title
;
Structure prediction by ZEFSAII (Michael W. Deem and Ramdas Pophale) SiO2 
 PCOD9196668
Probable space group: C 2/M
;
_chemical_formula_sum "Si O2"
_cell_formula_units_Z 64
_cell_length_a 34.198046
_cell_length_b 8.390522
_cell_length_c 14.650246
_cell_angle_alpha 90.000000
_cell_angle_beta 47.340054
_cell_angle_gamma 90.000000
_cell_volume 3091.377371
_symmetry_space_group_name_H-M "C 2/M"
_symmetry_group_IT_number 12
_symmetry_cell_setting 'monoclinic'
loop_
_space_group_symop_operation_xyz
x,y,z
-x,y,-z
-x,-y,-z
x,-y,z
1/2+x,1/2+y,z
1/2-x,1/2+y,-z
1/2-x,1/2-y,-z
1/2+x,1/2-y,z
loop_
_atom_site_type_symbol
_atom_site_label
_atom_site_fract_x
_atom_site_fract_y
_atom_site_fract_z
Si Si1 0.930492 0.310267 0.734165
Si Si2 0.050586 0.683282 0.853657
Si Si3 0.358192 0.318326 0.174312
Si Si4 0.532583 0.689443 0.680400
Si Si5 0.250842 0.179849 0.398690
Si Si6 0.277927 0.694896 0.749407
Si Si7 0.394896 0.692453 0.601512
Si Si8 0.341007 0.192292 0.012676
O O1 0.937427 0.500000 0.729613
O O2 0.928414 0.258549 0.632694
O O3 0.977585 0.229893 0.716593
O O4 0.873758 0.267895 0.870362
O O5 0.069175 0.500000 0.827391
O O6 0.095122 0.794043 0.828028
O O7 0.037084 0.728551 0.771530
O O8 0.000000 0.696105 0.000000
O O9 0.338359 0.500000 0.209788
O O10 0.311782 0.195163 0.271785
O O11 0.371633 0.274054 0.048942
O O12 0.536468 0.500000 0.688106
O O13 0.579103 0.739318 0.536195
O O14 0.250000 0.250000 0.500000
O O15 0.221222 0.252211 0.357706
O O16 0.231827 0.000000 0.436606
O O17 0.277218 0.500000 0.748821
O O18 0.333284 0.744839 0.706446
O O19 0.221261 0.742522 0.883405
O O20 0.396311 0.500000 0.603326
O O21 0.342551 0.000000 0.021529
#
# Coordination Sequence:
#
# PCOD9196668 Si02
#       8
#     8   8   8   8   8   8   8   8
#     4  11  23  39  61  87 116 154 199 247 301 359
#     4  11  24  41  61  87 120 157 196 243 301 359
#     4  11  22  36  57  86 119 155 197 241 291 352
#     4  11  24  40  61  88 119 155 198 247 297 355
#     4  10  20  35  57  84 117 157 198 240 292 353
#     4   8  17  36  59  82 115 154 192 239 296 349
#     4  10  22  40  61  86 117 154 195 244 298 355
#     4   9  19  38  61  85 117 156 197 245 300 355
#
# _framework density 20.702746000000001
#
# number of rings (size 3 to 8) (size 9 to 14) (size 15 to 20)
#    0.000    1.875    0.000    4.500    1.750    8.000 
#    0.000    3.125    0.000    0.000    0.000    0.000 
#    0.000    0.000    0.000    0.000    0.000    0.000 
#
# Total GULP energy -178622.060726 kJ/mol
# GULP energy per Si atom -5581.939398 kJ/mol
# Density = 2.065563 g / cm^3
# Si number density = 20.702746 Si / 1000 Ang^3
#
#
#
# Elastic Constant Matrix: (Units=GPa)
#
#
# Indices 1 2 3 4 5 6 
#
# 1 93.4991 4.6014 24.2968 0.0000 1.6801 0.0000
# 2 4.6014 18.7064 14.1480 0.0000 4.3324 0.0000
# 3 24.2968 14.1480 73.9944 0.0000 13.5737 0.0000
# 4 0.0000 0.0000 0.0000 14.6127 0.0000 -3.9123
# 5 1.6801 4.3324 13.5737 0.0000 31.1322 0.0000
# 6 0.0000 0.0000 0.0000 -3.9123 0.0000 19.2400
#
#
#
# Elastic Compliance Matrix: (Units=1/GPa)
#
#
# Indices 1 2 3 4 5 6 
#
# 1 0.011730 -0.000092 -0.004044 0.000000 0.001143 0.000000
# 2 -0.000092 0.062910 -0.011297 0.000000 -0.003824 0.000000
# 3 -0.004044 -0.011297 0.018124 0.000000 -0.006112 0.000000
# 4 0.000000 0.000000 0.000000 0.072374 0.000000 0.014717
# 5 0.001143 -0.003824 -0.006112 0.000000 0.035256 0.000000
# 6 0.000000 0.000000 0.000000 0.014717 0.000000 0.054968
#
#
# Mechanical properties :
#
#
# Convention : Reuss Voigt Hill
#
# Bulk Modulus (GPa) = 16.15540 30.25471 23.20505
# Shear Modulus (GPa) = 16.29410 22.54054 19.41732
#
# Velocity S-wave (km/s) = 2.80848 3.30323 3.06585
# Velocity P-wave (km/s) = 4.28220 5.40315 4.87500
#
# Compressibility (1/GPa) = 0.06189881
#
# Stress axis : x y z
#
# Youngs Moduli (GPa) = 85.25080 15.89567 55.17688
#
# Poissons Ratio (x) = 0.00146 0.22313
# Poissons Ratio (y) = 0.00781 0.62334
# Poissons Ratio (z) = 0.34474 0.17957
#
# Static dielectric constant tensor:
#      x y z
#    x 1.734630 0.000000 0.005160 
#    y 0.000000 1.735620 0.000000 
#    z 0.005160 0.000000 1.804930 
# 
# From -- ./inp_files/249765.got.cif
#   From: 2010.05.17/outbox.cif.g08.bks.cpg/sg12_125_cif.got.tgz:249765.got - 2010.06.03 13:09:07.
