data_PCOD9196100
_publ_section_title
;
Structure prediction by ZEFSAII (Michael W. Deem and Ramdas Pophale) SiO2 
 PCOD9196100
Probable space group: C 2/M
;
_chemical_formula_sum "Si O2"
_cell_formula_units_Z 56
_cell_length_a 16.807189
_cell_length_b 7.645651
_cell_length_c 23.354966
_cell_angle_alpha 90.000000
_cell_angle_beta 47.691427
_cell_angle_gamma 90.000000
_cell_volume 2219.447192
_symmetry_space_group_name_H-M "C 2/M"
_symmetry_group_IT_number 12
_symmetry_cell_setting 'monoclinic'
loop_
_space_group_symop_operation_xyz
x,y,z
-x,y,-z
-x,-y,-z
x,-y,z
1/2+x,1/2+y,z
1/2-x,1/2+y,-z
1/2-x,1/2-y,-z
1/2+x,1/2-y,z
loop_
_atom_site_type_symbol
_atom_site_label
_atom_site_fract_x
_atom_site_fract_y
_atom_site_fract_z
Si Si1 0.351718 0.785453 0.244698
Si Si2 0.388711 0.796308 0.474908
Si Si3 0.418969 0.213233 0.899492
Si Si4 0.153226 0.296540 0.189638
Si Si5 0.885131 0.202234 0.666745
Si Si6 0.379105 0.788083 0.042395
Si Si7 0.173530 0.298687 0.618978
O O1 0.454860 0.738421 0.157611
O O2 0.233534 0.721166 0.285778
O O3 0.371883 0.726925 0.300253
O O4 0.347720 0.000000 0.245748
O O5 0.516599 0.782203 0.416307
O O6 0.303926 0.707111 0.558169
O O7 0.360720 0.720211 0.425122
O O8 0.359971 0.000000 0.491269
O O9 0.378588 0.276548 0.857362
O O10 0.360659 0.271591 0.985544
O O11 0.412485 0.000000 0.902163
O O12 0.123669 0.500000 0.204584
O O13 0.100085 0.217065 0.271772
O O14 0.282405 0.276868 0.128513
O O15 0.883640 0.000000 0.651786
O O16 0.376164 0.000000 0.046470
O O17 0.500000 0.735004 0.000000
O O18 0.138399 0.500000 0.633134
#
# Coordination Sequence:
#
# PCOD9196100 Si02
#       7
#     8   8   8   8   8   8   8
#     4   9  18  34  56  79 103 138 184 226 262 309
#     4  10  20  35  56  81 110 141 175 221 273 320
#     4   9  18  34  56  81 108 140 179 221 266 315
#     4  11  22  36  56  81 111 143 176 221 274 321
#     4  11  22  36  56  80 107 141 183 225 265 317
#     4  10  20  36  59  83 109 143 182 221 261 313
#     4   9  18  35  58  80 105 141 183 221 262 318
#
# _framework density 25.231508000000002
#
# number of rings (size 3 to 8) (size 9 to 14) (size 15 to 20)
#    0.000    2.143    0.000    3.429    0.000    6.000 
#    0.000    5.000    0.000    6.000    0.000    0.000 
#    0.000    0.000    0.000    0.000    0.000    0.000 
#
# Total GULP energy -156572.241846 kJ/mol
# GULP energy per Si atom -5591.865780 kJ/mol
# Density = 2.517408 g / cm^3
# Si number density = 25.231508 Si / 1000 Ang^3
#
#
#
# Elastic Constant Matrix: (Units=GPa)
#
#
# Indices 1 2 3 4 5 6 
#
# 1 54.8305 -5.1368 -6.1451 0.0000 -10.0076 0.0008
# 2 -5.1368 58.8968 -4.9406 0.0000 -0.1771 0.0018
# 3 -6.1451 -4.9406 130.1221 0.0000 -11.4172 0.0001
# 4 0.0000 0.0000 0.0000 21.5294 0.0000 -1.2978
# 5 -10.0076 -0.1771 -11.4172 0.0000 43.1608 0.0000
# 6 0.0008 0.0018 0.0001 -1.2978 0.0000 8.8892
#
#
#
# Elastic Compliance Matrix: (Units=1/GPa)
#
#
# Indices 1 2 3 4 5 6 
#
# 1 0.019462 0.001831 0.001418 0.000000 0.004895 -0.000002
# 2 0.001831 0.017208 0.000802 0.000000 0.000707 -0.000004
# 3 0.001418 0.000802 0.007997 0.000000 0.002448 0.000000
# 4 0.000000 0.000000 0.000000 0.046860 0.000000 0.006841
# 5 0.004895 0.000707 0.002448 0.000000 0.024955 -0.000001
# 6 -0.000002 -0.000004 0.000000 0.006841 -0.000001 0.113495
#
#
# Mechanical properties :
#
#
# Convention : Reuss Voigt Hill
#
# Bulk Modulus (GPa) = 18.95035 23.48939 21.21987
# Shear Modulus (GPa) = 20.87986 32.05401 26.46693
#
# Velocity S-wave (km/s) = 2.87981 3.56813 3.24228
# Velocity P-wave (km/s) = 4.31099 5.12885 4.73760
#
# Compressibility (1/GPa) = 0.05276946
#
# Stress axis : x y z
#
# Youngs Moduli (GPa) = 51.38224 58.11271 125.04275
#
# Poissons Ratio (x) = -0.10641 -0.17733
# Poissons Ratio (y) = -0.09409 -0.10027
# Poissons Ratio (z) = -0.07287 -0.04660
#
# Static dielectric constant tensor:
#      x y z
#    x 2.098510 0.000000 -0.030590 
#    y 0.000000 1.979880 0.000000 
#    z -0.030590 0.000000 1.922450 
# 
# From -- ./inp_files/362961.got.cif
#   From: 2010.05.17/outbox.cif.g08.bks.cpg/sg12_182_cif.got.tgz:362961.got - 2010.06.03 13:09:07.
