data_PCOD9196225
_publ_section_title
;
Structure prediction by ZEFSAII (Michael W. Deem and Ramdas Pophale) SiO2 
 PCOD9196225
Probable space group: C 2/M
;
_chemical_formula_sum "Si O2"
_cell_formula_units_Z 56
_cell_length_a 20.497150
_cell_length_b 12.723237
_cell_length_c 13.155719
_cell_angle_alpha 90.000000
_cell_angle_beta 133.469862
_cell_angle_gamma 90.000000
_cell_volume 2489.915227
_symmetry_space_group_name_H-M "C 2/M"
_symmetry_group_IT_number 12
_symmetry_cell_setting 'monoclinic'
loop_
_space_group_symop_operation_xyz
x,y,z
-x,y,-z
-x,-y,-z
x,-y,z
1/2+x,1/2+y,z
1/2-x,1/2+y,-z
1/2-x,1/2-y,-z
1/2+x,1/2-y,z
loop_
_atom_site_type_symbol
_atom_site_label
_atom_site_fract_x
_atom_site_fract_y
_atom_site_fract_z
Si Si1 0.852506 0.880442 0.299538
Si Si2 0.359643 0.177832 0.436632
Si Si3 0.883114 0.816500 0.712512
Si Si4 0.185263 0.693483 0.010946
Si Si5 0.177446 0.113626 0.143190
Si Si6 0.030686 0.269689 0.719390
Si Si7 0.284588 0.114996 0.577235
O O1 0.751374 0.880014 0.145412
O O2 0.917205 0.820897 0.287819
O O3 0.852472 0.799955 0.394121
O O4 0.879789 0.000000 0.350530
O O5 0.285437 0.124800 0.283113
O O6 0.466393 0.168514 0.571839
O O7 0.325399 0.136353 0.508829
O O8 0.879180 0.880314 0.812494
O O9 0.819570 0.873056 0.561824
O O10 0.829045 0.709483 0.686084
O O11 0.970384 0.783040 0.743746
O O12 0.152336 0.787268 0.048678
O O13 0.250000 0.750000 0.000000
O O14 0.101660 0.656261 0.853981
O O15 0.162310 0.000000 0.078036
O O16 0.305213 0.000000 0.638786
#
# Coordination Sequence:
#
# PCOD9196225 Si02
#       7
#     8   8   8   8   8   8   8
#     4  10  21  37  56  79 112 152 190 231 284 340
#     4   9  18  34  57  84 112 146 186 232 279 323
#     4   9  18  32  53  85 116 146 183 225 278 334
#     4   9  21  40  57  75 109 151 188 230 277 330
#     4  10  20  38  61  84 115 152 186 224 277 339
#     4  10  20  35  56  82 117 147 181 236 286 326
#     4   9  17  33  55  81 117 152 182 223 278 336
#
# _framework density 22.490725000000001
#
# number of rings (size 3 to 8) (size 9 to 14) (size 15 to 20)
#    0.000    2.571    0.000    3.000    0.000    5.143 
#    0.000   23.571    0.000   42.857    0.000   13.000 
#    0.000    0.000    0.000    0.000    0.000    0.000 
#
# Total GULP energy -155896.425020 kJ/mol
# GULP energy per Si atom -5567.729465 kJ/mol
# Density = 2.243954 g / cm^3
# Si number density = 22.490725 Si / 1000 Ang^3
#
#
#
# Elastic Constant Matrix: (Units=GPa)
#
#
# Indices 1 2 3 4 5 6 
#
# 1 98.2297 -3.9290 12.7636 0.0000 1.7739 0.0000
# 2 -3.9290 67.8578 -22.9534 0.0000 -1.8125 0.0000
# 3 12.7636 -22.9534 87.6747 0.0000 13.8843 0.0000
# 4 0.0000 0.0000 0.0000 3.7009 0.0000 -0.3910
# 5 1.7739 -1.8125 13.8843 0.0000 29.8457 0.0000
# 6 0.0000 0.0000 0.0000 -0.3910 0.0000 12.9833
#
#
#
# Elastic Compliance Matrix: (Units=1/GPa)
#
#
# Indices 1 2 3 4 5 6 
#
# 1 0.010377 0.000096 -0.001499 0.000000 0.000087 0.000000
# 2 0.000096 0.016201 0.004396 0.000000 -0.001067 0.000000
# 3 -0.001499 0.004396 0.013730 0.000000 -0.006031 0.000000
# 4 0.000000 0.000000 0.000000 0.271066 0.000000 0.008164
# 5 0.000087 -0.001067 -0.006031 0.000000 0.036242 0.000000
# 6 0.000000 0.000000 0.000000 0.008164 0.000000 0.077268
#
#
# Mechanical properties :
#
#
# Convention : Reuss Voigt Hill
#
# Bulk Modulus (GPa) = 21.60075 25.05827 23.32951
# Shear Modulus (GPa) = 11.51203 27.16472 19.33837
#
# Velocity S-wave (km/s) = 2.26488 3.47914 2.93548
# Velocity P-wave (km/s) = 4.05767 5.22542 4.67813
#
# Compressibility (1/GPa) = 0.04629469
#
# Stress axis : x y z
#
# Youngs Moduli (GPa) = 96.36410 61.72503 72.83237
#
# Poissons Ratio (x) = -0.00593 0.10920
# Poissons Ratio (y) = -0.00925 -0.32020
# Poissons Ratio (z) = 0.14448 -0.27137
#
# Static dielectric constant tensor:
#      x y z
#    x 1.923050 0.000000 0.014130 
#    y 0.000000 1.801850 0.000000 
#    z 0.014130 0.000000 1.904580 
# 
# From -- ./inp_files/233735.got.cif
#   From: 2010.05.17/outbox.cif.g08.bks.cpg/sg12_117_cif.got.tgz:233735.got - 2010.06.03 13:09:07.
