data_PCOD9196679
_publ_section_title
;
Structure prediction by ZEFSAII (Michael W. Deem and Ramdas Pophale) SiO2 
 PCOD9196679
Probable space group: C 2/M
;
_chemical_formula_sum "Si O2"
_cell_formula_units_Z 48
_cell_length_a 25.579028
_cell_length_b 10.642232
_cell_length_c 13.952950
_cell_angle_alpha 90.000000
_cell_angle_beta 41.859968
_cell_angle_gamma 90.000000
_cell_volume 2534.614760
_symmetry_space_group_name_H-M "C 2/M"
_symmetry_group_IT_number 12
_symmetry_cell_setting 'monoclinic'
loop_
_space_group_symop_operation_xyz
x,y,z
-x,y,-z
-x,-y,-z
x,-y,z
1/2+x,1/2+y,z
1/2-x,1/2+y,-z
1/2-x,1/2-y,-z
1/2+x,1/2-y,z
loop_
_atom_site_type_symbol
_atom_site_label
_atom_site_fract_x
_atom_site_fract_y
_atom_site_fract_z
Si Si1 0.856407 0.854981 0.121397
Si Si2 0.815651 0.360667 0.721943
Si Si3 0.918829 0.144668 0.669718
Si Si4 0.301106 0.137237 0.330404
Si Si5 0.987088 0.854748 0.787166
Si Si6 0.852135 0.719633 0.463627
O O1 0.777849 0.845987 0.163596
O O2 0.845782 0.752267 0.218465
O O3 0.859532 0.000000 0.152791
O O4 0.931512 0.830106 0.953373
O O5 0.831776 0.500000 0.739944
O O6 0.856034 0.247610 0.723309
O O7 0.848753 0.352904 0.568226
O O8 0.938574 0.156985 0.754809
O O9 0.000000 0.164321 0.500000
O O10 0.893870 0.000000 0.684674
O O11 0.209208 0.165460 0.440428
O O12 0.318620 0.143861 0.419326
O O13 0.322334 0.000000 0.263474
O O14 0.061989 0.767048 0.677678
O O15 0.013251 0.000000 0.757377
#
# Coordination Sequence:
#
# PCOD9196679 Si02
#       6
#     8   8   8   8   8   8
#     4   9  21  39  57  79 112 149 184 223 271 329
#     4  10  20  36  56  81 114 147 178 220 276 330
#     4  10  20  35  57  85 110 139 185 232 269 316
#     4  10  21  37  58  84 112 144 184 229 277 326
#     4  10  20  37  58  81 109 145 187 228 270 323
#     4  10  20  35  58  83 109 144 186 229 272 321
#
# _framework density 18.937788999999999
#
# number of rings (size 3 to 8) (size 9 to 14) (size 15 to 20)
#    0.000    2.167    1.667    1.000    0.000    9.000 
#    0.000    5.000    0.000    0.000    0.000    0.000 
#    0.000    0.000    0.000    0.000    0.000    0.000 
#
# Total GULP energy -133939.244113 kJ/mol
# GULP energy per Si atom -5580.801838 kJ/mol
# Density = 1.889469 g / cm^3
# Si number density = 18.937789 Si / 1000 Ang^3
#
#
#
# Elastic Constant Matrix: (Units=GPa)
#
#
# Indices 1 2 3 4 5 6 
#
# 1 24.2638 23.7301 -3.1307 0.0000 -1.7681 0.0000
# 2 23.7301 91.0899 22.5806 0.0000 -3.2822 0.0000
# 3 -3.1307 22.5806 73.7149 0.0000 -8.4823 0.0000
# 4 0.0000 0.0000 0.0000 14.6683 0.0000 5.9996
# 5 -1.7681 -3.2822 -8.4823 0.0000 20.6533 0.0000
# 6 0.0000 0.0000 0.0000 5.9996 0.0000 3.9221
#
#
#
# Elastic Compliance Matrix: (Units=1/GPa)
#
#
# Indices 1 2 3 4 5 6 
#
# 1 0.059879 -0.017516 0.008584 0.000000 0.005868 0.000000
# 2 -0.017516 0.017007 -0.006104 0.000000 -0.001303 0.000000
# 3 0.008584 -0.006104 0.016555 0.000000 0.006564 0.000000
# 4 0.000000 0.000000 0.000000 0.182130 0.000000 -0.278606
# 5 0.005868 -0.001303 0.006564 0.000000 0.051409 0.000000
# 6 0.000000 0.000000 0.000000 -0.278606 0.000000 0.681155
#
#
# Mechanical properties :
#
#
# Convention : Reuss Voigt Hill
#
# Bulk Modulus (GPa) = 15.78013 30.60318 23.19166
# Shear Modulus (GPa) = 4.71996 17.57464 11.14730
#
# Velocity S-wave (km/s) = 1.58043 3.04965 2.42880
# Velocity P-wave (km/s) = 3.41776 5.34747 4.48756
#
# Compressibility (1/GPa) = 0.06337082
#
# Stress axis : x y z
#
# Youngs Moduli (GPa) = 16.70025 58.79812 60.40345
#
# Poissons Ratio (x) = 1.02989 -0.51849
# Poissons Ratio (y) = 0.29252 0.36868
# Poissons Ratio (z) = -0.14335 0.35888
#
# Static dielectric constant tensor:
#      x y z
#    x 1.648500 0.000000 0.004510 
#    y 0.000000 1.671210 0.000000 
#    z 0.004510 0.000000 1.639900 
# 
# From -- ./inp_files/244771.got.cif
#   From: 2010.05.17/outbox.cif.g08.bks.cpg/sg12_123_cif.got.tgz:244771.got - 2010.06.03 13:09:07.
