data_PCOD9196916
_publ_section_title
;
Structure prediction by ZEFSAII (Michael W. Deem and Ramdas Pophale) SiO2 
 PCOD9196916
Probable space group: C 2/M
;
_chemical_formula_sum "Si O2"
_cell_formula_units_Z 48
_cell_length_a 21.832692
_cell_length_b 15.430768
_cell_length_c 21.595932
_cell_angle_alpha 90.000000
_cell_angle_beta 160.950557
_cell_angle_gamma 90.000000
_cell_volume 2374.628037
_symmetry_space_group_name_H-M "C 2/M"
_symmetry_group_IT_number 12
_symmetry_cell_setting 'monoclinic'
loop_
_space_group_symop_operation_xyz
x,y,z
-x,y,-z
-x,-y,-z
x,-y,z
1/2+x,1/2+y,z
1/2-x,1/2+y,-z
1/2-x,1/2-y,-z
1/2+x,1/2-y,z
loop_
_atom_site_type_symbol
_atom_site_label
_atom_site_fract_x
_atom_site_fract_y
_atom_site_fract_z
Si Si1 0.204679 0.893678 0.211172
Si Si2 0.261658 0.599611 0.428482
Si Si3 0.458435 0.840109 0.227836
Si Si4 0.676513 0.651823 0.857374
Si Si5 0.466974 0.102281 0.565040
Si Si6 0.991212 0.395867 0.062743
O O1 0.352628 0.864714 0.300450
O O2 0.283707 0.864994 0.353440
O O3 0.196955 0.000000 0.202787
O O4 0.000000 0.861133 0.000000
O O5 0.207513 0.500000 0.391463
O O6 0.482436 0.608410 0.651021
O O7 0.140156 0.660778 0.357330
O O8 0.184983 0.617300 0.286039
O O9 0.384067 0.747331 0.179091
O O10 0.517472 0.884248 0.347874
O O11 0.293655 0.883730 0.028799
O O12 0.825128 0.648139 0.943417
O O13 0.467169 0.000000 0.554467
O O14 0.953842 0.500000 0.027729
O O15 0.000000 0.368009 0.000000
#
# Coordination Sequence:
#
# PCOD9196916 Si02
#       6
#     8   8   8   8   8   8
#     4   8  15  29  47  68  96 129 166 211 258 300
#     4  10  20  35  58  84 108 140 184 228 270 323
#     4  10  21  36  53  77 111 145 176 220 272 324
#     4  10  21  37  55  77 110 148 178 217 278 332
#     4   9  17  30  48  70  98 132 172 216 257 301
#     4   9  19  37  59  83 111 141 180 230 274 319
#
# _framework density 20.213692000000002
#
# number of rings (size 3 to 8) (size 9 to 14) (size 15 to 20)
#    0.000    2.667    0.000    2.500    0.000    4.000 
#    0.000    8.333    0.000    0.000    0.000    0.000 
#    0.000    0.000    0.000    0.000    0.000    0.000 
#
# Total GULP energy -133748.677610 kJ/mol
# GULP energy per Si atom -5572.861567 kJ/mol
# Density = 2.016768 g / cm^3
# Si number density = 20.213692 Si / 1000 Ang^3
#
#
#
# Elastic Constant Matrix: (Units=GPa)
#
#
# Indices 1 2 3 4 5 6 
#
# 1 141.1821 13.9527 83.2209 0.0069 -35.2956 -0.0071
# 2 13.9527 28.3335 11.2157 -0.0055 -2.1353 -0.0043
# 3 83.2209 11.2157 189.8224 -0.0164 -22.9062 -0.0138
# 4 0.0069 -0.0055 -0.0164 28.0254 -0.0015 -17.0813
# 5 -35.2956 -2.1353 -22.9062 -0.0015 24.4351 -0.0055
# 6 -0.0071 -0.0043 -0.0138 -17.0813 -0.0055 60.1623
#
#
#
# Elastic Compliance Matrix: (Units=1/GPa)
#
#
# Indices 1 2 3 4 5 6 
#
# 1 0.013721 -0.004033 -0.003865 -0.000005 0.015844 0.000000
# 2 -0.004033 0.037361 -0.000844 0.000011 -0.003351 0.000005
# 3 -0.003865 -0.000844 0.007137 0.000007 0.001034 0.000003
# 4 -0.000005 0.000011 0.000007 0.043149 0.000005 0.012251
# 5 0.015844 -0.003351 0.001034 0.000005 0.064486 0.000009
# 6 0.000000 0.000005 0.000003 0.012251 0.000009 0.020100
#
#
# Mechanical properties :
#
#
# Convention : Reuss Voigt Hill
#
# Bulk Modulus (GPa) = 24.54858 64.01296 44.28077
# Shear Modulus (GPa) = 23.03966 39.25445 31.14706
#
# Velocity S-wave (km/s) = 3.37976 4.41156 3.92967
# Velocity P-wave (km/s) = 5.23462 7.59513 6.52255
#
# Compressibility (1/GPa) = 0.04073556
#
# Stress axis : x y z
#
# Youngs Moduli (GPa) = 72.88130 26.76568 140.10921
#
# Poissons Ratio (x) = 0.10794 0.54157
# Poissons Ratio (y) = 0.29391 0.11824
# Poissons Ratio (z) = 0.28171 0.02259
#
# Static dielectric constant tensor:
#      x y z
#    x 1.693240 0.000010 -0.026750 
#    y 0.000010 1.751340 -0.000010 
#    z -0.026750 -0.000010 1.744590 
# 
# From -- ./inp_files/322581.got.cif
#   From: 2010.05.17/outbox.cif.g08.bks.cpg/sg12_162_cif.got.tgz:322581.got - 2010.06.03 13:09:07.
