data_PCOD9196587
_publ_section_title
;
Structure prediction by ZEFSAII (Michael W. Deem and Ramdas Pophale) SiO2 
 PCOD9196587
Probable space group: C 2/M
;
_chemical_formula_sum "Si O2"
_cell_formula_units_Z 58
_cell_length_a 24.577543
_cell_length_b 8.990815
_cell_length_c 26.702673
_cell_angle_alpha 90.000000
_cell_angle_beta 33.704984
_cell_angle_gamma 90.000000
_cell_volume 3274.312549
_symmetry_space_group_name_H-M "C 2/M"
_symmetry_group_IT_number 12
_symmetry_cell_setting 'monoclinic'
loop_
_space_group_symop_operation_xyz
x,y,z
-x,y,-z
-x,-y,-z
x,-y,z
1/2+x,1/2+y,z
1/2-x,1/2+y,-z
1/2-x,1/2-y,-z
1/2+x,1/2-y,z
loop_
_atom_site_type_symbol
_atom_site_label
_atom_site_fract_x
_atom_site_fract_y
_atom_site_fract_z
Si Si1 0.399589 0.829858 0.609527
Si Si2 0.017172 0.177072 0.602814
Si Si3 0.789142 0.177676 0.607258
Si Si4 0.552244 0.676650 0.234464
Si Si5 0.000000 0.500000 0.000000
Si Si6 0.943547 0.664610 0.943545
Si Si7 0.748584 0.677145 0.945882
Si Si8 0.080667 0.822771 0.760972
O O1 0.500000 0.829261 0.500000
O O2 0.432234 0.759714 0.636935
O O3 0.323754 0.733503 0.635484
O O4 0.366407 0.000000 0.639813
O O5 0.006989 0.206978 0.669265
O O6 0.122524 0.217987 0.498535
O O7 0.005614 0.000000 0.603338
O O8 0.688261 0.256306 0.670807
O O9 0.777920 0.000000 0.615876
O O10 0.577008 0.500000 0.215020
O O11 0.651109 0.771019 0.156868
O O12 0.487353 0.707215 0.235216
O O13 0.027650 0.627340 0.021615
O O14 0.927272 0.500000 0.932246
O O15 0.029672 0.745821 0.847488
O O16 0.845041 0.758361 0.011708
O O17 0.741775 0.500000 0.955223
O O18 0.750000 0.750000 0.000000
O O19 0.085965 0.000000 0.763736
#
# Coordination Sequence:
#
# PCOD9196587 Si02
#       8
#     8   8   8   8   2   8   8   8
#     4   9  17  32  54  79 108 145 193 249 301 350
#     4   9  19  37  57  82 118 157 200 251 301 359
#     4  10  20  35  57  83 114 161 210 245 296 363
#     4  10  22  39  59  88 121 158 199 251 311 362
#     4   8  24  44  70  92 124 170 202 254 322 364
#     4  10  21  43  66  90 122 159 204 248 308 370
#     4  12  23  38  65  96 122 159 204 256 309 373
#     4  11  22  37  60  88 120 158 203 250 301 370
#
# _framework density 17.713640999999999
#
# number of rings (size 3 to 8) (size 9 to 14) (size 15 to 20)
#    0.414    1.517    1.379    2.897    0.000    3.862 
#    2.483    1.379    0.000    0.000    0.000    0.000 
#    0.000    0.000    0.000    0.000    0.000    0.000 
#
# Total GULP energy -161520.796682 kJ/mol
# GULP energy per Si atom -5569.682644 kJ/mol
# Density = 1.767332 g / cm^3
# Si number density = 17.713641 Si / 1000 Ang^3
#
#
#
# Elastic Constant Matrix: (Units=GPa)
#
#
# Indices 1 2 3 4 5 6 
#
# 1 101.4727 54.1873 55.0921 -0.0001 21.7116 0.0001
# 2 54.1873 95.7944 58.0769 -0.0002 0.4997 0.0000
# 3 55.0921 58.0769 92.0576 -0.0001 -6.0982 0.0000
# 4 -0.0001 -0.0002 -0.0001 25.6315 0.0001 -4.6457
# 5 21.7116 0.4997 -6.0982 0.0001 15.5300 -0.0001
# 6 0.0001 0.0000 0.0000 -4.6457 -0.0001 34.6001
#
#
#
# Elastic Compliance Matrix: (Units=1/GPa)
#
#
# Indices 1 2 3 4 5 6 
#
# 1 0.042672 -0.008948 -0.024461 0.000000 -0.068975 0.000000
# 2 -0.008948 0.019146 -0.006094 0.000000 0.009501 0.000000
# 3 -0.024461 -0.006094 0.032469 0.000000 0.047144 0.000000
# 4 0.000000 0.000000 0.000000 0.039988 -0.000001 0.005369
# 5 -0.068975 0.009501 0.047144 -0.000001 0.179028 0.000000
# 6 0.000000 0.000000 0.000000 0.005369 0.000000 0.029623
#
#
# Mechanical properties :
#
#
# Convention : Reuss Voigt Hill
#
# Bulk Modulus (GPa) = 65.44472 69.33749 67.39111
# Shear Modulus (GPa) = 11.70888 23.28353 17.49621
#
# Velocity S-wave (km/s) = 2.57380 3.62945 3.14622
# Velocity P-wave (km/s) = 6.77191 7.53608 7.16419
#
# Compressibility (1/GPa) = 0.01528007
#
# Stress axis : x y z
#
# Youngs Moduli (GPa) = 23.43447 52.23067 30.79839
#
# Poissons Ratio (x) = 0.46737 0.75336
# Poissons Ratio (y) = 0.20970 0.18769
# Poissons Ratio (z) = 0.57323 0.31830
#
# Static dielectric constant tensor:
#      x y z
#    x 1.585890 0.000000 0.001810 
#    y 0.000000 1.598390 0.000000 
#    z 0.001810 0.000000 1.607980 
# 
# From -- ./inp_files/367530.got.cif
#   From: 2010.05.17/outbox.cif.g08.bks.cpg/sg12_184_cif.got.tgz:367530.got - 2010.06.03 13:09:07.
