data_PCOD9196607
_publ_section_title
;
Structure prediction by ZEFSAII (Michael W. Deem and Ramdas Pophale) SiO2 
 PCOD9196607
Probable space group: C 2/M
;
_chemical_formula_sum "Si O2"
_cell_formula_units_Z 64
_cell_length_a 15.601654
_cell_length_b 18.097343
_cell_length_c 16.753832
_cell_angle_alpha 90.000000
_cell_angle_beta 132.259634
_cell_angle_gamma 90.000000
_cell_volume 3501.007093
_symmetry_space_group_name_H-M "C 2/M"
_symmetry_group_IT_number 12
_symmetry_cell_setting 'monoclinic'
loop_
_space_group_symop_operation_xyz
x,y,z
-x,y,-z
-x,-y,-z
x,-y,z
1/2+x,1/2+y,z
1/2-x,1/2+y,-z
1/2-x,1/2-y,-z
1/2+x,1/2-y,z
loop_
_atom_site_type_symbol
_atom_site_label
_atom_site_fract_x
_atom_site_fract_y
_atom_site_fract_z
Si Si1 0.865931 0.078499 0.429332
Si Si2 0.890606 0.087015 0.873044
Si Si3 0.940805 0.159908 0.736431
Si Si4 0.700390 0.088585 0.881694
Si Si5 0.758578 0.163490 0.492120
Si Si6 0.331070 0.084856 0.818119
Si Si7 0.546976 0.837873 0.254287
Si Si8 0.189323 0.911066 0.877329
O O1 0.837934 0.147176 0.465960
O O2 0.793641 0.082468 0.303554
O O3 0.000000 0.076009 0.500000
O O4 0.829548 0.000000 0.446160
O O5 0.913611 0.132344 0.808078
O O6 0.777881 0.108468 0.853589
O O7 0.881825 0.000000 0.847016
O O8 0.000000 0.094944 0.000000
O O9 0.832676 0.134372 0.613216
O O10 0.949786 0.248960 0.742454
O O11 0.064384 0.126507 0.785415
O O12 0.579943 0.131082 0.809625
O O13 0.680334 0.000000 0.867490
O O14 0.772038 0.103925 0.007640
O O15 0.750000 0.250000 0.500000
O O16 0.634704 0.135890 0.380446
O O17 0.408217 0.131274 0.803891
O O18 0.294452 0.111804 0.883287
O O19 0.376112 0.000000 0.850948
O O20 0.176743 0.000000 0.859846
#
# Coordination Sequence:
#
# PCOD9196607 Si02
#       8
#     8   8   8   8   8   8   8   8
#     4   9  16  28  50  79 105 132 174 227 272 311
#     4  10  20  39  61  81 109 146 189 237 288 331
#     4  11  21  36  59  84 110 144 187 239 275 322
#     4  10  21  39  60  79 110 152 187 227 281 338
#     4   9  20  37  53  75 113 152 184 215 273 336
#     4   9  18  33  52  76 110 145 177 216 268 333
#     4  10  22  38  54  81 116 152 182 220 277 340
#     4  10  20  35  57  84 108 139 185 231 278 329
#
# _framework density 18.280453999999999
#
# number of rings (size 3 to 8) (size 9 to 14) (size 15 to 20)
#    0.000    2.250    1.250    1.500    0.000    4.500 
#    2.250    6.250    0.000    1.500    0.000    0.000 
#    0.000    0.000    0.000    0.000    0.000    0.000 
#
# Total GULP energy -178247.353244 kJ/mol
# GULP energy per Si atom -5570.229789 kJ/mol
# Density = 1.823885 g / cm^3
# Si number density = 18.280454 Si / 1000 Ang^3
#
#
#
# Elastic Constant Matrix: (Units=GPa)
#
#
# Indices 1 2 3 4 5 6 
#
# 1 97.1374 30.0801 32.5848 0.0000 12.4867 0.0000
# 2 30.0801 29.7904 25.5085 0.0000 4.6669 0.0000
# 3 32.5848 25.5085 65.5670 0.0000 8.3687 0.0000
# 4 0.0000 0.0000 0.0000 11.5433 0.0000 19.1056
# 5 12.4867 4.6669 8.3687 0.0000 29.2321 0.0000
# 6 0.0000 0.0000 0.0000 19.1056 0.0000 23.8300
#
#
#
# Elastic Compliance Matrix: (Units=1/GPa)
#
#
# Indices 1 2 3 4 5 6 
#
# 1 0.015648 -0.013427 -0.002048 0.000000 -0.003954 0.000000
# 2 -0.013427 0.062037 -0.017573 0.000000 0.000862 0.000000
# 3 -0.002048 -0.017573 0.023495 0.000000 -0.003046 0.000000
# 4 0.000000 0.000000 0.000000 -0.264932 0.000000 0.212408
# 5 -0.003954 0.000862 -0.003046 0.000000 0.036632 0.000000
# 6 0.000000 0.000000 0.000000 0.212408 0.000000 -0.128333
#
#
# Mechanical properties :
#
#
# Convention : Reuss Voigt Hill
#
# Bulk Modulus (GPa) = 28.50256 40.98242 34.74249
# Shear Modulus (GPa) = -28.14322 19.87582 -4.13370
#
# Velocity S-wave (km/s) = -3.92793 3.30096 -1.50538
# Velocity P-wave (km/s) = 2.22394 6.08242 4.00312
#
# Compressibility (1/GPa) = 0.03508457
#
# Stress axis : x y z
#
# Youngs Moduli (GPa) = 63.90639 16.11940 42.56273
#
# Poissons Ratio (x) = 0.21643 0.08718
# Poissons Ratio (y) = 0.85806 0.74793
# Poissons Ratio (z) = 0.13089 0.28326
#
# Static dielectric constant tensor:
#      x y z
#    x 1.619720 0.000000 -0.005760 
#    y 0.000000 1.623280 0.000000 
#    z -0.005760 0.000000 1.632780 
# 
# From -- ./inp_files/216839.got.cif
#   From: 2010.05.17/outbox.cif.g08.bks.cpg/sg12_109_cif.got.tgz:216839.got - 2010.06.03 13:09:07.
