data_PCOD9196895
_publ_section_title
;
Structure prediction by ZEFSAII (Michael W. Deem and Ramdas Pophale) SiO2 
 PCOD9196895
Probable space group: C 2/M
;
_chemical_formula_sum "Si O2"
_cell_formula_units_Z 56
_cell_length_a 28.454443
_cell_length_b 7.531753
_cell_length_c 12.564158
_cell_angle_alpha 90.000000
_cell_angle_beta 65.505329
_cell_angle_gamma 90.000000
_cell_volume 2450.309036
_symmetry_space_group_name_H-M "C 2/M"
_symmetry_group_IT_number 12
_symmetry_cell_setting 'monoclinic'
loop_
_space_group_symop_operation_xyz
x,y,z
-x,y,-z
-x,-y,-z
x,-y,z
1/2+x,1/2+y,z
1/2-x,1/2+y,-z
1/2-x,1/2-y,-z
1/2+x,1/2-y,z
loop_
_atom_site_type_symbol
_atom_site_label
_atom_site_fract_x
_atom_site_fract_y
_atom_site_fract_z
Si Si1 0.351563 0.208332 0.719295
Si Si2 0.056585 0.203816 0.958785
Si Si3 0.412976 0.797556 0.299953
Si Si4 0.052322 0.281986 0.509477
Si Si5 0.300913 0.710544 0.385365
Si Si6 0.765318 0.783006 0.186242
Si Si7 0.141754 0.215279 0.043369
O O1 0.396953 0.280153 0.602020
O O2 0.293555 0.282190 0.762315
O O3 0.347630 0.000000 0.696551
O O4 0.366555 0.226463 0.828574
O O5 0.080763 0.203426 0.818572
O O6 0.096911 0.279979 0.005647
O O7 0.048419 0.000000 0.001758
O O8 0.000000 0.287028 0.000000
O O9 0.443950 0.724010 0.371400
O O10 0.352354 0.794364 0.385010
O O11 0.429449 0.000000 0.267042
O O12 0.053002 0.500000 0.509881
O O13 0.000000 0.227563 0.500000
O O14 0.309150 0.500000 0.376224
O O15 0.250000 0.750000 0.500000
O O16 0.291210 0.770461 0.273414
O O17 0.802697 0.725896 0.055382
O O18 0.764152 0.000000 0.185634
O O19 0.142041 0.000000 0.040735
#
# Coordination Sequence:
#
# PCOD9196895 Si02
#       7
#     8   8   8   8   8   8   8
#     4  10  20  35  58  83 109 147 193 235 282 341
#     4  10  22  40  61  84 116 158 194 236 300 359
#     4  11  22  38  62  90 117 150 198 248 294 348
#     4   9  20  38  57  80 115 154 190 236 296 351
#     4  11  21  37  60  86 120 159 197 238 292 351
#     4   9  18  35  56  79 112 151 186 228 289 350
#     4  10  20  37  57  81 115 151 186 230 291 351
#
# _framework density 22.85426
#
# number of rings (size 3 to 8) (size 9 to 14) (size 15 to 20)
#    0.000    2.000    1.429    2.143    2.000    3.143 
#    0.000    4.286    0.000    2.143    0.000    0.000 
#    0.000    0.000    0.000    0.000    0.000    0.000 
#
# Total GULP energy -156523.124580 kJ/mol
# GULP energy per Si atom -5590.111592 kJ/mol
# Density = 2.280224 g / cm^3
# Si number density = 22.854260 Si / 1000 Ang^3
#
#
#
# Elastic Constant Matrix: (Units=GPa)
#
#
# Indices 1 2 3 4 5 6 
#
# 1 138.6013 0.5891 7.5241 0.0000 8.9940 0.0000
# 2 0.5891 60.4726 -6.8653 0.0000 -1.8160 0.0000
# 3 7.5241 -6.8653 45.0626 0.0000 9.3936 0.0000
# 4 0.0000 0.0000 0.0000 10.2207 0.0000 2.3290
# 5 8.9940 -1.8160 9.3936 0.0000 43.5183 0.0000
# 6 0.0000 0.0000 0.0000 2.3290 0.0000 -5.4933
#
#
#
# Elastic Compliance Matrix: (Units=1/GPa)
#
#
# Indices 1 2 3 4 5 6 
#
# 1 0.007355 -0.000223 -0.000988 0.000000 -0.001316 0.000000
# 2 -0.000223 0.016835 0.002561 0.000000 0.000196 0.000000
# 3 -0.000988 0.002561 0.023750 0.000000 -0.004816 0.000000
# 4 0.000000 0.000000 0.000000 0.089221 0.000000 0.037827
# 5 -0.001316 0.000196 -0.004816 0.000000 0.024298 0.000000
# 6 0.000000 0.000000 0.000000 0.037827 0.000000 -0.166004
#
#
# Mechanical properties :
#
#
# Convention : Reuss Voigt Hill
#
# Bulk Modulus (GPa) = 19.74680 27.40359 23.57520
# Shear Modulus (GPa) = 518.87821 25.84172 272.35997
#
# Velocity S-wave (km/s) = 15.08412 3.36626 10.92846
# Velocity P-wave (km/s) = 17.66447 5.20822 13.02227
#
# Compressibility (1/GPa) = 0.05064112
#
# Stress axis : x y z
#
# Youngs Moduli (GPa) = 135.96353 59.39917 42.10469
#
# Poissons Ratio (x) = 0.01326 0.04159
# Poissons Ratio (y) = 0.03036 -0.10784
# Poissons Ratio (z) = 0.13429 -0.15214
#
# Static dielectric constant tensor:
#      x y z
#    x 1.845400 0.000000 -0.017510 
#    y 0.000000 1.871150 0.000000 
#    z -0.017510 0.000000 1.819850 
# 
# From -- ./inp_files/180863.got.cif
#   From: 2010.05.17/outbox.cif.g08.bks.cpg/sg12_91_cif.got.tgz:180863.got - 2010.06.03 13:09:07.
