data_PCOD9196911
_publ_section_title
;
Structure prediction by ZEFSAII (Michael W. Deem and Ramdas Pophale) SiO2 
 PCOD9196911
Probable space group: C 2/M
;
_chemical_formula_sum "Si O2"
_cell_formula_units_Z 40
_cell_length_a 23.485831
_cell_length_b 13.870365
_cell_length_c 13.940937
_cell_angle_alpha 90.000000
_cell_angle_beta 152.948024
_cell_angle_gamma 90.000000
_cell_volume 2065.403444
_symmetry_space_group_name_H-M "C 2/M"
_symmetry_group_IT_number 12
_symmetry_cell_setting 'monoclinic'
loop_
_space_group_symop_operation_xyz
x,y,z
-x,y,-z
-x,-y,-z
x,-y,z
1/2+x,1/2+y,z
1/2-x,1/2+y,-z
1/2-x,1/2-y,-z
1/2+x,1/2-y,z
loop_
_atom_site_type_symbol
_atom_site_label
_atom_site_fract_x
_atom_site_fract_y
_atom_site_fract_z
Si Si1 0.338504 0.269796 0.359195
Si Si2 0.956006 0.110869 0.221394
Si Si3 0.378674 0.888331 0.044972
Si Si4 0.925957 0.781093 0.986769
Si Si5 0.662172 0.112057 0.799480
O O1 0.450229 0.318564 0.583413
O O2 0.224924 0.226005 0.253389
O O3 0.372789 0.186819 0.335400
O O4 0.263571 0.353983 0.189674
O O5 0.989832 0.000000 0.289531
O O6 0.955370 0.135278 0.107138
O O7 0.812238 0.126270 0.037303
O O8 0.399818 0.873469 0.189743
O O9 0.396288 0.000000 0.049115
O O10 0.455571 0.817107 0.091350
O O11 0.000000 0.788170 0.000000
O O12 0.643831 0.000000 0.743479
#
# Coordination Sequence:
#
# PCOD9196911 Si02
#       5
#     8   8   8   8   8
#     4   9  19  33  56  81 110 133 178 220 262 310
#     4  10  20  35  58  84 106 136 177 220 270 320
#     4   9  18  34  54  78 109 144 175 214 263 315
#     4   9  21  37  54  77 107 144 178 223 262 308
#     4   9  18  35  56  80 111 141 170 212 271 322
#
# _framework density 19.366675000000001
#
# number of rings (size 3 to 8) (size 9 to 14) (size 15 to 20)
#    1.200    1.600    0.000    1.200    0.000    2.400 
#    0.000    4.000    0.000    2.400    0.000    0.000 
#    0.000    0.000    0.000    0.000    0.000    0.000 
#
# Total GULP energy -111494.735662 kJ/mol
# GULP energy per Si atom -5574.736783 kJ/mol
# Density = 1.932260 g / cm^3
# Si number density = 19.366675 Si / 1000 Ang^3
#
#
#
# Elastic Constant Matrix: (Units=GPa)
#
#
# Indices 1 2 3 4 5 6 
#
# 1 56.4418 -21.1513 3.6002 0.0000 -7.1825 0.0000
# 2 -21.1513 50.9898 27.2052 0.0000 1.9715 0.0000
# 3 3.6002 27.2052 94.7590 0.0000 6.6816 0.0000
# 4 0.0000 0.0000 0.0000 49.9045 0.0000 -6.4846
# 5 -7.1825 1.9715 6.6816 0.0000 20.8238 0.0000
# 6 0.0000 0.0000 0.0000 -6.4846 0.0000 20.8318
#
#
#
# Elastic Compliance Matrix: (Units=1/GPa)
#
#
# Indices 1 2 3 4 5 6 
#
# 1 0.023691 0.012162 -0.005000 0.000000 0.008624 0.000000
# 2 0.012162 0.029402 -0.009211 0.000000 0.004367 0.000000
# 3 -0.005000 -0.009211 0.013759 0.000000 -0.005267 0.000000
# 4 0.000000 0.000000 0.000000 0.020883 0.000000 0.006501
# 5 0.008624 0.004367 -0.005267 0.000000 0.052273 0.000000
# 6 0.000000 0.000000 0.000000 0.006501 0.000000 0.050027
#
#
# Mechanical properties :
#
#
# Convention : Reuss Voigt Hill
#
# Bulk Modulus (GPa) = 15.93533 24.61097 20.27315
# Shear Modulus (GPa) = 23.25009 31.14779 27.19894
#
# Velocity S-wave (km/s) = 3.46861 4.01474 3.75162
# Velocity P-wave (km/s) = 4.92826 5.85032 5.40898
#
# Compressibility (1/GPa) = 0.06275365
#
# Stress axis : x y z
#
# Youngs Moduli (GPa) = 42.20958 34.01084 72.67959
#
# Poissons Ratio (x) = -0.41363 0.36339
# Poissons Ratio (y) = -0.51334 0.66948
# Poissons Ratio (z) = 0.21104 0.31329
#
# Static dielectric constant tensor:
#      x y z
#    x 1.649790 0.000000 0.021720 
#    y 0.000000 1.686540 0.000000 
#    z 0.021720 0.000000 1.715270 
# 
# From -- ./inp_files/176542.got.cif
#   From: 2010.05.17/outbox.cif.g08.bks.cpg/sg12_89_cif.got.tgz:176542.got - 2010.06.03 13:09:07.
