data_PCOD9196394
_publ_section_title
;
Structure prediction by ZEFSAII (Michael W. Deem and Ramdas Pophale) SiO2 
 PCOD9196394
Probable space group: C 2/M
;
_chemical_formula_sum "Si O2"
_cell_formula_units_Z 32
_cell_length_a 22.515756
_cell_length_b 8.033609
_cell_length_c 12.692424
_cell_angle_alpha 90.000000
_cell_angle_beta 126.928031
_cell_angle_gamma 90.000000
_cell_volume 1835.274164
_symmetry_space_group_name_H-M "C 2/M"
_symmetry_group_IT_number 12
_symmetry_cell_setting 'monoclinic'
loop_
_space_group_symop_operation_xyz
x,y,z
-x,y,-z
-x,-y,-z
x,-y,z
1/2+x,1/2+y,z
1/2-x,1/2+y,-z
1/2-x,1/2-y,-z
1/2+x,1/2-y,z
loop_
_atom_site_type_symbol
_atom_site_label
_atom_site_fract_x
_atom_site_fract_y
_atom_site_fract_z
Si Si1 0.255926 0.186727 0.887645
Si Si2 0.532546 0.500000 0.362731
Si Si3 0.119371 0.000000 0.672462
Si Si4 0.894907 0.193961 0.921607
Si Si5 0.468178 0.809435 0.793435
O O1 0.173928 0.156444 0.752752
O O2 0.311913 0.290896 0.876791
O O3 0.288765 0.000000 0.925655
O O4 0.250000 0.250000 0.000000
O O5 0.586402 0.500000 0.520878
O O6 0.448503 0.500000 0.318278
O O7 0.543512 0.666057 0.305213
O O8 0.909503 0.282833 0.826027
O O9 0.914189 0.000000 0.930108
O O10 0.952215 0.272895 0.066465
O O11 0.465342 0.000000 0.752407
#
# Coordination Sequence:
#
# PCOD9196394 Si02
#       5
#     8   4   4   8   8
#     4  10  20  35  56  86 119 152 193 239 306 344
#     4  11  20  45  60  86 120 157 213 230 303 352
#     4   9  24  38  62  81 126 161 187 262 281 363
#     4  11  19  35  58  93 123 150 197 255 296 348
#     4  11  21  35  63  91 118 157 197 250 299 345
#
# _framework density 17.436086
#
# number of rings (size 3 to 8) (size 9 to 14) (size 15 to 20)
#    0.750    0.750    2.500    6.000    0.000    0.000 
#    0.000    7.500    0.000    0.000    0.000    0.000 
#    0.000    0.000    0.000    0.000    0.000    0.000 
#
# Total GULP energy -89203.747076 kJ/mol
# GULP energy per Si atom -5575.234192 kJ/mol
# Density = 1.739640 g / cm^3
# Si number density = 17.436086 Si / 1000 Ang^3
#
#
#
# Elastic Constant Matrix: (Units=GPa)
#
#
# Indices 1 2 3 4 5 6 
#
# 1 111.5057 27.3789 64.6100 0.0000 3.0931 0.0000
# 2 27.3789 131.8093 36.4382 0.0000 -11.7390 0.0000
# 3 64.6100 36.4382 92.7239 0.0000 -7.8224 0.0000
# 4 0.0000 0.0000 0.0000 15.1889 0.0000 1.0265
# 5 3.0931 -11.7390 -7.8224 0.0000 24.1301 0.0000
# 6 0.0000 0.0000 0.0000 1.0265 0.0000 32.2433
#
#
#
# Elastic Compliance Matrix: (Units=1/GPa)
#
#
# Indices 1 2 3 4 5 6 
#
# 1 0.015837 -0.000713 -0.011264 0.000000 -0.006028 0.000000
# 2 -0.000713 0.008782 -0.002659 0.000000 0.003502 0.000000
# 3 -0.011264 -0.002659 0.020244 0.000000 0.006713 0.000000
# 4 0.000000 0.000000 0.000000 0.065979 0.000000 -0.002100
# 5 -0.006028 0.003502 0.006713 0.000000 0.046094 0.000000
# 6 0.000000 0.000000 0.000000 -0.002100 0.000000 0.031081
#
#
# Mechanical properties :
#
#
# Convention : Reuss Voigt Hill
#
# Bulk Modulus (GPa) = 64.13370 65.87701 65.00535
# Shear Modulus (GPa) = 22.47336 28.15325 25.31331
#
# Velocity S-wave (km/s) = 3.59402 4.02264 3.81435
# Velocity P-wave (km/s) = 7.35423 7.70970 7.53406
#
# Compressibility (1/GPa) = 0.01559243
#
# Stress axis : x y z
#
# Youngs Moduli (GPa) = 63.14400 113.87350 49.39638
#
# Poissons Ratio (x) = 0.08115 0.55638
# Poissons Ratio (y) = 0.04500 0.13135
# Poissons Ratio (z) = 0.71123 0.30279
#
# Static dielectric constant tensor:
#      x y z
#    x 1.656030 0.000000 0.008110 
#    y 0.000000 1.611190 0.000000 
#    z 0.008110 0.000000 1.560140 
# 
# From -- ./inp_files/171654.got.cif
#   From: 2010.05.17/outbox.cif.g08.bks.cpg/sg12_86_cif.got.tgz:171654.got - 2010.06.03 13:09:07.
