data_PCOD9196218
_publ_section_title
;
Structure prediction by ZEFSAII (Michael W. Deem and Ramdas Pophale) SiO2 
 PCOD9196218
Probable space group: C 2/M
;
_chemical_formula_sum "Si O2"
_cell_formula_units_Z 56
_cell_length_a 18.319118
_cell_length_b 8.588579
_cell_length_c 29.465089
_cell_angle_alpha 90.000000
_cell_angle_beta 38.981441
_cell_angle_gamma 90.000000
_cell_volume 2916.296385
_symmetry_space_group_name_H-M "C 2/M"
_symmetry_group_IT_number 12
_symmetry_cell_setting 'monoclinic'
loop_
_space_group_symop_operation_xyz
x,y,z
-x,y,-z
-x,-y,-z
x,-y,z
1/2+x,1/2+y,z
1/2-x,1/2+y,-z
1/2-x,1/2-y,-z
1/2+x,1/2-y,z
loop_
_atom_site_type_symbol
_atom_site_label
_atom_site_fract_x
_atom_site_fract_y
_atom_site_fract_z
Si Si1 0.743070 0.311784 0.141990
Si Si2 0.907989 0.185285 0.141180
Si Si3 0.549079 0.310100 0.427650
Si Si4 0.621413 0.688214 0.570804
Si Si5 0.313691 0.186958 0.281864
Si Si6 0.333921 0.186770 0.998506
Si Si7 0.974553 0.188298 0.284393
O O1 0.750006 0.500000 0.142097
O O2 0.824420 0.240569 0.141140
O O3 0.786593 0.266190 0.070943
O O4 0.609059 0.266708 0.213819
O O5 0.858152 0.246344 0.212868
O O6 0.914078 0.000000 0.139271
O O7 0.036360 0.252304 0.071352
O O8 0.500000 0.258282 0.500000
O O9 0.548595 0.500000 0.428136
O O10 0.465556 0.259986 0.427069
O O11 0.681575 0.261430 0.355595
O O12 0.624070 0.500000 0.568779
O O13 0.750000 0.750000 0.500000
O O14 0.573811 0.736355 0.643054
O O15 0.396793 0.241770 0.282152
O O16 0.314677 0.000000 0.278854
O O17 0.334321 0.000000 0.996507
O O18 0.250000 0.250000 0.000000
O O19 0.968912 0.000000 0.284322
#
# Coordination Sequence:
#
# PCOD9196218 Si02
#       7
#     8   8   8   8   8   8   8
#     4  10  22  41  63  86 115 153 195 240 292 348
#     4  12  25  40  60  87 121 157 195 242 292 346
#     4   9  18  34  57  84 113 148 191 238 290 350
#     4  10  20  35  56  82 115 153 192 238 292 350
#     4  11  22  38  62  87 114 152 198 244 293 354
#     4  11  23  40  64  92 122 156 196 242 293 350
#     4  10  21  38  59  85 119 154 191 242 301 352
#
# _framework density 19.202438000000001
#
# number of rings (size 3 to 8) (size 9 to 14) (size 15 to 20)
#    0.000    1.571    0.000    5.143    0.000    8.571 
#    0.000    2.857    0.000    3.857    0.000    0.000 
#    0.000    0.000    0.000    0.000    0.000    0.000 
#
# Total GULP energy -156584.492674 kJ/mol
# GULP energy per Si atom -5592.303310 kJ/mol
# Density = 1.915873 g / cm^3
# Si number density = 19.202438 Si / 1000 Ang^3
#
#
#
# Elastic Constant Matrix: (Units=GPa)
#
#
# Indices 1 2 3 4 5 6 
#
# 1 234.9196 54.4888 145.4374 0.0001 2.2504 0.0006
# 2 54.4888 36.1998 53.8397 0.0000 2.7352 0.0009
# 3 145.4374 53.8397 241.3974 0.0000 1.6508 0.0000
# 4 0.0001 0.0000 0.0000 21.8445 0.0000 -1.5550
# 5 2.2504 2.7352 1.6508 0.0000 45.6968 0.0000
# 6 0.0006 0.0009 0.0000 -1.5550 0.0000 36.0555
#
#
#
# Elastic Compliance Matrix: (Units=1/GPa)
#
#
# Indices 1 2 3 4 5 6 
#
# 1 0.007863 -0.007183 -0.003136 0.000000 0.000156 0.000000
# 2 -0.007183 0.048108 -0.006387 0.000000 -0.002295 -0.000001
# 3 -0.003136 -0.006387 0.007455 0.000000 0.000267 0.000000
# 4 0.000000 0.000000 0.000000 0.045919 0.000000 0.001980
# 5 0.000156 -0.002295 0.000267 0.000000 0.022003 0.000000
# 6 0.000000 -0.000001 0.000000 0.001980 0.000000 0.027820
#
#
# Mechanical properties :
#
#
# Convention : Reuss Voigt Hill
#
# Bulk Modulus (GPa) = 33.31721 113.33875 73.32798
# Shear Modulus (GPa) = 24.68103 37.96942 31.32523
#
# Velocity S-wave (km/s) = 3.58901 4.45153 4.04334
# Velocity P-wave (km/s) = 5.87901 9.25056 7.75034
#
# Compressibility (1/GPa) = 0.03001452
#
# Stress axis : x y z
#
# Youngs Moduli (GPa) = 127.17801 20.78657 134.14210
#
# Poissons Ratio (x) = 0.14930 0.42073
# Poissons Ratio (y) = 0.91347 0.85672
# Poissons Ratio (z) = 0.39888 0.13276
#
# Static dielectric constant tensor:
#      x y z
#    x 1.627360 0.000000 0.000090 
#    y 0.000000 1.661800 0.000000 
#    z 0.000090 0.000000 1.645670 
# 
# From -- ./inp_files/362905.got.cif
#   From: 2010.05.17/outbox.cif.g08.bks.cpg/sg12_182_cif.got.tgz:362905.got - 2010.06.03 13:09:07.
