data_PCOD9196986
_publ_section_title
;
Structure prediction by ZEFSAII (Michael W. Deem and Ramdas Pophale) SiO2 
 PCOD9196986
Probable space group: C 2/M
;
_chemical_formula_sum "Si O2"
_cell_formula_units_Z 56
_cell_length_a 19.267303
_cell_length_b 8.873837
_cell_length_c 19.875668
_cell_angle_alpha 90.000000
_cell_angle_beta 113.979002
_cell_angle_gamma 90.000000
_cell_volume 3104.953490
_symmetry_space_group_name_H-M "C 2/M"
_symmetry_group_IT_number 12
_symmetry_cell_setting 'monoclinic'
loop_
_space_group_symop_operation_xyz
x,y,z
-x,y,-z
-x,-y,-z
x,-y,z
1/2+x,1/2+y,z
1/2-x,1/2+y,-z
1/2-x,1/2-y,-z
1/2+x,1/2-y,z
loop_
_atom_site_type_symbol
_atom_site_label
_atom_site_fract_x
_atom_site_fract_y
_atom_site_fract_z
Si Si1 0.854209 0.830241 0.693378
Si Si2 0.627848 0.318422 0.743994
Si Si3 0.946849 0.318929 0.917318
Si Si4 0.573572 0.316421 0.572540
Si Si5 0.726702 0.677610 0.560325
Si Si6 0.793262 0.829533 0.821108
Si Si7 0.005876 0.319162 0.790898
O O1 0.794358 0.720912 0.636122
O O2 0.827943 0.839538 0.759973
O O3 0.937040 0.758547 0.723402
O O4 0.853081 0.000000 0.663978
O O5 0.626564 0.500000 0.746008
O O6 0.588422 0.271812 0.656656
O O7 0.714547 0.260775 0.783749
O O8 0.581270 0.248208 0.787644
O O9 0.938378 0.500000 0.915655
O O10 0.862720 0.248104 0.888090
O O11 0.988252 0.282854 0.862406
O O12 0.000000 0.271414 0.000000
O O13 0.500000 0.267319 0.500000
O O14 0.571446 0.500000 0.572859
O O15 0.647864 0.265996 0.560581
O O16 0.719634 0.500000 0.549867
O O17 0.750000 0.750000 0.500000
O O18 0.778411 0.000000 0.839461
O O19 0.004525 0.500000 0.783515
#
# Coordination Sequence:
#
# PCOD9196986 Si02
#       7
#     8   8   8   8   8   8   8
#     4  10  20  36  56  78 107 146 190 234 281 336
#     4  11  21  36  59  83 114 154 195 234 282 344
#     4   9  19  38  63  88 116 150 187 228 280 344
#     4   9  20  37  55  77 108 149 192 235 284 336
#     4  11  22  36  55  79 109 144 188 239 291 339
#     4  10  20  35  58  85 114 147 188 235 281 331
#     4  10  21  36  57  86 117 145 184 234 284 335
#
# _framework density 18.035698
#
# number of rings (size 3 to 8) (size 9 to 14) (size 15 to 20)
#    0.000    2.000    1.429    2.143    2.000    2.000 
#    0.000    0.714    0.000    3.429    0.000    0.000 
#    0.000    0.000    0.000    0.000    0.000    0.000 
#
# Total GULP energy -156101.623449 kJ/mol
# GULP energy per Si atom -5575.057980 kJ/mol
# Density = 1.799465 g / cm^3
# Si number density = 18.035698 Si / 1000 Ang^3
#
#
#
# Elastic Constant Matrix: (Units=GPa)
#
#
# Indices 1 2 3 4 5 6 
#
# 1 106.2301 39.6484 44.0946 0.0000 10.6221 0.0000
# 2 39.6484 49.0471 13.6707 0.0000 -1.1401 0.0000
# 3 44.0946 13.6707 86.3679 0.0000 16.1633 0.0000
# 4 0.0000 0.0000 0.0000 21.1827 0.0000 2.5368
# 5 10.6221 -1.1401 16.1633 0.0000 22.4361 0.0000
# 6 0.0000 0.0000 0.0000 2.5368 0.0000 30.6466
#
#
#
# Elastic Compliance Matrix: (Units=1/GPa)
#
#
# Indices 1 2 3 4 5 6 
#
# 1 0.016758 -0.012019 -0.005842 0.000000 -0.004336 0.000000
# 2 -0.012019 0.030276 -0.000010 0.000000 0.007236 0.000000
# 3 -0.005842 -0.000010 0.016234 0.000000 -0.008930 0.000000
# 4 0.000000 0.000000 0.000000 0.047681 0.000000 -0.003947
# 5 -0.004336 0.007236 -0.008930 0.000000 0.053425 0.000000
# 6 0.000000 0.000000 0.000000 -0.003947 0.000000 0.032957
#
#
# Mechanical properties :
#
#
# Convention : Reuss Voigt Hill
#
# Bulk Modulus (GPa) = 36.33033 48.49695 42.41364
# Shear Modulus (GPa) = 20.64018 24.46853 22.55435
#
# Velocity S-wave (km/s) = 3.38658 3.68730 3.54013
# Velocity P-wave (km/s) = 5.95644 6.71387 6.34646
#
# Compressibility (1/GPa) = 0.02752521
#
# Stress axis : x y z
#
# Youngs Moduli (GPa) = 59.67367 33.02998 61.60080
#
# Poissons Ratio (x) = 0.39699 0.35985
# Poissons Ratio (y) = 0.71723 0.00062
# Poissons Ratio (z) = 0.34859 0.00033
#
# Static dielectric constant tensor:
#      x y z
#    x 1.653660 0.000000 0.030300 
#    y 0.000000 1.615230 0.000000 
#    z 0.030300 0.000000 1.601860 
# 
# From -- ./inp_files/275158.got.cif
#   From: 2010.05.17/outbox.cif.g08.bks.cpg/sg12_138_cif.got.tgz:275158.got - 2010.06.03 13:09:07.
