data_PCOD9196836
_publ_section_title
;
Structure prediction by ZEFSAII (Michael W. Deem and Ramdas Pophale) SiO2 
 PCOD9196836
Probable space group: C 2/M
;
_chemical_formula_sum "Si O2"
_cell_formula_units_Z 64
_cell_length_a 21.883561
_cell_length_b 9.202604
_cell_length_c 14.836006
_cell_angle_alpha 90.000000
_cell_angle_beta 87.661252
_cell_angle_gamma 90.000000
_cell_volume 2985.271410
_symmetry_space_group_name_H-M "C 2/M"
_symmetry_group_IT_number 12
_symmetry_cell_setting 'monoclinic'
loop_
_space_group_symop_operation_xyz
x,y,z
-x,y,-z
-x,-y,-z
x,-y,z
1/2+x,1/2+y,z
1/2-x,1/2+y,-z
1/2-x,1/2-y,-z
1/2+x,1/2-y,z
loop_
_atom_site_type_symbol
_atom_site_label
_atom_site_fract_x
_atom_site_fract_y
_atom_site_fract_z
Si Si1 0.091089 0.668107 0.057119
Si Si2 0.632138 0.329417 0.884234
Si Si3 0.726740 0.163714 0.135581
Si Si4 0.959271 0.164380 0.772148
Si Si5 0.677484 0.657599 0.291593
Si Si6 0.642315 0.171365 0.695030
Si Si7 0.252837 0.830587 0.593078
Si Si8 0.519766 0.170726 0.600044
O O1 0.074050 0.500000 0.045375
O O2 0.163289 0.667912 0.083962
O O3 0.048803 0.741450 0.136430
O O4 0.092061 0.758753 0.965207
O O5 0.619396 0.500000 0.873696
O O6 0.704910 0.320166 0.907500
O O7 0.622655 0.243952 0.790992
O O8 0.719042 0.294821 0.205491
O O9 0.727013 0.000000 0.178200
O O10 0.889842 0.150930 0.742230
O O11 0.991635 0.241683 0.685904
O O12 0.982754 0.000000 0.787057
O O13 0.694931 0.500000 0.328057
O O14 0.684210 0.783951 0.363571
O O15 0.700069 0.261711 0.657530
O O16 0.591700 0.181616 0.618833
O O17 0.654420 0.000000 0.708285
O O18 0.250000 0.750000 0.500000
O O19 0.245854 0.000000 0.584466
O O20 0.500000 0.219157 0.500000
O O21 0.502417 0.000000 0.608245
#
# Coordination Sequence:
#
# PCOD9196836 Si02
#       8
#     8   8   8   8   8   8   8   8
#     4  10  20  35  58  88 124 168 212 255 306 365
#     4  11  21  35  57  88 126 167 209 254 310 370
#     4   9  18  32  52  82 121 167 207 245 297 358
#     4  10  22  40  63  93 126 161 207 261 311 364
#     4  10  20  35  57  88 123 161 202 248 303 364
#     4  11  24  43  65  93 126 163 209 258 312 375
#     4  12  25  40  60  88 125 164 204 250 309 373
#     4  10  24  46  70  94 120 159 207 258 314 373
#
# _framework density 21.438586000000001
#
# number of rings (size 3 to 8) (size 9 to 14) (size 15 to 20)
#    0.000    1.625    1.250    3.375    1.750    3.750 
#    0.000    0.625    0.000    3.750    0.000    0.000 
#    0.000    0.000    0.000    0.000    0.000    0.000 
#
# Total GULP energy -178594.375191 kJ/mol
# GULP energy per Si atom -5581.074225 kJ/mol
# Density = 2.138979 g / cm^3
# Si number density = 21.438586 Si / 1000 Ang^3
#
#
#
# Elastic Constant Matrix: (Units=GPa)
#
#
# Indices 1 2 3 4 5 6 
#
# 1 47.1206 24.7885 14.0041 0.0000 5.1387 0.0000
# 2 24.7885 153.8264 48.7760 0.0000 3.0291 0.0000
# 3 14.0041 48.7760 95.0594 0.0000 3.9041 0.0000
# 4 0.0000 0.0000 0.0000 39.1825 0.0000 -2.3319
# 5 5.1387 3.0291 3.9041 0.0000 19.3927 0.0000
# 6 0.0000 0.0000 0.0000 -2.3319 0.0000 13.5482
#
#
#
# Elastic Compliance Matrix: (Units=1/GPa)
#
#
# Indices 1 2 3 4 5 6 
#
# 1 0.024019 -0.003239 -0.001650 0.000000 -0.005527 0.000000
# 2 -0.003239 0.008204 -0.003746 0.000000 0.000331 0.000000
# 3 -0.001650 -0.003746 0.012748 0.000000 -0.001544 0.000000
# 4 0.000000 0.000000 0.000000 0.025786 0.000000 0.004438
# 5 -0.005527 0.000331 -0.001544 0.000000 0.053289 0.000000
# 6 0.000000 0.000000 0.000000 0.004438 0.000000 0.074575
#
#
# Mechanical properties :
#
#
# Convention : Reuss Voigt Hill
#
# Bulk Modulus (GPa) = 36.09787 52.34929 44.22358
# Shear Modulus (GPa) = 22.20999 28.32052 25.26526
#
# Velocity S-wave (km/s) = 3.22216 3.63851 3.43665
# Velocity P-wave (km/s) = 5.54233 6.49022 6.03491
#
# Compressibility (1/GPa) = 0.02770246
#
# Stress axis : x y z
#
# Youngs Moduli (GPa) = 41.63396 121.89141 78.44168
#
# Poissons Ratio (x) = 0.39476 0.12941
# Poissons Ratio (y) = 0.13484 0.29385
# Poissons Ratio (z) = 0.06868 0.45661
#
# Static dielectric constant tensor:
#      x y z
#    x 1.840510 0.000000 0.067300 
#    y 0.000000 1.761900 0.000000 
#    z 0.067300 0.000000 1.606670 
# 
# From -- ./inp_files/243877.got.cif
#   From: 2010.05.17/outbox.cif.g08.bks.cpg/sg12_122_cif.got.tgz:243877.got - 2010.06.03 13:09:07.
