data_PCOD9196648
_publ_section_title
;
Structure prediction by ZEFSAII (Michael W. Deem and Ramdas Pophale) SiO2 
 PCOD9196648
Probable space group: C 2/M
;
_chemical_formula_sum "Si O2"
_cell_formula_units_Z 64
_cell_length_a 23.290748
_cell_length_b 9.310244
_cell_length_c 15.327251
_cell_angle_alpha 90.000000
_cell_angle_beta 94.059632
_cell_angle_gamma 90.000000
_cell_volume 3315.260928
_symmetry_space_group_name_H-M "C 2/M"
_symmetry_group_IT_number 12
_symmetry_cell_setting 'monoclinic'
loop_
_space_group_symop_operation_xyz
x,y,z
-x,y,-z
-x,-y,-z
x,-y,z
1/2+x,1/2+y,z
1/2-x,1/2+y,-z
1/2-x,1/2-y,-z
1/2+x,1/2-y,z
loop_
_atom_site_type_symbol
_atom_site_label
_atom_site_fract_x
_atom_site_fract_y
_atom_site_fract_z
Si Si1 0.830223 0.830338 0.952861
Si Si2 0.772293 0.668060 0.303300
Si Si3 0.356425 0.331279 0.660630
Si Si4 0.336248 0.665957 0.455331
Si Si5 0.539239 0.669827 0.088893
Si Si6 0.719465 0.330556 0.866467
Si Si7 0.469284 0.170969 0.736165
Si Si8 0.533238 0.333121 0.593075
O O1 0.894078 0.797390 0.926489
O O2 0.780356 0.736408 0.903671
O O3 0.818702 0.000000 0.934196
O O4 0.823484 0.809325 0.056464
O O5 0.785320 0.500000 0.299510
O O6 0.703210 0.685712 0.294608
O O7 0.794843 0.732457 0.396304
O O8 0.798284 0.752416 0.224188
O O9 0.373597 0.500000 0.667630
O O10 0.343748 0.298734 0.557858
O O11 0.406840 0.232833 0.701830
O O12 0.316421 0.500000 0.447749
O O13 0.399291 0.675548 0.419072
O O14 0.536262 0.500000 0.111017
O O15 0.518660 0.763557 0.167679
O O16 0.500000 0.693031 0.000000
O O17 0.725262 0.500000 0.851798
O O18 0.512900 0.233607 0.669118
O O19 0.469622 0.000000 0.736928
O O20 0.500000 0.295349 0.500000
O O21 0.518532 0.500000 0.611168
#
# Coordination Sequence:
#
# PCOD9196648 Si02
#       8
#     8   8   8   8   8   8   8   8
#     4   9  19  37  60  84 110 144 191 244 292 339
#     4  11  23  36  55  85 122 156 190 238 295 349
#     4  10  21  40  61  82 114 158 203 240 283 350
#     4  10  21  38  61  84 111 152 199 244 289 341
#     4  10  22  41  63  85 113 153 201 245 289 352
#     4  10  20  35  57  84 114 149 192 237 287 350
#     4  12  25  38  60  93 124 154 192 247 307 354
#     4  10  20  40  66  86 112 155 204 245 286 346
#
# _framework density 19.304663999999999
#
# number of rings (size 3 to 8) (size 9 to 14) (size 15 to 20)
#    0.000    1.750    1.250    3.000    0.000    7.500 
#    0.000    2.500    0.000    0.000    0.000    0.000 
#    0.000    0.000    0.000    0.000    0.000    0.000 
#
# Total GULP energy -178879.223469 kJ/mol
# GULP energy per Si atom -5589.975733 kJ/mol
# Density = 1.926073 g / cm^3
# Si number density = 19.304664 Si / 1000 Ang^3
#
#
#
# Elastic Constant Matrix: (Units=GPa)
#
#
# Indices 1 2 3 4 5 6 
#
# 1 30.3855 17.0088 8.5696 0.0000 -12.1835 0.0000
# 2 17.0088 81.4100 67.3863 0.0000 -14.6962 0.0000
# 3 8.5696 67.3863 107.4547 0.0000 -17.3923 0.0000
# 4 0.0000 0.0000 0.0000 25.5291 0.0000 2.5228
# 5 -12.1835 -14.6962 -17.3923 0.0000 20.9995 0.0000
# 6 0.0000 0.0000 0.0000 2.5228 0.0000 21.8336
#
#
#
# Elastic Compliance Matrix: (Units=1/GPa)
#
#
# Indices 1 2 3 4 5 6 
#
# 1 0.047628 -0.011652 0.007693 0.000000 0.025850 0.000000
# 2 -0.011652 0.028918 -0.017350 0.000000 -0.000892 0.000000
# 3 0.007693 -0.017350 0.021168 0.000000 0.009853 0.000000
# 4 0.000000 0.000000 0.000000 0.039623 0.000000 -0.004578
# 5 0.025850 -0.000892 0.009853 0.000000 0.070154 0.000000
# 6 0.000000 0.000000 0.000000 -0.004578 0.000000 0.046330
#
#
# Mechanical properties :
#
#
# Convention : Reuss Voigt Hill
#
# Bulk Modulus (GPa) = 18.15027 45.01994 31.58511
# Shear Modulus (GPa) = 15.88279 22.09146 18.98712
#
# Velocity S-wave (km/s) = 2.87146 3.38651 3.13956
# Velocity P-wave (km/s) = 4.51842 6.21793 5.43502
#
# Compressibility (1/GPa) = 0.05509560
#
# Stress axis : x y z
#
# Youngs Moduli (GPa) = 20.99599 34.58007 47.24092
#
# Poissons Ratio (x) = 0.40293 -0.36341
# Poissons Ratio (y) = 0.24464 0.81964
# Poissons Ratio (z) = -0.16152 0.59997
#
# Static dielectric constant tensor:
#      x y z
#    x 1.664160 0.000000 -0.011610 
#    y 0.000000 1.641080 0.000000 
#    z -0.011610 0.000000 1.680880 
# 
# From -- ./inp_files/244022.got.cif
#   From: 2010.05.17/outbox.cif.g08.bks.cpg/sg12_123_cif.got.tgz:244022.got - 2010.06.03 13:09:07.
