data_PCOD9196430
_publ_section_title
;
Structure prediction by ZEFSAII (Michael W. Deem and Ramdas Pophale) SiO2 
 PCOD9196430
Probable space group: C 2/M
;
_chemical_formula_sum "Si O2"
_cell_formula_units_Z 56
_cell_length_a 24.964088
_cell_length_b 13.867948
_cell_length_c 26.676162
_cell_angle_alpha 90.000000
_cell_angle_beta 160.991371
_cell_angle_gamma 90.000000
_cell_volume 3008.036360
_symmetry_space_group_name_H-M "C 2/M"
_symmetry_group_IT_number 12
_symmetry_cell_setting 'monoclinic'
loop_
_space_group_symop_operation_xyz
x,y,z
-x,y,-z
-x,-y,-z
x,-y,z
1/2+x,1/2+y,z
1/2-x,1/2+y,-z
1/2-x,1/2-y,-z
1/2+x,1/2-y,z
loop_
_atom_site_type_symbol
_atom_site_label
_atom_site_fract_x
_atom_site_fract_y
_atom_site_fract_z
Si Si1 0.059049 0.758744 0.341732
Si Si2 0.868282 0.733413 0.927585
Si Si3 0.522898 0.114595 0.878058
Si Si4 0.182943 0.894656 0.530991
Si Si5 0.586431 0.609073 0.624142
Si Si6 0.198609 0.612611 0.849059
Si Si7 0.161822 0.889811 0.916299
O O1 0.250000 0.750000 0.500000
O O2 0.063043 0.837728 0.388599
O O3 0.972255 0.663900 0.286316
O O4 0.960988 0.807027 0.209776
O O5 0.727539 0.669636 0.775952
O O6 0.785787 0.825582 0.882432
O O7 0.944692 0.671675 0.041684
O O8 0.000000 0.756080 0.000000
O O9 0.357883 0.147650 0.702988
O O10 0.501617 0.000000 0.870362
O O11 0.676707 0.122412 0.976006
O O12 0.070165 0.903329 0.479225
O O13 0.220290 0.000000 0.541835
O O14 0.500000 0.657456 0.500000
O O15 0.648051 0.500000 0.666012
O O16 0.179662 0.500000 0.819608
O O17 0.299064 0.618848 0.990318
O O18 0.102141 0.000000 0.854584
#
# Coordination Sequence:
#
# PCOD9196430 Si02
#       7
#     8   8   8   8   8   8   8
#     4  12  23  36  64  91 125 160 195 249 318 389
#     4  12  24  39  63  88 120 172 220 256 303 368
#     4  10  20  36  64  97 129 157 197 254 318 388
#     4  10  20  35  56  90 126 156 188 238 308 381
#     4  10  20  37  60  90 126 155 189 250 318 377
#     4  11  25  44  63  88 125 167 219 268 301 353
#     4  10  21  40  64  91 123 157 198 255 322 383
#
# _framework density 18.616796999999998
#
# number of rings (size 3 to 8) (size 9 to 14) (size 15 to 20)
#    0.000    1.286    2.857    3.000    2.000    7.143 
#    0.000    0.000    0.000    0.429    0.000    0.000 
#    0.000    0.000    0.000    0.000    0.000    0.000 
#
# Total GULP energy -156173.379126 kJ/mol
# GULP energy per Si atom -5577.620683 kJ/mol
# Density = 1.857442 g / cm^3
# Si number density = 18.616797 Si / 1000 Ang^3
#
#
#
# Elastic Constant Matrix: (Units=GPa)
#
#
# Indices 1 2 3 4 5 6 
#
# 1 91.4201 43.5628 22.0397 -0.0011 7.9253 0.0012
# 2 43.5628 119.8039 54.8726 0.0021 -1.8797 0.0025
# 3 22.0397 54.8726 92.7127 -0.0101 2.0200 -0.0037
# 4 -0.0011 0.0021 -0.0101 26.6711 -0.0019 -2.0518
# 5 7.9253 -1.8797 2.0200 -0.0019 38.1490 -0.0003
# 6 0.0012 0.0025 -0.0037 -2.0518 -0.0003 23.4217
#
#
#
# Elastic Compliance Matrix: (Units=1/GPa)
#
#
# Indices 1 2 3 4 5 6 
#
# 1 0.013586 -0.004855 -0.000290 0.000001 -0.003046 0.000000
# 2 -0.004855 0.013219 -0.006713 -0.000004 0.002015 -0.000003
# 3 -0.000290 -0.006713 0.014851 0.000006 -0.001057 0.000004
# 4 0.000001 -0.000004 0.000006 0.037748 0.000001 0.003307
# 5 -0.003046 0.002015 -0.001057 0.000001 0.027001 0.000000
# 6 0.000000 -0.000003 0.000004 0.003307 0.000000 0.042985
#
#
# Mechanical properties :
#
#
# Convention : Reuss Voigt Hill
#
# Bulk Modulus (GPa) = 55.74286 60.54299 58.14293
# Shear Modulus (GPa) = 27.91936 29.87914 28.89925
#
# Velocity S-wave (km/s) = 3.87678 4.01054 3.94423
# Velocity P-wave (km/s) = 7.07435 7.35099 7.21400
#
# Compressibility (1/GPa) = 0.01793952
#
# Stress axis : x y z
#
# Youngs Moduli (GPa) = 73.60515 75.64911 67.33420
#
# Poissons Ratio (x) = 0.36729 0.01951
# Poissons Ratio (y) = 0.35737 0.45204
# Poissons Ratio (z) = 0.02132 0.50787
#
# Static dielectric constant tensor:
#      x y z
#    x 1.500600 0.000010 0.006550 
#    y 0.000010 1.455980 -0.000010 
#    z 0.006550 -0.000010 1.643340 
# 
# From -- ./inp_files/349806.got.cif
#   From: 2010.05.17/outbox.cif.g08.bks.cpg/sg12_175_cif.got.tgz:349806.got - 2010.06.03 13:09:07.
