data_PCOD9196224
_publ_section_title
;
Structure prediction by ZEFSAII (Michael W. Deem and Ramdas Pophale) SiO2 
 PCOD9196224
Probable space group: C 2/M
;
_chemical_formula_sum "Si O2"
_cell_formula_units_Z 64
_cell_length_a 10.186445
_cell_length_b 20.141446
_cell_length_c 16.751081
_cell_angle_alpha 90.000000
_cell_angle_beta 57.224392
_cell_angle_gamma 90.000000
_cell_volume 2889.664065
_symmetry_space_group_name_H-M "C 2/M"
_symmetry_group_IT_number 12
_symmetry_cell_setting 'monoclinic'
loop_
_space_group_symop_operation_xyz
x,y,z
-x,y,-z
-x,-y,-z
x,-y,z
1/2+x,1/2+y,z
1/2-x,1/2+y,-z
1/2-x,1/2-y,-z
1/2+x,1/2-y,z
loop_
_atom_site_type_symbol
_atom_site_label
_atom_site_fract_x
_atom_site_fract_y
_atom_site_fract_z
Si Si1 0.802156 0.180286 0.444826
Si Si2 0.241665 0.617005 0.827950
Si Si3 0.145516 0.572891 0.591523
Si Si4 0.456651 0.117918 0.796566
Si Si5 0.212972 0.075828 0.009174
Si Si6 0.567183 0.426836 0.377402
Si Si7 0.420459 0.283627 0.949639
Si Si8 0.509757 0.732205 0.239860
O O1 0.750000 0.250000 0.500000
O O2 0.666367 0.129008 0.516922
O O3 0.864925 0.204422 0.337941
O O4 0.954075 0.136620 0.421617
O O5 0.093644 0.620719 0.818604
O O6 0.211080 0.589066 0.927128
O O7 0.361285 0.573871 0.735007
O O8 0.338546 0.685435 0.802300
O O9 0.143014 0.500000 0.555837
O O10 0.005294 0.578414 0.701380
O O11 0.293203 0.579359 0.604535
O O12 0.440336 0.191830 0.765576
O O13 0.319384 0.088328 0.895894
O O14 0.094592 0.137076 0.042712
O O15 0.156478 0.000000 0.027252
O O16 0.493728 0.500000 0.412733
O O17 0.529557 0.269576 0.839795
O O18 0.500000 0.254013 0.000000
O O19 0.250000 0.250000 0.000000
#
# Coordination Sequence:
#
# PCOD9196224 Si02
#       8
#     8   8   8   8   8   8   8   8
#     4  11  20  34  51  78 117 153 197 251 310 374
#     4   9  21  34  55  87 125 164 204 261 316 373
#     4  10  20  35  56  82 116 158 203 258 319 374
#     4  11  20  34  56  87 127 162 212 260 316 380
#     4  11  23  38  60  92 126 164 206 254 312 381
#     4   9  18  34  55  81 114 154 200 253 318 381
#     4  11  25  44  69  96 131 174 217 264 320 382
#     4  10  22  36  56  87 121 161 204 253 312 382
#
# _framework density 22.147902999999999
#
# number of rings (size 3 to 8) (size 9 to 14) (size 15 to 20)
#    0.000    1.750    2.500    1.875    3.500    3.250 
#    0.000    0.625    0.000    0.000    0.000    0.000 
#    0.000   11.250    0.000    0.000    0.000    0.000 
#
# Total GULP energy -178242.746465 kJ/mol
# GULP energy per Si atom -5570.085827 kJ/mol
# Density = 2.209749 g / cm^3
# Si number density = 22.147903 Si / 1000 Ang^3
#
#
#
# Elastic Constant Matrix: (Units=GPa)
#
#
# Indices 1 2 3 4 5 6 
#
# 1 26.4917 -0.2661 0.7100 0.0000 10.5431 0.0000
# 2 -0.2661 166.0320 44.2575 0.0000 -0.3014 0.0000
# 3 0.7100 44.2575 178.6438 0.0000 13.4255 0.0000
# 4 0.0000 0.0000 0.0000 179.0813 0.0000 31.1718
# 5 10.5431 -0.3014 13.4255 0.0000 17.5241 0.0000
# 6 0.0000 0.0000 0.0000 31.1718 0.0000 14.7926
#
#
#
# Elastic Compliance Matrix: (Units=1/GPa)
#
#
# Indices 1 2 3 4 5 6 
#
# 1 0.050496 -0.000609 0.002371 0.000000 -0.032207 0.000000
# 2 -0.000609 0.006489 -0.001742 0.000000 0.001812 0.000000
# 3 0.002371 -0.001742 0.006504 0.000000 -0.006439 0.000000
# 4 0.000000 0.000000 0.000000 0.008819 0.000000 -0.018583
# 5 -0.032207 0.001812 -0.006439 0.000000 0.081405 0.000000
# 6 0.000000 0.000000 0.000000 -0.018583 0.000000 0.106762
#
#
# Mechanical properties :
#
#
# Convention : Reuss Voigt Hill
#
# Bulk Modulus (GPa) = 15.74104 51.17447 33.45775
# Shear Modulus (GPa) = 17.75500 64.04400 40.89950
#
# Velocity S-wave (km/s) = 2.83442 5.38324 4.30193
# Velocity P-wave (km/s) = 4.22310 7.86098 6.30990
#
# Compressibility (1/GPa) = 0.06352822
#
# Stress axis : x y z
#
# Youngs Moduli (GPa) = 19.80371 154.09594 153.75986
#
# Poissons Ratio (x) = 0.09392 -0.36452
# Poissons Ratio (y) = 0.01207 0.26777
# Poissons Ratio (z) = -0.04695 0.26836
#
# Static dielectric constant tensor:
#      x y z
#    x 1.858230 0.000000 -0.112010 
#    y 0.000000 1.870640 0.000000 
#    z -0.112010 0.000000 3.567190 
# 
# From -- ./inp_files/265046.got.cif
#   From: 2010.05.17/outbox.cif.g08.bks.cpg/sg12_133_cif.got.tgz:265046.got - 2010.06.03 13:09:07.
