data_PCOD9196138
_publ_section_title
;
Structure prediction by ZEFSAII (Michael W. Deem and Ramdas Pophale) SiO2 
 PCOD9196138
Probable space group: C 2/M
;
_chemical_formula_sum "Si O2"
_cell_formula_units_Z 52
_cell_length_a 19.409116
_cell_length_b 17.836947
_cell_length_c 22.579710
_cell_angle_alpha 90.000000
_cell_angle_beta 20.921645
_cell_angle_gamma 90.000000
_cell_volume 2791.408608
_symmetry_space_group_name_H-M "C 2/M"
_symmetry_group_IT_number 12
_symmetry_cell_setting 'monoclinic'
loop_
_space_group_symop_operation_xyz
x,y,z
-x,y,-z
-x,-y,-z
x,-y,z
1/2+x,1/2+y,z
1/2-x,1/2+y,-z
1/2-x,1/2-y,-z
1/2+x,1/2-y,z
loop_
_atom_site_type_symbol
_atom_site_label
_atom_site_fract_x
_atom_site_fract_y
_atom_site_fract_z
Si Si1 0.162589 0.192191 0.321132
Si Si2 0.311790 0.684558 0.037482
Si Si3 0.474776 0.413293 0.371268
Si Si4 0.972279 0.666361 0.160770
Si Si5 0.866379 0.312954 0.371778
Si Si6 0.819057 0.084136 0.920320
Si Si7 0.000000 0.801919 0.000000
O O1 0.063973 0.142417 0.349129
O O2 0.313351 0.145488 0.240593
O O3 0.000000 0.218798 0.500000
O O4 0.310769 0.253403 0.173633
O O5 0.421338 0.653284 0.006684
O O6 0.080870 0.679889 0.225188
O O7 0.377241 0.771581 0.983842
O O8 0.370745 0.643433 0.929533
O O9 0.490192 0.500000 0.377537
O O10 0.256950 0.388738 0.531705
O O11 0.581131 0.404185 0.222991
O O12 0.881353 0.707319 0.290482
O O13 0.093339 0.597343 0.088024
O O14 0.750000 0.250000 0.500000
O O15 0.857843 0.000000 0.909531
#
# Coordination Sequence:
#
# PCOD9196138 Si02
#       7
#     8   8   8   8   8   8   4
#     4  11  21  38  56  86 124 158 190 238 289 345
#     4  10  21  37  59  84 110 147 191 252 295 344
#     4  11  23  37  55  85 122 159 196 232 287 355
#     4  10  20  35  56  81 112 151 194 237 283 341
#     4  11  19  32  55  81 110 148 192 237 284 336
#     4  10  21  38  57  80 113 155 199 242 292 346
#     4  10  22  40  64  86 118 142 204 246 306 356
#
# _framework density 18.628588000000001
#
# number of rings (size 3 to 8) (size 9 to 14) (size 15 to 20)
#    0.000    1.538    1.538    6.462    0.000    3.385 
#    0.000    2.308    0.000    0.000    0.000    2.154 
#    0.000    0.000    0.000    0.000    0.000    0.000 
#
# Total GULP energy -144862.915056 kJ/mol
# GULP energy per Si atom -5571.650579 kJ/mol
# Density = 1.858619 g / cm^3
# Si number density = 18.628588 Si / 1000 Ang^3
#
#
#
# Elastic Constant Matrix: (Units=GPa)
#
#
# Indices 1 2 3 4 5 6 
#
# 1 117.3497 23.1544 38.0044 0.0001 -11.5821 0.0026
# 2 23.1544 42.8462 33.5812 -0.0274 -5.7014 0.0121
# 3 38.0044 33.5812 106.8489 -0.0331 1.1599 0.0154
# 4 0.0001 -0.0274 -0.0331 14.3011 0.0142 0.6299
# 5 -11.5821 -5.7014 1.1599 0.0142 31.0660 -0.0065
# 6 0.0026 0.0121 0.0154 0.6299 -0.0065 18.9671
#
#
#
# Elastic Compliance Matrix: (Units=1/GPa)
#
#
# Indices 1 2 3 4 5 6 
#
# 1 0.010344 -0.002949 -0.002790 -0.000016 0.003420 0.000004
# 2 -0.002949 0.032987 -0.009376 0.000037 0.005305 -0.000012
# 3 -0.002790 -0.009376 0.013333 0.000016 -0.003259 -0.000006
# 4 -0.000016 0.000037 0.000016 0.070027 -0.000032 -0.002326
# 5 0.003420 0.005305 -0.003259 -0.000032 0.034560 0.000012
# 6 0.000004 -0.000012 -0.000006 -0.002326 0.000012 0.052800
#
#
# Mechanical properties :
#
#
# Convention : Reuss Voigt Hill
#
# Bulk Modulus (GPa) = 37.82732 50.72498 44.27615
# Shear Modulus (GPa) = 19.75555 24.35385 22.05470
#
# Velocity S-wave (km/s) = 3.26006 3.61963 3.44454
# Velocity P-wave (km/s) = 5.87544 6.69012 6.29597
#
# Compressibility (1/GPa) = 0.02643592
#
# Stress axis : x y z
#
# Youngs Moduli (GPa) = 96.67152 30.31459 74.99921
#
# Poissons Ratio (x) = 0.08939 0.20923
# Poissons Ratio (y) = 0.28505 0.70321
# Poissons Ratio (z) = 0.26968 0.28424
#
# Static dielectric constant tensor:
#      x y z
#    x 1.680740 -0.000010 0.043000 
#    y -0.000010 1.629100 0.000020 
#    z 0.043000 0.000020 1.731120 
# 
# From -- ./inp_files/347715.got.cif
#   From: 2010.05.17/outbox.cif.g08.bks.cpg/sg12_174_cif.got.tgz:347715.got - 2010.06.03 13:09:07.
