data_PCOD9196589
_publ_section_title
;
Structure prediction by ZEFSAII (Michael W. Deem and Ramdas Pophale) SiO2 
 PCOD9196589
Probable space group: C 2/M
;
_chemical_formula_sum "Si O2"
_cell_formula_units_Z 56
_cell_length_a 16.075213
_cell_length_b 18.062332
_cell_length_c 21.146300
_cell_angle_alpha 90.000000
_cell_angle_beta 154.233685
_cell_angle_gamma 90.000000
_cell_volume 2669.047474
_symmetry_space_group_name_H-M "C 2/M"
_symmetry_group_IT_number 12
_symmetry_cell_setting 'monoclinic'
loop_
_space_group_symop_operation_xyz
x,y,z
-x,y,-z
-x,-y,-z
x,-y,z
1/2+x,1/2+y,z
1/2-x,1/2+y,-z
1/2-x,1/2-y,-z
1/2+x,1/2-y,z
loop_
_atom_site_type_symbol
_atom_site_label
_atom_site_fract_x
_atom_site_fract_y
_atom_site_fract_z
Si Si1 0.066162 0.736287 0.143189
Si Si2 0.825737 0.291095 0.427060
Si Si3 0.560914 0.287351 0.686436
Si Si4 0.300656 0.828461 0.141488
Si Si5 0.348097 0.581814 0.500550
Si Si6 0.468566 0.082922 0.605242
Si Si7 0.520629 0.909840 0.181689
O O1 0.142931 0.770539 0.261660
O O2 0.242425 0.730592 0.215318
O O3 0.999507 0.651372 0.111645
O O4 0.907199 0.794014 0.010971
O O5 0.865901 0.374323 0.477844
O O6 0.000000 0.270798 0.500000
O O7 0.875091 0.245511 0.523532
O O8 0.574956 0.246933 0.762918
O O9 0.519356 0.372555 0.648242
O O10 0.352168 0.873241 0.241296
O O11 0.370727 0.880565 0.132356
O O12 0.418789 0.500000 0.536185
O O13 0.183507 0.581075 0.441471
O O14 0.232295 0.604363 0.357744
O O15 0.522548 0.000000 0.625044
O O16 0.503175 0.000000 0.159483
#
# Coordination Sequence:
#
# PCOD9196589 Si02
#       7
#     8   8   8   8   8   8   8
#     4  11  21  36  56  88 117 151 190 236 287 340
#     4   9  19  33  55  83 114 144 190 238 286 331
#     4  10  20  35  57  83 115 150 193 235 278 342
#     4  10  21  36  59  80 112 155 195 231 275 341
#     4   9  18  33  56  85 112 148 191 231 281 342
#     4   9  19  36  58  83 115 149 188 236 285 339
#     4  10  21  37  59  86 118 152 190 238 291 340
#
# _framework density 20.981266999999999
#
# number of rings (size 3 to 8) (size 9 to 14) (size 15 to 20)
#    0.000    2.286    1.429    2.143    2.000    2.571 
#    0.000    3.571    0.000   24.000    0.000    0.000 
#    0.000    0.000    0.000    0.000    0.000    0.000 
#
# Total GULP energy -155917.589503 kJ/mol
# GULP energy per Si atom -5568.485339 kJ/mol
# Density = 2.093351 g / cm^3
# Si number density = 20.981267 Si / 1000 Ang^3
#
#
#
# Elastic Constant Matrix: (Units=GPa)
#
#
# Indices 1 2 3 4 5 6 
#
# 1 55.7291 13.9346 8.3601 -0.0063 2.8672 -0.0090
# 2 13.9346 142.2217 58.9156 0.0050 5.1046 -0.0057
# 3 8.3601 58.9156 132.4404 0.0167 6.6780 -0.0217
# 4 -0.0063 0.0050 0.0167 39.5775 0.0105 13.1185
# 5 2.8672 5.1046 6.6780 0.0105 18.2188 -0.0003
# 6 -0.0090 -0.0057 -0.0217 13.1185 -0.0003 51.6361
#
#
#
# Elastic Compliance Matrix: (Units=1/GPa)
#
#
# Indices 1 2 3 4 5 6 
#
# 1 0.018513 -0.001587 -0.000344 0.000003 -0.002343 0.000002
# 2 -0.001587 0.008775 -0.003761 0.000001 -0.000830 -0.000001
# 3 -0.000344 -0.003761 0.009363 -0.000004 -0.002324 0.000005
# 4 0.000003 0.000001 -0.000004 0.027590 -0.000015 -0.007010
# 5 -0.002343 -0.000830 -0.002324 -0.000015 0.056341 0.000003
# 6 0.000002 -0.000001 0.000005 -0.007010 0.000003 0.021147
#
#
# Mechanical properties :
#
#
# Convention : Reuss Voigt Hill
#
# Bulk Modulus (GPa) = 39.58113 54.75687 47.16900
# Shear Modulus (GPa) = 30.95273 38.49853 34.72563
#
# Velocity S-wave (km/s) = 3.84507 4.28822 4.07268
# Velocity P-wave (km/s) = 6.21440 7.11850 6.68176
#
# Compressibility (1/GPa) = 0.02526456
#
# Stress axis : x y z
#
# Youngs Moduli (GPa) = 54.01613 113.96374 106.80662
#
# Poissons Ratio (x) = 0.18087 0.03679
# Poissons Ratio (y) = 0.08573 0.40174
# Poissons Ratio (z) = 0.01861 0.42866
#
# Static dielectric constant tensor:
#      x y z
#    x 1.807000 0.000000 -0.016430 
#    y 0.000000 1.878230 -0.000010 
#    z -0.016430 -0.000010 1.784010 
# 
# From -- ./inp_files/366734.got.cif
#   From: 2010.05.17/outbox.cif.g08.bks.cpg/sg12_184_cif.got.tgz:366734.got - 2010.06.03 13:09:07.
