data_PCOD9196710
_publ_section_title
;
Structure prediction by ZEFSAII (Michael W. Deem and Ramdas Pophale) SiO2 
 PCOD9196710
Probable space group: C 2/M
;
_chemical_formula_sum "Si O2"
_cell_formula_units_Z 56
_cell_length_a 9.794109
_cell_length_b 18.079746
_cell_length_c 19.509522
_cell_angle_alpha 90.000000
_cell_angle_beta 59.849794
_cell_angle_gamma 90.000000
_cell_volume 2987.274896
_symmetry_space_group_name_H-M "C 2/M"
_symmetry_group_IT_number 12
_symmetry_cell_setting 'monoclinic'
loop_
_space_group_symop_operation_xyz
x,y,z
-x,y,-z
-x,-y,-z
x,-y,z
1/2+x,1/2+y,z
1/2-x,1/2+y,-z
1/2-x,1/2-y,-z
1/2+x,1/2-y,z
loop_
_atom_site_type_symbol
_atom_site_label
_atom_site_fract_x
_atom_site_fract_y
_atom_site_fract_z
Si Si1 0.125302 0.088048 0.778336
Si Si2 0.338413 0.167828 0.226428
Si Si3 0.099796 0.299424 0.275884
Si Si4 0.400452 0.586916 0.956002
Si Si5 0.074823 0.222269 0.555593
Si Si6 0.524324 0.586181 0.334322
Si Si7 0.054968 0.585250 0.064326
O O1 0.293356 0.127663 0.743520
O O2 0.002201 0.116637 0.867038
O O3 0.048160 0.099689 0.723246
O O4 0.144372 0.000000 0.783988
O O5 0.229168 0.235524 0.228715
O O6 0.462813 0.192699 0.253611
O O7 0.208461 0.109627 0.287122
O O8 0.437442 0.131176 0.140792
O O9 0.018301 0.275043 0.367705
O O10 0.369541 0.500000 0.946648
O O11 0.500000 0.589909 0.000000
O O12 0.230051 0.619144 0.016484
O O13 0.250000 0.250000 0.500000
O O14 0.000000 0.221125 0.500000
O O15 0.063578 0.141210 0.592102
O O16 0.506333 0.500000 0.354969
O O17 0.061141 0.500000 0.089049
O O18 0.000000 0.582735 0.000000
#
# Coordination Sequence:
#
# PCOD9196710 Si02
#       7
#     8   8   8   8   8   8   8
#     4  10  20  37  60  85 118 156 194 239 289 345
#     4  11  22  38  59  83 118 158 199 243 285 342
#     4  11  23  40  60  86 116 152 198 239 290 357
#     4   9  17  30  50  78 111 147 187 230 277 326
#     4  11  22  40  63  85 113 150 188 234 294 356
#     4  10  21  38  61  89 118 152 193 237 290 348
#     4  10  20  35  57  85 115 151 196 242 288 335
#
# _framework density 18.746182000000001
#
# number of rings (size 3 to 8) (size 9 to 14) (size 15 to 20)
#    0.000    1.714    0.000    6.429    0.000    4.857 
#    0.000    4.286    0.000    2.571    0.000    0.000 
#    0.000    0.000    0.000    0.000    0.000    0.000 
#
# Total GULP energy -156335.377560 kJ/mol
# GULP energy per Si atom -5583.406341 kJ/mol
# Density = 1.870352 g / cm^3
# Si number density = 18.746182 Si / 1000 Ang^3
#
#
#
# Elastic Constant Matrix: (Units=GPa)
#
#
# Indices 1 2 3 4 5 6 
#
# 1 97.7433 54.2268 47.6221 0.0000 -19.9474 0.0000
# 2 54.2268 77.8390 65.9756 0.0000 -9.1378 0.0000
# 3 47.6221 65.9756 136.3177 0.0000 -11.8220 0.0000
# 4 0.0000 0.0000 0.0000 146.1709 0.0000 48.1150
# 5 -19.9474 -9.1378 -11.8220 0.0000 32.9346 0.0000
# 6 0.0000 0.0000 0.0000 48.1150 0.0000 44.3485
#
#
#
# Elastic Compliance Matrix: (Units=1/GPa)
#
#
# Indices 1 2 3 4 5 6 
#
# 1 0.018458 -0.011950 0.000018 0.000000 0.007870 0.000000
# 2 -0.011950 0.029695 -0.010435 0.000000 -0.002745 0.000000
# 3 0.000018 -0.010435 0.012519 0.000000 0.001610 0.000000
# 4 0.000000 0.000000 0.000000 0.010642 0.000000 -0.011546
# 5 0.007870 -0.002745 0.001610 0.000000 0.034946 0.000000
# 6 0.000000 0.000000 0.000000 -0.011546 0.000000 0.035075
#
#
# Mechanical properties :
#
#
# Convention : Reuss Voigt Hill
#
# Bulk Modulus (GPa) = 62.74416 71.94988 67.34702
# Shear Modulus (GPa) = 26.12578 54.29585 40.21081
#
# Velocity S-wave (km/s) = 3.73722 5.38763 4.63645
# Velocity P-wave (km/s) = 7.22257 8.78445 8.04152
#
# Compressibility (1/GPa) = 0.01593774
#
# Stress axis : x y z
#
# Youngs Moduli (GPa) = 54.17669 33.67623 79.87569
#
# Poissons Ratio (x) = 0.40244 -0.00144
# Poissons Ratio (y) = 0.64742 0.83350
# Poissons Ratio (z) = -0.00097 0.35141
#
# Static dielectric constant tensor:
#      x y z
#    x 1.620650 0.000000 -0.011170 
#    y 0.000000 1.672030 0.000000 
#    z -0.011170 0.000000 1.627750 
# 
# From -- ./inp_files/300700.got.cif
#   From: 2010.05.17/outbox.cif.g08.bks.cpg/sg12_151_cif.got.tgz:300700.got - 2010.06.03 13:09:07.
