data_PCOD9196835
_publ_section_title
;
Structure prediction by ZEFSAII (Michael W. Deem and Ramdas Pophale) SiO2 
 PCOD9196835
Probable space group: C 2/M
;
_chemical_formula_sum "Si O2"
_cell_formula_units_Z 56
_cell_length_a 28.029341
_cell_length_b 14.557712
_cell_length_c 9.174797
_cell_angle_alpha 90.000000
_cell_angle_beta 129.372087
_cell_angle_gamma 90.000000
_cell_volume 2894.049540
_symmetry_space_group_name_H-M "C 2/M"
_symmetry_group_IT_number 12
_symmetry_cell_setting 'monoclinic'
loop_
_space_group_symop_operation_xyz
x,y,z
-x,y,-z
-x,-y,-z
x,-y,z
1/2+x,1/2+y,z
1/2-x,1/2+y,-z
1/2-x,1/2-y,-z
1/2+x,1/2-y,z
loop_
_atom_site_type_symbol
_atom_site_label
_atom_site_fract_x
_atom_site_fract_y
_atom_site_fract_z
Si Si1 0.319298 0.235398 0.791501
Si Si2 0.004371 0.396754 0.681596
Si Si3 0.049186 0.231325 0.967255
Si Si4 0.435836 0.389764 0.285557
Si Si5 0.825076 0.750155 0.128815
Si Si6 0.362920 0.901499 0.429329
Si Si7 0.757996 0.396309 0.459123
O O1 0.288273 0.335746 0.726527
O O2 0.273098 0.162783 0.631103
O O3 0.383812 0.248035 0.834438
O O4 0.333670 0.209839 0.984154
O O5 0.031616 0.500000 0.745545
O O6 0.934537 0.400588 0.602853
O O7 0.000000 0.374297 0.500000
O O8 0.034737 0.319367 0.838026
O O9 0.054150 0.148112 0.860070
O O10 0.000000 0.217630 0.000000
O O11 0.500000 0.368828 0.500000
O O12 0.427331 0.500000 0.272439
O O13 0.373157 0.337550 0.222078
O O14 0.848229 0.682350 0.297329
O O15 0.750000 0.750000 0.000000
O O16 0.320849 0.898851 0.489424
O O17 0.349468 0.000000 0.328144
O O18 0.737103 0.500000 0.446105
#
# Coordination Sequence:
#
# PCOD9196835 Si02
#       7
#     8   8   8   8   8   8   8
#     4  10  22  37  57  84 113 152 195 239 293 354
#     4  10  20  35  57  88 122 157 193 235 297 366
#     4  11  22  37  61  89 120 156 199 253 297 349
#     4  10  23  43  64  88 123 168 208 249 305 367
#     4  11  21  37  62  91 121 152 200 257 302 355
#     4  10  20  35  59  85 114 152 188 231 295 360
#     4  10  21  39  57  76 112 154 191 235 289 348
#
# _framework density 19.350048999999999
#
# number of rings (size 3 to 8) (size 9 to 14) (size 15 to 20)
#    0.000    1.714    1.429    3.857    0.000    4.571 
#    0.000    0.000    0.000    0.000    0.000    0.000 
#    0.000    0.000    0.000    0.000    0.000    0.000 
#
# Total GULP energy -156005.026967 kJ/mol
# GULP energy per Si atom -5571.608106 kJ/mol
# Density = 1.930601 g / cm^3
# Si number density = 19.350049 Si / 1000 Ang^3
#
#
#
# Elastic Constant Matrix: (Units=GPa)
#
#
# Indices 1 2 3 4 5 6 
#
# 1 99.6237 23.6413 1.4429 0.0000 19.4501 0.0000
# 2 23.6413 126.2352 24.9192 0.0000 -0.4881 0.0000
# 3 1.4429 24.9192 35.5477 0.0000 3.8597 0.0000
# 4 0.0000 0.0000 0.0000 7.5418 0.0000 -0.9283
# 5 19.4501 -0.4881 3.8597 0.0000 27.6818 0.0000
# 6 0.0000 0.0000 0.0000 -0.9283 0.0000 22.6653
#
#
#
# Elastic Compliance Matrix: (Units=1/GPa)
#
#
# Indices 1 2 3 4 5 6 
#
# 1 0.012469 -0.002863 0.002496 0.000000 -0.009160 0.000000
# 2 -0.002863 0.009883 -0.007158 0.000000 0.003184 0.000000
# 3 0.002496 -0.007158 0.033763 0.000000 -0.006587 0.000000
# 4 0.000000 0.000000 0.000000 0.133266 0.000000 0.005458
# 5 -0.009160 0.003184 -0.006587 0.000000 0.043535 0.000000
# 6 0.000000 0.000000 0.000000 0.005458 0.000000 0.044344
#
#
# Mechanical properties :
#
#
# Convention : Reuss Voigt Hill
#
# Bulk Modulus (GPa) = 24.35184 40.15705 32.25445
# Shear Modulus (GPa) = 16.33990 25.67135 21.00562
#
# Velocity S-wave (km/s) = 2.90907 3.64631 3.29836
# Velocity P-wave (km/s) = 4.88834 6.20689 5.58665
#
# Compressibility (1/GPa) = 0.04106466
#
# Stress axis : x y z
#
# Youngs Moduli (GPa) = 80.19596 101.18143 29.61838
#
# Poissons Ratio (x) = 0.28972 -0.07392
# Poissons Ratio (y) = 0.22963 0.21200
# Poissons Ratio (z) = -0.20014 0.72423
#
# Static dielectric constant tensor:
#      x y z
#    x 1.800950 0.000000 0.026920 
#    y 0.000000 1.711410 0.000000 
#    z 0.026920 0.000000 1.671100 
# 
# From -- ./inp_files/111697.got.cif
#   From: 2010.05.17/outbox.cif.g08.bks.cpg/sg12_56_cif.got.tgz:111697.got - 2010.06.03 13:09:07.
