data_PCOD9196850
_publ_section_title
;
Structure prediction by ZEFSAII (Michael W. Deem and Ramdas Pophale) SiO2 
 PCOD9196850
Probable space group: C 2/M
;
_chemical_formula_sum "Si O2"
_cell_formula_units_Z 56
_cell_length_a 13.884292
_cell_length_b 14.381720
_cell_length_c 16.959012
_cell_angle_alpha 90.000000
_cell_angle_beta 54.282668
_cell_angle_gamma 90.000000
_cell_volume 2749.421878
_symmetry_space_group_name_H-M "C 2/M"
_symmetry_group_IT_number 12
_symmetry_cell_setting 'monoclinic'
loop_
_space_group_symop_operation_xyz
x,y,z
-x,y,-z
-x,-y,-z
x,-y,z
1/2+x,1/2+y,z
1/2-x,1/2+y,-z
1/2-x,1/2-y,-z
1/2+x,1/2-y,z
loop_
_atom_site_type_symbol
_atom_site_label
_atom_site_fract_x
_atom_site_fract_y
_atom_site_fract_z
Si Si1 0.638306 0.098744 0.451387
Si Si2 0.934807 0.723298 0.794518
Si Si3 0.699712 0.392192 0.191787
Si Si4 0.171548 0.687614 0.594820
Si Si5 0.380332 0.391266 0.595058
Si Si6 0.570565 0.771375 0.885650
Si Si7 0.241905 0.385868 0.237186
O O1 0.500000 0.097856 0.500000
O O2 0.636461 0.114341 0.545686
O O3 0.695364 0.147491 0.346855
O O4 0.700689 0.000000 0.414329
O O5 0.864538 0.820272 0.835231
O O6 0.850728 0.652506 0.785206
O O7 0.055823 0.733552 0.686343
O O8 0.982354 0.697006 0.857990
O O9 0.705009 0.500000 0.165589
O O10 0.624086 0.385188 0.309058
O O11 0.827965 0.349283 0.150142
O O12 0.250000 0.750000 0.500000
O O13 0.260178 0.650500 0.618072
O O14 0.500000 0.348597 0.500000
O O15 0.378744 0.500000 0.573694
O O16 0.638356 0.674297 0.832731
O O17 0.500000 0.759494 0.000000
O O18 0.250574 0.500000 0.227647
#
# Coordination Sequence:
#
# PCOD9196850 Si02
#       7
#     8   8   8   8   8   8   8
#     4  10  20  35  57  89 126 163 204 253 304 374
#     4  11  23  41  65  95 125 167 215 269 320 384
#     4  10  23  43  66  92 127 167 214 269 322 378
#     4  12  22  32  58  89 124 171 210 249 312 379
#     4  10  21  37  56  85 125 167 210 256 306 374
#     4  11  25  46  67  94 128 167 217 273 329 384
#     4  10  23  42  66  98 133 168 212 264 321 383
#
# _framework density 20.367918
#
# number of rings (size 3 to 8) (size 9 to 14) (size 15 to 20)
#    0.000    1.429    2.857    2.143    2.000    5.143 
#    0.000    5.000    0.000    0.000    0.000    0.000 
#    0.000    0.000    0.000    0.000    0.000    0.000 
#
# Total GULP energy -155979.629546 kJ/mol
# GULP energy per Si atom -5570.701055 kJ/mol
# Density = 2.032156 g / cm^3
# Si number density = 20.367918 Si / 1000 Ang^3
#
#
#
# Elastic Constant Matrix: (Units=GPa)
#
#
# Indices 1 2 3 4 5 6 
#
# 1 83.7844 16.4661 2.6970 0.0000 2.1823 0.0000
# 2 16.4661 83.2661 7.6514 0.0000 -7.4730 0.0000
# 3 2.6970 7.6514 84.9887 0.0000 9.3685 0.0000
# 4 0.0000 0.0000 0.0000 17.6227 0.0000 -2.2792
# 5 2.1823 -7.4730 9.3685 0.0000 18.8782 0.0000
# 6 0.0000 0.0000 0.0000 -2.2792 0.0000 13.9994
#
#
#
# Elastic Compliance Matrix: (Units=1/GPa)
#
#
# Indices 1 2 3 4 5 6 
#
# 1 0.012534 -0.002724 0.000133 0.000000 -0.002593 0.000000
# 2 -0.002724 0.013298 -0.001826 0.000000 0.006485 0.000000
# 3 0.000133 -0.001826 0.012703 0.000000 -0.007042 0.000000
# 4 0.000000 0.000000 0.000000 0.057966 0.000000 0.009437
# 5 -0.002593 0.006485 -0.007042 0.000000 0.059332 0.000000
# 6 0.000000 0.000000 0.000000 0.009437 0.000000 0.072968
#
#
# Mechanical properties :
#
#
# Convention : Reuss Voigt Hill
#
# Bulk Modulus (GPa) = 33.66685 33.96312 33.81499
# Shear Modulus (GPa) = 20.19927 25.11504 22.65716
#
# Velocity S-wave (km/s) = 3.15258 3.51532 3.33888
# Velocity P-wave (km/s) = 5.46048 5.76087 5.61269
#
# Compressibility (1/GPa) = 0.02970281
#
# Stress axis : x y z
#
# Youngs Moduli (GPa) = 79.78349 75.19901 78.72379
#
# Poissons Ratio (x) = 0.20481 -0.01050
# Poissons Ratio (y) = 0.21730 0.14372
# Poissons Ratio (z) = -0.01064 0.13728
#
# Static dielectric constant tensor:
#      x y z
#    x 1.650210 0.000000 -0.014760 
#    y 0.000000 1.814710 0.000000 
#    z -0.014760 0.000000 1.696590 
# 
# From -- ./inp_files/270176.got.cif
#   From: 2010.05.17/outbox.cif.g08.bks.cpg/sg12_136_cif.got.tgz:270176.got - 2010.06.03 13:09:07.
