data_PCOD9196305
_publ_section_title
;
Structure prediction by ZEFSAII (Michael W. Deem and Ramdas Pophale) SiO2 
 PCOD9196305
Probable space group: C 2/M
;
_chemical_formula_sum "Si O2"
_cell_formula_units_Z 34
_cell_length_a 15.937210
_cell_length_b 21.483644
_cell_length_c 9.006672
_cell_angle_alpha 90.000000
_cell_angle_beta 150.017976
_cell_angle_gamma 90.000000
_cell_volume 1541.056305
_symmetry_space_group_name_H-M "C 2/M"
_symmetry_group_IT_number 12
_symmetry_cell_setting 'monoclinic'
loop_
_space_group_symop_operation_xyz
x,y,z
-x,y,-z
-x,-y,-z
x,-y,z
1/2+x,1/2+y,z
1/2-x,1/2+y,-z
1/2-x,1/2-y,-z
1/2+x,1/2-y,z
loop_
_atom_site_type_symbol
_atom_site_label
_atom_site_fract_x
_atom_site_fract_y
_atom_site_fract_z
Si Si1 0.253400 0.812268 0.791753
Si Si2 0.900085 0.814074 0.110290
Si Si3 0.817523 0.068031 0.792811
Si Si4 0.500000 0.000000 0.500000
Si Si5 0.466696 0.066998 0.148347
O O1 0.178130 0.813438 0.844288
O O2 0.099467 0.814752 0.441854
O O3 0.349790 0.746759 0.939545
O O4 0.368925 0.872511 0.950000
O O5 0.830852 0.874818 0.922925
O O6 0.668116 0.075755 0.445833
O O7 0.773168 0.000000 0.799805
O O8 0.000000 0.063241 0.000000
O O9 0.448743 0.054235 0.296740
O O10 0.411703 0.000000 0.998022
#
# Coordination Sequence:
#
# PCOD9196305 Si02
#       5
#     8   8   8   2   8
#     4  10  20  35  56  84 114 143 185 236 290 326
#     4  10  21  35  55  83 115 148 181 237 282 334
#     4  10  21  38  58  81 113 153 190 226 273 337
#     4   8  16  28  54  82 102 144 174 222 276 320
#     4   9  18  32  54  79 107 143 185 224 274 329
#
# _framework density 22.062788999999999
#
# number of rings (size 3 to 8) (size 9 to 14) (size 15 to 20)
#    0.706    1.647    0.000    2.824    0.000    4.706 
#    0.000    8.235    0.000    4.235    0.000    0.000 
#    0.000    0.000    0.000    0.000    0.000    0.000 
#
# Total GULP energy -94679.659060 kJ/mol
# GULP energy per Si atom -5569.391709 kJ/mol
# Density = 2.201257 g / cm^3
# Si number density = 22.062789 Si / 1000 Ang^3
#
#
#
# Elastic Constant Matrix: (Units=GPa)
#
#
# Indices 1 2 3 4 5 6 
#
# 1 30.7946 25.8493 19.4818 0.0000 1.0588 0.0000
# 2 25.8493 231.4806 112.9992 0.0000 15.0971 0.0000
# 3 19.4818 112.9992 120.8175 0.0000 32.9830 0.0000
# 4 0.0000 0.0000 0.0000 44.9545 0.0000 14.4126
# 5 1.0588 15.0971 32.9830 0.0000 40.9341 0.0000
# 6 0.0000 0.0000 0.0000 14.4126 0.0000 6.2112
#
#
#
# Elastic Compliance Matrix: (Units=1/GPa)
#
#
# Indices 1 2 3 4 5 6 
#
# 1 0.037277 -0.001746 -0.005501 0.000000 0.004112 0.000000
# 2 -0.001746 0.008555 -0.008808 0.000000 0.003987 0.000000
# 3 -0.005501 -0.008808 0.021123 0.000000 -0.013629 0.000000
# 4 0.000000 0.000000 0.000000 0.086871 0.000000 -0.201578
# 5 0.004112 0.003987 -0.013629 0.000000 0.033834 0.000000
# 6 0.000000 0.000000 0.000000 -0.201578 0.000000 0.628744
#
#
# Mechanical properties :
#
#
# Convention : Reuss Voigt Hill
#
# Bulk Modulus (GPa) = 28.69812 77.75037 53.22424
# Shear Modulus (GPa) = 5.81308 33.40414 19.60861
#
# Velocity S-wave (km/s) = 1.62496 3.89530 2.98445
# Velocity P-wave (km/s) = 4.06895 7.45306 6.00435
#
# Compressibility (1/GPa) = 0.03484549
#
# Stress axis : x y z
#
# Youngs Moduli (GPa) = 26.82605 116.89550 47.34227
#
# Poissons Ratio (x) = 0.20406 0.26042
# Poissons Ratio (y) = 0.04683 0.41700
# Poissons Ratio (z) = 0.14757 1.02963
#
# Static dielectric constant tensor:
#      x y z
#    x 1.727480 0.000000 0.008710 
#    y 0.000000 1.785350 0.000000 
#    z 0.008710 0.000000 1.740290 
# 
# From -- ./inp_files/78148.got.cif
#   From: 2010.05.17/outbox.cif.g08.bks.cpg/sg12_40_cif.got.tgz:78148.got - 2010.06.03 13:09:07.
