data_PCOD9196332
_publ_section_title
;
Structure prediction by ZEFSAII (Michael W. Deem and Ramdas Pophale) SiO2 
 PCOD9196332
Probable space group: C 2/M
;
_chemical_formula_sum "Si O2"
_cell_formula_units_Z 56
_cell_length_a 20.926012
_cell_length_b 9.037807
_cell_length_c 28.793580
_cell_angle_alpha 90.000000
_cell_angle_beta 149.407824
_cell_angle_gamma 90.000000
_cell_volume 2771.392400
_symmetry_space_group_name_H-M "C 2/M"
_symmetry_group_IT_number 12
_symmetry_cell_setting 'monoclinic'
loop_
_space_group_symop_operation_xyz
x,y,z
-x,y,-z
-x,-y,-z
x,-y,z
1/2+x,1/2+y,z
1/2-x,1/2+y,-z
1/2-x,1/2-y,-z
1/2+x,1/2-y,z
loop_
_atom_site_type_symbol
_atom_site_label
_atom_site_fract_x
_atom_site_fract_y
_atom_site_fract_z
Si Si1 0.189919 0.676272 0.220257
Si Si2 0.230498 0.324628 0.558530
Si Si3 0.855826 0.674312 0.395324
Si Si4 0.445988 0.171516 0.125124
Si Si5 0.222103 0.830094 0.909649
Si Si6 0.045770 0.175106 0.371137
Si Si7 0.778456 0.675659 0.186844
O O1 0.187637 0.500000 0.213072
O O2 0.312371 0.728812 0.325001
O O3 0.189425 0.754044 0.170251
O O4 0.072578 0.720936 0.179050
O O5 0.200358 0.500000 0.535328
O O6 0.225130 0.288631 0.609452
O O7 0.126453 0.233292 0.465186
O O8 0.363240 0.300283 0.616404
O O9 0.839342 0.500000 0.373773
O O10 0.000000 0.696310 0.500000
O O11 0.398550 0.268147 0.138390
O O12 0.460092 0.000000 0.148643
O O13 0.336630 0.175868 0.017749
O O14 0.252044 0.733440 0.883546
O O15 0.201633 0.000000 0.882735
O O16 0.917843 0.263627 0.285178
O O17 0.020968 0.000000 0.359824
O O18 0.775359 0.500000 0.187249
#
# Coordination Sequence:
#
# PCOD9196332 Si02
#       7
#     8   8   8   8   8   8   8
#     4  11  24  41  62  90 123 158 203 252 304 363
#     4   9  19  35  55  82 116 157 199 246 301 358
#     4  10  21  37  57  83 119 161 202 245 298 354
#     4   9  21  42  65  94 126 157 196 247 304 364
#     4  10  21  40  67  93 123 160 199 246 301 362
#     4  10  20  35  56  84 117 154 202 250 301 358
#     4  12  25  40  59  86 122 161 203 251 305 358
#
# _framework density 20.206448999999999
#
# number of rings (size 3 to 8) (size 9 to 14) (size 15 to 20)
#    0.000    1.857    0.000    3.429    2.000    4.857 
#    0.000    2.857    0.000    0.000    0.000    0.000 
#    0.000    0.000    0.000    0.000    0.000    0.000 
#
# Total GULP energy -156562.484480 kJ/mol
# GULP energy per Si atom -5591.517303 kJ/mol
# Density = 2.016046 g / cm^3
# Si number density = 20.206449 Si / 1000 Ang^3
#
#
#
# Elastic Constant Matrix: (Units=GPa)
#
#
# Indices 1 2 3 4 5 6 
#
# 1 95.9751 40.2664 7.2356 0.0000 -11.5919 0.0000
# 2 40.2664 73.1702 11.1300 -0.0001 -4.8234 0.0002
# 3 7.2356 11.1300 16.3950 -0.0002 3.2269 0.0000
# 4 0.0000 -0.0001 -0.0002 27.5148 0.0000 -2.1946
# 5 -11.5919 -4.8234 3.2269 0.0000 23.2946 0.0000
# 6 0.0000 0.0002 0.0000 -2.1946 0.0000 33.9483
#
#
#
# Elastic Compliance Matrix: (Units=1/GPa)
#
#
# Indices 1 2 3 4 5 6 
#
# 1 0.014319 -0.007070 -0.002708 0.000000 0.006037 0.000000
# 2 -0.007070 0.019253 -0.010324 0.000000 0.001898 0.000000
# 3 -0.002708 -0.010324 0.071843 0.000000 -0.013437 0.000000
# 4 0.000000 0.000000 0.000000 0.036533 0.000000 0.002362
# 5 0.006037 0.001898 -0.013437 0.000000 0.048187 0.000000
# 6 0.000000 0.000000 0.000000 0.002362 0.000000 0.029609
#
#
# Mechanical properties :
#
#
# Convention : Reuss Voigt Hill
#
# Bulk Modulus (GPa) = 15.33477 33.64491 24.48984
# Shear Modulus (GPa) = 17.75045 25.41208 21.58127
#
# Velocity S-wave (km/s) = 2.96709 3.55014 3.27163
# Velocity P-wave (km/s) = 4.39814 5.78718 5.13980
#
# Compressibility (1/GPa) = 0.06521130
#
# Stress axis : x y z
#
# Youngs Moduli (GPa) = 69.83807 51.93998 13.91933
#
# Poissons Ratio (x) = 0.36722 0.03769
# Poissons Ratio (y) = 0.49376 0.14370
# Poissons Ratio (z) = 0.18911 0.53621
#
# Static dielectric constant tensor:
#      x y z
#    x 1.725980 0.000000 0.010770 
#    y 0.000000 1.675970 0.000000 
#    z 0.010770 0.000000 1.706860 
# 
# From -- ./inp_files/380787.got.cif
#   From: 2010.05.17/outbox.cif.g08.bks.cpg/sg12_191_cif.got.tgz:380787.got - 2010.06.03 13:09:07.
