data_PCOD9196828
_publ_section_title
;
Structure prediction by ZEFSAII (Michael W. Deem and Ramdas Pophale) SiO2 
 PCOD9196828
Probable space group: C 2/M
;
_chemical_formula_sum "Si O2"
_cell_formula_units_Z 56
_cell_length_a 20.480565
_cell_length_b 8.761853
_cell_length_c 16.521013
_cell_angle_alpha 90.000000
_cell_angle_beta 92.154910
_cell_angle_gamma 90.000000
_cell_volume 2962.561227
_symmetry_space_group_name_H-M "C 2/M"
_symmetry_group_IT_number 12
_symmetry_cell_setting 'monoclinic'
loop_
_space_group_symop_operation_xyz
x,y,z
-x,y,-z
-x,-y,-z
x,-y,z
1/2+x,1/2+y,z
1/2-x,1/2+y,-z
1/2-x,1/2-y,-z
1/2+x,1/2-y,z
loop_
_atom_site_type_symbol
_atom_site_label
_atom_site_fract_x
_atom_site_fract_y
_atom_site_fract_z
Si Si1 0.574817 0.816762 0.023194
Si Si2 0.013893 0.817655 0.728523
Si Si3 0.300006 0.681650 0.437445
Si Si4 0.619404 0.816754 0.851359
Si Si5 0.939913 0.318349 0.438247
Si Si6 0.261903 0.815803 0.261356
Si Si7 0.619018 0.316205 0.195830
O O1 0.601656 0.744672 0.106271
O O2 0.574252 0.000000 0.033120
O O3 0.500000 0.769790 0.000000
O O4 0.617856 0.778766 0.946155
O O5 0.059950 0.767737 0.804596
O O6 0.040618 0.735652 0.650315
O O7 0.939913 0.771999 0.746928
O O8 0.016933 0.000000 0.717692
O O9 0.296557 0.500000 0.438555
O O10 0.250000 0.750000 0.500000
O O11 0.373314 0.736212 0.460282
O O12 0.282778 0.742234 0.346978
O O13 0.685253 0.779217 0.805788
O O14 0.608861 0.000000 0.844133
O O15 0.929103 0.500000 0.438083
O O16 0.000000 0.281925 0.500000
O O17 0.189701 0.765987 0.230847
O O18 0.261899 0.000000 0.271487
O O19 0.619749 0.500000 0.192253
#
# Coordination Sequence:
#
# PCOD9196828 Si02
#       7
#     8   8   8   8   8   8   8
#     4  10  20  35  57  88 120 158 207 256 309 364
#     4  11  22  37  60  90 122 159 206 254 308 364
#     4  12  26  44  67  95 127 165 208 253 308 368
#     4  10  20  37  62  85 117 163 207 252 306 369
#     4  11  25  44  66  95 127 162 205 254 311 369
#     4  10  22  42  63  87 123 166 207 250 308 369
#     4  10  23  39  58  89 124 161 204 256 309 360
#
# _framework density 18.902562
#
# number of rings (size 3 to 8) (size 9 to 14) (size 15 to 20)
#    0.000    1.429    2.857    2.143    2.000    3.714 
#    0.000    0.000    0.000    0.000    0.000    0.000 
#    0.000    0.000    0.000    0.000    0.000    0.000 
#
# Total GULP energy -156509.066185 kJ/mol
# GULP energy per Si atom -5589.609507 kJ/mol
# Density = 1.885954 g / cm^3
# Si number density = 18.902562 Si / 1000 Ang^3
#
#
#
# Elastic Constant Matrix: (Units=GPa)
#
#
# Indices 1 2 3 4 5 6 
#
# 1 155.4887 51.5125 47.0074 0.0000 -13.3175 0.0000
# 2 51.5125 36.2873 32.1048 0.0000 -3.7404 0.0000
# 3 47.0074 32.1048 83.2005 0.0000 -18.3961 0.0000
# 4 0.0000 0.0000 0.0000 25.2261 0.0000 -0.9381
# 5 -13.3175 -3.7404 -18.3961 0.0000 35.5733 0.0000
# 6 0.0000 0.0000 0.0000 -0.9381 0.0000 23.6275
#
#
#
# Elastic Compliance Matrix: (Units=1/GPa)
#
#
# Indices 1 2 3 4 5 6 
#
# 1 0.012429 -0.017785 0.000515 0.000000 0.003049 0.000000
# 2 -0.017785 0.067928 -0.018129 0.000000 -0.008891 0.000000
# 3 0.000515 -0.018129 0.020713 0.000000 0.008998 0.000000
# 4 0.000000 0.000000 0.000000 0.039700 0.000000 0.001576
# 5 0.003049 -0.008891 0.008998 0.000000 0.032971 0.000000
# 6 0.000000 0.000000 0.000000 0.001576 0.000000 0.042386
#
#
# Mechanical properties :
#
#
# Convention : Reuss Voigt Hill
#
# Bulk Modulus (GPa) = 33.03418 59.58067 46.30743
# Shear Modulus (GPa) = 16.83408 26.50882 21.67145
#
# Velocity S-wave (km/s) = 2.98748 3.74892 3.38965
# Velocity P-wave (km/s) = 5.42347 7.09419 6.31433
#
# Compressibility (1/GPa) = 0.03027167
#
# Stress axis : x y z
#
# Youngs Moduli (GPa) = 80.45757 14.72149 48.27784
#
# Poissons Ratio (x) = 0.26182 -0.02485
# Poissons Ratio (y) = 1.43092 0.87523
# Poissons Ratio (z) = -0.04141 0.26689
#
# Static dielectric constant tensor:
#      x y z
#    x 1.652580 0.000000 -0.010650 
#    y 0.000000 1.638570 0.000000 
#    z -0.010650 0.000000 1.627950 
# 
# From -- ./inp_files/231057.got.cif
#   From: 2010.05.17/outbox.cif.g08.bks.cpg/sg12_116_cif.got.tgz:231057.got - 2010.06.03 13:09:07.
