data_PCOD9196621
_publ_section_title
;
Structure prediction by ZEFSAII (Michael W. Deem and Ramdas Pophale) SiO2 
 PCOD9196621
Probable space group: C 2/M
;
_chemical_formula_sum "Si O2"
_cell_formula_units_Z 64
_cell_length_a 19.233043
_cell_length_b 8.747036
_cell_length_c 21.522087
_cell_angle_alpha 90.000000
_cell_angle_beta 108.967817
_cell_angle_gamma 90.000000
_cell_volume 3424.106659
_symmetry_space_group_name_H-M "C 2/M"
_symmetry_group_IT_number 12
_symmetry_cell_setting 'monoclinic'
loop_
_space_group_symop_operation_xyz
x,y,z
-x,y,-z
-x,-y,-z
x,-y,z
1/2+x,1/2+y,z
1/2-x,1/2+y,-z
1/2-x,1/2-y,-z
1/2+x,1/2-y,z
loop_
_atom_site_type_symbol
_atom_site_label
_atom_site_fract_x
_atom_site_fract_y
_atom_site_fract_z
Si Si1 0.551752 0.816953 0.213805
Si Si2 0.165807 0.179061 0.154881
Si Si3 0.251768 0.317578 0.069138
Si Si4 0.123426 0.685864 0.365005
Si Si5 0.395068 0.682150 0.192447
Si Si6 0.069914 0.315452 0.480069
Si Si7 0.813151 0.678541 0.280682
Si Si8 0.291804 0.317873 0.408333
O O1 0.600052 0.765562 0.169553
O O2 0.592328 0.764951 0.289342
O O3 0.471929 0.742538 0.189942
O O4 0.545821 0.000000 0.213731
O O5 0.189600 0.247687 0.095864
O O6 0.236875 0.194774 0.220661
O O7 0.149233 0.000000 0.144138
O O8 0.244067 0.500000 0.064841
O O9 0.329218 0.281313 0.125457
O O10 0.250000 0.250000 0.000000
O O11 0.124333 0.500000 0.364438
O O12 0.073704 0.734083 0.409050
O O13 0.208268 0.734857 0.398176
O O14 0.396296 0.500000 0.201624
O O15 0.375398 0.762762 0.251844
O O16 0.067799 0.500000 0.480206
O O17 0.145848 0.261559 0.532774
O O18 0.000000 0.260458 0.500000
O O19 0.824452 0.500000 0.299064
O O20 0.807992 0.775343 0.341612
O O21 0.295198 0.500000 0.418179
#
# Coordination Sequence:
#
# PCOD9196621 Si02
#       8
#     8   8   8   8   8   8   8   8
#     4  11  21  36  59  86 121 158 195 239 293 350
#     4  10  20  36  59  88 120 152 195 241 285 341
#     4  10  21  39  64  90 122 159 197 237 284 341
#     4   9  20  37  56  80 111 151 191 235 293 348
#     4  10  22  38  57  87 123 155 189 237 291 337
#     4  10  22  39  57  78 109 148 194 245 296 357
#     4  10  20  35  57  84 111 148 194 237 287 349
#     4  11  21  36  57  80 111 146 190 243 294 351
#
# _framework density 18.691006999999999
#
# number of rings (size 3 to 8) (size 9 to 14) (size 15 to 20)
#    0.000    1.875    1.250    2.625    1.750    2.750 
#    0.000    2.500    0.000    3.750    0.000    0.000 
#    0.000    0.000    0.000    0.000    0.000    0.000 
#
# Total GULP energy -178749.932173 kJ/mol
# GULP energy per Si atom -5585.935380 kJ/mol
# Density = 1.864847 g / cm^3
# Si number density = 18.691007 Si / 1000 Ang^3
#
#
#
# Elastic Constant Matrix: (Units=GPa)
#
#
# Indices 1 2 3 4 5 6 
#
# 1 113.9215 19.4468 32.1337 0.0000 -23.7142 0.0000
# 2 19.4468 13.1705 6.8039 0.0000 -1.5908 0.0000
# 3 32.1337 6.8039 87.4889 0.0000 -26.6105 0.0000
# 4 0.0000 0.0000 0.0000 27.1784 0.0000 0.8974
# 5 -23.7142 -1.5908 -26.6105 0.0000 24.1007 0.0000
# 6 0.0000 0.0000 0.0000 0.8974 0.0000 27.6746
#
#
#
# Elastic Compliance Matrix: (Units=1/GPa)
#
#
# Indices 1 2 3 4 5 6 
#
# 1 0.015129 -0.020805 0.000258 0.000000 0.013798 0.000000
# 2 -0.020805 0.107807 -0.007234 0.000000 -0.021343 0.000000
# 3 0.000258 -0.007234 0.017812 0.000000 0.019443 0.000000
# 4 0.000000 0.000000 0.000000 0.036833 0.000000 -0.001194
# 5 0.013798 -0.021343 0.019443 0.000000 0.075128 0.000000
# 6 0.000000 0.000000 0.000000 -0.001194 0.000000 0.036173
#
#
# Mechanical properties :
#
#
# Convention : Reuss Voigt Hill
#
# Bulk Modulus (GPa) = 11.73923 36.81663 24.27793
# Shear Modulus (GPa) = 13.41060 26.20385 19.80722
#
# Velocity S-wave (km/s) = 2.68151 3.74832 3.25886
# Velocity P-wave (km/s) = 3.98517 6.20270 5.21321
#
# Compressibility (1/GPa) = 0.08518446
#
# Stress axis : x y z
#
# Youngs Moduli (GPa) = 66.09831 9.27584 56.14343
#
# Poissons Ratio (x) = 0.19299 -0.01449
# Poissons Ratio (y) = 1.37520 0.40615
# Poissons Ratio (z) = -0.01706 0.06710
#
# Static dielectric constant tensor:
#      x y z
#    x 1.636850 0.000000 -0.002680 
#    y 0.000000 1.626380 0.000000 
#    z -0.002680 0.000000 1.631660 
# 
# From -- ./inp_files/314155.got.cif
#   From: 2010.05.17/outbox.cif.g08.bks.cpg/sg12_158_cif.got.tgz:314155.got - 2010.06.03 13:09:07.
