data_PCOD9196112
_publ_section_title
;
Structure prediction by ZEFSAII (Michael W. Deem and Ramdas Pophale) SiO2 
 PCOD9196112
Probable space group: C 2/M
;
_chemical_formula_sum "Si O2"
_cell_formula_units_Z 48
_cell_length_a 20.869830
_cell_length_b 8.654622
_cell_length_c 23.636603
_cell_angle_alpha 90.000000
_cell_angle_beta 140.789529
_cell_angle_gamma 90.000000
_cell_volume 2698.898725
_symmetry_space_group_name_H-M "C 2/M"
_symmetry_group_IT_number 12
_symmetry_cell_setting 'monoclinic'
loop_
_space_group_symop_operation_xyz
x,y,z
-x,y,-z
-x,-y,-z
x,-y,z
1/2+x,1/2+y,z
1/2-x,1/2+y,-z
1/2-x,1/2-y,-z
1/2+x,1/2-y,z
loop_
_atom_site_type_symbol
_atom_site_label
_atom_site_fract_x
_atom_site_fract_y
_atom_site_fract_z
Si Si1 0.884558 0.686878 0.433221
Si Si2 0.643157 0.814204 0.947366
Si Si3 0.065180 0.185573 0.232111
Si Si4 0.789924 0.185030 0.771639
Si Si5 0.239992 0.684592 0.430039
Si Si6 0.390449 0.814167 0.946412
O O1 0.880633 0.500000 0.436624
O O2 0.813102 0.728758 0.331133
O O3 0.832006 0.758388 0.452656
O O4 0.000000 0.732371 0.500000
O O5 0.548156 0.749694 0.847023
O O6 0.642222 0.000000 0.944277
O O7 0.750000 0.750000 0.000000
O O8 0.628498 0.763862 0.002591
O O9 0.120037 0.229930 0.210277
O O10 0.137407 0.252834 0.330210
O O11 0.065263 0.000000 0.235983
O O12 0.808587 0.258559 0.845021
O O13 0.791708 0.000000 0.778430
O O14 0.238252 0.500000 0.430013
O O15 0.250000 0.750000 0.500000
O O16 0.392179 0.000000 0.947239
O O17 0.500000 0.757144 0.000000
#
# Coordination Sequence:
#
# PCOD9196112 Si02
#       6
#     8   8   8   8   8   8
#     4   9  19  38  60  84 118 152 186 235 290 342
#     4  11  23  39  57  81 115 154 189 233 288 340
#     4  10  20  37  60  85 113 147 189 237 286 342
#     4   9  18  32  56  86 110 143 186 230 279 333
#     4  11  22  38  61  87 115 151 194 238 285 344
#     4  10  20  35  56  81 110 144 185 232 276 327
#
# _framework density 17.785032000000001
#
# number of rings (size 3 to 8) (size 9 to 14) (size 15 to 20)
#    0.000    2.000    1.667    3.500    0.000    4.667 
#    3.000    0.000    0.000    0.000    0.000    0.000 
#    0.000    0.000    0.000    0.000    0.000    0.000 
#
# Total GULP energy -133978.290138 kJ/mol
# GULP energy per Si atom -5582.428756 kJ/mol
# Density = 1.774455 g / cm^3
# Si number density = 17.785032 Si / 1000 Ang^3
#
#
#
# Elastic Constant Matrix: (Units=GPa)
#
#
# Indices 1 2 3 4 5 6 
#
# 1 129.0626 45.5406 97.1293 0.0000 10.7628 0.0000
# 2 45.5406 57.1405 46.7459 0.0000 2.5179 0.0000
# 3 97.1293 46.7459 149.9166 0.0000 3.6645 0.0000
# 4 0.0000 0.0000 0.0000 34.4609 0.0000 -1.3025
# 5 10.7628 2.5179 3.6645 0.0000 38.9161 0.0000
# 6 0.0000 0.0000 0.0000 -1.3025 0.0000 26.0666
#
#
#
# Elastic Compliance Matrix: (Units=1/GPa)
#
#
# Indices 1 2 3 4 5 6 
#
# 1 0.016932 -0.005957 -0.009028 0.000000 -0.003447 0.000000
# 2 -0.005957 0.025616 -0.004137 0.000000 0.000380 0.000000
# 3 -0.009028 -0.004137 0.013774 0.000000 0.001468 0.000000
# 4 0.000000 0.000000 0.000000 0.029073 0.000000 0.001453
# 5 -0.003447 0.000380 0.001468 0.000000 0.026487 0.000000
# 6 0.000000 0.000000 0.000000 0.001453 0.000000 0.038436
#
#
# Mechanical properties :
#
#
# Convention : Reuss Voigt Hill
#
# Bulk Modulus (GPa) = 55.31866 79.43904 67.37885
# Shear Modulus (GPa) = 25.69507 29.66897 27.68202
#
# Velocity S-wave (km/s) = 3.80512 4.08879 3.94950
# Velocity P-wave (km/s) = 7.10471 8.18866 7.66586
#
# Compressibility (1/GPa) = 0.01807708
#
# Stress axis : x y z
#
# Youngs Moduli (GPa) = 59.05916 39.03764 72.60027
#
# Poissons Ratio (x) = 0.23254 0.65547
# Poissons Ratio (y) = 0.35181 0.30038
# Poissons Ratio (z) = 0.53322 0.16151
#
# Static dielectric constant tensor:
#      x y z
#    x 1.591020 0.000000 0.004920 
#    y 0.000000 1.600480 0.000000 
#    z 0.004920 0.000000 1.598280 
# 
# From -- ./inp_files/320329.got.cif
#   From: 2010.05.17/outbox.cif.g08.bks.cpg/sg12_161_cif.got.tgz:320329.got - 2010.06.03 13:09:07.
