data_PCOD9196845
_publ_section_title
;
Structure prediction by ZEFSAII (Michael W. Deem and Ramdas Pophale) SiO2 
 PCOD9196845
Probable space group: C 2/M
;
_chemical_formula_sum "Si O2"
_cell_formula_units_Z 48
_cell_length_a 5.415331
_cell_length_b 24.707458
_cell_length_c 19.858636
_cell_angle_alpha 90.000000
_cell_angle_beta 55.357036
_cell_angle_gamma 90.000000
_cell_volume 2185.996386
_symmetry_space_group_name_H-M "C 2/M"
_symmetry_group_IT_number 12
_symmetry_cell_setting 'monoclinic'
loop_
_space_group_symop_operation_xyz
x,y,z
-x,y,-z
-x,-y,-z
x,-y,z
1/2+x,1/2+y,z
1/2-x,1/2+y,-z
1/2-x,1/2-y,-z
1/2+x,1/2-y,z
loop_
_atom_site_type_symbol
_atom_site_label
_atom_site_fract_x
_atom_site_fract_y
_atom_site_fract_z
Si Si1 0.107691 0.278512 0.643333
Si Si2 0.076240 0.439731 0.254718
Si Si3 0.444708 0.438841 0.431796
Si Si4 0.910262 0.671566 0.218406
Si Si5 0.178406 0.311348 0.034294
Si Si6 0.258677 0.626728 0.341874
O O1 0.935134 0.243063 0.613408
O O2 0.973955 0.287884 0.740583
O O3 0.039826 0.338677 0.626639
O O4 0.143408 0.500000 0.218270
O O5 0.052986 0.388158 0.209072
O O6 0.293215 0.420919 0.281670
O O7 0.756945 0.441836 0.342381
O O8 0.500000 0.423239 0.500000
O O9 0.323531 0.500000 0.451594
O O10 0.256706 0.398388 0.415398
O O11 0.989213 0.689749 0.131820
O O12 0.552142 0.664277 0.285814
O O13 0.500000 0.337500 0.000000
O O14 0.250000 0.250000 0.000000
O O15 0.000000 0.337310 0.000000
#
# Coordination Sequence:
#
# PCOD9196845 Si02
#       6
#     8   8   8   8   8   8
#     4  11  22  34  58  83 117 153 202 247 298 349
#     4   9  19  35  59  89 121 161 206 251 302 364
#     4   9  18  34  58  92 130 162 198 253 314 365
#     4  10  22  37  59  87 121 159 204 249 305 366
#     4  10  24  37  56  86 123 153 189 242 309 365
#     4  10  20  35  57  89 121 163 206 252 300 366
#
# _framework density 21.957951000000001
#
# number of rings (size 3 to 8) (size 9 to 14) (size 15 to 20)
#    0.000    2.167    1.667    0.500    9.333    1.333 
#    0.000    2.500    0.000    2.000    0.000    0.000 
#    0.000    0.000    0.000    0.000    0.000    0.000 
#
# Total GULP energy -133841.166483 kJ/mol
# GULP energy per Si atom -5576.715270 kJ/mol
# Density = 2.190797 g / cm^3
# Si number density = 21.957951 Si / 1000 Ang^3
#
#
#
# Elastic Constant Matrix: (Units=GPa)
#
#
# Indices 1 2 3 4 5 6 
#
# 1 142.7997 33.5529 37.9523 0.0000 24.1550 0.0000
# 2 33.5529 94.4201 24.0931 0.0000 13.2454 0.0000
# 3 37.9523 24.0931 102.5286 0.0000 21.7550 0.0000
# 4 0.0000 0.0000 0.0000 15.7662 0.0000 21.2028
# 5 24.1550 13.2454 21.7550 0.0000 31.7078 0.0000
# 6 0.0000 0.0000 0.0000 21.2028 0.0000 4.8454
#
#
#
# Elastic Compliance Matrix: (Units=1/GPa)
#
#
# Indices 1 2 3 4 5 6 
#
# 1 0.008723 -0.002001 -0.001786 0.000000 -0.004584 0.000000
# 2 -0.002001 0.012044 -0.001575 0.000000 -0.002426 0.000000
# 3 -0.001786 -0.001575 0.012121 0.000000 -0.006298 0.000000
# 4 0.000000 0.000000 0.000000 -0.012985 0.000000 0.056819
# 5 -0.004584 -0.002426 -0.006298 0.000000 0.040365 0.000000
# 6 0.000000 0.000000 0.000000 0.056819 0.000000 -0.042250
#
#
# Mechanical properties :
#
#
# Convention : Reuss Voigt Hill
#
# Bulk Modulus (GPa) = 45.11716 58.99388 52.05552
# Shear Modulus (GPa) = 138.38988 26.74055 82.56521
#
# Velocity S-wave (km/s) = 7.94744 3.49350 6.13866
# Velocity P-wave (km/s) = 10.23755 6.57250 8.60247
#
# Compressibility (1/GPa) = 0.02216451
#
# Stress axis : x y z
#
# Youngs Moduli (GPa) = 114.63866 83.02721 82.50244
#
# Poissons Ratio (x) = 0.16614 0.14736
# Poissons Ratio (y) = 0.22939 0.12992
# Poissons Ratio (z) = 0.20476 0.13074
#
# Static dielectric constant tensor:
#      x y z
#    x 1.815630 0.000000 -0.044260 
#    y 0.000000 1.859290 0.000000 
#    z -0.044260 0.000000 1.763520 
# 
# From -- ./inp_files/253410.got.cif
#   From: 2010.05.17/outbox.cif.g08.bks.cpg/sg12_127_cif.got.tgz:253410.got - 2010.06.03 13:09:07.
