data_PCOD9196461
_publ_section_title
;
Structure prediction by ZEFSAII (Michael W. Deem and Ramdas Pophale) SiO2 
 PCOD9196461
Probable space group: C 2/M
;
_chemical_formula_sum "Si O2"
_cell_formula_units_Z 56
_cell_length_a 9.115926
_cell_length_b 14.473435
_cell_length_c 26.408357
_cell_angle_alpha 90.000000
_cell_angle_beta 137.825465
_cell_angle_gamma 90.000000
_cell_volume 2339.319176
_symmetry_space_group_name_H-M "C 2/M"
_symmetry_group_IT_number 12
_symmetry_cell_setting 'monoclinic'
loop_
_space_group_symop_operation_xyz
x,y,z
-x,y,-z
-x,-y,-z
x,-y,z
1/2+x,1/2+y,z
1/2-x,1/2+y,-z
1/2-x,1/2-y,-z
1/2+x,1/2-y,z
loop_
_atom_site_type_symbol
_atom_site_label
_atom_site_fract_x
_atom_site_fract_y
_atom_site_fract_z
Si Si1 0.870510 0.387234 0.862193
Si Si2 0.785250 0.157180 0.477799
Si Si3 0.518801 0.386927 0.163935
Si Si4 0.489932 0.888281 0.687134
Si Si5 0.758783 0.399887 0.429778
Si Si6 0.359418 0.613034 0.012316
Si Si7 0.203471 0.113419 0.710129
O O1 0.868715 0.500000 0.863475
O O2 0.669723 0.355453 0.845749
O O3 0.832860 0.362087 0.794012
O O4 0.107399 0.358160 0.942705
O O5 0.750000 0.250000 0.500000
O O6 0.591512 0.137770 0.389478
O O7 0.818323 0.088726 0.532466
O O8 0.000000 0.156461 0.500000
O O9 0.518491 0.500000 0.165307
O O10 0.762292 0.356965 0.240642
O O11 0.461015 0.359506 0.091923
O O12 0.328453 0.856018 0.691188
O O13 0.487280 0.000000 0.689268
O O14 0.795871 0.500000 0.414130
O O15 0.549675 0.353287 0.350472
O O16 0.000000 0.359066 0.500000
O O17 0.361676 0.500000 0.012069
O O18 0.500000 0.644228 0.000000
O O19 0.189202 0.000000 0.704863
#
# Coordination Sequence:
#
# PCOD9196461 Si02
#       7
#     8   8   8   8   8   8   8
#     4   9  16  25  40  66 104 145 181 220 269 323
#     4  12  25  42  59  79 109 147 184 234 284 342
#     4   9  17  27  43  71 104 141 182 224 268 320
#     4  10  20  35  57  81 107 142 187 232 279 334
#     4  10  21  36  58  84 110 141 182 230 281 336
#     4   9  15  24  39  61  99 149 187 214 260 323
#     4   9  17  30  48  73 103 138 178 223 270 322
#
# _framework density 23.938590000000001
#
# number of rings (size 3 to 8) (size 9 to 14) (size 15 to 20)
#    0.000    2.286    1.429    2.143    2.000    5.714 
#    0.000    0.000    0.000    0.000    0.000    0.000 
#    0.000    1.143    0.571    0.000    0.000    0.000 
#
# Total GULP energy -156489.694567 kJ/mol
# GULP energy per Si atom -5588.917663 kJ/mol
# Density = 2.388410 g / cm^3
# Si number density = 23.938590 Si / 1000 Ang^3
#
#
#
# Elastic Constant Matrix: (Units=GPa)
#
#
# Indices 1 2 3 4 5 6 
#
# 1 106.8979 -12.2379 44.6976 0.0000 16.6022 0.0000
# 2 -12.2379 46.1470 -19.0014 0.0000 2.7345 0.0000
# 3 44.6976 -19.0014 206.8820 0.0000 19.0733 0.0001
# 4 0.0000 0.0000 0.0000 11.3118 0.0000 -31.3410
# 5 16.6022 2.7345 19.0733 0.0000 49.2963 0.0000
# 6 0.0000 0.0000 0.0001 -31.3410 0.0000 37.5198
#
#
#
# Elastic Compliance Matrix: (Units=1/GPa)
#
#
# Indices 1 2 3 4 5 6 
#
# 1 0.010870 0.002301 -0.001854 0.000000 -0.003071 0.000000
# 2 0.002301 0.023226 0.001894 0.000000 -0.002796 0.000000
# 3 -0.001854 0.001894 0.005559 0.000000 -0.001631 0.000000
# 4 0.000000 0.000000 0.000000 -0.067259 0.000000 -0.056183
# 5 -0.003071 -0.002796 -0.001631 0.000000 0.022106 0.000000
# 6 0.000000 0.000000 0.000000 -0.056183 0.000000 -0.020278
#
#
# Mechanical properties :
#
#
# Convention : Reuss Voigt Hill
#
# Bulk Modulus (GPa) = 22.55466 42.98262 32.76864
# Shear Modulus (GPa) = -318.89806 42.72348 -138.08729
#
# Velocity S-wave (km/s) = -11.55440 4.22917 -7.60324
# Velocity P-wave (km/s) = 12.98319 6.46855 7.95994
#
# Compressibility (1/GPa) = 0.04433673
#
# Stress axis : x y z
#
# Youngs Moduli (GPa) = 91.99270 43.05585 179.90187
#
# Poissons Ratio (x) = -0.09909 0.33355
# Poissons Ratio (y) = -0.21171 -0.34069
# Poissons Ratio (z) = 0.17056 -0.08154
#
# Static dielectric constant tensor:
#      x y z
#    x 1.856400 0.000000 0.014090 
#    y 0.000000 2.183700 0.000000 
#    z 0.014090 0.000000 1.855630 
# 
# From -- ./inp_files/334010.got.cif
#   From: 2010.05.17/outbox.cif.g08.bks.cpg/sg12_168_cif.got.tgz:334010.got - 2010.06.03 13:09:07.
