data_PCOD9196730
_publ_section_title
;
Structure prediction by ZEFSAII (Michael W. Deem and Ramdas Pophale) SiO2 
 PCOD9196730
Probable space group: C 2/M
;
_chemical_formula_sum "Si O2"
_cell_formula_units_Z 32
_cell_length_a 20.491418
_cell_length_b 8.740461
_cell_length_c 12.466893
_cell_angle_alpha 90.000000
_cell_angle_beta 126.123500
_cell_angle_gamma 90.000000
_cell_volume 1803.601380
_symmetry_space_group_name_H-M "C 2/M"
_symmetry_group_IT_number 12
_symmetry_cell_setting 'monoclinic'
loop_
_space_group_symop_operation_xyz
x,y,z
-x,y,-z
-x,-y,-z
x,-y,z
1/2+x,1/2+y,z
1/2-x,1/2+y,-z
1/2-x,1/2-y,-z
1/2+x,1/2-y,z
loop_
_atom_site_type_symbol
_atom_site_label
_atom_site_fract_x
_atom_site_fract_y
_atom_site_fract_z
Si Si1 0.121931 0.817064 0.609055
Si Si2 0.486300 0.182608 0.320276
Si Si3 0.959844 0.182919 0.847164
Si Si4 0.282679 0.816918 0.643537
O O1 0.090931 0.744495 0.689471
O O2 0.213776 0.784575 0.665179
O O3 0.063336 0.749380 0.460116
O O4 0.110586 0.000000 0.601130
O O5 0.492614 0.241549 0.205621
O O6 0.488897 0.000000 0.327120
O O7 0.868400 0.243717 0.753784
O O8 0.959807 0.000000 0.832849
O O9 0.000000 0.219783 0.000000
O O10 0.250000 0.750000 0.500000
O O11 0.291204 0.000000 0.641660
#
# Coordination Sequence:
#
# PCOD9196730 Si02
#       4
#     8   8   8   8
#     4  10  20  35  57  85 118 151 188 237 290 343
#     4  11  21  34  57  86 116 151 192 239 289 344
#     4  11  24  41  60  83 117 158 196 239 293 349
#     4  11  22  36  60  89 118 151 192 242 288 343
#
# _framework density 17.742280000000001
#
# number of rings (size 3 to 8) (size 9 to 14) (size 15 to 20)
#    0.000    1.250    2.500    6.000    0.000    5.000 
#    0.000    1.250    0.000    0.000    0.000    0.000 
#    0.000    0.000    0.000    0.000    0.000    0.000 
#
# Total GULP energy -89426.323888 kJ/mol
# GULP energy per Si atom -5589.145243 kJ/mol
# Density = 1.770190 g / cm^3
# Si number density = 17.742280 Si / 1000 Ang^3
#
#
#
# Elastic Constant Matrix: (Units=GPa)
#
#
# Indices 1 2 3 4 5 6 
#
# 1 156.1958 75.5538 79.8522 0.0000 -21.5957 0.0000
# 2 75.5538 105.5349 61.3088 0.0000 -14.5520 0.0000
# 3 79.8522 61.3088 111.0311 0.0000 -9.9244 0.0000
# 4 0.0000 0.0000 0.0000 17.2099 0.0000 -0.5678
# 5 -21.5957 -14.5520 -9.9244 0.0000 28.4913 0.0000
# 6 0.0000 0.0000 0.0000 -0.5678 0.0000 34.6666
#
#
#
# Elastic Compliance Matrix: (Units=1/GPa)
#
#
# Indices 1 2 3 4 5 6 
#
# 1 0.012375 -0.004811 -0.005805 0.000000 0.004900 0.000000
# 2 -0.004811 0.016427 -0.005353 0.000000 0.002879 0.000000
# 3 -0.005805 -0.005353 0.015998 0.000000 -0.001562 0.000000
# 4 0.000000 0.000000 0.000000 0.058138 0.000000 0.000952
# 5 0.004900 0.002879 -0.001562 0.000000 0.039739 0.000000
# 6 0.000000 0.000000 0.000000 0.000952 0.000000 0.028862
#
#
# Mechanical properties :
#
#
# Convention : Reuss Voigt Hill
#
# Bulk Modulus (GPa) = 77.75768 89.57683 83.66726
# Shear Modulus (GPa) = 24.06594 26.47669 25.27132
#
# Velocity S-wave (km/s) = 3.68695 3.86721 3.77816
# Velocity P-wave (km/s) = 7.87694 8.39868 8.14199
#
# Compressibility (1/GPa) = 0.01286047
#
# Stress axis : x y z
#
# Youngs Moduli (GPa) = 80.80997 60.87723 62.50913
#
# Poissons Ratio (x) = 0.29289 0.36287
# Poissons Ratio (y) = 0.38879 0.33461
# Poissons Ratio (z) = 0.46911 0.32587
#
# Static dielectric constant tensor:
#      x y z
#    x 1.619540 0.000000 -0.009300 
#    y 0.000000 1.592710 0.000000 
#    z -0.009300 0.000000 1.566670 
# 
# From -- ./inp_files/151054.got.cif
#   From: 2010.05.17/outbox.cif.g08.bks.cpg/sg12_76_cif.got.tgz:151054.got - 2010.06.03 13:09:07.
