data_PCOD9196564
_publ_section_title
;
Structure prediction by ZEFSAII (Michael W. Deem and Ramdas Pophale) SiO2 
 PCOD9196564
Probable space group: C 2/M
;
_chemical_formula_sum "Si O2"
_cell_formula_units_Z 40
_cell_length_a 19.810502
_cell_length_b 13.056075
_cell_length_c 18.713836
_cell_angle_alpha 90.000000
_cell_angle_beta 25.961404
_cell_angle_gamma 90.000000
_cell_volume 2118.910254
_symmetry_space_group_name_H-M "C 2/M"
_symmetry_group_IT_number 12
_symmetry_cell_setting 'monoclinic'
loop_
_space_group_symop_operation_xyz
x,y,z
-x,y,-z
-x,-y,-z
x,-y,z
1/2+x,1/2+y,z
1/2-x,1/2+y,-z
1/2-x,1/2-y,-z
1/2+x,1/2-y,z
loop_
_atom_site_type_symbol
_atom_site_label
_atom_site_fract_x
_atom_site_fract_y
_atom_site_fract_z
Si Si1 0.022844 0.877657 0.892737
Si Si2 0.517554 0.384604 0.399373
Si Si3 0.920552 0.381272 0.847491
Si Si4 0.720808 0.761849 0.131144
Si Si5 0.280291 0.220879 0.387713
O O1 0.156720 0.813555 0.723436
O O2 0.043065 0.000000 0.863482
O O3 0.000000 0.858638 0.000000
O O4 0.862636 0.836626 0.011654
O O5 0.500000 0.393743 0.500000
O O6 0.547331 0.500000 0.342173
O O7 0.654518 0.303299 0.258607
O O8 0.366220 0.336678 0.506179
O O9 0.897507 0.500000 0.861693
O O10 0.915549 0.326200 0.775546
O O11 0.074237 0.355766 0.744508
O O12 0.780259 0.326777 0.021567
O O13 0.250000 0.250000 0.500000
#
# Coordination Sequence:
#
# PCOD9196564 Si02
#       5
#     8   8   8   8   8
#     4  10  22  40  62  87 120 162 202 246 305 368
#     4  11  23  39  60  87 122 161 198 245 305 363
#     4  10  20  35  57  83 112 149 193 242 296 349
#     4  10  20  37  57  84 116 151 196 243 289 353
#     4  11  22  40  59  89 121 157 200 255 301 357
#
# _framework density 18.877627
#
# number of rings (size 3 to 8) (size 9 to 14) (size 15 to 20)
#    0.000    1.600    2.000    3.000    0.000    1.600 
#    0.000    0.000    0.000   13.800    0.000    0.000 
#    0.000    0.000    0.000    0.000    0.000    0.000 
#
# Total GULP energy -111427.042705 kJ/mol
# GULP energy per Si atom -5571.352135 kJ/mol
# Density = 1.883466 g / cm^3
# Si number density = 18.877627 Si / 1000 Ang^3
#
#
#
# Elastic Constant Matrix: (Units=GPa)
#
#
# Indices 1 2 3 4 5 6 
#
# 1 65.8846 31.0126 4.2123 -0.0002 9.4178 0.0000
# 2 31.0126 126.8258 22.6283 -0.0003 13.1832 0.0001
# 3 4.2123 22.6283 29.0262 -0.0004 11.4981 0.0002
# 4 -0.0002 -0.0003 -0.0004 22.3727 0.0005 4.6795
# 5 9.4178 13.1832 11.4981 0.0005 35.9587 -0.0002
# 6 0.0000 0.0001 0.0002 4.6795 -0.0002 23.5213
#
#
#
# Elastic Compliance Matrix: (Units=1/GPa)
#
#
# Indices 1 2 3 4 5 6 
#
# 1 0.017604 -0.004325 0.002308 0.000000 -0.003763 0.000000
# 2 -0.004325 0.010269 -0.007254 0.000000 -0.000312 0.000000
# 3 0.002308 -0.007254 0.044608 0.000001 -0.012209 -0.000001
# 4 0.000000 0.000000 0.000001 0.046638 -0.000001 -0.009278
# 5 -0.003763 -0.000312 -0.012209 -0.000001 0.032814 0.000001
# 6 0.000000 0.000000 -0.000001 -0.009278 0.000001 0.044361
#
#
# Mechanical properties :
#
#
# Convention : Reuss Voigt Hill
#
# Bulk Modulus (GPa) = 18.53967 37.49364 28.01666
# Shear Modulus (GPa) = 21.47606 27.29611 24.38608
#
# Velocity S-wave (km/s) = 3.37656 3.80669 3.59806
# Velocity P-wave (km/s) = 5.00438 6.26304 5.66875
#
# Compressibility (1/GPa) = 0.05393839
#
# Stress axis : x y z
#
# Youngs Moduli (GPa) = 56.80402 97.37751 22.41732
#
# Poissons Ratio (x) = 0.42120 -0.05174
# Poissons Ratio (y) = 0.24570 0.16262
# Poissons Ratio (z) = -0.13110 0.70641
#
# Static dielectric constant tensor:
#      x y z
#    x 1.675190 0.000000 0.030050 
#    y 0.000000 1.646130 0.000000 
#    z 0.030050 0.000000 1.686110 
# 
# From -- ./inp_files/71219.got.cif
#   From: 2010.05.17/outbox.cif.g08.bks.cpg/sg12_36_cif.got.tgz:71219.got - 2010.06.03 13:09:07.
