data_PCOD9196016
_publ_section_title
;
Structure prediction by ZEFSAII (Michael W. Deem and Ramdas Pophale) SiO2 
 PCOD9196016
Probable space group: C 2/M
;
_chemical_formula_sum "Si O2"
_cell_formula_units_Z 48
_cell_length_a 7.550067
_cell_length_b 12.089177
_cell_length_c 23.517065
_cell_angle_alpha 90.000000
_cell_angle_beta 113.568159
_cell_angle_gamma 90.000000
_cell_volume 1967.448813
_symmetry_space_group_name_H-M "C 2/M"
_symmetry_group_IT_number 12
_symmetry_cell_setting 'monoclinic'
loop_
_space_group_symop_operation_xyz
x,y,z
-x,y,-z
-x,-y,-z
x,-y,z
1/2+x,1/2+y,z
1/2-x,1/2+y,-z
1/2-x,1/2-y,-z
1/2+x,1/2-y,z
loop_
_atom_site_type_symbol
_atom_site_label
_atom_site_fract_x
_atom_site_fract_y
_atom_site_fract_z
Si Si1 0.800528 0.117865 0.377418
Si Si2 0.071001 0.682848 0.451591
Si Si3 0.526438 0.125546 0.233610
Si Si4 0.481916 0.653880 0.081775
Si Si5 0.133913 0.125388 0.802948
Si Si6 0.337828 0.886885 0.054216
O O1 0.644772 0.114735 0.408031
O O2 0.688259 0.127675 0.303997
O O3 0.927424 0.224748 0.407446
O O4 0.910360 0.000000 0.392041
O O5 0.250000 0.750000 0.500000
O O6 0.000000 0.624368 0.500000
O O7 0.645339 0.123730 0.190068
O O8 0.428671 0.248311 0.225275
O O9 0.432356 0.000000 0.227451
O O10 0.423507 0.627564 0.138183
O O11 0.474083 0.783681 0.068480
O O12 0.696327 0.618319 0.090949
O O13 0.317614 0.614221 0.017016
O O14 0.061089 0.000000 0.773335
O O15 0.449892 0.000000 0.065769
#
# Coordination Sequence:
#
# PCOD9196016 Si02
#       6
#     8   8   8   8   8   8
#     4  10  20  38  58  77 113 153 182 225 279 327
#     4   9  19  34  56  87 114 141 183 224 266 329
#     4  10  23  39  58  84 113 151 195 235 280 336
#     4  10  20  35  56  80 107 143 183 227 282 342
#     4  11  22  38  59  83 112 147 191 240 287 334
#     4  10  20  36  54  77 110 143 178 224 283 343
#
# _framework density 24.397075000000001
#
# number of rings (size 3 to 8) (size 9 to 14) (size 15 to 20)
#    0.000    2.000    0.000    4.000    0.000    4.667 
#    0.000   11.667    0.000    0.000    0.000    0.000 
#    0.000    0.000    0.000    0.000    0.000    0.000 
#
# Total GULP energy -133866.512756 kJ/mol
# GULP energy per Si atom -5577.771365 kJ/mol
# Density = 2.434155 g / cm^3
# Si number density = 24.397075 Si / 1000 Ang^3
#
#
#
# Elastic Constant Matrix: (Units=GPa)
#
#
# Indices 1 2 3 4 5 6 
#
# 1 47.8235 22.1974 -1.7308 0.0000 -9.3824 0.0000
# 2 22.1974 263.0112 20.2997 0.0000 21.1304 0.0000
# 3 -1.7308 20.2997 91.0115 0.0000 -4.3213 0.0000
# 4 0.0000 0.0000 0.0000 75.9930 0.0000 28.6659
# 5 -9.3824 21.1304 -4.3213 0.0000 26.6985 0.0000
# 6 0.0000 0.0000 0.0000 28.6659 0.0000 37.8877
#
#
#
# Elastic Compliance Matrix: (Units=1/GPa)
#
#
# Indices 1 2 3 4 5 6 
#
# 1 0.024667 -0.003132 0.001710 0.000000 0.011424 0.000000
# 2 -0.003132 0.004563 -0.001311 0.000000 -0.004924 0.000000
# 3 0.001710 -0.001311 0.011479 0.000000 0.003496 0.000000
# 4 0.000000 0.000000 0.000000 0.018415 0.000000 -0.013933
# 5 0.011424 -0.004924 0.003496 0.000000 0.045933 0.000000
# 6 0.000000 0.000000 0.000000 -0.013933 0.000000 0.036935
#
#
# Mechanical properties :
#
#
# Convention : Reuss Voigt Hill
#
# Bulk Modulus (GPa) = 28.37430 53.70876 41.04153
# Shear Modulus (GPa) = 31.40608 52.18784 41.79696
#
# Velocity S-wave (km/s) = 3.59177 4.63006 4.14357
# Velocity P-wave (km/s) = 5.37183 7.11657 6.30484
#
# Compressibility (1/GPa) = 0.03524316
#
# Stress axis : x y z
#
# Youngs Moduli (GPa) = 40.54029 219.14303 87.11859
#
# Poissons Ratio (x) = 0.68626 -0.14897
# Poissons Ratio (y) = 0.12695 0.11423
# Poissons Ratio (z) = -0.06932 0.28733
#
# Static dielectric constant tensor:
#      x y z
#    x 1.936620 0.000000 -0.018890 
#    y 0.000000 2.042140 0.000000 
#    z -0.018890 0.000000 2.004740 
# 
# From -- ./inp_files/332272.got.cif
#   From: 2010.05.17/outbox.cif.g08.bks.cpg/sg12_167_cif.got.tgz:332272.got - 2010.06.03 13:09:07.
