data_PCOD9196213
_publ_section_title
;
Structure prediction by ZEFSAII (Michael W. Deem and Ramdas Pophale) SiO2 
 PCOD9196213
Probable space group: C 2/M
;
_chemical_formula_sum "Si O2"
_cell_formula_units_Z 56
_cell_length_a 17.603203
_cell_length_b 20.138697
_cell_length_c 11.480522
_cell_angle_alpha 90.000000
_cell_angle_beta 129.306883
_cell_angle_gamma 90.000000
_cell_volume 3149.149547
_symmetry_space_group_name_H-M "C 2/M"
_symmetry_group_IT_number 12
_symmetry_cell_setting 'monoclinic'
loop_
_space_group_symop_operation_xyz
x,y,z
-x,y,-z
-x,-y,-z
x,-y,z
1/2+x,1/2+y,z
1/2-x,1/2+y,-z
1/2-x,1/2-y,-z
1/2+x,1/2-y,z
loop_
_atom_site_type_symbol
_atom_site_label
_atom_site_fract_x
_atom_site_fract_y
_atom_site_fract_z
Si Si1 0.592995 0.178015 0.668330
Si Si2 0.294616 0.662535 0.455263
Si Si3 0.281387 0.700689 0.692701
Si Si4 0.584655 0.629042 0.004889
Si Si5 0.328730 0.578010 0.271914
Si Si6 0.476459 0.681271 0.304727
Si Si7 0.720530 0.076032 0.926810
O O1 0.500000 0.157240 0.500000
O O2 0.682553 0.190252 0.668075
O O3 0.568809 0.247620 0.707552
O O4 0.635676 0.124715 0.800347
O O5 0.281094 0.652602 0.579987
O O6 0.222555 0.723112 0.352531
O O7 0.286931 0.603817 0.354350
O O8 0.408454 0.684846 0.556878
O O9 0.370101 0.683842 0.864392
O O10 0.539850 0.661549 0.845374
O O11 0.500000 0.594109 0.000000
O O12 0.679129 0.587925 0.050936
O O13 0.354246 0.500000 0.301027
O O14 0.420654 0.623978 0.323479
O O15 0.251975 0.588022 0.091304
O O16 0.690646 0.000000 0.884392
#
# Coordination Sequence:
#
# PCOD9196213 Si02
#       7
#     8   8   8   8   8   8   8
#     4  11  20  36  60  85 111 147 192 242 284 326
#     4  11  20  34  54  80 120 147 180 236 279 333
#     4  10  21  34  53  83 115 145 184 233 283 329
#     4  10  20  35  56  82 115 146 184 227 289 343
#     4  10  21  37  57  83 116 153 188 225 279 345
#     4  11  20  34  58  86 114 147 190 233 279 339
#     4   9  22  38  56  82 112 150 196 233 277 337
#
# _framework density 17.782578999999998
#
# number of rings (size 3 to 8) (size 9 to 14) (size 15 to 20)
#    0.000    1.714    4.286    0.429    2.000    3.429 
#    0.000    2.857    0.000    0.000    0.000    2.000 
#    0.000    0.000    0.000    0.000    0.000    0.000 
#
# Total GULP energy -156085.781616 kJ/mol
# GULP energy per Si atom -5574.492201 kJ/mol
# Density = 1.774211 g / cm^3
# Si number density = 17.782579 Si / 1000 Ang^3
#
#
#
# Elastic Constant Matrix: (Units=GPa)
#
#
# Indices 1 2 3 4 5 6 
#
# 1 50.2987 13.2091 11.3917 0.0000 -18.2189 0.0000
# 2 13.2091 89.4565 44.3045 0.0000 -6.3331 0.0000
# 3 11.3917 44.3045 84.7137 0.0000 -19.2456 0.0000
# 4 0.0000 0.0000 0.0000 16.1200 0.0000 -10.1497
# 5 -18.2189 -6.3331 -19.2456 0.0000 32.9307 0.0000
# 6 0.0000 0.0000 0.0000 -10.1497 0.0000 6.5218
#
#
#
# Elastic Compliance Matrix: (Units=1/GPa)
#
#
# Indices 1 2 3 4 5 6 
#
# 1 0.025708 -0.003631 0.001747 0.000000 0.014545 0.000000
# 2 -0.003631 0.015711 -0.008646 0.000000 -0.004041 0.000000
# 3 0.001747 -0.008646 0.018373 0.000000 0.010041 0.000000
# 4 0.000000 0.000000 0.000000 3.083109 0.000000 4.798140
# 5 0.014545 -0.004041 0.010041 0.000000 0.043505 0.000000
# 6 0.000000 0.000000 0.000000 4.798140 0.000000 7.620516
#
#
# Mechanical properties :
#
#
# Convention : Reuss Voigt Hill
#
# Bulk Modulus (GPa) = 25.82025 40.25328 33.03676
# Shear Modulus (GPa) = 0.46122 21.48542 10.97332
#
# Velocity S-wave (km/s) = 0.50983 3.47973 2.48681
# Velocity P-wave (km/s) = 3.85980 6.23139 5.18306
#
# Compressibility (1/GPa) = 0.03872929
#
# Stress axis : x y z
#
# Youngs Moduli (GPa) = 38.89876 63.64983 54.42858
#
# Poissons Ratio (x) = 0.23113 -0.09506
# Poissons Ratio (y) = 0.14125 0.47061
# Poissons Ratio (z) = -0.06794 0.55034
#
# Static dielectric constant tensor:
#      x y z
#    x 1.626230 0.000000 -0.018740 
#    y 0.000000 1.591400 0.000000 
#    z -0.018740 0.000000 1.622810 
# 
# From -- ./inp_files/159289.got.cif
#   From: 2010.05.17/outbox.cif.g08.bks.cpg/sg12_80_cif.got.tgz:159289.got - 2010.06.03 13:09:07.
