data_PCOD9196684
_publ_section_title
;
Structure prediction by ZEFSAII (Michael W. Deem and Ramdas Pophale) SiO2 
 PCOD9196684
Probable space group: C 2/M
;
_chemical_formula_sum "Si O2"
_cell_formula_units_Z 64
_cell_length_a 27.793644
_cell_length_b 9.821397
_cell_length_c 16.253183
_cell_angle_alpha 90.000000
_cell_angle_beta 133.584364
_cell_angle_gamma 90.000000
_cell_volume 3213.746828
_symmetry_space_group_name_H-M "C 2/M"
_symmetry_group_IT_number 12
_symmetry_cell_setting 'monoclinic'
loop_
_space_group_symop_operation_xyz
x,y,z
-x,y,-z
-x,-y,-z
x,-y,z
1/2+x,1/2+y,z
1/2-x,1/2+y,-z
1/2-x,1/2-y,-z
1/2+x,1/2-y,z
loop_
_atom_site_type_symbol
_atom_site_label
_atom_site_fract_x
_atom_site_fract_y
_atom_site_fract_z
Si Si1 0.541304 0.164514 0.469719
Si Si2 0.943121 0.338352 0.212882
Si Si3 0.703356 0.159686 0.887497
Si Si4 0.058160 0.152487 0.947754
Si Si5 0.405844 0.653077 0.829240
Si Si6 0.292636 0.347875 0.441149
Si Si7 0.803541 0.660960 0.312886
Si Si8 0.343455 0.848753 0.625579
O O1 0.500000 0.214489 0.500000
O O2 0.504217 0.209999 0.342611
O O3 0.618449 0.191492 0.578076
O O4 0.535339 0.000000 0.461186
O O5 0.950700 0.500000 0.206019
O O6 0.874138 0.319694 0.181113
O O7 0.937683 0.257593 0.121326
O O8 0.712596 0.186543 0.801302
O O9 0.717889 0.000000 0.918439
O O10 0.750000 0.250000 0.000000
O O11 0.982677 0.147287 0.891888
O O12 0.076489 0.000000 0.940827
O O13 0.099202 0.181663 0.079408
O O14 0.377776 0.500000 0.780343
O O15 0.377106 0.772102 0.740386
O O16 0.316472 0.500000 0.448334
O O17 0.267701 0.262254 0.333415
O O18 0.344750 0.251442 0.549614
O O19 0.232345 0.363736 0.433949
O O20 0.792039 0.500000 0.317059
O O21 0.369987 0.000000 0.638653
#
# Coordination Sequence:
#
# PCOD9196684 Si02
#       8
#     8   8   8   8   8   8   8   8
#     4   9  16  32  58  83 110 141 178 228 280 328
#     4  10  20  35  57  85 112 142 184 234 282 328
#     4  10  22  39  58  81 113 151 189 230 276 329
#     4   9  20  37  55  79 112 148 182 221 276 337
#     4   9  19  37  57  77 109 149 184 224 275 327
#     4  10  22  38  55  80 114 146 179 226 279 329
#     4  10  20  36  59  85 110 143 188 230 276 335
#     4  10  21  37  57  80 108 145 187 228 271 323
#
# _framework density 19.914449999999999
#
# number of rings (size 3 to 8) (size 9 to 14) (size 15 to 20)
#    0.000    2.375    1.250    1.500    1.750    4.500 
#    0.000    6.250    0.000    0.750    0.000    0.000 
#    0.000    0.000    0.000    0.000    0.000    0.000 
#
# Total GULP energy -178485.505390 kJ/mol
# GULP energy per Si atom -5577.672043 kJ/mol
# Density = 1.986912 g / cm^3
# Si number density = 19.914450 Si / 1000 Ang^3
#
#
#
# Elastic Constant Matrix: (Units=GPa)
#
#
# Indices 1 2 3 4 5 6 
#
# 1 36.9505 22.2257 9.3564 0.0000 -18.6989 0.0000
# 2 22.2257 112.3063 77.2712 0.0000 -20.5225 0.0000
# 3 9.3564 77.2712 114.8814 0.0000 -17.8098 0.0000
# 4 0.0000 0.0000 0.0000 17.4054 0.0000 -6.0369
# 5 -18.6989 -20.5225 -17.8098 0.0000 33.4449 0.0000
# 6 0.0000 0.0000 0.0000 -6.0369 0.0000 25.2975
#
#
#
# Elastic Compliance Matrix: (Units=1/GPa)
#
#
# Indices 1 2 3 4 5 6 
#
# 1 0.041059 -0.007885 0.005198 0.000000 0.020885 0.000000
# 2 -0.007885 0.018770 -0.011860 0.000000 0.000793 0.000000
# 3 0.005198 -0.011860 0.016983 0.000000 0.004672 0.000000
# 4 0.000000 0.000000 0.000000 0.062638 0.000000 0.014948
# 5 0.020885 0.000793 0.004672 0.000000 0.044552 0.000000
# 6 0.000000 0.000000 0.000000 0.014948 0.000000 0.043097
#
#
# Mechanical properties :
#
#
# Convention : Reuss Voigt Hill
#
# Bulk Modulus (GPa) = 20.95699 53.53829 37.24764
# Shear Modulus (GPa) = 18.37576 25.58188 21.97882
#
# Velocity S-wave (km/s) = 3.04095 3.58800 3.32574
# Velocity P-wave (km/s) = 4.78291 6.64135 5.78722
#
# Compressibility (1/GPa) = 0.04771678
#
# Stress axis : x y z
#
# Youngs Moduli (GPa) = 24.35504 53.27775 58.88394
#
# Poissons Ratio (x) = 0.42012 -0.30606
# Poissons Ratio (y) = 0.19205 0.69834
# Poissons Ratio (z) = -0.12659 0.63185
#
# Static dielectric constant tensor:
#      x y z
#    x 1.760760 0.000000 0.024890 
#    y 0.000000 1.700980 0.000000 
#    z 0.024890 0.000000 1.711170 
# 
# From -- ./inp_files/250044.got.cif
#   From: 2010.05.17/outbox.cif.g08.bks.cpg/sg12_126_cif.got.tgz:250044.got - 2010.06.03 13:09:07.
