data_PCOD9196033
_publ_section_title
;
Structure prediction by ZEFSAII (Michael W. Deem and Ramdas Pophale) SiO2 
 PCOD9196033
Probable space group: C 2/M
;
_chemical_formula_sum "Si O2"
_cell_formula_units_Z 60
_cell_length_a 9.392936
_cell_length_b 19.228275
_cell_length_c 25.055882
_cell_angle_alpha 90.000000
_cell_angle_beta 47.735776
_cell_angle_gamma 90.000000
_cell_volume 3348.984534
_symmetry_space_group_name_H-M "C 2/M"
_symmetry_group_IT_number 12
_symmetry_cell_setting 'monoclinic'
loop_
_space_group_symop_operation_xyz
x,y,z
-x,y,-z
-x,-y,-z
x,-y,z
1/2+x,1/2+y,z
1/2-x,1/2+y,-z
1/2-x,1/2-y,-z
1/2+x,1/2-y,z
loop_
_atom_site_type_symbol
_atom_site_label
_atom_site_fract_x
_atom_site_fract_y
_atom_site_fract_z
Si Si1 0.029431 0.821940 0.302985
Si Si2 0.047453 0.581869 0.284786
Si Si3 0.778751 0.083377 0.547224
Si Si4 0.428442 0.798187 0.901529
Si Si5 0.500000 0.743227 0.000000
Si Si6 0.794487 0.684614 0.526222
Si Si7 0.841177 0.202142 0.235435
Si Si8 0.369717 0.919685 0.211946
O O1 0.177453 0.761092 0.281799
O O2 0.151744 0.892756 0.272472
O O3 0.860325 0.822990 0.388128
O O4 0.951242 0.806817 0.263434
O O5 0.089700 0.500000 0.284053
O O6 0.229379 0.631542 0.248532
O O7 0.869957 0.603134 0.368288
O O8 0.972754 0.588777 0.243248
O O9 0.707365 0.117351 0.510919
O O10 0.000000 0.106688 0.500000
O O11 0.780109 0.000000 0.544214
O O12 0.479655 0.786923 0.950547
O O13 0.516586 0.733148 0.845600
O O14 0.527052 0.867434 0.854591
O O15 0.199645 0.799319 0.949099
O O16 0.750000 0.750000 0.500000
O O17 0.000000 0.695159 0.500000
O O18 0.378934 0.000000 0.193994
#
# Coordination Sequence:
#
# PCOD9196033 Si02
#       8
#     8   8   8   8   4   8   8   8
#     4  11  22  35  56  79 107 147 188 236 282 328
#     4  10  20  35  56  80 108 144 187 236 280 325
#     4  10  21  37  55  75 105 146 189 234 287 339
#     4  10  20  36  60  86 112 145 175 218 263 319
#     4  10  20  36  60  88 114 138 178 210 260 330
#     4  12  24  36  52  77 109 145 187 239 291 338
#     4  11  21  38  58  82 110 141 185 228 273 323
#     4  10  21  38  59  84 113 146 187 227 271 324
#
# _framework density 17.915879
#
# number of rings (size 3 to 8) (size 9 to 14) (size 15 to 20)
#    0.000    1.467    0.000    7.600    0.000    2.400 
#    0.000    0.667    0.000    3.200    0.000    0.000 
#    0.000    0.000    0.000    0.000    0.000    0.000 
#
# Total GULP energy -167602.605168 kJ/mol
# GULP energy per Si atom -5586.753506 kJ/mol
# Density = 1.787510 g / cm^3
# Si number density = 17.915879 Si / 1000 Ang^3
#
#
#
# Elastic Constant Matrix: (Units=GPa)
#
#
# Indices 1 2 3 4 5 6 
#
# 1 94.6284 31.1827 27.0426 0.0002 -5.9233 -0.0006
# 2 31.1827 66.3791 35.9383 0.0000 -5.0105 -0.0002
# 3 27.0426 35.9383 115.2081 0.0004 -6.8473 -0.0008
# 4 0.0002 0.0000 0.0004 6.7005 -0.0005 4.5085
# 5 -5.9233 -5.0105 -6.8473 -0.0005 35.1119 0.0003
# 6 -0.0006 -0.0002 -0.0008 4.5085 0.0003 26.8984
#
#
#
# Elastic Compliance Matrix: (Units=1/GPa)
#
#
# Indices 1 2 3 4 5 6 
#
# 1 0.012720 -0.005185 -0.001300 0.000000 0.001152 0.000000
# 2 -0.005185 0.020318 -0.005059 0.000001 0.001038 0.000000
# 3 -0.001300 -0.005059 0.010631 -0.000001 0.001132 0.000000
# 4 0.000000 0.000001 -0.000001 0.168212 0.000003 -0.028194
# 5 0.001152 0.001038 0.001132 0.000003 0.029044 -0.000001
# 6 0.000000 0.000000 0.000000 -0.028194 -0.000001 0.041903
#
#
# Mechanical properties :
#
#
# Convention : Reuss Voigt Hill
#
# Bulk Modulus (GPa) = 48.58923 51.61585 50.10254
# Shear Modulus (GPa) = 15.98593 25.87897 20.93245
#
# Velocity S-wave (km/s) = 2.99034 3.80474 3.42186
# Velocity P-wave (km/s) = 6.25320 6.94076 6.60593
#
# Compressibility (1/GPa) = 0.02058069
#
# Stress axis : x y z
#
# Youngs Moduli (GPa) = 78.61808 49.21727 94.06817
#
# Poissons Ratio (x) = 0.25517 0.12228
# Poissons Ratio (y) = 0.40760 0.47593
# Poissons Ratio (z) = 0.10220 0.24901
#
# Static dielectric constant tensor:
#      x y z
#    x 1.593120 0.000000 -0.012230 
#    y 0.000000 1.617930 0.000000 
#    z -0.012230 0.000000 1.612880 
# 
# From -- ./inp_files/301890.got.cif
#   From: 2010.05.17/outbox.cif.g08.bks.cpg/sg12_151_cif.got.tgz:301890.got - 2010.06.03 13:09:07.
