data_PCOD9196110
_publ_section_title
;
Structure prediction by ZEFSAII (Michael W. Deem and Ramdas Pophale) SiO2 
 PCOD9196110
Probable space group: C 2/M
;
_chemical_formula_sum "Si O2"
_cell_formula_units_Z 64
_cell_length_a 31.832001
_cell_length_b 8.706590
_cell_length_c 25.585818
_cell_angle_alpha 90.000000
_cell_angle_beta 30.807954
_cell_angle_gamma 90.000000
_cell_volume 3631.773710
_symmetry_space_group_name_H-M "C 2/M"
_symmetry_group_IT_number 12
_symmetry_cell_setting 'monoclinic'
loop_
_space_group_symop_operation_xyz
x,y,z
-x,y,-z
-x,-y,-z
x,-y,z
1/2+x,1/2+y,z
1/2-x,1/2+y,-z
1/2-x,1/2-y,-z
1/2+x,1/2-y,z
loop_
_atom_site_type_symbol
_atom_site_label
_atom_site_fract_x
_atom_site_fract_y
_atom_site_fract_z
Si Si1 0.920305 0.313574 0.054875
Si Si2 0.204178 0.683360 0.195317
Si Si3 0.737374 0.315162 0.273686
Si Si4 0.129870 0.684012 0.482206
Si Si5 0.668959 0.183884 0.559915
Si Si6 0.006144 0.816455 0.230402
Si Si7 0.621929 0.184610 0.017244
Si Si8 0.454632 0.683641 0.691352
O O1 0.922989 0.500000 0.053096
O O2 0.833491 0.269238 0.173197
O O3 0.916106 0.269612 0.998461
O O4 0.000000 0.255331 0.000000
O O5 0.206579 0.500000 0.195051
O O6 0.204635 0.751624 0.253469
O O7 0.286795 0.745957 0.079635
O O8 0.124234 0.740066 0.250243
O O9 0.732846 0.500000 0.277773
O O10 0.686674 0.249905 0.376084
O O11 0.125351 0.500000 0.483316
O O12 0.164388 0.723935 0.503052
O O13 0.038705 0.753643 0.576613
O O14 0.750000 0.250000 0.500000
O O15 0.586002 0.250837 0.673868
O O16 0.668134 0.000000 0.565321
O O17 0.038995 0.780538 0.253628
O O18 0.003882 0.000000 0.227078
O O19 0.065160 0.744198 0.124225
O O20 0.627805 0.000000 0.012391
O O21 0.450658 0.500000 0.689578
#
# Coordination Sequence:
#
# PCOD9196110 Si02
#       8
#     8   8   8   8   8   8   8   8
#     4   8  16  32  53  78 106 137 176 219 261 309
#     4  11  22  37  57  80 109 143 180 225 273 320
#     4  10  20  35  56  81 110 144 181 222 270 326
#     4  10  21  37  56  81 111 142 180 226 274 322
#     4  10  21  37  57  81 112 147 184 227 272 322
#     4  10  21  37  57  81 110 143 180 225 276 327
#     4  10  20  35  56  81 110 144 182 224 270 323
#     4  10  21  38  58  80 107 140 180 224 272 328
#
# _framework density 17.622243000000001
#
# number of rings (size 3 to 8) (size 9 to 14) (size 15 to 20)
#    0.000    2.125    0.000    4.125    0.000    5.000 
#    0.000    3.750    0.000   12.750    0.000    0.000 
#    0.000    0.000    0.000    0.000    0.000    0.000 
#
# Total GULP energy -178676.070016 kJ/mol
# GULP energy per Si atom -5583.627188 kJ/mol
# Density = 1.758213 g / cm^3
# Si number density = 17.622243 Si / 1000 Ang^3
#
#
#
# Elastic Constant Matrix: (Units=GPa)
#
#
# Indices 1 2 3 4 5 6 
#
# 1 115.0535 50.7734 107.0836 -0.0066 -28.1113 0.0054
# 2 50.7734 73.1410 66.0682 -0.0055 -2.9023 0.0026
# 3 107.0836 66.0682 189.6056 -0.0122 5.7177 0.0026
# 4 -0.0066 -0.0055 -0.0122 34.9572 0.0032 2.7230
# 5 -28.1113 -2.9023 5.7177 0.0032 30.9393 -0.0004
# 6 0.0054 0.0026 0.0026 2.7230 -0.0004 25.5474
#
#
#
# Elastic Compliance Matrix: (Units=1/GPa)
#
#
# Indices 1 2 3 4 5 6 
#
# 1 0.047179 -0.008103 -0.025232 -0.000005 0.046770 -0.000005
# 2 -0.008103 0.021659 -0.002826 0.000001 -0.004808 0.000000
# 3 -0.025232 -0.002826 0.021327 0.000005 -0.027132 0.000003
# 4 -0.000005 0.000001 0.000005 0.028846 -0.000008 -0.003075
# 5 0.046770 -0.004808 -0.027132 -0.000008 0.079379 -0.000004
# 6 -0.000005 0.000000 0.000003 -0.003075 -0.000004 0.039471
#
#
# Mechanical properties :
#
#
# Convention : Reuss Voigt Hill
#
# Bulk Modulus (GPa) = 56.04279 91.73894 73.89086
# Shear Modulus (GPa) = 15.81620 28.54710 22.18165
#
# Velocity S-wave (km/s) = 2.99910 4.02922 3.55171
# Velocity P-wave (km/s) = 6.62300 8.59173 7.67079
#
# Compressibility (1/GPa) = 0.01784351
#
# Stress axis : x y z
#
# Youngs Moduli (GPa) = 21.19571 46.17050 46.88794
#
# Poissons Ratio (x) = 0.37412 1.18310
# Poissons Ratio (y) = 0.17175 0.13249
# Poissons Ratio (z) = 0.53482 0.13047
#
# Static dielectric constant tensor:
#      x y z
#    x 1.585450 0.000000 -0.000100 
#    y 0.000000 1.588500 0.000000 
#    z -0.000100 0.000000 1.568010 
# 
# From -- ./inp_files/250115.got.cif
#   From: 2010.05.17/outbox.cif.g08.bks.cpg/sg12_126_cif.got.tgz:250115.got - 2010.06.03 13:09:07.
