data_PCOD9196755
_publ_section_title
;
Structure prediction by ZEFSAII (Michael W. Deem and Ramdas Pophale) SiO2 
 PCOD9196755
Probable space group: C 2/M
;
_chemical_formula_sum "Si O2"
_cell_formula_units_Z 56
_cell_length_a 22.639885
_cell_length_b 8.846905
_cell_length_c 14.656808
_cell_angle_alpha 90.000000
_cell_angle_beta 96.225784
_cell_angle_gamma 90.000000
_cell_volume 2918.341029
_symmetry_space_group_name_H-M "C 2/M"
_symmetry_group_IT_number 12
_symmetry_cell_setting 'monoclinic'
loop_
_space_group_symop_operation_xyz
x,y,z
-x,y,-z
-x,-y,-z
x,-y,z
1/2+x,1/2+y,z
1/2-x,1/2+y,-z
1/2-x,1/2-y,-z
1/2+x,1/2-y,z
loop_
_atom_site_type_symbol
_atom_site_label
_atom_site_fract_x
_atom_site_fract_y
_atom_site_fract_z
Si Si1 0.376836 0.823857 0.191613
Si Si2 0.315472 0.817279 0.996211
Si Si3 0.951146 0.820343 0.354913
Si Si4 0.085965 0.179971 0.348049
Si Si5 0.264462 0.823903 0.309725
Si Si6 0.150834 0.320668 0.201285
Si Si7 0.354878 0.819068 0.474269
O O1 0.424964 0.723537 0.251673
O O2 0.317364 0.818436 0.243847
O O3 0.396068 0.000000 0.193159
O O4 0.357837 0.774502 0.087566
O O5 0.341059 0.771650 0.902178
O O6 0.310350 0.000000 0.996810
O O7 0.250000 0.750000 0.000000
O O8 0.909928 0.734902 0.420562
O O9 0.020073 0.776279 0.370267
O O10 0.946231 0.000000 0.370055
O O11 0.099185 0.241065 0.249683
O O12 0.134175 0.246938 0.425955
O O13 0.089502 0.000000 0.349794
O O14 0.211306 0.724053 0.263732
O O15 0.295402 0.774102 0.409284
O O16 0.245518 0.000000 0.314330
O O17 0.142338 0.500000 0.201882
O O18 0.355016 0.000000 0.480083
#
# Coordination Sequence:
#
# PCOD9196755 Si02
#       7
#     8   8   8   8   8   8   8
#     4   9  18  34  57  84 113 144 181 228 278 325
#     4  10  20  35  57  86 114 143 183 227 274 329
#     4  10  21  37  58  84 111 143 188 232 273 325
#     4  11  24  40  56  77 111 152 188 229 277 326
#     4   9  18  34  55  81 113 145 177 222 278 330
#     4  11  23  36  55  83 113 147 187 227 274 331
#     4  10  21  37  60  86 111 143 184 229 277 329
#
# _framework density 19.188984000000001
#
# number of rings (size 3 to 8) (size 9 to 14) (size 15 to 20)
#    0.000    2.000    1.429    3.000    0.000    8.571 
#    0.000    0.714    0.000    4.286    0.000    0.000 
#    0.000    0.000    0.000    0.000    0.000    0.000 
#
# Total GULP energy -156398.872776 kJ/mol
# GULP energy per Si atom -5585.674028 kJ/mol
# Density = 1.914531 g / cm^3
# Si number density = 19.188984 Si / 1000 Ang^3
#
#
#
# Elastic Constant Matrix: (Units=GPa)
#
#
# Indices 1 2 3 4 5 6 
#
# 1 14.9522 -2.6117 8.1778 0.0000 -2.0265 0.0000
# 2 -2.6117 19.1873 9.5187 0.0000 -0.9325 0.0000
# 3 8.1778 9.5187 115.3788 0.0000 -8.0206 0.0000
# 4 0.0000 0.0000 0.0000 19.0151 0.0000 0.1869
# 5 -2.0265 -0.9325 -8.0206 0.0000 24.4177 0.0000
# 6 0.0000 0.0000 0.0000 0.1869 0.0000 27.7528
#
#
#
# Elastic Compliance Matrix: (Units=1/GPa)
#
#
# Indices 1 2 3 4 5 6 
#
# 1 0.073043 0.013112 -0.005938 0.000000 0.004612 0.000000
# 2 0.013112 0.056705 -0.005507 0.000000 0.001445 0.000000
# 3 -0.005938 -0.005507 0.009715 0.000000 0.002488 0.000000
# 4 0.000000 0.000000 0.000000 0.052593 0.000000 -0.000354
# 5 0.004612 0.001445 0.002488 0.000000 0.042209 0.000000
# 6 0.000000 0.000000 0.000000 -0.000354 0.000000 0.036035
#
#
# Mechanical properties :
#
#
# Convention : Reuss Voigt Hill
#
# Bulk Modulus (GPa) = 7.00295 19.96531 13.48413
# Shear Modulus (GPa) = 15.89495 23.19935 19.54715
#
# Velocity S-wave (km/s) = 2.88121 3.48083 3.19512
# Velocity P-wave (km/s) = 3.83743 5.15578 4.54466
#
# Compressibility (1/GPa) = 0.14279691
#
# Stress axis : x y z
#
# Youngs Moduli (GPa) = 13.69057 17.63522 102.93063
#
# Poissons Ratio (x) = -0.23124 0.61123
# Poissons Ratio (y) = -0.17951 0.56684
# Poissons Ratio (z) = 0.08130 0.09712
#
# Static dielectric constant tensor:
#      x y z
#    x 1.663520 0.000000 -0.011360 
#    y 0.000000 1.643170 0.000000 
#    z -0.011360 0.000000 1.687420 
# 
# From -- ./inp_files/237896.got.cif
#   From: 2010.05.17/outbox.cif.g08.bks.cpg/sg12_119_cif.got.tgz:237896.got - 2010.06.03 13:09:07.
