data_PCOD9196978
_publ_section_title
;
Structure prediction by ZEFSAII (Michael W. Deem and Ramdas Pophale) SiO2 
 PCOD9196978
Probable space group: C 2/M
;
_chemical_formula_sum "Si O2"
_cell_formula_units_Z 40
_cell_length_a 29.100968
_cell_length_b 14.750392
_cell_length_c 9.659577
_cell_angle_alpha 90.000000
_cell_angle_beta 30.444388
_cell_angle_gamma 90.000000
_cell_volume 2100.978301
_symmetry_space_group_name_H-M "C 2/M"
_symmetry_group_IT_number 12
_symmetry_cell_setting 'monoclinic'
loop_
_space_group_symop_operation_xyz
x,y,z
-x,y,-z
-x,-y,-z
x,-y,z
1/2+x,1/2+y,z
1/2-x,1/2+y,-z
1/2-x,1/2-y,-z
1/2+x,1/2-y,z
loop_
_atom_site_type_symbol
_atom_site_label
_atom_site_fract_x
_atom_site_fract_y
_atom_site_fract_z
Si Si1 0.583836 0.608898 0.692088
Si Si2 0.572785 0.395239 0.414460
Si Si3 0.248980 0.280439 0.662229
Si Si4 0.607720 0.105502 0.208066
Si Si5 0.228865 0.339287 0.144435
O O1 0.583777 0.500000 0.687480
O O2 0.572628 0.646726 0.566674
O O3 0.677429 0.640848 0.511574
O O4 0.500000 0.640316 0.000000
O O5 0.500000 0.352796 0.500000
O O6 0.545023 0.500000 0.504655
O O7 0.676082 0.392691 0.096389
O O8 0.250000 0.250000 0.500000
O O9 0.285749 0.197620 0.663016
O O10 0.158790 0.323772 0.970596
O O11 0.500000 0.122541 0.500000
O O12 0.653981 0.113955 0.241406
O O13 0.621011 0.000000 0.128613
O O14 0.250000 0.250000 0.000000
#
# Coordination Sequence:
#
# PCOD9196978 Si02
#       5
#     8   8   8   8   8
#     4  10  21  38  58  82 118 158 192 235 297 357
#     4  10  20  35  58  85 113 147 193 242 286 344
#     4  11  24  39  57  90 126 156 192 247 308 356
#     4  10  21  41  67  87 114 163 211 247 289 351
#     4  10  20  36  58  84 115 152 195 244 293 346
#
# _framework density 19.03875
#
# number of rings (size 3 to 8) (size 9 to 14) (size 15 to 20)
#    0.000    1.800    4.000    1.200    2.800    4.800 
#    0.000    3.000    0.000    2.400    0.000    0.000 
#    0.000    0.000    0.000    0.000    0.000    0.000 
#
# Total GULP energy -111381.340516 kJ/mol
# GULP energy per Si atom -5569.067026 kJ/mol
# Density = 1.899542 g / cm^3
# Si number density = 19.038750 Si / 1000 Ang^3
#
#
#
# Elastic Constant Matrix: (Units=GPa)
#
#
# Indices 1 2 3 4 5 6 
#
# 1 160.8796 29.7011 62.4345 0.0000 1.8043 0.0000
# 2 29.7011 45.0773 22.3705 0.0000 4.1825 0.0000
# 3 62.4345 22.3705 110.4486 0.0000 -10.9992 0.0000
# 4 0.0000 0.0000 0.0000 92.5186 0.0000 -0.4510
# 5 1.8043 4.1825 -10.9992 0.0000 41.7553 0.0000
# 6 0.0000 0.0000 0.0000 -0.4510 0.0000 10.6232
#
#
#
# Elastic Compliance Matrix: (Units=1/GPa)
#
#
# Indices 1 2 3 4 5 6 
#
# 1 0.008496 -0.003393 -0.004229 0.000000 -0.001141 0.000000
# 2 -0.003393 0.026649 -0.003831 0.000000 -0.003532 0.000000
# 3 -0.004229 -0.003831 0.012608 0.000000 0.003888 0.000000
# 4 0.000000 0.000000 0.000000 0.010811 0.000000 0.000459
# 5 -0.001141 -0.003532 0.003888 0.000000 0.025376 0.000000
# 6 0.000000 0.000000 0.000000 0.000459 0.000000 0.094153
#
#
# Mechanical properties :
#
#
# Convention : Reuss Voigt Hill
#
# Bulk Modulus (GPa) = 40.24825 60.60195 50.42510
# Shear Modulus (GPa) = 23.89116 42.43938 33.16527
#
# Velocity S-wave (km/s) = 3.54626 4.72646 4.17824
# Velocity P-wave (km/s) = 6.16068 7.85404 7.05832
#
# Compressibility (1/GPa) = 0.02484580
#
# Stress axis : x y z
#
# Youngs Moduli (GPa) = 117.69707 37.52487 79.31630
#
# Poissons Ratio (x) = 0.12734 0.33544
# Poissons Ratio (y) = 0.39940 0.30386
# Poissons Ratio (z) = 0.49776 0.14376
#
# Static dielectric constant tensor:
#      x y z
#    x 1.443120 0.000000 -0.052200 
#    y 0.000000 1.706060 0.000000 
#    z -0.052200 0.000000 1.667950 
# 
# From -- ./inp_files/59216.got.cif
#   From: 2010.05.17/outbox.cif.g08.bks.cpg/sg12_30_cif.got.tgz:59216.got - 2010.06.03 13:09:07.
