data_PCOD9196195
_publ_section_title
;
Structure prediction by ZEFSAII (Michael W. Deem and Ramdas Pophale) SiO2 
 PCOD9196195
Probable space group: C 2/M
;
_chemical_formula_sum "Si O2"
_cell_formula_units_Z 64
_cell_length_a 18.411255
_cell_length_b 8.829463
_cell_length_c 34.862962
_cell_angle_alpha 90.000000
_cell_angle_beta 142.457514
_cell_angle_gamma 90.000000
_cell_volume 3453.412534
_symmetry_space_group_name_H-M "C 2/M"
_symmetry_group_IT_number 12
_symmetry_cell_setting 'monoclinic'
loop_
_space_group_symop_operation_xyz
x,y,z
-x,y,-z
-x,-y,-z
x,-y,z
1/2+x,1/2+y,z
1/2-x,1/2+y,-z
1/2-x,1/2-y,-z
1/2+x,1/2-y,z
loop_
_atom_site_type_symbol
_atom_site_label
_atom_site_fract_x
_atom_site_fract_y
_atom_site_fract_z
Si Si1 0.088936 0.674695 0.000419
Si Si2 0.705724 0.817850 0.250287
Si Si3 0.215436 0.319706 0.867442
Si Si4 0.412812 0.316886 0.498189
Si Si5 0.979935 0.184217 0.375203
Si Si6 0.110455 0.180292 0.131730
Si Si7 0.348870 0.317141 0.622335
Si Si8 0.954382 0.181702 0.749451
O O1 0.112226 0.500000 0.000498
O O2 0.015670 0.757102 0.936364
O O3 0.207547 0.756939 0.064731
O O4 0.000000 0.677597 0.000000
O O5 0.843615 0.768297 0.311944
O O6 0.651819 0.758912 0.187915
O O7 0.630137 0.752212 0.253696
O O8 0.701806 0.000000 0.249452
O O9 0.202141 0.500000 0.865248
O O10 0.292670 0.288169 0.861292
O O11 0.088049 0.241464 0.810917
O O12 0.500000 0.272120 0.500000
O O13 0.405462 0.500000 0.495233
O O14 0.468065 0.267447 0.562006
O O15 0.281908 0.250797 0.437391
O O16 0.065036 0.233636 0.376174
O O17 0.979784 0.000000 0.375049
O O18 0.103691 0.000000 0.133944
O O19 0.341081 0.500000 0.617688
O O20 0.405602 0.275123 0.686968
O O21 0.953270 0.000000 0.751864
#
# Coordination Sequence:
#
# PCOD9196195 Si02
#       8
#     8   8   8   8   8   8   8   8
#     4   9  17  31  54  83 113 147 187 228 274 328
#     4  11  22  38  59  80 108 147 188 229 281 341
#     4  10  20  35  57  84 113 147 187 230 277 330
#     4  10  20  35  56  82 113 147 182 223 273 328
#     4   9  19  36  57  81 109 143 184 229 276 330
#     4  10  20  35  56  84 116 146 183 231 278 329
#     4  10  21  37  57  81 109 143 184 229 276 327
#     4  11  23  38  55  78 111 147 186 234 285 335
#
# _framework density 18.532394
#
# number of rings (size 3 to 8) (size 9 to 14) (size 15 to 20)
#    0.000    2.000    0.000    3.750    0.000    6.250 
#    0.000    3.125    0.000    0.000    0.000    0.000 
#    0.000    0.000    0.000    0.000    0.000    0.000 
#
# Total GULP energy -178761.245291 kJ/mol
# GULP energy per Si atom -5586.288915 kJ/mol
# Density = 1.849021 g / cm^3
# Si number density = 18.532394 Si / 1000 Ang^3
#
#
#
# Elastic Constant Matrix: (Units=GPa)
#
#
# Indices 1 2 3 4 5 6 
#
# 1 138.7165 59.4195 117.2706 0.0001 -13.7709 -0.0001
# 2 59.4195 53.0766 64.7387 0.0001 -1.5077 -0.0001
# 3 117.2706 64.7387 223.8666 0.0000 10.9867 0.0000
# 4 0.0001 0.0001 0.0000 30.5439 0.0000 6.7595
# 5 -13.7709 -1.5077 10.9867 0.0000 -32.3260 0.0000
# 6 -0.0001 -0.0001 0.0000 6.7595 0.0000 19.8287
#
#
#
# Elastic Compliance Matrix: (Units=1/GPa)
#
#
# Indices 1 2 3 4 5 6 
#
# 1 0.015144 -0.012232 -0.004039 0.000000 -0.007254 0.000000
# 2 -0.012232 0.038433 -0.004794 0.000000 0.001789 0.000000
# 3 -0.004039 -0.004794 0.007745 0.000000 0.004577 0.000000
# 4 0.000000 0.000000 0.000000 0.035411 0.000000 -0.012071
# 5 -0.007254 0.001789 0.004577 0.000000 -0.026373 0.000000
# 6 0.000000 0.000000 0.000000 -0.012071 0.000000 0.054547
#
#
# Mechanical properties :
#
#
# Convention : Reuss Voigt Hill
#
# Bulk Modulus (GPa) = 52.11159 99.83524 75.97342
# Shear Modulus (GPa) = 28.82908 15.22471 22.02689
#
# Velocity S-wave (km/s) = 3.94839 2.86932 3.45129
# Velocity P-wave (km/s) = 6.99762 8.06009 7.54757
#
# Compressibility (1/GPa) = 0.01918959
#
# Stress axis : x y z
#
# Youngs Moduli (GPa) = 66.03483 26.01901 129.11879
#
# Poissons Ratio (x) = 0.31827 0.52157
# Poissons Ratio (y) = 0.80776 0.61904
# Poissons Ratio (z) = 0.26674 0.12474
#
# Static dielectric constant tensor:
#      x y z
#    x 1.617270 0.000000 -0.008070 
#    y 0.000000 1.621480 0.000000 
#    z -0.008070 0.000000 1.608520 
# 
# From -- ./inp_files/378412.got.cif
#   From: 2010.05.17/outbox.cif.g08.bks.cpg/sg12_190_cif.got.tgz:378412.got - 2010.06.03 13:09:07.
