data_PCOD9196559
_publ_section_title
;
Structure prediction by ZEFSAII (Michael W. Deem and Ramdas Pophale) SiO2 
 PCOD9196559
Probable space group: C 2/M
;
_chemical_formula_sum "Si O2"
_cell_formula_units_Z 64
_cell_length_a 31.150023
_cell_length_b 8.078778
_cell_length_c 15.738545
_cell_angle_alpha 90.000000
_cell_angle_beta 46.585852
_cell_angle_gamma 90.000000
_cell_volume 2877.050221
_symmetry_space_group_name_H-M "C 2/M"
_symmetry_group_IT_number 12
_symmetry_cell_setting 'monoclinic'
loop_
_space_group_symop_operation_xyz
x,y,z
-x,y,-z
-x,-y,-z
x,-y,z
1/2+x,1/2+y,z
1/2-x,1/2+y,-z
1/2-x,1/2-y,-z
1/2+x,1/2-y,z
loop_
_atom_site_type_symbol
_atom_site_label
_atom_site_fract_x
_atom_site_fract_y
_atom_site_fract_z
Si Si1 0.497366 0.191573 0.598780
Si Si2 0.946997 0.305151 0.840006
Si Si3 0.680591 0.308036 0.991770
Si Si4 0.281977 0.192391 0.588719
Si Si5 0.467539 0.697513 0.127465
Si Si6 0.380304 0.310119 0.576128
Si Si7 0.334308 0.701688 0.338228
Si Si8 0.310415 0.198457 0.827785
O O1 0.500000 0.266305 0.500000
O O2 0.458919 0.263174 0.728218
O O3 0.565659 0.204909 0.534567
O O4 0.478763 0.000000 0.613529
O O5 0.959218 0.500000 0.819767
O O6 0.878836 0.279025 0.957813
O O7 0.991941 0.228664 0.845927
O O8 0.675279 0.500000 0.976274
O O9 0.682154 0.284803 0.091837
O O10 0.746374 0.251142 0.876413
O O11 0.322296 0.292537 0.597949
O O12 0.310836 0.217186 0.456623
O O13 0.213545 0.240700 0.669805
O O14 0.284581 0.000000 0.610858
O O15 0.462044 0.500000 0.123910
O O16 0.400602 0.758089 0.229392
O O17 0.500000 0.766541 0.000000
O O18 0.398846 0.500000 0.553947
O O19 0.362013 0.244556 0.693419
O O20 0.332938 0.500000 0.350973
O O21 0.309360 0.000000 0.842724
#
# Coordination Sequence:
#
# PCOD9196559 Si02
#       8
#     8   8   8   8   8   8   8   8
#     4  10  22  40  61  86 119 159 198 239 293 353
#     4  11  23  38  60  89 120 156 197 243 294 349
#     4  10  21  38  61  86 113 150 193 235 284 342
#     4  10  20  35  57  83 112 146 183 229 288 348
#     4  10  22  40  60  82 112 152 197 244 294 349
#     4  12  24  36  55  85 118 151 191 236 283 339
#     4   9  19  37  59  82 108 140 184 236 289 345
#     4  10  21  38  59  83 115 152 189 235 288 341
#
# _framework density 22.245004999999999
#
# number of rings (size 3 to 8) (size 9 to 14) (size 15 to 20)
#    0.000    1.750    0.000    4.125    0.000    8.000 
#    0.000    2.500    0.000    0.000    0.000    0.000 
#    0.000    0.000    0.000    0.000    0.000    0.000 
#
# Total GULP energy -178825.617943 kJ/mol
# GULP energy per Si atom -5588.300561 kJ/mol
# Density = 2.219437 g / cm^3
# Si number density = 22.245005 Si / 1000 Ang^3
#
#
#
# Elastic Constant Matrix: (Units=GPa)
#
#
# Indices 1 2 3 4 5 6 
#
# 1 78.6577 -1.4215 19.9860 0.0000 -19.6716 -0.0001
# 2 -1.4215 22.8695 -0.9518 0.0002 -0.4571 -0.0001
# 3 19.9860 -0.9518 89.5447 0.0001 -25.8844 0.0001
# 4 0.0000 0.0002 0.0001 17.4360 0.0000 -1.2186
# 5 -19.6716 -0.4571 -25.8844 0.0000 36.4606 0.0000
# 6 -0.0001 -0.0001 0.0001 -1.2186 0.0000 31.1492
#
#
#
# Elastic Compliance Matrix: (Units=1/GPa)
#
#
# Indices 1 2 3 4 5 6 
#
# 1 0.014831 0.001013 -0.001236 0.000000 0.007136 0.000000
# 2 0.001013 0.043850 0.000701 0.000000 0.001594 0.000000
# 3 -0.001236 0.000701 0.014168 0.000000 0.009400 0.000000
# 4 0.000000 0.000000 0.000000 0.057510 0.000000 0.002250
# 5 0.007136 0.001594 0.009400 0.000000 0.037971 0.000000
# 6 0.000000 0.000000 0.000000 0.002250 0.000000 0.032192
#
#
# Mechanical properties :
#
#
# Convention : Reuss Voigt Hill
#
# Bulk Modulus (GPa) = 13.54948 25.14416 19.34682
# Shear Modulus (GPa) = 22.30472 28.57312 25.43892
#
# Velocity S-wave (km/s) = 3.16995 3.58784 3.38535
# Velocity P-wave (km/s) = 4.41615 5.33773 4.89866
#
# Compressibility (1/GPa) = 0.07380358
#
# Stress axis : x y z
#
# Youngs Moduli (GPa) = 67.42839 22.80487 70.58012
#
# Poissons Ratio (x) = -0.02310 0.08727
# Poissons Ratio (y) = -0.06830 -0.04945
# Poissons Ratio (z) = 0.08337 -0.01598
#
# Static dielectric constant tensor:
#      x y z
#    x 1.838570 0.000000 -0.015290 
#    y 0.000000 1.781810 0.000000 
#    z -0.015290 0.000000 1.813660 
# 
# From -- ./inp_files/295531.got.cif
#   From: 2010.05.17/outbox.cif.g08.bks.cpg/sg12_148_cif.got.tgz:295531.got - 2010.06.03 13:09:07.
