data_PCOD9196278
_publ_section_title
;
Structure prediction by ZEFSAII (Michael W. Deem and Ramdas Pophale) SiO2 
 PCOD9196278
Probable space group: C 2/M
;
_chemical_formula_sum "Si O2"
_cell_formula_units_Z 56
_cell_length_a 21.714723
_cell_length_b 8.437665
_cell_length_c 15.889783
_cell_angle_alpha 90.000000
_cell_angle_beta 87.271817
_cell_angle_gamma 90.000000
_cell_volume 2908.051027
_symmetry_space_group_name_H-M "C 2/M"
_symmetry_group_IT_number 12
_symmetry_cell_setting 'monoclinic'
loop_
_space_group_symop_operation_xyz
x,y,z
-x,y,-z
-x,-y,-z
x,-y,z
1/2+x,1/2+y,z
1/2-x,1/2+y,-z
1/2-x,1/2-y,-z
1/2+x,1/2-y,z
loop_
_atom_site_type_symbol
_atom_site_label
_atom_site_fract_x
_atom_site_fract_y
_atom_site_fract_z
Si Si1 0.816656 0.309865 0.025035
Si Si2 0.529222 0.685524 0.410455
Si Si3 0.343355 0.185921 0.549947
Si Si4 0.645017 0.193030 0.793129
Si Si5 0.944530 0.810630 0.940317
Si Si6 0.285353 0.190771 0.378080
Si Si7 0.505543 0.189401 0.770020
O O1 0.815958 0.500000 0.023137
O O2 0.827710 0.254951 0.120184
O O3 0.750000 0.250000 0.000000
O O4 0.877407 0.254129 0.970600
O O5 0.500000 0.748894 0.500000
O O6 0.513737 0.500000 0.405659
O O7 0.602007 0.711695 0.415983
O O8 0.508453 0.766395 0.325383
O O9 0.331869 0.222592 0.452245
O O10 0.278660 0.224397 0.598179
O O11 0.358196 0.000000 0.557415
O O12 0.685249 0.242988 0.711056
O O13 0.574678 0.245128 0.787254
O O14 0.644458 0.000000 0.792247
O O15 0.961435 0.762123 0.844013
O O16 0.942750 0.000000 0.946873
O O17 0.000000 0.753648 0.000000
O O18 0.275234 0.000000 0.378091
O O19 0.502824 0.000000 0.778473
#
# Coordination Sequence:
#
# PCOD9196278 Si02
#       7
#     8   8   8   8   8   8   8
#     4  11  23  41  63  90 125 163 208 261 321 378
#     4  11  24  40  58  85 123 161 198 248 308 365
#     4  10  20  35  56  83 115 153 199 247 298 359
#     4   9  19  36  60  86 113 150 197 249 304 364
#     4  11  23  41  65  93 127 165 208 259 316 379
#     4   9  18  35  58  82 112 152 197 246 302 361
#     4  11  22  39  65  93 119 157 209 257 308 370
#
# _framework density 19.256885
#
# number of rings (size 3 to 8) (size 9 to 14) (size 15 to 20)
#    0.000    1.714    1.429    3.000    0.000    4.571 
#    0.000    7.143    0.000    0.000    0.000    0.000 
#    0.000    0.000    0.000    0.000    0.000    0.000 
#
# Total GULP energy -156398.247068 kJ/mol
# GULP energy per Si atom -5585.651681 kJ/mol
# Density = 1.921306 g / cm^3
# Si number density = 19.256885 Si / 1000 Ang^3
#
#
#
# Elastic Constant Matrix: (Units=GPa)
#
#
# Indices 1 2 3 4 5 6 
#
# 1 111.4508 22.5112 84.2338 0.0000 10.4619 0.0000
# 2 22.5112 37.9641 25.7420 0.0000 1.6502 0.0000
# 3 84.2338 25.7420 165.4908 0.0000 -11.6561 0.0000
# 4 0.0000 0.0000 0.0000 23.5344 0.0000 -1.7849
# 5 10.4619 1.6502 -11.6561 0.0000 28.2808 0.0000
# 6 0.0000 0.0000 0.0000 -1.7849 0.0000 20.4921
#
#
#
# Elastic Compliance Matrix: (Units=1/GPa)
#
#
# Indices 1 2 3 4 5 6 
#
# 1 0.017489 -0.003830 -0.009007 0.000000 -0.009959 0.000000
# 2 -0.003830 0.030669 -0.002933 0.000000 -0.001582 0.000000
# 3 -0.009007 -0.002933 0.011669 0.000000 0.008313 0.000000
# 4 0.000000 0.000000 0.000000 0.042774 0.000000 0.003726
# 5 -0.009959 -0.001582 0.008313 0.000000 0.042562 0.000000
# 6 0.000000 0.000000 0.000000 0.003726 0.000000 0.049124
#
#
# Mechanical properties :
#
#
# Convention : Reuss Voigt Hill
#
# Bulk Modulus (GPa) = 35.35180 64.43110 49.89145
# Shear Modulus (GPa) = 21.25365 26.62271 23.93818
#
# Velocity S-wave (km/s) = 3.32579 3.72224 3.52958
# Velocity P-wave (km/s) = 5.75723 7.21143 6.52497
#
# Compressibility (1/GPa) = 0.02828711
#
# Stress axis : x y z
#
# Youngs Moduli (GPa) = 57.18030 32.60651 85.69759
#
# Poissons Ratio (x) = 0.12487 0.77190
# Poissons Ratio (y) = 0.21898 0.25132
# Poissons Ratio (z) = 0.51504 0.09562
#
# Static dielectric constant tensor:
#      x y z
#    x 1.647020 0.000000 -0.001150 
#    y 0.000000 1.658910 0.000000 
#    z -0.001150 0.000000 1.664140 
# 
# From -- ./inp_files/231044.got.cif
#   From: 2010.05.17/outbox.cif.g08.bks.cpg/sg12_116_cif.got.tgz:231044.got - 2010.06.03 13:09:07.
