data_PCOD9196734
_publ_section_title
;
Structure prediction by ZEFSAII (Michael W. Deem and Ramdas Pophale) SiO2 
 PCOD9196734
Probable space group: C 2/M
;
_chemical_formula_sum "Si O2"
_cell_formula_units_Z 48
_cell_length_a 17.367475
_cell_length_b 22.215406
_cell_length_c 12.638353
_cell_angle_alpha 90.000000
_cell_angle_beta 26.327141
_cell_angle_gamma 90.000000
_cell_volume 2162.573795
_symmetry_space_group_name_H-M "C 2/M"
_symmetry_group_IT_number 12
_symmetry_cell_setting 'monoclinic'
loop_
_space_group_symop_operation_xyz
x,y,z
-x,y,-z
-x,-y,-z
x,-y,z
1/2+x,1/2+y,z
1/2-x,1/2+y,-z
1/2-x,1/2-y,-z
1/2+x,1/2-y,z
loop_
_atom_site_type_symbol
_atom_site_label
_atom_site_fract_x
_atom_site_fract_y
_atom_site_fract_z
Si Si1 0.593931 0.371306 0.489419
Si Si2 0.191970 0.835587 0.000607
Si Si3 0.183153 0.070807 0.833716
Si Si4 0.806493 0.250667 0.684975
Si Si5 0.920637 0.348639 0.397705
Si Si6 0.624055 0.932625 0.745141
O O1 0.500000 0.393967 0.500000
O O2 0.729700 0.319146 0.288833
O O3 0.684373 0.422766 0.444301
O O4 0.456948 0.335247 0.729799
O O5 0.176157 0.897351 0.955204
O O6 0.185577 0.783425 0.919864
O O7 0.378853 0.835195 0.825834
O O8 0.340455 0.101870 0.576864
O O9 0.207394 0.000000 0.810756
O O10 0.000000 0.082754 0.000000
O O11 0.815277 0.289234 0.565737
O O12 0.000000 0.254580 0.500000
O O13 0.902317 0.379365 0.306525
O O14 0.604340 0.000000 0.722482
O O15 0.500000 0.929042 0.000000
#
# Coordination Sequence:
#
# PCOD9196734 Si02
#       6
#     8   8   8   8   8   8
#     4  11  23  40  63  86 114 156 197 239 292 345
#     4  10  21  37  60  90 119 148 193 242 287 350
#     4  10  20  35  57  85 118 155 194 242 296 343
#     4   8  19  37  60  90 119 147 185 238 295 350
#     4  10  20  38  60  85 118 152 190 242 298 346
#     4  11  25  42  58  82 119 160 201 241 282 340
#
# _framework density 22.195774
#
# number of rings (size 3 to 8) (size 9 to 14) (size 15 to 20)
#    0.000    2.000    0.000    4.000    0.000   12.333 
#    0.000    3.333    0.000    0.000    0.000    0.000 
#    0.000    0.000    0.000    0.000    0.000    0.000 
#
# Total GULP energy -134123.560835 kJ/mol
# GULP energy per Si atom -5588.481701 kJ/mol
# Density = 2.214526 g / cm^3
# Si number density = 22.195774 Si / 1000 Ang^3
#
#
#
# Elastic Constant Matrix: (Units=GPa)
#
#
# Indices 1 2 3 4 5 6 
#
# 1 64.9443 14.5109 6.8026 0.0063 18.7664 0.0136
# 2 14.5109 45.5218 -1.4089 -0.0276 -1.0889 0.0174
# 3 6.8026 -1.4089 84.6074 0.0254 10.4511 0.0137
# 4 0.0063 -0.0276 0.0254 8.3156 0.0013 -0.5202
# 5 18.7664 -1.0889 10.4511 0.0013 24.8123 -0.0101
# 6 0.0136 0.0174 0.0137 -0.5202 -0.0101 24.0541
#
#
#
# Elastic Compliance Matrix: (Units=1/GPa)
#
#
# Indices 1 2 3 4 5 6 
#
# 1 0.021943 -0.007395 0.000214 -0.000040 -0.017011 -0.000015
# 2 -0.007395 0.024488 0.000189 0.000085 0.006588 -0.000009
# 3 0.000214 0.000189 0.012473 -0.000038 -0.005407 -0.000010
# 4 -0.000040 0.000085 -0.000038 0.120419 0.000045 0.002604
# 5 -0.017011 0.006588 -0.005407 0.000045 0.055735 0.000032
# 6 -0.000015 -0.000009 -0.000010 0.002604 0.000032 0.041629
#
#
# Mechanical properties :
#
#
# Convention : Reuss Voigt Hill
#
# Bulk Modulus (GPa) = 22.26215 26.09806 24.18011
# Shear Modulus (GPa) = 16.35876 23.11434 19.73655
#
# Velocity S-wave (km/s) = 2.71776 3.23055 2.98519
# Velocity P-wave (km/s) = 4.46094 5.06941 4.77488
#
# Compressibility (1/GPa) = 0.04491928
#
# Stress axis : x y z
#
# Youngs Moduli (GPa) = 45.57201 40.83585 80.17199
#
# Poissons Ratio (x) = 0.30199 -0.01715
# Poissons Ratio (y) = 0.33701 -0.01511
# Poissons Ratio (z) = -0.00975 -0.00770
#
# Static dielectric constant tensor:
#      x y z
#    x 1.814440 -0.000010 0.006160 
#    y -0.000010 1.813360 0.000010 
#    z 0.006160 0.000010 1.839110 
# 
# From -- ./inp_files/160418.got.cif
#   From: 2010.05.17/outbox.cif.g08.bks.cpg/sg12_81_cif.got.tgz:160418.got - 2010.06.03 13:09:07.
