data_PCOD9196316
_publ_section_title
;
Structure prediction by ZEFSAII (Michael W. Deem and Ramdas Pophale) SiO2 
 PCOD9196316
Probable space group: C 2/M
;
_chemical_formula_sum "Si O2"
_cell_formula_units_Z 64
_cell_length_a 33.280557
_cell_length_b 13.713586
_cell_length_c 9.852421
_cell_angle_alpha 90.000000
_cell_angle_beta 44.081866
_cell_angle_gamma 90.000000
_cell_volume 3128.221659
_symmetry_space_group_name_H-M "C 2/M"
_symmetry_group_IT_number 12
_symmetry_cell_setting 'monoclinic'
loop_
_space_group_symop_operation_xyz
x,y,z
-x,y,-z
-x,-y,-z
x,-y,z
1/2+x,1/2+y,z
1/2-x,1/2+y,-z
1/2-x,1/2-y,-z
1/2+x,1/2-y,z
loop_
_atom_site_type_symbol
_atom_site_label
_atom_site_fract_x
_atom_site_fract_y
_atom_site_fract_z
Si Si1 0.884143 0.889609 0.937662
Si Si2 0.864270 0.386880 0.344946
Si Si3 0.513203 0.388185 0.626130
Si Si4 0.940848 0.785651 0.229051
Si Si5 0.713890 0.884836 0.209861
Si Si6 0.293948 0.881792 0.251982
Si Si7 0.167367 0.883438 0.657051
Si Si8 0.824515 0.253278 0.920680
O O1 0.948005 0.889701 0.843675
O O2 0.871761 0.000000 0.920839
O O3 0.840641 0.862562 0.163818
O O4 0.878804 0.810758 0.832840
O O5 0.880073 0.500000 0.299771
O O6 0.917646 0.324107 0.268314
O O7 0.810255 0.378816 0.579473
O O8 0.840039 0.355779 0.257151
O O9 0.500000 0.364735 0.500000
O O10 0.535933 0.500000 0.573322
O O11 0.548620 0.320489 0.642090
O O12 0.886665 0.843730 0.296188
O O13 0.000000 0.799823 0.000000
O O14 0.774160 0.829145 0.038530
O O15 0.716651 0.000000 0.166831
O O16 0.671198 0.818660 0.222819
O O17 0.229483 0.850952 0.452313
O O18 0.309160 0.829524 0.075860
O O19 0.294396 0.000000 0.238077
O O20 0.166063 0.000000 0.650053
#
# Coordination Sequence:
#
# PCOD9196316 Si02
#       8
#     8   8   8   8   8   8   8   8
#     4  10  20  35  56  84 115 152 192 235 294 354
#     4  10  23  42  62  84 119 161 199 244 291 345
#     4  10  23  41  59  84 120 154 190 243 301 355
#     4  12  23  37  63  90 117 155 199 246 293 352
#     4  10  22  39  56  82 119 157 192 239 298 351
#     4  10  21  38  61  90 122 154 196 244 293 344
#     4  10  20  35  59  91 123 154 190 238 295 359
#     4  11  21  34  60  87 116 152 195 244 288 352
#
# _framework density 20.458908999999998
#
# number of rings (size 3 to 8) (size 9 to 14) (size 15 to 20)
#    0.000    1.625    1.250    3.375    1.750    4.250 
#    0.000    0.000    0.000    0.375    0.000    0.000 
#    0.000    0.000    0.000    0.000    0.000    0.000 
#
# Total GULP energy -178696.335758 kJ/mol
# GULP energy per Si atom -5584.260492 kJ/mol
# Density = 2.041234 g / cm^3
# Si number density = 20.458909 Si / 1000 Ang^3
#
#
#
# Elastic Constant Matrix: (Units=GPa)
#
#
# Indices 1 2 3 4 5 6 
#
# 1 92.4248 49.8885 10.6004 0.0000 -0.4640 0.0000
# 2 49.8885 108.0066 7.9850 0.0000 5.9614 0.0000
# 3 10.6004 7.9850 35.6618 0.0000 2.7209 0.0000
# 4 0.0000 0.0000 0.0000 21.1453 0.0000 -0.2244
# 5 -0.4640 5.9614 2.7209 0.0000 24.6940 0.0000
# 6 0.0000 0.0000 0.0000 -0.2244 0.0000 43.7839
#
#
#
# Elastic Compliance Matrix: (Units=1/GPa)
#
#
# Indices 1 2 3 4 5 6 
#
# 1 0.014823 -0.006744 -0.003067 0.000000 0.002245 0.000000
# 2 -0.006744 0.012588 -0.000577 0.000000 -0.003102 0.000000
# 3 -0.003067 -0.000577 0.029322 0.000000 -0.003149 0.000000
# 4 0.000000 0.000000 0.000000 0.047294 0.000000 0.000242
# 5 0.002245 -0.003102 -0.003149 0.000000 0.041634 0.000000
# 6 0.000000 0.000000 0.000000 0.000242 0.000000 0.022841
#
#
# Mechanical properties :
#
#
# Convention : Reuss Voigt Hill
#
# Bulk Modulus (GPa) = 27.81162 41.44898 34.63030
# Shear Modulus (GPa) = 24.84304 29.09926 26.97115
#
# Velocity S-wave (km/s) = 3.48845 3.77547 3.63479
# Velocity P-wave (km/s) = 5.46343 6.26970 5.88040
#
# Compressibility (1/GPa) = 0.03595620
#
# Stress axis : x y z
#
# Youngs Moduli (GPa) = 67.46363 79.44355 34.10353
#
# Poissons Ratio (x) = 0.53575 0.10461
# Poissons Ratio (y) = 0.45496 0.01969
# Poissons Ratio (z) = 0.20693 0.04586
#
# Static dielectric constant tensor:
#      x y z
#    x 1.739810 0.000000 0.003020 
#    y 0.000000 1.744940 0.000000 
#    z 0.003020 0.000000 1.762160 
# 
# From -- ./inp_files/111953.got.cif
#   From: 2010.05.17/outbox.cif.g08.bks.cpg/sg12_56_cif.got.tgz:111953.got - 2010.06.03 13:09:07.
