data_PCOD9196418
_publ_section_title
;
Structure prediction by ZEFSAII (Michael W. Deem and Ramdas Pophale) SiO2 
 PCOD9196418
Probable space group: C 2/M
;
_chemical_formula_sum "Si O2"
_cell_formula_units_Z 64
_cell_length_a 25.712715
_cell_length_b 13.303767
_cell_length_c 8.771557
_cell_angle_alpha 90.000000
_cell_angle_beta 87.668954
_cell_angle_gamma 90.000000
_cell_volume 2998.055926
_symmetry_space_group_name_H-M "C 2/M"
_symmetry_group_IT_number 12
_symmetry_cell_setting 'monoclinic'
loop_
_space_group_symop_operation_xyz
x,y,z
-x,y,-z
-x,-y,-z
x,-y,z
1/2+x,1/2+y,z
1/2-x,1/2+y,-z
1/2-x,1/2-y,-z
1/2+x,1/2-y,z
loop_
_atom_site_type_symbol
_atom_site_label
_atom_site_fract_x
_atom_site_fract_y
_atom_site_fract_z
Si Si1 0.458712 0.703397 0.883153
Si Si2 0.236621 0.380879 0.576247
Si Si3 0.345530 0.883137 0.664516
Si Si4 0.634843 0.616159 0.961540
Si Si5 0.783782 0.785371 0.855685
Si Si6 0.158284 0.121002 0.608501
Si Si7 0.943429 0.118072 0.559657
Si Si8 0.969776 0.615487 0.664581
O O1 0.406632 0.701485 0.988733
O O2 0.443403 0.635400 0.740017
O O3 0.479943 0.804683 0.799288
O O4 0.500000 0.662822 0.000000
O O5 0.241173 0.500000 0.600990
O O6 0.183150 0.365649 0.492794
O O7 0.245353 0.326221 0.732618
O O8 0.286141 0.349003 0.466591
O O9 0.319285 0.803919 0.782173
O O10 0.407577 0.872622 0.646188
O O11 0.334261 0.000000 0.709603
O O12 0.614942 0.500000 0.963330
O O13 0.679125 0.627412 0.083414
O O14 0.653998 0.639423 0.788653
O O15 0.750000 0.750000 0.000000
O O16 0.107687 0.159721 0.520487
O O17 0.157206 0.000000 0.591993
O O18 0.000000 0.156976 0.500000
O O19 0.943492 0.000000 0.526364
O O20 0.979943 0.500000 0.710491
O O21 0.000000 0.629793 0.500000
#
# Coordination Sequence:
#
# PCOD9196418 Si02
#       8
#     8   8   8   8   8   8   8   8
#     4  12  24  40  62  98 132 163 208 266 331 397
#     4  10  21  40  66  97 130 173 221 266 318 387
#     4  10  22  43  68  95 128 170 225 280 325 385
#     4  11  23  40  62  94 136 177 213 263 330 393
#     4  12  24  40  62  99 140 177 215 265 328 391
#     4   9  19  36  60  88 126 176 221 256 303 376
#     4  10  20  35  56  87 127 174 220 258 300 367
#     4  10  23  47  73  95 123 168 223 280 339 397
#
# _framework density 21.347165
#
# number of rings (size 3 to 8) (size 9 to 14) (size 15 to 20)
#    0.000    1.500    1.250    3.750    0.000    5.250 
#    2.250    0.000    0.000    0.000    0.000    0.000 
#    0.000    0.000    0.000    0.000    0.000    0.000 
#
# Total GULP energy -178699.334455 kJ/mol
# GULP energy per Si atom -5584.354202 kJ/mol
# Density = 2.129858 g / cm^3
# Si number density = 21.347165 Si / 1000 Ang^3
#
#
#
# Elastic Constant Matrix: (Units=GPa)
#
#
# Indices 1 2 3 4 5 6 
#
# 1 81.8091 -0.3922 40.4987 0.0000 8.4629 0.0000
# 2 -0.3922 67.9966 12.0008 0.0000 -3.4797 0.0000
# 3 40.4987 12.0008 124.8023 0.0000 2.0357 0.0000
# 4 0.0000 0.0000 0.0000 29.8756 0.0000 -0.3866
# 5 8.4629 -3.4797 2.0357 0.0000 44.0317 0.0000
# 6 0.0000 0.0000 0.0000 -0.3866 0.0000 21.1579
#
#
#
# Elastic Compliance Matrix: (Units=1/GPa)
#
#
# Indices 1 2 3 4 5 6 
#
# 1 0.014906 0.000814 -0.004873 0.000000 -0.002575 0.000000
# 2 0.000814 0.015074 -0.001732 0.000000 0.001115 0.000000
# 3 -0.004873 -0.001732 0.009755 0.000000 0.000349 0.000000
# 4 0.000000 0.000000 0.000000 0.033480 0.000000 0.000612
# 5 -0.002575 0.001115 0.000349 0.000000 0.023278 0.000000
# 6 0.000000 0.000000 0.000000 0.000612 0.000000 0.047275
#
#
# Mechanical properties :
#
#
# Convention : Reuss Voigt Hill
#
# Bulk Modulus (GPa) = 35.51983 42.09139 38.80561
# Shear Modulus (GPa) = 30.35181 33.84643 32.09912
#
# Velocity S-wave (km/s) = 3.77479 3.98618 3.88193
# Velocity P-wave (km/s) = 5.97277 6.39895 6.18953
#
# Compressibility (1/GPa) = 0.02815329
#
# Stress axis : x y z
#
# Youngs Moduli (GPa) = 67.08499 66.33926 102.51170
#
# Poissons Ratio (x) = -0.05402 0.49959
# Poissons Ratio (y) = -0.05463 0.17754
# Poissons Ratio (z) = 0.32694 0.11490
#
# Static dielectric constant tensor:
#      x y z
#    x 1.840120 0.000000 0.001870 
#    y 0.000000 1.832350 0.000000 
#    z 0.001870 0.000000 1.759400 
# 
# From -- ./inp_files/96897.got.cif
#   From: 2010.05.17/outbox.cif.g08.bks.cpg/sg12_49_cif.got.tgz:96897.got - 2010.06.03 13:09:07.
