data_PCOD9196533
_publ_section_title
;
Structure prediction by ZEFSAII (Michael W. Deem and Ramdas Pophale) SiO2 
 PCOD9196533
Probable space group: C 2/M
;
_chemical_formula_sum "Si O2"
_cell_formula_units_Z 56
_cell_length_a 15.188744
_cell_length_b 9.054118
_cell_length_c 24.934469
_cell_angle_alpha 90.000000
_cell_angle_beta 117.057243
_cell_angle_gamma 90.000000
_cell_volume 3053.709128
_symmetry_space_group_name_H-M "C 2/M"
_symmetry_group_IT_number 12
_symmetry_cell_setting 'monoclinic'
loop_
_space_group_symop_operation_xyz
x,y,z
-x,y,-z
-x,-y,-z
x,-y,z
1/2+x,1/2+y,z
1/2-x,1/2+y,-z
1/2-x,1/2-y,-z
1/2+x,1/2-y,z
loop_
_atom_site_type_symbol
_atom_site_label
_atom_site_fract_x
_atom_site_fract_y
_atom_site_fract_z
Si Si1 0.880312 0.178066 0.209683
Si Si2 0.458095 0.677056 0.113284
Si Si3 0.322247 0.323729 0.867083
Si Si4 0.574786 0.177101 0.568811
Si Si5 0.493075 0.677977 0.652464
Si Si6 0.886466 0.668459 0.990144
Si Si7 0.772449 0.822466 0.563443
O O1 0.925185 0.217813 0.163966
O O2 0.773230 0.251403 0.186239
O O3 0.953460 0.222895 0.277848
O O4 0.869880 0.000000 0.207821
O O5 0.448058 0.500000 0.104128
O O6 0.573488 0.713097 0.133136
O O7 0.392747 0.756600 0.049851
O O8 0.313418 0.500000 0.865797
O O9 0.328798 0.260257 0.929319
O O10 0.500000 0.218937 0.500000
O O11 0.546962 0.255954 0.615802
O O12 0.684271 0.214574 0.579369
O O13 0.566979 0.000000 0.573563
O O14 0.496210 0.500000 0.650933
O O15 0.378577 0.723219 0.615710
O O16 0.850291 0.500000 0.982738
O O17 0.000000 0.665945 0.000000
O O18 0.750000 0.750000 0.500000
O O19 0.772322 0.000000 0.556402
#
# Coordination Sequence:
#
# PCOD9196533 Si02
#       7
#     8   8   8   8   8   8   8
#     4  10  22  39  55  76 109 147 186 226 273 326
#     4   9  19  36  57  79 108 145 185 229 274 328
#     4  10  20  35  57  83 109 143 187 230 276 327
#     4  10  20  35  57  85 113 141 174 220 273 321
#     4  10  22  38  56  80 110 146 185 224 268 328
#     4   9  17  31  54  83 112 143 180 229 281 325
#     4  10  20  35  57  83 111 142 176 218 270 323
#
# _framework density 18.338353999999999
#
# number of rings (size 3 to 8) (size 9 to 14) (size 15 to 20)
#    0.000    2.286    1.429    0.857    0.000    6.000 
#    0.000    2.857    0.000    0.000    0.000    0.000 
#    0.000    0.000    0.000    0.000    0.000    0.000 
#
# Total GULP energy -156328.461547 kJ/mol
# GULP energy per Si atom -5583.159341 kJ/mol
# Density = 1.829662 g / cm^3
# Si number density = 18.338354 Si / 1000 Ang^3
#
#
#
# Elastic Constant Matrix: (Units=GPa)
#
#
# Indices 1 2 3 4 5 6 
#
# 1 84.0452 19.4656 32.0283 0.0000 7.9129 0.0000
# 2 19.4656 16.2974 18.6990 0.0000 3.8450 0.0000
# 3 32.0283 18.6990 95.3501 0.0000 10.1458 0.0000
# 4 0.0000 0.0000 0.0000 28.7575 0.0000 0.2350
# 5 7.9129 3.8450 10.1458 0.0000 32.4635 0.0000
# 6 0.0000 0.0000 0.0000 0.2350 0.0000 25.6141
#
#
#
# Elastic Compliance Matrix: (Units=1/GPa)
#
#
# Indices 1 2 3 4 5 6 
#
# 1 0.016860 -0.017395 -0.002104 0.000000 -0.001392 0.000000
# 2 -0.017395 0.097816 -0.012990 0.000000 -0.003286 0.000000
# 3 -0.002104 -0.012990 0.013989 0.000000 -0.002321 0.000000
# 4 0.000000 0.000000 0.000000 0.034776 0.000000 -0.000319
# 5 -0.001392 -0.003286 -0.002321 0.000000 0.032257 0.000000
# 6 0.000000 0.000000 0.000000 -0.000319 0.000000 0.039044
#
#
# Mechanical properties :
#
#
# Convention : Reuss Voigt Hill
#
# Bulk Modulus (GPa) = 15.70191 37.34204 26.52197
# Shear Modulus (GPa) = 15.57878 25.73366 20.65622
#
# Velocity S-wave (km/s) = 2.91781 3.75009 3.35982
# Velocity P-wave (km/s) = 4.46457 6.25763 5.43555
#
# Compressibility (1/GPa) = 0.06368653
#
# Stress axis : x y z
#
# Youngs Moduli (GPa) = 59.31169 10.22327 71.48637
#
# Poissons Ratio (x) = 0.17784 0.15040
# Poissons Ratio (y) = 1.03176 0.92859
# Poissons Ratio (z) = 0.12478 0.13280
#
# Static dielectric constant tensor:
#      x y z
#    x 1.635180 0.000000 0.019090 
#    y 0.000000 1.618330 0.000000 
#    z 0.019090 0.000000 1.601830 
# 
# From -- ./inp_files/338997.got.cif
#   From: 2010.05.17/outbox.cif.g08.bks.cpg/sg12_170_cif.got.tgz:338997.got - 2010.06.03 13:09:07.
