data_PCOD9196578
_publ_section_title
;
Structure prediction by ZEFSAII (Michael W. Deem and Ramdas Pophale) SiO2 
 PCOD9196578
Probable space group: C 2/M
;
_chemical_formula_sum "Si O2"
_cell_formula_units_Z 56
_cell_length_a 19.917688
_cell_length_b 8.709805
_cell_length_c 27.692366
_cell_angle_alpha 90.000000
_cell_angle_beta 141.620464
_cell_angle_gamma 90.000000
_cell_volume 2982.679436
_symmetry_space_group_name_H-M "C 2/M"
_symmetry_group_IT_number 12
_symmetry_cell_setting 'monoclinic'
loop_
_space_group_symop_operation_xyz
x,y,z
-x,y,-z
-x,-y,-z
x,-y,z
1/2+x,1/2+y,z
1/2-x,1/2+y,-z
1/2-x,1/2-y,-z
1/2+x,1/2-y,z
loop_
_atom_site_type_symbol
_atom_site_label
_atom_site_fract_x
_atom_site_fract_y
_atom_site_fract_z
Si Si1 0.198807 0.684476 0.020095
Si Si2 0.159210 0.814827 0.483644
Si Si3 0.628551 0.315690 0.574139
Si Si4 0.743512 0.817919 0.733009
Si Si5 0.582417 0.314593 0.814418
Si Si6 0.441359 0.314623 0.307242
Si Si7 0.519563 0.815654 0.144724
O O1 0.198146 0.500000 0.017814
O O2 0.073625 0.732442 0.946511
O O3 0.250000 0.750000 0.000000
O O4 0.289203 0.726873 0.110460
O O5 0.250000 0.750000 0.500000
O O6 0.174020 0.768150 0.547574
O O7 0.041768 0.766935 0.397384
O O8 0.161452 0.000000 0.483761
O O9 0.500000 0.285615 0.500000
O O10 0.641488 0.500000 0.587420
O O11 0.687056 0.234571 0.651245
O O12 0.668380 0.752411 0.733123
O O13 0.864351 0.752229 0.801887
O O14 0.746752 0.000000 0.737274
O O15 0.573366 0.500000 0.814110
O O16 0.539679 0.269562 0.737709
O O17 0.521133 0.240596 0.825356
O O18 0.434139 0.500000 0.304742
O O19 0.526093 0.000000 0.149176
#
# Coordination Sequence:
#
# PCOD9196578 Si02
#       7
#     8   8   8   8   8   8   8
#     4   8  15  30  53  82 111 143 181 223 273 327
#     4  10  22  38  58  83 112 145 180 222 271 327
#     4  10  20  40  63  80 106 146 186 222 272 332
#     4  12  25  38  56  82 112 146 190 236 275 323
#     4   9  18  34  59  87 114 143 182 232 279 327
#     4  10  21  40  59  79 112 150 183 224 281 334
#     4  10  20  35  57  83 114 149 186 226 274 333
#
# _framework density 18.775065999999999
#
# number of rings (size 3 to 8) (size 9 to 14) (size 15 to 20)
#    0.000    2.143    1.429    1.714    2.000    2.571 
#    0.000    0.714    0.000    4.286    0.000    0.000 
#    0.000    0.000    0.000    0.000    0.000    0.000 
#
# Total GULP energy -156191.808322 kJ/mol
# GULP energy per Si atom -5578.278869 kJ/mol
# Density = 1.873233 g / cm^3
# Si number density = 18.775066 Si / 1000 Ang^3
#
#
#
# Elastic Constant Matrix: (Units=GPa)
#
#
# Indices 1 2 3 4 5 6 
#
# 1 71.7593 12.7674 -3.7218 0.0000 17.7956 0.0000
# 2 12.7674 21.7379 9.7374 0.0000 7.1054 0.0000
# 3 -3.7218 9.7374 35.7418 0.0000 18.9638 0.0000
# 4 0.0000 0.0000 0.0000 17.4582 0.0000 2.3341
# 5 17.7956 7.1054 18.9638 0.0000 35.6673 0.0000
# 6 0.0000 0.0000 0.0000 2.3341 0.0000 28.9974
#
#
#
# Elastic Compliance Matrix: (Units=1/GPa)
#
#
# Indices 1 2 3 4 5 6 
#
# 1 0.020773 -0.013475 0.013803 0.000000 -0.015019 0.000000
# 2 -0.013475 0.061543 -0.021217 0.000000 0.005743 0.000000
# 3 0.013803 -0.021217 0.050992 0.000000 -0.029772 0.000000
# 4 0.000000 0.000000 0.000000 0.057903 0.000000 -0.004661
# 5 -0.015019 0.005743 -0.029772 0.000000 0.050215 0.000000
# 6 0.000000 0.000000 0.000000 -0.004661 0.000000 0.034861
#
#
# Mechanical properties :
#
#
# Convention : Reuss Voigt Hill
#
# Bulk Modulus (GPa) = 10.92522 18.53390 14.72956
# Shear Modulus (GPa) = 14.34406 23.78831 19.06619
#
# Velocity S-wave (km/s) = 2.76704 3.56338 3.19016
# Velocity P-wave (km/s) = 4.00504 5.17911 4.62945
#
# Compressibility (1/GPa) = 0.09153132
#
# Stress axis : x y z
#
# Youngs Moduli (GPa) = 48.13871 16.24872 19.61078
#
# Poissons Ratio (x) = 0.21894 -0.27068
# Poissons Ratio (y) = 0.64865 0.41608
# Poissons Ratio (z) = -0.66445 0.34475
#
# Static dielectric constant tensor:
#      x y z
#    x 1.618560 0.000000 0.005950 
#    y 0.000000 1.631450 0.000000 
#    z 0.005950 0.000000 1.678410 
# 
# From -- ./inp_files/363210.got.cif
#   From: 2010.05.17/outbox.cif.g08.bks.cpg/sg12_182_cif.got.tgz:363210.got - 2010.06.03 13:09:07.
