data_PCOD9196290
_publ_section_title
;
Structure prediction by ZEFSAII (Michael W. Deem and Ramdas Pophale) SiO2 
 PCOD9196290
Probable space group: C 2/M
;
_chemical_formula_sum "Si O2"
_cell_formula_units_Z 48
_cell_length_a 17.235814
_cell_length_b 11.427564
_cell_length_c 11.800746
_cell_angle_alpha 90.000000
_cell_angle_beta 104.069302
_cell_angle_gamma 90.000000
_cell_volume 2254.590811
_symmetry_space_group_name_H-M "C 2/M"
_symmetry_group_IT_number 12
_symmetry_cell_setting 'monoclinic'
loop_
_space_group_symop_operation_xyz
x,y,z
-x,y,-z
-x,-y,-z
x,-y,z
1/2+x,1/2+y,z
1/2-x,1/2+y,-z
1/2-x,1/2-y,-z
1/2+x,1/2-y,z
loop_
_atom_site_type_symbol
_atom_site_label
_atom_site_fract_x
_atom_site_fract_y
_atom_site_fract_z
Si Si1 0.414929 0.134993 0.523006
Si Si2 0.539442 0.668081 0.897359
Si Si3 0.612195 0.287244 0.266739
Si Si4 0.707979 0.371392 0.861747
Si Si5 0.883585 0.632680 0.961404
Si Si6 0.215337 0.369335 0.722625
O O1 0.500000 0.172623 0.500000
O O2 0.390008 0.213070 0.620142
O O3 0.346903 0.137534 0.402992
O O4 0.424960 0.000000 0.564111
O O5 0.473454 0.649339 0.778264
O O6 0.627112 0.621240 0.904450
O O7 0.500000 0.626036 0.000000
O O8 0.560494 0.804800 0.927556
O O9 0.614089 0.204302 0.155427
O O10 0.692619 0.362177 0.286432
O O11 0.715402 0.500000 0.803299
O O12 0.789908 0.362609 0.961859
O O13 0.702511 0.252033 0.787102
O O14 0.905985 0.500000 0.951574
O O15 0.203509 0.500000 0.772038
#
# Coordination Sequence:
#
# PCOD9196290 Si02
#       6
#     8   8   8   8   8   8
#     4  10  20  35  58  87 118 154 195 238 286 340
#     4  10  21  35  54  84 118 152 190 235 286 344
#     4  10  20  35  56  83 117 153 190 236 287 342
#     4  10  21  39  61  85 115 152 194 238 286 341
#     4   9  19  35  56  83 114 152 196 239 284 334
#     4  10  22  40  61  86 116 151 193 240 290 343
#
# _framework density 21.289895000000001
#
# number of rings (size 3 to 8) (size 9 to 14) (size 15 to 20)
#    0.000    2.167    0.000    2.500    0.000    6.000 
#    0.000   10.833    0.000    2.000    0.000    0.000 
#    0.000    0.000    0.000    0.000    0.000    0.000 
#
# Total GULP energy -133859.079791 kJ/mol
# GULP energy per Si atom -5577.461658 kJ/mol
# Density = 2.124144 g / cm^3
# Si number density = 21.289895 Si / 1000 Ang^3
#
#
#
# Elastic Constant Matrix: (Units=GPa)
#
#
# Indices 1 2 3 4 5 6 
#
# 1 161.1573 28.7404 34.6119 0.0000 25.1396 0.0000
# 2 28.7404 134.5042 32.4236 0.0000 -2.4988 0.0000
# 3 34.6119 32.4236 61.7931 0.0000 16.1788 0.0000
# 4 0.0000 0.0000 0.0000 -17.8743 0.0000 -34.4909
# 5 25.1396 -2.4988 16.1788 0.0000 35.0160 0.0000
# 6 0.0000 0.0000 0.0000 -34.4909 0.0000 -14.1703
#
#
#
# Elastic Compliance Matrix: (Units=1/GPa)
#
#
# Indices 1 2 3 4 5 6 
#
# 1 0.007632 -0.001097 -0.002553 0.000000 -0.004378 0.000000
# 2 -0.001097 0.008963 -0.005076 0.000000 0.003772 0.000000
# 3 -0.002553 -0.005076 0.022629 0.000000 -0.008985 0.000000
# 4 0.000000 0.000000 0.000000 0.015134 0.000000 -0.036836
# 5 -0.004378 0.003772 -0.008985 0.000000 0.036122 0.000000
# 6 0.000000 0.000000 0.000000 -0.036836 0.000000 0.019090
#
#
# Mechanical properties :
#
#
# Convention : Reuss Voigt Hill
#
# Bulk Modulus (GPa) = 45.93141 61.00072 53.46607
# Shear Modulus (GPa) = 37.23587 18.03951 27.63769
#
# Velocity S-wave (km/s) = 4.18663 2.91405 3.60691
# Velocity P-wave (km/s) = 6.70758 6.32747 6.52030
#
# Compressibility (1/GPa) = 0.02177159
#
# Stress axis : x y z
#
# Youngs Moduli (GPa) = 131.02775 111.57194 44.19069
#
# Poissons Ratio (x) = 0.12235 0.11283
# Poissons Ratio (y) = 0.14369 0.22433
# Poissons Ratio (z) = 0.33454 0.56638
#
# Static dielectric constant tensor:
#      x y z
#    x 1.829960 0.000000 -0.011560 
#    y 0.000000 1.835640 0.000000 
#    z -0.011560 0.000000 1.721480 
# 
# From -- ./inp_files/154303.got.cif
#   From: 2010.05.17/outbox.cif.g08.bks.cpg/sg12_78_cif.got.tgz:154303.got - 2010.06.03 13:09:07.
