data_PCOD9196994
_publ_section_title
;
Structure prediction by ZEFSAII (Michael W. Deem and Ramdas Pophale) SiO2 
 PCOD9196994
Probable space group: C 2/M
;
_chemical_formula_sum "Si O2"
_cell_formula_units_Z 56
_cell_length_a 16.647837
_cell_length_b 8.948994
_cell_length_c 19.652043
_cell_angle_alpha 90.000000
_cell_angle_beta 120.616989
_cell_angle_gamma 90.000000
_cell_volume 2519.628798
_symmetry_space_group_name_H-M "C 2/M"
_symmetry_group_IT_number 12
_symmetry_cell_setting 'monoclinic'
loop_
_space_group_symop_operation_xyz
x,y,z
-x,y,-z
-x,-y,-z
x,-y,z
1/2+x,1/2+y,z
1/2-x,1/2+y,-z
1/2-x,1/2-y,-z
1/2+x,1/2-y,z
loop_
_atom_site_type_symbol
_atom_site_label
_atom_site_fract_x
_atom_site_fract_y
_atom_site_fract_z
Si Si1 0.022364 0.324069 0.754539
Si Si2 0.311058 0.822865 0.820221
Si Si3 0.862797 0.327271 0.477180
Si Si4 0.354442 0.820982 0.324501
Si Si5 0.009802 0.174434 0.885964
Si Si6 0.137598 0.170260 0.382986
Si Si7 0.198391 0.176009 0.041181
O O1 0.031234 0.500000 0.772194
O O2 0.052405 0.229762 0.832793
O O3 0.916270 0.278975 0.691179
O O4 0.079505 0.287404 0.710903
O O5 0.243418 0.757054 0.733528
O O6 0.417100 0.769446 0.856937
O O7 0.278485 0.754233 0.878138
O O8 0.305626 0.000000 0.818880
O O9 0.891769 0.500000 0.503506
O O10 0.895180 0.280315 0.416015
O O11 0.886184 0.224110 0.550905
O O12 0.749349 0.325401 0.423948
O O13 0.340229 0.000000 0.320661
O O14 0.984520 0.000000 0.871294
O O15 0.088077 0.192048 0.977378
O O16 0.106844 0.000000 0.357717
O O17 0.220177 0.000000 0.054651
O O18 0.250000 0.250000 0.000000
#
# Coordination Sequence:
#
# PCOD9196994 Si02
#       7
#     8   8   8   8   8   8   8
#     4  11  23  38  59  87 118 154 197 245 296 352
#     4  12  25  40  63  92 121 156 199 246 293 348
#     4   9  19  37  59  82 111 151 197 243 295 354
#     4  10  22  40  61  85 118 159 199 244 298 353
#     4  11  24  42  63  87 118 157 199 243 294 351
#     4  10  20  35  58  85 115 153 195 244 298 353
#     4  11  24  42  65  92 124 160 197 242 295 350
#
# _framework density 22.225496
#
# number of rings (size 3 to 8) (size 9 to 14) (size 15 to 20)
#    0.000    1.429    0.000    5.143    0.000   10.286 
#    0.000    2.857    0.000    0.000    0.000    0.000 
#    0.000    0.000    0.000    0.000    0.000    0.000 
#
# Total GULP energy -156774.073335 kJ/mol
# GULP energy per Si atom -5599.074048 kJ/mol
# Density = 2.217491 g / cm^3
# Si number density = 22.225496 Si / 1000 Ang^3
#
#
#
# Elastic Constant Matrix: (Units=GPa)
#
#
# Indices 1 2 3 4 5 6 
#
# 1 67.9593 14.0588 -0.6668 0.0000 -10.6486 0.0000
# 2 14.0588 37.3414 21.2762 0.0000 0.5702 0.0000
# 3 -0.6668 21.2762 80.2122 0.0000 -13.3891 0.0000
# 4 0.0000 0.0000 0.0000 29.9436 0.0000 -6.8088
# 5 -10.6486 0.5702 -13.3891 0.0000 38.7813 0.0000
# 6 0.0000 0.0000 0.0000 -6.8088 0.0000 25.2512
#
#
#
# Elastic Compliance Matrix: (Units=1/GPa)
#
#
# Indices 1 2 3 4 5 6 
#
# 1 0.017500 -0.008656 0.003464 0.000000 0.006128 0.000000
# 2 -0.008656 0.036299 -0.010809 0.000000 -0.006642 0.000000
# 3 0.003464 -0.010809 0.016499 0.000000 0.006806 0.000000
# 4 0.000000 0.000000 0.000000 0.035578 0.000000 0.009593
# 5 0.006128 -0.006642 0.006806 0.000000 0.029916 0.000000
# 6 0.000000 0.000000 0.000000 0.009593 0.000000 0.042189
#
#
# Mechanical properties :
#
#
# Convention : Reuss Voigt Hill
#
# Bulk Modulus (GPa) = 26.11209 28.31659 27.21434
# Shear Modulus (GPa) = 22.44708 28.85154 25.64931
#
# Velocity S-wave (km/s) = 3.18145 3.60686 3.40082
# Velocity P-wave (km/s) = 5.02690 5.48764 5.26231
#
# Compressibility (1/GPa) = 0.03829644
#
# Stress axis : x y z
#
# Youngs Moduli (GPa) = 57.14409 27.54903 60.61006
#
# Poissons Ratio (x) = 0.23846 -0.20998
# Poissons Ratio (y) = 0.49464 0.65513
# Poissons Ratio (z) = -0.19797 0.29778
#
# Static dielectric constant tensor:
#      x y z
#    x 1.878250 0.000000 0.003210 
#    y 0.000000 1.732930 0.000000 
#    z 0.003210 0.000000 1.811860 
# 
# From -- ./inp_files/314447.got.cif
#   From: 2010.05.17/outbox.cif.g08.bks.cpg/sg12_158_cif.got.tgz:314447.got - 2010.06.03 13:09:07.
