data_PCOD9196967
_publ_section_title
;
Structure prediction by ZEFSAII (Michael W. Deem and Ramdas Pophale) SiO2 
 PCOD9196967
Probable space group: C 2/M
;
_chemical_formula_sum "Si O2"
_cell_formula_units_Z 48
_cell_length_a 29.622040
_cell_length_b 8.193795
_cell_length_c 15.613538
_cell_angle_alpha 90.000000
_cell_angle_beta 148.537508
_cell_angle_gamma 90.000000
_cell_volume 1977.981379
_symmetry_space_group_name_H-M "C 2/M"
_symmetry_group_IT_number 12
_symmetry_cell_setting 'monoclinic'
loop_
_space_group_symop_operation_xyz
x,y,z
-x,y,-z
-x,-y,-z
x,-y,z
1/2+x,1/2+y,z
1/2-x,1/2+y,-z
1/2-x,1/2-y,-z
1/2+x,1/2-y,z
loop_
_atom_site_type_symbol
_atom_site_label
_atom_site_fract_x
_atom_site_fract_y
_atom_site_fract_z
Si Si1 0.721742 0.697084 0.635532
Si Si2 0.023758 0.804543 0.344362
Si Si3 0.866907 0.185180 0.757893
Si Si4 0.883398 0.304884 0.233501
Si Si5 0.241072 0.693944 0.119764
Si Si6 0.020409 0.686751 0.908277
O O1 0.724555 0.500000 0.636719
O O2 0.622625 0.746113 0.488467
O O3 0.772239 0.761978 0.635095
O O4 0.768135 0.753953 0.798533
O O5 0.973636 0.734581 0.180619
O O6 0.979181 0.740566 0.358591
O O7 0.020029 0.000000 0.338028
O O8 0.920952 0.291850 0.778134
O O9 0.867062 0.000000 0.726757
O O10 0.924144 0.203571 0.937428
O O11 0.876416 0.500000 0.229118
O O12 0.837985 0.228228 0.242522
O O13 0.823591 0.240749 0.057212
O O14 0.228059 0.500000 0.101081
O O15 0.048152 0.500000 0.965946
#
# Coordination Sequence:
#
# PCOD9196967 Si02
#       6
#     8   8   8   8   8   8
#     4  10  22  39  58  82 115 155 193 232 283 339
#     4  11  23  38  57  83 116 152 192 236 283 337
#     4  11  22  38  62  89 115 145 188 237 282 333
#     4  10  20  35  58  85 112 145 188 238 289 340
#     4   9  19  37  59  81 108 146 190 234 283 339
#     4  11  22  39  62  85 114 150 189 233 283 338
#
# _framework density 24.267164000000001
#
# number of rings (size 3 to 8) (size 9 to 14) (size 15 to 20)
#    0.000    1.667    0.000    6.000    0.000    5.333 
#    0.000    3.333    0.000    0.000    0.000    0.000 
#    0.000    0.000    0.000    0.000    0.000    0.000 
#
# Total GULP energy -134328.927706 kJ/mol
# GULP energy per Si atom -5597.038654 kJ/mol
# Density = 2.421193 g / cm^3
# Si number density = 24.267164 Si / 1000 Ang^3
#
#
#
# Elastic Constant Matrix: (Units=GPa)
#
#
# Indices 1 2 3 4 5 6 
#
# 1 137.1423 -15.6658 7.9609 0.0000 21.6228 0.0000
# 2 -15.6658 23.6607 -15.5687 0.0000 -5.2167 0.0000
# 3 7.9609 -15.5687 59.8764 0.0000 17.0184 0.0000
# 4 0.0000 0.0000 0.0000 18.3459 0.0000 12.1533
# 5 21.6228 -5.2167 17.0184 0.0000 45.7986 0.0000
# 6 0.0000 0.0000 0.0000 12.1533 0.0000 30.8022
#
#
#
# Elastic Compliance Matrix: (Units=1/GPa)
#
#
# Indices 1 2 3 4 5 6 
#
# 1 0.008474 0.005717 0.001467 0.000000 -0.003894 0.000000
# 2 0.005717 0.054884 0.013977 0.000000 -0.001641 0.000000
# 3 0.001467 0.013977 0.022233 0.000000 -0.007362 0.000000
# 4 0.000000 0.000000 0.000000 0.073797 0.000000 -0.029117
# 5 -0.003894 -0.001641 -0.007362 0.000000 0.026222 0.000000
# 6 0.000000 0.000000 0.000000 -0.029117 0.000000 0.043954
#
#
# Mechanical properties :
#
#
# Convention : Reuss Voigt Hill
#
# Bulk Modulus (GPa) = 7.81785 19.34800 13.58292
# Shear Modulus (GPa) = 21.75052 35.25287 28.50170
#
# Velocity S-wave (km/s) = 2.99707 3.81556 3.43081
# Velocity P-wave (km/s) = 3.89937 5.23465 4.61555
#
# Compressibility (1/GPa) = 0.12791245
#
# Stress axis : x y z
#
# Youngs Moduli (GPa) = 118.01317 18.22011 44.97868
#
# Poissons Ratio (x) = -0.10416 -0.06597
# Poissons Ratio (y) = -0.67467 -0.62867
# Poissons Ratio (z) = -0.17310 -0.25467
#
# Static dielectric constant tensor:
#      x y z
#    x 1.903620 0.000000 0.019700 
#    y 0.000000 1.827570 0.000000 
#    z 0.019700 0.000000 2.050080 
# 
# From -- ./inp_files/295892.got.cif
#   From: 2010.05.17/outbox.cif.g08.bks.cpg/sg12_148_cif.got.tgz:295892.got - 2010.06.03 13:09:07.
