data_PCOD9196477
_publ_section_title
;
Structure prediction by ZEFSAII (Michael W. Deem and Ramdas Pophale) SiO2 
 PCOD9196477
Probable space group: C 2/M
;
_chemical_formula_sum "Si O2"
_cell_formula_units_Z 56
_cell_length_a 9.441881
_cell_length_b 10.681009
_cell_length_c 32.699449
_cell_angle_alpha 90.000000
_cell_angle_beta 62.500897
_cell_angle_gamma 90.000000
_cell_volume 2925.120096
_symmetry_space_group_name_H-M "C 2/M"
_symmetry_group_IT_number 12
_symmetry_cell_setting 'monoclinic'
loop_
_space_group_symop_operation_xyz
x,y,z
-x,y,-z
-x,-y,-z
x,-y,z
1/2+x,1/2+y,z
1/2-x,1/2+y,-z
1/2-x,1/2-y,-z
1/2+x,1/2-y,z
loop_
_atom_site_type_symbol
_atom_site_label
_atom_site_fract_x
_atom_site_fract_y
_atom_site_fract_z
Si Si1 0.885581 0.353724 0.975970
Si Si2 0.592138 0.713258 0.190958
Si Si3 0.854208 0.650770 0.646810
Si Si4 0.545620 0.142011 0.868811
Si Si5 0.688276 0.000000 0.475892
Si Si6 0.169707 0.000000 0.455873
Si Si7 0.269887 0.142955 0.748799
Si Si8 0.196128 0.758022 0.590530
O O1 0.829444 0.500000 0.979862
O O2 0.982846 0.320139 0.921821
O O3 0.750000 0.250000 0.000000
O O4 0.000000 0.349487 0.000000
O O5 0.538726 0.784918 0.156842
O O6 0.644928 0.789724 0.224486
O O7 0.423881 0.645987 0.223256
O O8 0.761341 0.647846 0.158462
O O9 0.870260 0.500000 0.644193
O O10 0.819348 0.693295 0.697703
O O11 0.718313 0.691172 0.633430
O O12 0.015744 0.712912 0.608831
O O13 0.496531 0.000000 0.869216
O O14 0.500000 0.000000 0.500000
O O15 0.718138 0.000000 0.519880
O O16 0.755412 0.873239 0.445576
O O17 0.200380 0.869397 0.428610
O O18 0.000000 0.000000 0.500000
O O19 0.322613 0.000000 0.743674
#
# Coordination Sequence:
#
# PCOD9196477 Si02
#       8
#     8   8   8   8   4   4   8   8
#     4  10  21  37  56  83 118 159 203 250 300 356
#     4  10  20  36  57  87 111 151 196 238 297 356
#     4  11  23  42  62  91 122 159 196 246 294 351
#     4  10  20  35  57  81 117 152 194 249 299 350
#     4  12  24  42  66  94 124 160 196 248 296 346
#     4  12  24  40  62  96 122 156 204 244 286 354
#     4  10  21  37  60  84 118 150 190 240 294 352
#     4  12  23  43  66  90 126 159 200 242 297 350
#
# _framework density 19.144514000000001
#
# number of rings (size 3 to 8) (size 9 to 14) (size 15 to 20)
#    0.000    1.286    1.429    5.143    0.000    0.286 
#    0.000    3.571    6.286    0.000    0.000    0.000 
#    0.000    0.000    0.000    0.000    0.000    0.000 
#
# Total GULP energy -156116.787230 kJ/mol
# GULP energy per Si atom -5575.599544 kJ/mol
# Density = 1.910094 g / cm^3
# Si number density = 19.144514 Si / 1000 Ang^3
#
#
#
# Elastic Constant Matrix: (Units=GPa)
#
#
# Indices 1 2 3 4 5 6 
#
# 1 88.1594 24.1570 16.8580 0.0000 12.2535 0.0000
# 2 24.1570 96.7710 46.6130 0.0000 5.2505 0.0000
# 3 16.8580 46.6130 105.1754 0.0000 16.0235 0.0000
# 4 0.0000 0.0000 0.0000 26.4668 0.0000 -0.9335
# 5 12.2535 5.2505 16.0235 0.0000 37.8225 0.0000
# 6 0.0000 0.0000 0.0000 -0.9335 0.0000 19.2938
#
#
#
# Elastic Compliance Matrix: (Units=1/GPa)
#
#
# Indices 1 2 3 4 5 6 
#
# 1 0.012671 -0.002866 -0.000210 0.000000 -0.003619 0.000000
# 2 -0.002866 0.013803 -0.005888 0.000000 0.001507 0.000000
# 3 -0.000210 -0.005888 0.012845 0.000000 -0.004557 0.000000
# 4 0.000000 0.000000 0.000000 0.037848 0.000000 0.001831
# 5 -0.003619 0.001507 -0.004557 0.000000 0.029333 0.000000
# 6 0.000000 0.000000 0.000000 0.001831 0.000000 0.051919
#
#
# Mechanical properties :
#
#
# Convention : Reuss Voigt Hill
#
# Bulk Modulus (GPa) = 46.74321 51.70686 49.22503
# Shear Modulus (GPa) = 27.25138 30.21513 28.73326
#
# Velocity S-wave (km/s) = 3.77697 3.97705 3.87830
# Velocity P-wave (km/s) = 6.59467 6.93949 6.76928
#
# Compressibility (1/GPa) = 0.02139348
#
# Stress axis : x y z
#
# Youngs Moduli (GPa) = 78.91773 72.44611 77.85053
#
# Poissons Ratio (x) = 0.20762 0.01632
# Poissons Ratio (y) = 0.22617 0.45836
# Poissons Ratio (z) = 0.01654 0.42654
#
# Static dielectric constant tensor:
#      x y z
#    x 1.619240 0.000000 0.000760 
#    y 0.000000 1.669280 0.000000 
#    z 0.000760 0.000000 1.685950 
# 
# From -- ./inp_files/372116.got.cif
#   From: 2010.05.17/outbox.cif.g08.bks.cpg/sg12_187_cif.got.tgz:372116.got - 2010.06.03 13:09:07.
