data_PCOD9196275
_publ_section_title
;
Structure prediction by ZEFSAII (Michael W. Deem and Ramdas Pophale) SiO2 
 PCOD9196275
Probable space group: C 2/M
;
_chemical_formula_sum "Si O2"
_cell_formula_units_Z 56
_cell_length_a 16.808218
_cell_length_b 7.777729
_cell_length_c 25.241240
_cell_angle_alpha 90.000000
_cell_angle_beta 135.741976
_cell_angle_gamma 90.000000
_cell_volume 2302.886948
_symmetry_space_group_name_H-M "C 2/M"
_symmetry_group_IT_number 12
_symmetry_cell_setting 'monoclinic'
loop_
_space_group_symop_operation_xyz
x,y,z
-x,y,-z
-x,-y,-z
x,-y,z
1/2+x,1/2+y,z
1/2-x,1/2+y,-z
1/2-x,1/2-y,-z
1/2+x,1/2-y,z
loop_
_atom_site_type_symbol
_atom_site_label
_atom_site_fract_x
_atom_site_fract_y
_atom_site_fract_z
Si Si1 0.401949 0.799040 0.757459
Si Si2 0.786750 0.294288 0.957935
Si Si3 0.975835 0.802910 0.678753
Si Si4 0.470380 0.206246 0.899977
Si Si5 0.420780 0.709599 0.540599
Si Si6 0.716601 0.196413 0.813732
Si Si7 0.334651 0.710103 0.390765
O O1 0.451882 0.786468 0.722788
O O2 0.473234 0.727654 0.840491
O O3 0.274875 0.724084 0.692414
O O4 0.389291 0.000000 0.764060
O O5 0.781171 0.500000 0.947948
O O6 0.712518 0.214846 0.875610
O O7 0.750000 0.250000 0.000000
O O8 0.918163 0.230300 0.016098
O O9 0.113004 0.797455 0.737314
O O10 0.913452 0.727845 0.597285
O O11 0.940728 0.000000 0.668323
O O12 0.343774 0.245722 0.859411
O O13 0.483672 0.000000 0.908335
O O14 0.417496 0.500000 0.541339
O O15 0.336324 0.764479 0.453407
O O16 0.546340 0.757936 0.579082
O O17 0.701186 0.000000 0.791287
O O18 0.331539 0.500000 0.389535
#
# Coordination Sequence:
#
# PCOD9196275 Si02
#       7
#     8   8   8   8   8   8   8
#     4  10  20  35  56  83 115 149 186 230 282 338
#     4  11  23  40  63  90 122 155 188 228 275 329
#     4  11  22  36  55  80 113 150 190 236 285 337
#     4  10  22  40  61  85 113 147 187 230 278 334
#     4   8  15  29  51  79 107 142 188 232 278 335
#     4  12  25  40  60  85 113 147 191 238 284 336
#     4   8  14  28  52  79 108 143 185 231 278 334
#
# _framework density 24.317304
#
# number of rings (size 3 to 8) (size 9 to 14) (size 15 to 20)
#    0.000    2.000    0.000    5.143    0.000    7.429 
#    0.000    0.000    0.000    0.857    0.000    6.000 
#    0.000    0.000    0.000    0.000    0.000    0.000 
#
# Total GULP energy -156520.157406 kJ/mol
# GULP energy per Si atom -5590.005622 kJ/mol
# Density = 2.426196 g / cm^3
# Si number density = 24.317304 Si / 1000 Ang^3
#
#
#
# Elastic Constant Matrix: (Units=GPa)
#
#
# Indices 1 2 3 4 5 6 
#
# 1 44.2618 -14.9078 -18.0210 0.0000 -10.1460 0.0000
# 2 -14.9078 44.2592 5.9339 0.0000 4.5981 0.0000
# 3 -18.0210 5.9339 78.7589 0.0000 -21.7671 0.0000
# 4 0.0000 0.0000 0.0000 -0.2662 0.0000 -9.0142
# 5 -10.1460 4.5981 -21.7671 0.0000 37.8842 0.0000
# 6 0.0000 0.0000 0.0000 -9.0142 0.0000 21.1198
#
#
#
# Elastic Compliance Matrix: (Units=1/GPa)
#
#
# Indices 1 2 3 4 5 6 
#
# 1 0.032975 0.008198 0.010810 0.000000 0.014047 0.000000
# 2 0.008198 0.025517 -0.000352 0.000000 -0.001103 0.000000
# 3 0.010810 -0.000352 0.019031 0.000000 0.013872 0.000000
# 4 0.000000 0.000000 0.000000 -0.243099 0.000000 -0.103757
# 5 0.014047 -0.001103 0.013872 0.000000 0.038263 0.000000
# 6 0.000000 0.000000 0.000000 -0.103757 0.000000 0.003064
#
#
# Mechanical properties :
#
#
# Convention : Reuss Voigt Hill
#
# Bulk Modulus (GPa) = 8.70800 12.58778 10.64789
# Shear Modulus (GPa) = -40.55709 24.69921 -7.92894
#
# Velocity S-wave (km/s) = -4.08834 3.19047 -1.80768
# Velocity P-wave (km/s) = 4.32403 4.33126 0.17695
#
# Compressibility (1/GPa) = 0.11483694
#
# Stress axis : x y z
#
# Youngs Moduli (GPa) = 30.32567 39.18893 52.54617
#
# Poissons Ratio (x) = -0.32129 -0.56802
# Poissons Ratio (y) = -0.24862 0.01848
# Poissons Ratio (z) = -0.32782 0.01378
#
# Static dielectric constant tensor:
#      x y z
#    x 1.994500 0.000000 -0.003330 
#    y 0.000000 1.889600 0.000000 
#    z -0.003330 0.000000 1.960000 
# 
# From -- ./inp_files/342560.got.cif
#   From: 2010.05.17/outbox.cif.g08.bks.cpg/sg12_172_cif.got.tgz:342560.got - 2010.06.03 13:09:07.
