data_PCOD9196585
_publ_section_title
;
Structure prediction by ZEFSAII (Michael W. Deem and Ramdas Pophale) SiO2 
 PCOD9196585
Probable space group: C 2/M
;
_chemical_formula_sum "Si O2"
_cell_formula_units_Z 56
_cell_length_a 5.349597
_cell_length_b 19.883114
_cell_length_c 24.145282
_cell_angle_alpha 90.000000
_cell_angle_beta 80.307938
_cell_angle_gamma 90.000000
_cell_volume 2531.595510
_symmetry_space_group_name_H-M "C 2/M"
_symmetry_group_IT_number 12
_symmetry_cell_setting 'monoclinic'
loop_
_space_group_symop_operation_xyz
x,y,z
-x,y,-z
-x,-y,-z
x,-y,z
1/2+x,1/2+y,z
1/2-x,1/2+y,-z
1/2-x,1/2-y,-z
1/2+x,1/2-y,z
loop_
_atom_site_type_symbol
_atom_site_label
_atom_site_fract_x
_atom_site_fract_y
_atom_site_fract_z
Si Si1 0.164247 0.291254 0.905643
Si Si2 0.703960 0.862299 0.790100
Si Si3 0.093485 0.279017 0.578952
Si Si4 0.174194 0.925110 0.825466
Si Si5 0.628772 0.577691 0.054321
Si Si6 0.567785 0.272909 0.293873
Si Si7 0.778478 0.575871 0.461985
O O1 0.395448 0.245906 0.919778
O O2 0.224340 0.306214 0.838294
O O3 0.175928 0.363757 0.935828
O O4 0.411785 0.880514 0.801118
O O5 0.794318 0.842038 0.725313
O O6 0.911778 0.915380 0.802729
O O7 0.839428 0.264486 0.553932
O O8 0.016413 0.249428 0.642244
O O9 0.167005 0.357563 0.576423
O O10 0.093687 0.914706 0.891907
O O11 0.268085 0.000000 0.814426
O O12 0.725694 0.500000 0.054910
O O13 0.500000 0.587148 0.000000
O O14 0.306849 0.274098 0.269770
O O15 0.500000 0.583526 0.500000
O O16 0.784790 0.500000 0.436333
O O17 0.000000 0.576703 0.500000
#
# Coordination Sequence:
#
# PCOD9196585 Si02
#       7
#     8   8   8   8   8   8   8
#     4  11  22  37  58  87 116 148 190 240 291 347
#     4  11  20  36  60  85 116 151 194 246 303 359
#     4  10  21  36  58  89 123 160 206 257 303 353
#     4  10  21  37  59  86 115 151 198 246 294 358
#     4   9  20  40  62  85 118 159 198 240 298 365
#     4  10  20  35  57  83 114 151 193 244 301 355
#     4  10  21  37  59  89 126 168 209 252 306 359
#
# _framework density 22.120439000000001
#
# number of rings (size 3 to 8) (size 9 to 14) (size 15 to 20)
#    0.000    1.857    0.000    4.714    0.000    2.857 
#    0.000    6.429    0.000   40.286    0.000    2.000 
#    0.000    0.000    0.000    0.000    0.000    0.000 
#
# Total GULP energy -156091.965815 kJ/mol
# GULP energy per Si atom -5574.713065 kJ/mol
# Density = 2.207009 g / cm^3
# Si number density = 22.120439 Si / 1000 Ang^3
#
#
#
# Elastic Constant Matrix: (Units=GPa)
#
#
# Indices 1 2 3 4 5 6 
#
# 1 151.7916 31.4509 18.3746 0.0000 -14.0044 0.0000
# 2 31.4509 91.5156 38.1561 0.0000 1.8603 0.0000
# 3 18.3746 38.1561 73.4363 0.0000 0.2276 0.0000
# 4 0.0000 0.0000 0.0000 19.0941 0.0000 -5.9289
# 5 -14.0044 1.8603 0.2276 0.0000 22.6243 0.0000
# 6 0.0000 0.0000 0.0000 -5.9289 0.0000 18.8417
#
#
#
# Elastic Compliance Matrix: (Units=1/GPa)
#
#
# Indices 1 2 3 4 5 6 
#
# 1 0.007629 -0.002451 -0.000651 0.000000 0.004931 0.000000
# 2 -0.002451 0.014762 -0.007049 0.000000 -0.002660 0.000000
# 3 -0.000651 -0.007049 0.017442 0.000000 0.000001 0.000000
# 4 0.000000 0.000000 0.000000 0.058043 0.000000 0.018264
# 5 0.004931 -0.002660 0.000001 0.000000 0.047471 0.000000
# 6 0.000000 0.000000 0.000000 0.018264 0.000000 0.058821
#
#
# Mechanical properties :
#
#
# Convention : Reuss Voigt Hill
#
# Bulk Modulus (GPa) = 51.19440 54.74519 52.96979
# Shear Modulus (GPa) = 21.64671 27.36281 24.50476
#
# Velocity S-wave (km/s) = 3.13163 3.52091 3.33196
# Velocity P-wave (km/s) = 6.02244 6.42895 6.22902
#
# Compressibility (1/GPa) = 0.01953339
#
# Stress axis : x y z
#
# Youngs Moduli (GPa) = 131.07029 67.74002 57.33129
#
# Poissons Ratio (x) = 0.16602 0.03731
# Poissons Ratio (y) = 0.32124 0.40411
# Poissons Ratio (z) = 0.08530 0.47748
#
# Static dielectric constant tensor:
#      x y z
#    x 1.651820 0.000000 -0.466160 
#    y 0.000000 1.884120 0.000000 
#    z -0.466160 0.000000 0.703090 
# 
# From -- ./inp_files/354943.got.cif
#   From: 2010.05.17/outbox.cif.g08.bks.cpg/sg12_178_cif.got.tgz:354943.got - 2010.06.03 13:09:07.
