data_PCOD9196600
_publ_section_title
;
Structure prediction by ZEFSAII (Michael W. Deem and Ramdas Pophale) SiO2 
 PCOD9196600
Probable space group: C 2/M
;
_chemical_formula_sum "Si O2"
_cell_formula_units_Z 58
_cell_length_a 24.820520
_cell_length_b 7.476697
_cell_length_c 20.023457
_cell_angle_alpha 90.000000
_cell_angle_beta 137.826432
_cell_angle_gamma 90.000000
_cell_volume 2494.751645
_symmetry_space_group_name_H-M "C 2/M"
_symmetry_group_IT_number 12
_symmetry_cell_setting 'monoclinic'
loop_
_space_group_symop_operation_xyz
x,y,z
-x,y,-z
-x,-y,-z
x,-y,z
1/2+x,1/2+y,z
1/2-x,1/2+y,-z
1/2-x,1/2-y,-z
1/2+x,1/2-y,z
loop_
_atom_site_type_symbol
_atom_site_label
_atom_site_fract_x
_atom_site_fract_y
_atom_site_fract_z
Si Si1 0.943656 0.717015 0.780931
Si Si2 0.103589 0.703821 0.734393
Si Si3 0.411237 0.784689 0.896429
Si Si4 0.620536 0.291678 0.902597
Si Si5 0.340219 0.212789 0.562382
Si Si6 0.776372 0.213105 0.881864
Si Si7 0.000000 0.000000 0.500000
Si Si8 0.932685 0.283921 0.520328
O O1 0.944129 0.500000 0.780325
O O2 0.901194 0.773762 0.810469
O O3 0.898822 0.783986 0.673771
O O4 0.035760 0.775473 0.862870
O O5 0.100331 0.500000 0.706887
O O6 0.110573 0.703915 0.821316
O O7 0.187370 0.786123 0.787022
O O8 0.016890 0.776693 0.633718
O O9 0.340677 0.735102 0.882135
O O10 0.413965 0.000000 0.899596
O O11 0.500000 0.721619 0.000000
O O12 0.636935 0.500000 0.904985
O O13 0.686742 0.217130 0.014430
O O14 0.250000 0.250000 0.500000
O O15 0.364530 0.268963 0.510599
O O16 0.352964 0.000000 0.573463
O O17 0.766985 0.000000 0.883060
O O18 0.065935 0.840009 0.542534
O O19 0.930839 0.500000 0.506964
#
# Coordination Sequence:
#
# PCOD9196600 Si02
#       8
#     8   8   8   8   8   8   2   8
#     4  10  20  38  60  86 118 160 201 247 316 373
#     4  10  21  40  62  84 124 167 204 254 313 378
#     4  10  20  35  57  83 117 162 207 248 301 371
#     4  11  21  32  57  91 121 155 210 257 300 365
#     4  10  22  41  67  94 125 162 212 279 336 398
#     4  10  22  37  54  85 125 168 207 254 309 362
#     4  12  26  44  76  98 132 176 214 278 336 410
#     4  10  23  45  70 100 133 174 218 269 338 407
#
# _framework density 23.248806999999999
#
# number of rings (size 3 to 8) (size 9 to 14) (size 15 to 20)
#    0.000    1.793    2.759    1.034    1.931    2.483 
#    2.483    0.000    0.000    0.000    0.000    0.000 
#    0.000    0.000    0.000    0.000    0.000    0.000 
#
# Total GULP energy -161776.539374 kJ/mol
# GULP energy per Si atom -5578.501358 kJ/mol
# Density = 2.319589 g / cm^3
# Si number density = 23.248807 Si / 1000 Ang^3
#
#
#
# Elastic Constant Matrix: (Units=GPa)
#
#
# Indices 1 2 3 4 5 6 
#
# 1 139.0372 4.0889 10.3515 0.0000 9.6507 0.0000
# 2 4.0889 89.0643 -1.0771 0.0001 -5.1401 -0.0001
# 3 10.3515 -1.0771 37.3114 0.0000 14.5614 0.0000
# 4 0.0000 0.0001 0.0000 -1.6456 0.0000 16.3330
# 5 9.6507 -5.1401 14.5614 0.0000 36.9948 0.0000
# 6 0.0000 -0.0001 0.0000 16.3330 0.0000 -2.5637
#
#
#
# Elastic Compliance Matrix: (Units=1/GPa)
#
#
# Indices 1 2 3 4 5 6 
#
# 1 0.007416 -0.000439 -0.001526 0.000000 -0.001395 0.000000
# 2 -0.000439 0.011348 -0.000249 0.000000 0.001789 0.000000
# 3 -0.001526 -0.000249 0.031990 0.000000 -0.012228 0.000000
# 4 0.000000 0.000000 0.000000 0.009765 0.000000 0.062210
# 5 -0.001395 0.001789 -0.012228 0.000000 0.032456 0.000000
# 6 0.000000 0.000000 0.000000 0.062210 0.000000 0.006268
#
#
# Mechanical properties :
#
#
# Convention : Reuss Voigt Hill
#
# Bulk Modulus (GPa) = 21.58616 32.45995 27.02305
# Shear Modulus (GPa) = 41.97728 23.36041 32.66885
#
# Velocity S-wave (km/s) = 4.25381 3.17330 3.75264
# Velocity P-wave (km/s) = 5.78200 5.23629 5.51590
#
# Compressibility (1/GPa) = 0.04632599
#
# Stress axis : x y z
#
# Youngs Moduli (GPa) = 134.84983 88.11913 31.26006
#
# Poissons Ratio (x) = 0.03872 0.04769
# Poissons Ratio (y) = 0.05925 0.00778
# Poissons Ratio (z) = 0.20573 0.02192
#
# Static dielectric constant tensor:
#      x y z
#    x 1.863650 0.000000 -0.053390 
#    y 0.000000 1.907610 0.000000 
#    z -0.053390 0.000000 1.921280 
# 
# From -- ./inp_files/324621.got.cif
#   From: 2010.05.17/outbox.cif.g08.bks.cpg/sg12_163_cif.got.tgz:324621.got - 2010.06.03 13:09:07.
