data_PCOD9196890
_publ_section_title
;
Structure prediction by ZEFSAII (Michael W. Deem and Ramdas Pophale) SiO2 
 PCOD9196890
Probable space group: C 2/M
;
_chemical_formula_sum "Si O2"
_cell_formula_units_Z 64
_cell_length_a 19.464000
_cell_length_b 8.943947
_cell_length_c 31.875927
_cell_angle_alpha 90.000000
_cell_angle_beta 40.396361
_cell_angle_gamma 90.000000
_cell_volume 3596.226868
_symmetry_space_group_name_H-M "C 2/M"
_symmetry_group_IT_number 12
_symmetry_cell_setting 'monoclinic'
loop_
_space_group_symop_operation_xyz
x,y,z
-x,y,-z
-x,-y,-z
x,-y,z
1/2+x,1/2+y,z
1/2-x,1/2+y,-z
1/2-x,1/2-y,-z
1/2+x,1/2-y,z
loop_
_atom_site_type_symbol
_atom_site_label
_atom_site_fract_x
_atom_site_fract_y
_atom_site_fract_z
Si Si1 0.045846 0.179582 0.702608
Si Si2 0.185144 0.320626 0.186564
Si Si3 0.912286 0.821109 0.932936
Si Si4 0.877385 0.178159 0.554131
Si Si5 0.158174 0.820173 0.810056
Si Si6 0.740333 0.678110 0.072477
Si Si7 0.304657 0.177981 0.296868
Si Si8 0.769711 0.822305 0.446083
O O1 0.107033 0.244175 0.714789
O O2 0.119350 0.218059 0.628302
O O3 0.930144 0.249455 0.752681
O O4 0.039387 0.000000 0.709245
O O5 0.176830 0.500000 0.188819
O O6 0.265343 0.280491 0.186912
O O7 0.227057 0.259675 0.122715
O O8 0.858932 0.789039 0.912467
O O9 0.035643 0.781101 0.876252
O O10 0.901963 0.000000 0.944684
O O11 0.843125 0.735548 0.999606
O O12 0.808459 0.206352 0.627993
O O13 0.820185 0.265964 0.543761
O O14 0.000000 0.219199 0.500000
O O15 0.870742 0.000000 0.548723
O O16 0.191708 0.742355 0.751367
O O17 0.162456 0.000000 0.802447
O O18 0.744693 0.500000 0.076552
O O19 0.322965 0.000000 0.288174
O O20 0.750000 0.750000 0.500000
O O21 0.766908 0.000000 0.451209
#
# Coordination Sequence:
#
# PCOD9196890 Si02
#       8
#     8   8   8   8   8   8   8   8
#     4  10  21  38  58  79 107 144 184 226 273 324
#     4  11  23  37  55  81 112 146 184 226 272 322
#     4   9  19  37  58  78 104 141 181 220 268 325
#     4   9  19  36  56  80 111 144 179 222 273 325
#     4  10  22  38  55  78 111 148 182 222 273 324
#     4  10  20  35  58  84 108 139 180 226 272 321
#     4  10  20  35  58  83 107 141 184 227 269 321
#     4  10  21  36  56  81 109 143 182 225 272 324
#
# _framework density 17.796430999999998
#
# number of rings (size 3 to 8) (size 9 to 14) (size 15 to 20)
#    0.000    2.125    0.000    2.625    0.000    6.750 
#    0.000    6.250    0.000    0.000    0.000    0.000 
#    0.000    0.000    0.000    0.000    0.000    0.000 
#
# Total GULP energy -178702.488586 kJ/mol
# GULP energy per Si atom -5584.452768 kJ/mol
# Density = 1.775593 g / cm^3
# Si number density = 17.796431 Si / 1000 Ang^3
#
#
#
# Elastic Constant Matrix: (Units=GPa)
#
#
# Indices 1 2 3 4 5 6 
#
# 1 144.5201 70.8224 123.1021 0.0002 5.2128 0.0011
# 2 70.8224 58.2753 71.8330 0.0008 5.7750 0.0008
# 3 123.1021 71.8330 143.3237 -0.0004 5.9722 -0.0001
# 4 0.0002 0.0008 -0.0004 34.2848 -0.0001 5.3364
# 5 5.2128 5.7750 5.9722 -0.0001 32.2411 0.0002
# 6 0.0011 0.0008 -0.0001 5.3364 0.0002 30.4945
#
#
#
# Elastic Compliance Matrix: (Units=1/GPa)
#
#
# Indices 1 2 3 4 5 6 
#
# 1 0.028560 -0.011819 -0.018647 0.000000 0.000953 -0.000001
# 2 -0.011819 0.050281 -0.014868 -0.000001 -0.004341 -0.000001
# 3 -0.018647 -0.014868 0.030444 0.000001 0.000039 0.000001
# 4 0.000000 -0.000001 0.000001 0.029984 0.000000 -0.005247
# 5 0.000953 -0.004341 0.000039 0.000000 0.031633 0.000000
# 6 -0.000001 -0.000001 0.000001 -0.005247 0.000000 0.033711
#
#
# Mechanical properties :
#
#
# Convention : Reuss Voigt Hill
#
# Bulk Modulus (GPa) = 53.71516 97.51489 75.61503
# Shear Modulus (GPa) = 16.58444 24.76152 20.67298
#
# Velocity S-wave (km/s) = 3.05601 3.73416 3.41198
# Velocity P-wave (km/s) = 6.53459 8.57354 7.62255
#
# Compressibility (1/GPa) = 0.01861672
#
# Stress axis : x y z
#
# Youngs Moduli (GPa) = 35.01343 19.88810 32.84766
#
# Poissons Ratio (x) = 0.23506 0.61251
# Poissons Ratio (y) = 0.41383 0.48839
# Poissons Ratio (z) = 0.65289 0.29570
#
# Static dielectric constant tensor:
#      x y z
#    x 1.575280 0.000000 -0.006300 
#    y 0.000000 1.592610 0.000000 
#    z -0.006300 0.000000 1.596180 
# 
# From -- ./inp_files/378218.got.cif
#   From: 2010.05.17/outbox.cif.g08.bks.cpg/sg12_190_cif.got.tgz:378218.got - 2010.06.03 13:09:07.
