data_PCOD9196189
_publ_section_title
;
Structure prediction by ZEFSAII (Michael W. Deem and Ramdas Pophale) SiO2 
 PCOD9196189
Probable space group: C 2/M
;
_chemical_formula_sum "Si O2"
_cell_formula_units_Z 64
_cell_length_a 14.984330
_cell_length_b 8.405755
_cell_length_c 30.481476
_cell_angle_alpha 90.000000
_cell_angle_beta 60.338212
_cell_angle_gamma 90.000000
_cell_volume 3336.189507
_symmetry_space_group_name_H-M "C 2/M"
_symmetry_group_IT_number 12
_symmetry_cell_setting 'monoclinic'
loop_
_space_group_symop_operation_xyz
x,y,z
-x,y,-z
-x,-y,-z
x,-y,z
1/2+x,1/2+y,z
1/2-x,1/2+y,-z
1/2-x,1/2-y,-z
1/2+x,1/2-y,z
loop_
_atom_site_type_symbol
_atom_site_label
_atom_site_fract_x
_atom_site_fract_y
_atom_site_fract_z
Si Si1 0.751581 0.312627 0.129155
Si Si2 0.149872 0.808088 0.498562
Si Si3 0.106768 0.311005 0.777425
Si Si4 0.166189 0.193854 0.306608
Si Si5 0.079391 0.194146 0.420486
Si Si6 0.823499 0.314251 0.944263
Si Si7 0.540873 0.684089 0.888023
Si Si8 0.929469 0.808002 0.759848
O O1 0.772279 0.500000 0.128513
O O2 0.699937 0.276001 0.095346
O O3 0.857968 0.221202 0.108707
O O4 0.671828 0.268126 0.186996
O O5 0.250000 0.750000 0.500000
O O6 0.139790 0.756686 0.449946
O O7 0.040413 0.758571 0.546395
O O8 0.152155 0.000000 0.498386
O O9 0.111026 0.500000 0.785179
O O10 0.219288 0.256410 0.734827
O O11 0.069813 0.227549 0.830889
O O12 0.025469 0.274078 0.759284
O O13 0.130125 0.249894 0.362996
O O14 0.090465 0.238940 0.285455
O O15 0.167498 0.000000 0.307442
O O16 0.080220 0.000000 0.420184
O O17 0.804881 0.500000 0.941895
O O18 0.942540 0.284890 0.926281
O O19 0.750000 0.250000 0.000000
O O20 0.512982 0.500000 0.897695
O O21 0.941947 0.000000 0.759193
#
# Coordination Sequence:
#
# PCOD9196189 Si02
#       8
#     8   8   8   8   8   8   8   8
#     4  11  22  40  64  91 120 153 194 239 290 347
#     4   9  17  31  54  80 105 143 192 237 285 343
#     4  11  21  35  56  83 112 149 194 236 286 344
#     4   9  18  34  54  78 112 151 190 235 283 342
#     4   8  16  32  52  75 108 150 191 229 282 349
#     4  12  26  45  67  93 122 155 195 243 295 346
#     4  12  24  40  63  90 120 156 196 239 287 345
#     4  10  20  35  56  82 112 148 190 232 284 344
#
# _framework density 19.183562999999999
#
# number of rings (size 3 to 8) (size 9 to 14) (size 15 to 20)
#    0.000    1.750    2.500    3.750    0.000    2.000 
#    0.000    3.750    0.000    3.000    0.000    0.000 
#    0.000    0.000    0.000    0.000    0.000    0.000 
#
# Total GULP energy -178748.327587 kJ/mol
# GULP energy per Si atom -5585.885237 kJ/mol
# Density = 1.913990 g / cm^3
# Si number density = 19.183563 Si / 1000 Ang^3
#
#
#
# Elastic Constant Matrix: (Units=GPa)
#
#
# Indices 1 2 3 4 5 6 
#
# 1 77.8280 4.0519 -13.4450 0.0000 -1.6749 0.0000
# 2 4.0519 15.7271 10.2112 0.0000 0.4541 0.0000
# 3 -13.4450 10.2112 51.1712 0.0000 0.1621 0.0000
# 4 0.0000 0.0000 0.0000 14.4400 0.0000 3.0921
# 5 -1.6749 0.4541 0.1621 0.0000 18.7239 0.0000
# 6 0.0000 0.0000 0.0000 3.0921 0.0000 33.4263
#
#
#
# Elastic Compliance Matrix: (Units=1/GPa)
#
#
# Indices 1 2 3 4 5 6 
#
# 1 0.014124 -0.006991 0.005102 0.000000 0.001389 0.000000
# 2 -0.006991 0.076561 -0.017107 0.000000 -0.002334 0.000000
# 3 0.005102 -0.017107 0.024294 0.000000 0.000661 0.000000
# 4 0.000000 0.000000 0.000000 0.070652 0.000000 -0.006536
# 5 0.001389 -0.002334 0.000661 0.000000 0.053583 0.000000
# 6 0.000000 0.000000 0.000000 -0.006536 0.000000 0.030521
#
#
# Mechanical properties :
#
#
# Convention : Reuss Voigt Hill
#
# Bulk Modulus (GPa) = 12.98952 16.26251 14.62601
# Shear Modulus (GPa) = 14.99743 22.91191 18.95467
#
# Velocity S-wave (km/s) = 2.79908 3.45969 3.14677
# Velocity P-wave (km/s) = 4.15118 4.94520 4.56548
#
# Compressibility (1/GPa) = 0.07698515
#
# Stress axis : x y z
#
# Youngs Moduli (GPa) = 70.80113 13.06154 41.16179
#
# Poissons Ratio (x) = 0.09132 -0.21000
# Poissons Ratio (y) = 0.49500 0.70417
# Poissons Ratio (z) = -0.36121 0.22345
#
# Static dielectric constant tensor:
#      x y z
#    x 1.638860 0.000000 -0.004670 
#    y 0.000000 1.655250 0.000000 
#    z -0.004670 0.000000 1.642730 
# 
# From -- ./inp_files/375011.got.cif
#   From: 2010.05.17/outbox.cif.g08.bks.cpg/sg12_188_cif.got.tgz:375011.got - 2010.06.03 13:09:07.
