data_PCOD9196740
_publ_section_title
;
Structure prediction by ZEFSAII (Michael W. Deem and Ramdas Pophale) SiO2 
 PCOD9196740
Probable space group: C 2/M
;
_chemical_formula_sum "Si O2"
_cell_formula_units_Z 32
_cell_length_a 9.263192
_cell_length_b 19.155051
_cell_length_c 9.296577
_cell_angle_alpha 90.000000
_cell_angle_beta 46.169467
_cell_angle_gamma 90.000000
_cell_volume 1189.975277
_symmetry_space_group_name_H-M "C 2/M"
_symmetry_group_IT_number 12
_symmetry_cell_setting 'monoclinic'
loop_
_space_group_symop_operation_xyz
x,y,z
-x,y,-z
-x,-y,-z
x,-y,z
1/2+x,1/2+y,z
1/2-x,1/2+y,-z
1/2-x,1/2-y,-z
1/2+x,1/2-y,z
loop_
_atom_site_type_symbol
_atom_site_label
_atom_site_fract_x
_atom_site_fract_y
_atom_site_fract_z
Si Si1 0.242963 0.426703 0.825914
Si Si2 0.708149 0.718925 0.275120
Si Si3 0.861964 0.618175 0.384327
Si Si4 0.214796 0.126060 0.810747
O O1 0.315585 0.500000 0.837754
O O2 0.313221 0.348408 0.815055
O O3 0.271299 0.426161 0.632849
O O4 0.000000 0.425075 0.000000
O O5 0.500000 0.731336 0.500000
O O6 0.855929 0.691543 0.300471
O O7 0.778143 0.790994 0.162284
O O8 0.764622 0.620799 0.607151
O O9 0.090772 0.594132 0.245002
O O10 0.000000 0.096949 0.000000
#
# Coordination Sequence:
#
# PCOD9196740 Si02
#       4
#     8   8   8   8
#     4   9  20  39  59  82 112 151 195 236 284 336
#     4  10  20  35  57  85 119 149 183 238 287 337
#     4   9  22  38  55  88 119 147 191 238 282 342
#     4  11  21  36  59  86 120 155 184 233 290 344
#
# _framework density 26.891314999999999
#
# number of rings (size 3 to 8) (size 9 to 14) (size 15 to 20)
#    1.500    0.750    2.500    1.500    0.000    3.500 
#    0.000    2.500    0.000    1.500    0.000    0.000 
#    0.000    0.000    0.000    0.000    0.000    0.000 
#
# Total GULP energy -89385.589653 kJ/mol
# GULP energy per Si atom -5586.599353 kJ/mol
# Density = 2.683011 g / cm^3
# Si number density = 26.891315 Si / 1000 Ang^3
#
#
#
# Elastic Constant Matrix: (Units=GPa)
#
#
# Indices 1 2 3 4 5 6 
#
# 1 116.0742 -3.3928 55.1092 0.0000 -8.6626 0.0000
# 2 -3.3928 96.4507 29.4185 0.0000 12.1856 0.0000
# 3 55.1092 29.4185 113.3123 0.0000 -24.8661 0.0000
# 4 0.0000 0.0000 0.0000 -1.9186 0.0000 9.6991
# 5 -8.6626 12.1856 -24.8661 0.0000 51.9795 0.0000
# 6 0.0000 0.0000 0.0000 9.6991 0.0000 4.6322
#
#
#
# Elastic Compliance Matrix: (Units=1/GPa)
#
#
# Indices 1 2 3 4 5 6 
#
# 1 0.011828 0.002774 -0.006908 0.000000 -0.001984 0.000000
# 2 0.002774 0.012944 -0.005893 0.000000 -0.005391 0.000000
# 3 -0.006908 -0.005893 0.015380 0.000000 0.007588 0.000000
# 4 0.000000 0.000000 0.000000 -0.044990 0.000000 0.094202
# 5 -0.001984 -0.005391 0.007588 0.000000 0.023801 0.000000
# 6 0.000000 0.000000 0.000000 0.094202 0.000000 0.018635
#
#
# Mechanical properties :
#
#
# Convention : Reuss Voigt Hill
#
# Bulk Modulus (GPa) = 49.75628 54.23412 51.99520
# Shear Modulus (GPa) = 77.69924 27.25211 52.47568
#
# Velocity S-wave (km/s) = 5.38113 3.18687 4.42226
# Velocity P-wave (km/s) = 7.55987 5.80975 6.74184
#
# Compressibility (1/GPa) = 0.02009797
#
# Stress axis : x y z
#
# Youngs Moduli (GPa) = 84.54580 77.25599 65.02062
#
# Poissons Ratio (x) = -0.21428 0.44916
# Poissons Ratio (y) = -0.23450 0.38314
# Poissons Ratio (z) = 0.58403 0.45524
#
# Static dielectric constant tensor:
#      x y z
#    x 2.131140 0.000000 0.034950 
#    y 0.000000 2.121900 0.000000 
#    z 0.034950 0.000000 2.126230 
# 
# From -- ./inp_files/136183.got.cif
#   From: 2010.05.17/outbox.cif.g08.bks.cpg/sg12_69_cif.got.tgz:136183.got - 2010.06.03 13:09:07.
