data_PCOD9196417
_publ_section_title
;
Structure prediction by ZEFSAII (Michael W. Deem and Ramdas Pophale) SiO2 
 PCOD9196417
Probable space group: C 2/M
;
_chemical_formula_sum "Si O2"
_cell_formula_units_Z 36
_cell_length_a 17.411618
_cell_length_b 18.865737
_cell_length_c 10.252235
_cell_angle_alpha 90.000000
_cell_angle_beta 144.748377
_cell_angle_gamma 90.000000
_cell_volume 1943.721085
_symmetry_space_group_name_H-M "C 2/M"
_symmetry_group_IT_number 12
_symmetry_cell_setting 'monoclinic'
loop_
_space_group_symop_operation_xyz
x,y,z
-x,y,-z
-x,-y,-z
x,-y,z
1/2+x,1/2+y,z
1/2-x,1/2+y,-z
1/2-x,1/2-y,-z
1/2+x,1/2-y,z
loop_
_atom_site_type_symbol
_atom_site_label
_atom_site_fract_x
_atom_site_fract_y
_atom_site_fract_z
Si Si1 0.251202 0.208626 0.296332
Si Si2 0.147670 0.000000 0.774308
Si Si3 0.094050 0.854226 0.834472
Si Si4 0.500000 0.247254 0.500000
Si Si5 0.783468 0.144043 0.468971
Si Si6 0.341818 0.000000 0.797529
O O1 0.404493 0.204002 0.462502
O O2 0.227655 0.166499 0.396459
O O3 0.228222 0.290986 0.304119
O O4 0.162720 0.178877 0.056475
O O5 0.153102 0.071460 0.867543
O O6 0.000000 0.000000 0.500000
O O7 0.267269 0.000000 0.835235
O O8 0.095169 0.797598 0.718265
O O9 0.938035 0.865018 0.647110
O O10 0.710152 0.071347 0.341342
O O11 0.500000 0.000000 0.000000
#
# Coordination Sequence:
#
# PCOD9196417 Si02
#       6
#     8   4   8   4   8   4
#     4  10  22  36  61  90 122 158 201 256 306 352
#     4  12  20  41  65  85 121 159 201 252 293 359
#     4  11  20  37  65  88 114 163 212 243 301 358
#     4  10  20  35  56  87 126 156 200 252 300 367
#     4  10  22  41  59  87 124 157 204 256 295 368
#     4  12  26  41  63  89 121 164 196 247 317 366
#
# _framework density 18.521177000000002
#
# number of rings (size 3 to 8) (size 9 to 14) (size 15 to 20)
#    0.000    1.333    3.333    2.667    0.000    8.000 
#    0.000    2.222    0.000    2.667    0.000    0.000 
#    0.000    0.000    0.000    0.000    0.000    0.000 
#
# Total GULP energy -100521.230559 kJ/mol
# GULP energy per Si atom -5584.512809 kJ/mol
# Density = 1.847902 g / cm^3
# Si number density = 18.521177 Si / 1000 Ang^3
#
#
#
# Elastic Constant Matrix: (Units=GPa)
#
#
# Indices 1 2 3 4 5 6 
#
# 1 123.8545 50.8305 35.2025 0.0000 -3.1203 0.0000
# 2 50.8305 124.4130 68.8621 0.0000 -6.8361 0.0000
# 3 35.2025 68.8621 97.5836 0.0000 -17.7982 0.0000
# 4 0.0000 0.0000 0.0000 21.5189 0.0000 -25.5584
# 5 -3.1203 -6.8361 -17.7982 0.0000 35.8545 0.0000
# 6 0.0000 0.0000 0.0000 -25.5584 0.0000 -95.3668
#
#
#
# Elastic Compliance Matrix: (Units=1/GPa)
#
#
# Indices 1 2 3 4 5 6 
#
# 1 0.009786 -0.003324 -0.001259 0.000000 -0.000407 0.000000
# 2 -0.003324 0.014495 -0.009433 0.000000 -0.002208 0.000000
# 3 -0.001259 -0.009433 0.018704 0.000000 0.007376 0.000000
# 4 0.000000 0.000000 0.000000 0.035250 0.000000 -0.009447
# 5 -0.000407 -0.002208 0.007376 0.000000 0.031096 0.000000
# 6 0.000000 0.000000 0.000000 -0.009447 0.000000 -0.007954
#
#
# Mechanical properties :
#
#
# Convention : Reuss Voigt Hill
#
# Bulk Modulus (GPa) = 66.87172 72.84904 69.86038
# Shear Modulus (GPa) = 37.20480 5.13174 21.16827
#
# Velocity S-wave (km/s) = 4.48679 1.66636 3.38438
# Velocity P-wave (km/s) = 7.93887 6.56662 7.28513
#
# Compressibility (1/GPa) = 0.01495401
#
# Stress axis : x y z
#
# Youngs Moduli (GPa) = 102.19132 68.98820 53.46592
#
# Poissons Ratio (x) = 0.22929 0.06731
# Poissons Ratio (y) = 0.33964 0.50432
# Poissons Ratio (z) = 0.12865 0.65074
#
# Static dielectric constant tensor:
#      x y z
#    x 1.659400 0.000000 0.010400 
#    y 0.000000 1.625710 0.000000 
#    z 0.010400 0.000000 1.622620 
# 
# From -- ./inp_files/46843.got.cif
#   From: 2010.05.17/outbox.cif.g08.bks.cpg/sg12_24_cif.got.tgz:46843.got - 2010.06.03 13:09:07.
