data_PCOD9196023
_publ_section_title
;
Structure prediction by ZEFSAII (Michael W. Deem and Ramdas Pophale) SiO2 
 PCOD9196023
Probable space group: C 2/M
;
_chemical_formula_sum "Si O2"
_cell_formula_units_Z 40
_cell_length_a 23.822369
_cell_length_b 8.415581
_cell_length_c 7.960285
_cell_angle_alpha 90.000000
_cell_angle_beta 82.355776
_cell_angle_gamma 90.000000
_cell_volume 1581.688338
_symmetry_space_group_name_H-M "C 2/M"
_symmetry_group_IT_number 12
_symmetry_cell_setting 'monoclinic'
loop_
_space_group_symop_operation_xyz
x,y,z
-x,y,-z
-x,-y,-z
x,-y,z
1/2+x,1/2+y,z
1/2-x,1/2+y,-z
1/2-x,1/2-y,-z
1/2+x,1/2-y,z
loop_
_atom_site_type_symbol
_atom_site_label
_atom_site_fract_x
_atom_site_fract_y
_atom_site_fract_z
Si Si1 0.667731 0.313680 0.484673
Si Si2 0.039961 0.315959 0.818218
Si Si3 0.933389 0.685342 0.662056
Si Si4 0.771027 0.682350 0.219665
Si Si5 0.130976 0.820298 0.004280
O O1 0.674733 0.500000 0.523998
O O2 0.603702 0.273761 0.461974
O O3 0.707473 0.282394 0.305273
O O4 0.693694 0.207553 0.621192
O O5 0.057463 0.500000 0.782235
O O6 0.092629 0.209206 0.853004
O O7 0.996463 0.261854 0.690442
O O8 0.000000 0.317402 0.000000
O O9 0.936844 0.500000 0.619460
O O10 0.895733 0.705974 0.846326
O O11 0.775227 0.500000 0.165270
O O12 0.804502 0.788184 0.072880
O O13 0.123585 0.000000 0.067352
#
# Coordination Sequence:
#
# PCOD9196023 Si02
#       5
#     8   8   8   8   8
#     4  10  21  37  57  80 105 136 176 220 264 311
#     4   8  16  32  52  75 105 140 174 209 259 318
#     4  10  20  35  56  80 108 142 176 213 261 316
#     4  10  21  38  57  76 105 143 176 212 264 321
#     4  11  21  33  54  82 109 138 176 222 262 302
#
# _framework density 25.289432999999999
#
# number of rings (size 3 to 8) (size 9 to 14) (size 15 to 20)
#    0.000    2.200    0.000    4.800    0.000    7.600 
#    0.000    1.000    0.000    6.000    0.000    0.000 
#    0.000    0.000    0.000    0.000    0.000    0.000 
#
# Total GULP energy -111984.712329 kJ/mol
# GULP energy per Si atom -5599.235616 kJ/mol
# Density = 2.523187 g / cm^3
# Si number density = 25.289433 Si / 1000 Ang^3
#
#
#
# Elastic Constant Matrix: (Units=GPa)
#
#
# Indices 1 2 3 4 5 6 
#
# 1 155.5615 30.5966 10.8349 0.0000 6.4528 0.0000
# 2 30.5966 53.9998 3.1186 0.0000 -5.0364 0.0000
# 3 10.8349 3.1186 79.3960 0.0000 3.4704 0.0000
# 4 0.0000 0.0000 0.0000 22.2021 0.0000 5.9847
# 5 6.4528 -5.0364 3.4704 0.0000 54.0634 0.0000
# 6 0.0000 0.0000 0.0000 5.9847 0.0000 32.4512
#
#
#
# Elastic Compliance Matrix: (Units=1/GPa)
#
#
# Indices 1 2 3 4 5 6 
#
# 1 0.007369 -0.004244 -0.000785 0.000000 -0.001224 0.000000
# 2 -0.004244 0.021178 -0.000362 0.000000 0.002503 0.000000
# 3 -0.000785 -0.000362 0.012750 0.000000 -0.000758 0.000000
# 4 0.000000 0.000000 0.000000 0.047397 0.000000 -0.008741
# 5 -0.001224 0.002503 -0.000758 0.000000 0.018925 0.000000
# 6 0.000000 0.000000 0.000000 -0.008741 0.000000 0.032428
#
#
# Mechanical properties :
#
#
# Convention : Reuss Voigt Hill
#
# Bulk Modulus (GPa) = 32.77282 42.00638 37.38960
# Shear Modulus (GPa) = 31.05617 38.03716 34.54666
#
# Velocity S-wave (km/s) = 3.50813 3.88245 3.70002
# Velocity P-wave (km/s) = 5.42185 6.06170 5.75068
#
# Compressibility (1/GPa) = 0.03051309
#
# Stress axis : x y z
#
# Youngs Moduli (GPa) = 135.71239 47.21984 78.43358
#
# Poissons Ratio (x) = 0.20040 0.06160
# Poissons Ratio (y) = 0.57595 0.02840
# Poissons Ratio (z) = 0.10658 0.01710
#
# Static dielectric constant tensor:
#      x y z
#    x 2.013660 0.000000 0.003910 
#    y 0.000000 1.846740 0.000000 
#    z 0.003910 0.000000 2.127040 
# 
# From -- ./inp_files/92922.got.cif
#   From: 2010.05.17/outbox.cif.g08.bks.cpg/sg12_47_cif.got.tgz:92922.got - 2010.06.03 13:09:07.
