data_PCOD9196066
_publ_section_title
;
Structure prediction by ZEFSAII (Michael W. Deem and Ramdas Pophale) SiO2 
 PCOD9196066
Probable space group: C 2/M
;
_chemical_formula_sum "Si O2"
_cell_formula_units_Z 64
_cell_length_a 20.491165
_cell_length_b 8.802127
_cell_length_c 22.955021
_cell_angle_alpha 90.000000
_cell_angle_beta 116.427530
_cell_angle_gamma 90.000000
_cell_volume 3707.631835
_symmetry_space_group_name_H-M "C 2/M"
_symmetry_group_IT_number 12
_symmetry_cell_setting 'monoclinic'
loop_
_space_group_symop_operation_xyz
x,y,z
-x,y,-z
-x,-y,-z
x,-y,z
1/2+x,1/2+y,z
1/2-x,1/2+y,-z
1/2-x,1/2-y,-z
1/2+x,1/2-y,z
loop_
_atom_site_type_symbol
_atom_site_label
_atom_site_fract_x
_atom_site_fract_y
_atom_site_fract_z
Si Si1 0.206758 0.683366 0.800145
Si Si2 0.421530 0.316620 0.943502
Si Si3 0.725464 0.681867 0.051044
Si Si4 0.649997 0.181257 0.198367
Si Si5 0.096916 0.817313 0.298877
Si Si6 0.022486 0.816607 0.443742
Si Si7 0.325375 0.682025 0.551404
Si Si8 0.956136 0.317808 0.302887
O O1 0.214882 0.500000 0.799041
O O2 0.223903 0.726296 0.873948
O O3 0.269367 0.758622 0.785888
O O4 0.125379 0.724112 0.748911
O O5 0.419453 0.500000 0.935011
O O6 0.356528 0.275419 0.962222
O O7 0.401794 0.240709 0.874331
O O8 0.500000 0.274515 0.000000
O O9 0.727970 0.500000 0.047389
O O10 0.750000 0.750000 0.000000
O O11 0.623479 0.248462 0.248972
O O12 0.649503 0.000000 0.199868
O O13 0.151013 0.773978 0.373637
O O14 0.017674 0.756230 0.286331
O O15 0.094758 0.000000 0.294730
O O16 0.105979 0.774674 0.461991
O O17 0.000000 0.774600 0.500000
O O18 0.973202 0.740200 0.374706
O O19 0.016476 0.000000 0.435394
O O20 0.319728 0.500000 0.547881
O O21 0.250000 0.750000 0.500000
O O22 0.962933 0.500000 0.303097
#
# Coordination Sequence:
#
# PCOD9196066 Si02
#       8
#     8   8   8   8   8   8   8   8
#     4   9  20  38  55  75 108 143 173 215 269 317
#     4   9  19  37  57  76 103 141 179 215 263 318
#     4   9  18  33  52  74 102 134 168 208 254 305
#     4  11  22  35  55  82 108 138 180 225 264 308
#     4  10  21  38  56  76 108 145 177 214 267 324
#     4   9  19  36  54  74 104 140 175 212 261 318
#     4   9  19  34  53  76 102 135 172 214 261 309
#     4  10  20  35  56  81 106 135 178 226 266 309
#
# _framework density 17.261692
#
# number of rings (size 3 to 8) (size 9 to 14) (size 15 to 20)
#    0.000    2.500    0.000    3.375    0.000    8.000 
#    0.000    5.000    0.000    0.000    0.000    0.000 
#    0.000    0.000    0.000    0.000    0.000    0.000 
#
# Total GULP energy -178542.156205 kJ/mol
# GULP energy per Si atom -5579.442381 kJ/mol
# Density = 1.722240 g / cm^3
# Si number density = 17.261692 Si / 1000 Ang^3
#
#
#
# Elastic Constant Matrix: (Units=GPa)
#
#
# Indices 1 2 3 4 5 6 
#
# 1 153.6882 59.0935 147.8323 0.0000 -0.7389 0.0000
# 2 59.0935 46.2411 60.6506 0.0000 -0.0103 0.0000
# 3 147.8323 60.6506 163.1029 0.0000 -0.4627 0.0000
# 4 0.0000 0.0000 0.0000 29.7233 0.0000 -3.1537
# 5 -0.7389 -0.0103 -0.4627 0.0000 44.2441 0.0000
# 6 0.0000 0.0000 0.0000 -3.1537 0.0000 28.7474
#
#
#
# Elastic Compliance Matrix: (Units=1/GPa)
#
#
# Indices 1 2 3 4 5 6 
#
# 1 0.052696 -0.009171 -0.044351 0.000000 0.000414 0.000000
# 2 -0.009171 0.043813 -0.007980 0.000000 -0.000226 0.000000
# 3 -0.044351 -0.007980 0.049296 0.000000 -0.000227 0.000000
# 4 0.000000 0.000000 0.000000 0.034040 0.000000 0.003734
# 5 0.000414 -0.000226 -0.000227 0.000000 0.022606 0.000000
# 6 0.000000 0.000000 0.000000 0.003734 0.000000 0.035195
#
#
# Mechanical properties :
#
#
# Convention : Reuss Voigt Hill
#
# Bulk Modulus (GPa) = 43.85782 99.79834 71.82808
# Shear Modulus (GPa) = 13.57773 26.90668 20.24220
#
# Velocity S-wave (km/s) = 2.80765 3.95238 3.42814
# Velocity P-wave (km/s) = 5.99777 8.87518 7.57437
#
# Compressibility (1/GPa) = 0.02280095
#
# Stress axis : x y z
#
# Youngs Moduli (GPa) = 18.97688 22.82439 20.28559
#
# Poissons Ratio (x) = 0.20933 0.89968
# Poissons Ratio (y) = 0.17404 0.16188
# Poissons Ratio (z) = 0.84163 0.18214
#
# Static dielectric constant tensor:
#      x y z
#    x 1.565110 0.000000 0.004800 
#    y 0.000000 1.581330 0.000000 
#    z 0.004800 0.000000 1.565510 
# 
# From -- ./inp_files/320182.got.cif
#   From: 2010.05.17/outbox.cif.g08.bks.cpg/sg12_161_cif.got.tgz:320182.got - 2010.06.03 13:09:07.
