data_PCOD9196960
_publ_section_title
;
Structure prediction by ZEFSAII (Michael W. Deem and Ramdas Pophale) SiO2 
 PCOD9196960
Probable space group: C 2/M
;
_chemical_formula_sum "Si O2"
_cell_formula_units_Z 56
_cell_length_a 20.502856
_cell_length_b 27.275548
_cell_length_c 6.199914
_cell_angle_alpha 90.000000
_cell_angle_beta 121.148996
_cell_angle_gamma 90.000000
_cell_volume 2967.279883
_symmetry_space_group_name_H-M "C 2/M"
_symmetry_group_IT_number 12
_symmetry_cell_setting 'monoclinic'
loop_
_space_group_symop_operation_xyz
x,y,z
-x,y,-z
-x,-y,-z
x,-y,z
1/2+x,1/2+y,z
1/2-x,1/2+y,-z
1/2-x,1/2-y,-z
1/2+x,1/2-y,z
loop_
_atom_site_type_symbol
_atom_site_label
_atom_site_fract_x
_atom_site_fract_y
_atom_site_fract_z
Si Si1 0.587585 0.182329 0.200904
Si Si2 0.067467 0.943613 0.457302
Si Si3 0.156283 0.223213 0.084213
Si Si4 0.824605 0.285745 0.262077
Si Si5 0.847069 0.121403 0.717764
Si Si6 0.211668 0.633011 0.153406
Si Si7 0.718496 0.555736 0.013478
O O1 0.614741 0.234209 0.144993
O O2 0.610448 0.188689 0.488347
O O3 0.639262 0.140134 0.183092
O O4 0.500000 0.174734 0.000000
O O5 0.086709 0.908781 0.289277
O O6 0.000000 0.926902 0.500000
O O7 0.051077 0.000000 0.360417
O O8 0.143083 0.944882 0.734592
O O9 0.248543 0.224532 0.269978
O O10 0.129116 0.169975 0.111847
O O11 0.146284 0.238035 0.815779
O O12 0.795140 0.323099 0.029396
O O13 0.786390 0.137134 0.430333
O O14 0.803248 0.086062 0.810568
O O15 0.219641 0.584197 0.024859
O O16 0.739324 0.500000 0.100977
#
# Coordination Sequence:
#
# PCOD9196960 Si02
#       7
#     8   8   8   8   8   8   8
#     4  11  23  38  56  84 118 154 190 234 289 346
#     4   9  20  37  55  79 114 155 196 238 289 346
#     4  10  21  33  58  81 113 149 194 230 278 337
#     4  10  20  36  60  83 110 154 190 236 282 341
#     4  11  20  35  57  85 111 150 193 238 286 338
#     4  10  20  36  59  84 111 148 192 238 283 340
#     4  10  20  35  58  85 110 144 194 247 290 337
#
# _framework density 18.872503999999999
#
# number of rings (size 3 to 8) (size 9 to 14) (size 15 to 20)
#    0.000    1.857    2.857    0.857    4.000    3.429 
#    2.571    2.143    0.000    0.429    0.000    4.000 
#    0.000    0.000    0.000    0.000    0.000    0.000 
#
# Total GULP energy -156251.919895 kJ/mol
# GULP energy per Si atom -5580.425711 kJ/mol
# Density = 1.882955 g / cm^3
# Si number density = 18.872504 Si / 1000 Ang^3
#
#
#
# Elastic Constant Matrix: (Units=GPa)
#
#
# Indices 1 2 3 4 5 6 
#
# 1 85.2081 57.6823 33.5554 0.0000 -8.0629 0.0000
# 2 57.6823 116.9847 31.3871 0.0000 -23.7786 0.0000
# 3 33.5554 31.3871 66.7574 0.0000 -12.6163 0.0000
# 4 0.0000 0.0000 0.0000 18.6779 0.0000 -12.2129
# 5 -8.0629 -23.7786 -12.6163 0.0000 29.1312 0.0000
# 6 0.0000 0.0000 0.0000 -12.2129 0.0000 33.1683
#
#
#
# Elastic Compliance Matrix: (Units=1/GPa)
#
#
# Indices 1 2 3 4 5 6 
#
# 1 0.020065 -0.009054 -0.006726 0.000000 -0.004750 0.000000
# 2 -0.009054 0.015158 -0.000774 0.000000 0.009531 0.000000
# 3 -0.006726 -0.000774 0.019880 0.000000 0.006116 0.000000
# 4 0.000000 0.000000 0.000000 0.070517 0.000000 0.025965
# 5 -0.004750 0.009531 0.006116 0.000000 0.043442 0.000000
# 6 0.000000 0.000000 0.000000 0.025965 0.000000 0.039710
#
#
# Mechanical properties :
#
#
# Convention : Reuss Voigt Hill
#
# Bulk Modulus (GPa) = 45.46820 57.13333 51.30077
# Shear Modulus (GPa) = 20.06330 25.95051 23.00690
#
# Velocity S-wave (km/s) = 3.26405 3.71218 3.49531
# Velocity P-wave (km/s) = 6.19274 6.97945 6.59783
#
# Compressibility (1/GPa) = 0.02199339
#
# Stress axis : x y z
#
# Youngs Moduli (GPa) = 49.83883 65.97329 50.30071
#
# Poissons Ratio (x) = 0.59734 0.33833
# Poissons Ratio (y) = 0.45126 0.03894
# Poissons Ratio (z) = 0.33522 0.05108
#
# Static dielectric constant tensor:
#      x y z
#    x 1.664530 0.000000 -0.033880 
#    y 0.000000 1.673730 0.000000 
#    z -0.033880 0.000000 1.688720 
# 
# From -- ./inp_files/22283.got.cif
#   From: 2010.05.17/outbox.cif.g08.bks.cpg/sg12_12_cif.got.tgz:22283.got - 2010.06.03 13:09:07.
