data_PCOD9196502
_publ_section_title
;
Structure prediction by ZEFSAII (Michael W. Deem and Ramdas Pophale) SiO2 
 PCOD9196502
Probable space group: C 2/M
;
_chemical_formula_sum "Si O2"
_cell_formula_units_Z 56
_cell_length_a 11.117806
_cell_length_b 13.773864
_cell_length_c 18.725006
_cell_angle_alpha 90.000000
_cell_angle_beta 73.978386
_cell_angle_gamma 90.000000
_cell_volume 2756.077803
_symmetry_space_group_name_H-M "C 2/M"
_symmetry_group_IT_number 12
_symmetry_cell_setting 'monoclinic'
loop_
_space_group_symop_operation_xyz
x,y,z
-x,y,-z
-x,-y,-z
x,-y,z
1/2+x,1/2+y,z
1/2-x,1/2+y,-z
1/2-x,1/2-y,-z
1/2+x,1/2-y,z
loop_
_atom_site_type_symbol
_atom_site_label
_atom_site_fract_x
_atom_site_fract_y
_atom_site_fract_z
Si Si1 0.621199 0.178713 0.687325
Si Si2 0.126321 0.616714 0.524041
Si Si3 0.963188 0.615231 0.083701
Si Si4 0.122171 0.390124 0.196400
Si Si5 0.533569 0.607988 0.716461
Si Si6 0.908607 0.111506 0.454849
Si Si7 0.224517 0.817890 0.209755
O O1 0.625780 0.164342 0.602441
O O2 0.501793 0.119026 0.734627
O O3 0.606658 0.291110 0.713420
O O4 0.736818 0.147543 0.716919
O O5 0.122532 0.500000 0.533162
O O6 0.263226 0.644255 0.469289
O O7 0.000000 0.639507 0.500000
O O8 0.942655 0.500000 0.080231
O O9 0.837014 0.657041 0.138458
O O10 0.073325 0.627473 0.123718
O O11 0.000000 0.654579 0.000000
O O12 0.173031 0.500000 0.193753
O O13 0.201414 0.297336 0.206799
O O14 0.585107 0.500000 0.724596
O O15 0.521543 0.610703 0.632159
O O16 0.405840 0.626496 0.780486
O O17 0.000000 0.155951 0.500000
O O18 0.890633 0.000000 0.480731
#
# Coordination Sequence:
#
# PCOD9196502 Si02
#       7
#     8   8   8   8   8   8   8
#     4  10  21  35  54  78 105 142 188 235 283 339
#     4  10  21  36  55  80 110 148 196 248 300 354
#     4   9  18  34  57  85 115 146 183 228 277 335
#     4   9  19  35  55  81 111 144 184 229 278 334
#     4  10  21  35  51  75 106 139 179 228 282 339
#     4   9  18  32  50  73 102 137 179 232 292 345
#     4  10  20  35  57  82 108 146 189 229 280 342
#
# _framework density 20.318729000000001
#
# number of rings (size 3 to 8) (size 9 to 14) (size 15 to 20)
#    0.000    2.429    0.000    1.714    0.000    7.429 
#    0.000    1.429    0.000    0.429    0.000    0.000 
#    0.000    0.000    0.000    0.000    0.000    0.000 
#
# Total GULP energy -155941.949365 kJ/mol
# GULP energy per Si atom -5569.355334 kJ/mol
# Density = 2.027248 g / cm^3
# Si number density = 20.318729 Si / 1000 Ang^3
#
#
#
# Elastic Constant Matrix: (Units=GPa)
#
#
# Indices 1 2 3 4 5 6 
#
# 1 96.3961 23.7530 63.1383 0.0000 -10.7522 0.0000
# 2 23.7530 99.0354 18.5262 0.0000 0.0481 0.0000
# 3 63.1383 18.5262 100.1446 0.0000 4.1516 0.0000
# 4 0.0000 0.0000 0.0000 20.3375 0.0000 6.8488
# 5 -10.7522 0.0481 4.1516 0.0000 12.0305 0.0000
# 6 0.0000 0.0000 0.0000 6.8488 0.0000 -5.3501
#
#
#
# Elastic Compliance Matrix: (Units=1/GPa)
#
#
# Indices 1 2 3 4 5 6 
#
# 1 0.024883 -0.002932 -0.016301 0.000000 0.027875 0.000000
# 2 -0.002932 0.010810 -0.000041 0.000000 -0.002650 0.000000
# 3 -0.016301 -0.000041 0.021177 0.000000 -0.021877 0.000000
# 4 0.000000 0.000000 0.000000 0.034359 0.000000 0.043983
# 5 0.027875 -0.002650 -0.021877 0.000000 0.115595 0.000000
# 6 0.000000 0.000000 0.000000 0.043983 0.000000 -0.130607
#
#
# Mechanical properties :
#
#
# Convention : Reuss Voigt Hill
#
# Bulk Modulus (GPa) = 54.58221 56.26788 55.42504
# Shear Modulus (GPa) = 41.36615 18.08081 29.72348
#
# Velocity S-wave (km/s) = 4.51695 2.98629 3.82889
# Velocity P-wave (km/s) = 7.35698 6.29629 6.84720
#
# Compressibility (1/GPa) = 0.01832099
#
# Stress axis : x y z
#
# Youngs Moduli (GPa) = 40.18881 92.50986 47.22022
#
# Poissons Ratio (x) = 0.27125 0.76973
# Poissons Ratio (y) = 0.11784 0.00195
# Poissons Ratio (z) = 0.65511 0.00382
#
# Static dielectric constant tensor:
#      x y z
#    x 1.739270 0.000000 0.017570 
#    y 0.000000 1.766790 0.000000 
#    z 0.017570 0.000000 1.699120 
# 
# From -- ./inp_files/262824.got.cif
#   From: 2010.05.17/outbox.cif.g08.bks.cpg/sg12_132_cif.got.tgz:262824.got - 2010.06.03 13:09:07.
