data_PCOD9196373
_publ_section_title
;
Structure prediction by ZEFSAII (Michael W. Deem and Ramdas Pophale) SiO2 
 PCOD9196373
Probable space group: C 2/M
;
_chemical_formula_sum "Si O2"
_cell_formula_units_Z 36
_cell_length_a 8.823475
_cell_length_b 20.370395
_cell_length_c 9.567783
_cell_angle_alpha 90.000000
_cell_angle_beta 103.353611
_cell_angle_gamma 90.000000
_cell_volume 1673.196077
_symmetry_space_group_name_H-M "C 2/M"
_symmetry_group_IT_number 12
_symmetry_cell_setting 'monoclinic'
loop_
_space_group_symop_operation_xyz
x,y,z
-x,y,-z
-x,-y,-z
x,-y,z
1/2+x,1/2+y,z
1/2-x,1/2+y,-z
1/2-x,1/2-y,-z
1/2+x,1/2-y,z
loop_
_atom_site_type_symbol
_atom_site_label
_atom_site_fract_x
_atom_site_fract_y
_atom_site_fract_z
Si Si1 0.293074 0.124248 0.105218
Si Si2 0.318490 0.000000 0.615295
Si Si3 0.298119 0.722843 0.700655
Si Si4 0.500000 0.752064 0.500000
Si Si5 0.697934 0.000000 0.707213
Si Si6 0.328859 0.871960 0.792191
O O1 0.204051 0.185683 0.154184
O O2 0.481539 0.130235 0.158479
O O3 0.250339 0.062740 0.192675
O O4 0.264226 0.118048 0.934808
O O5 0.508472 0.000000 0.659327
O O6 0.254814 0.000000 0.444381
O O7 0.276721 0.932999 0.686783
O O8 0.435203 0.712350 0.618938
O O9 0.140246 0.703615 0.586317
O O10 0.286898 0.800619 0.724584
#
# Coordination Sequence:
#
# PCOD9196373 Si02
#       6
#     8   4   8   4   4   8
#     4  10  20  35  56  85 118 152 189 235 286 338
#     4   9  19  31  53  83 116 149 192 238 282 327
#     4  11  21  38  58  86 118 150 190 238 280 346
#     4  10  24  34  58  84 122 148 190 236 292 320
#     4   9  19  31  53  83 116 149 192 238 282 327
#     4  10  20  35  56  85 118 152 189 235 286 338
#
# _framework density 21.515709999999999
#
# number of rings (size 3 to 8) (size 9 to 14) (size 15 to 20)
#    0.000    2.000    2.222    1.333    6.222    2.667 
#    0.000    0.000    0.000    2.667    0.000    3.111 
#    0.000    0.000    0.000    0.000    0.000    0.000 
#
# Total GULP energy -100499.655386 kJ/mol
# GULP energy per Si atom -5583.314188 kJ/mol
# Density = 2.146674 g / cm^3
# Si number density = 21.515710 Si / 1000 Ang^3
#
#
#
# Elastic Constant Matrix: (Units=GPa)
#
#
# Indices 1 2 3 4 5 6 
#
# 1 47.3476 7.7596 29.5245 0.0000 -21.1433 0.0000
# 2 7.7596 151.5288 87.3561 0.0000 -27.9986 0.0000
# 3 29.5245 87.3561 197.5858 0.0000 -55.3693 0.0000
# 4 0.0000 0.0000 0.0000 75.2411 0.0000 -18.4807
# 5 -21.1433 -27.9986 -55.3693 0.0000 36.7820 0.0000
# 6 0.0000 0.0000 0.0000 -18.4807 0.0000 12.1047
#
#
#
# Elastic Compliance Matrix: (Units=1/GPa)
#
#
# Indices 1 2 3 4 5 6 
#
# 1 0.028854 0.001907 -0.000173 0.000000 0.017778 0.000000
# 2 0.001907 0.009029 -0.003535 0.000000 0.002648 0.000000
# 3 -0.000173 -0.003535 0.010149 0.000000 0.012488 0.000000
# 4 0.000000 0.000000 0.000000 0.021265 0.000000 0.032466
# 5 0.017778 0.002648 0.012488 0.000000 0.058220 0.000000
# 6 0.000000 0.000000 0.000000 0.032466 0.000000 0.132179
#
#
# Mechanical properties :
#
#
# Convention : Reuss Voigt Hill
#
# Bulk Modulus (GPa) = 22.50678 71.74917 47.12797
# Shear Modulus (GPa) = 17.97862 42.94703 30.46283
#
# Velocity S-wave (km/s) = 2.89382 4.47260 3.76685
# Velocity P-wave (km/s) = 4.65284 7.75190 6.39300
#
# Compressibility (1/GPa) = 0.04443106
#
# Stress axis : x y z
#
# Youngs Moduli (GPa) = 34.65677 110.75711 98.53069
#
# Poissons Ratio (x) = -0.21120 0.01703
# Poissons Ratio (y) = -0.06609 0.34827
# Poissons Ratio (z) = 0.00599 0.39149
#
# Static dielectric constant tensor:
#      x y z
#    x 1.793360 0.000000 -0.010480 
#    y 0.000000 1.766510 0.000000 
#    z -0.010480 0.000000 1.786050 
# 
# From -- ./inp_files/38045.got.cif
#   From: 2010.05.17/outbox.cif.g08.bks.cpg/sg12_20_cif.got.tgz:38045.got - 2010.06.03 13:09:07.
