data_PCOD9196906
_publ_section_title
;
Structure prediction by ZEFSAII (Michael W. Deem and Ramdas Pophale) SiO2 
 PCOD9196906
Probable space group: C 2/M
;
_chemical_formula_sum "Si O2"
_cell_formula_units_Z 48
_cell_length_a 19.520307
_cell_length_b 7.902282
_cell_length_c 25.450306
_cell_angle_alpha 90.000000
_cell_angle_beta 150.541225
_cell_angle_gamma 90.000000
_cell_volume 1930.715258
_symmetry_space_group_name_H-M "C 2/M"
_symmetry_group_IT_number 12
_symmetry_cell_setting 'monoclinic'
loop_
_space_group_symop_operation_xyz
x,y,z
-x,y,-z
-x,-y,-z
x,-y,z
1/2+x,1/2+y,z
1/2-x,1/2+y,-z
1/2-x,1/2-y,-z
1/2+x,1/2-y,z
loop_
_atom_site_type_symbol
_atom_site_label
_atom_site_fract_x
_atom_site_fract_y
_atom_site_fract_z
Si Si1 0.367326 0.311918 0.970804
Si Si2 0.586810 0.704004 0.390364
Si Si3 0.844534 0.704108 0.729991
Si Si4 0.331540 0.191374 0.834446
Si Si5 0.409219 0.699410 0.171975
Si Si6 0.927989 0.206313 0.505374
O O1 0.424677 0.500000 0.014667
O O2 0.305474 0.288886 0.870675
O O3 0.242005 0.281890 0.926855
O O4 0.499777 0.189642 0.060522
O O5 0.579291 0.500000 0.383784
O O6 0.750000 0.750000 0.500000
O O7 0.500707 0.766571 0.282587
O O8 0.526033 0.762493 0.406216
O O9 0.850017 0.500000 0.736120
O O10 0.787024 0.760840 0.748223
O O11 0.733853 0.752493 0.611638
O O12 0.995465 0.769850 0.815012
O O13 0.278332 0.000000 0.805565
O O14 0.387192 0.500000 0.163922
O O15 0.000000 0.265675 0.500000
O O16 0.938473 0.000000 0.512190
#
# Coordination Sequence:
#
# PCOD9196906 Si02
#       6
#     8   8   8   8   8   8
#     4  11  23  40  62  86 115 154 194 236 293 352
#     4  10  20  35  58  83 115 152 190 234 284 339
#     4  10  21  37  60  87 117 154 193 237 290 345
#     4  10  21  39  63  89 118 149 190 242 292 346
#     4  11  23  37  58  87 119 155 196 242 288 339
#     4   9  18  33  56  84 114 149 189 232 279 338
#
# _framework density 24.861252
#
# number of rings (size 3 to 8) (size 9 to 14) (size 15 to 20)
#    0.000    1.833    1.667    3.500    2.333    2.667 
#    0.000    0.000    0.000    1.000    0.000    0.000 
#    0.000    0.000    0.000    0.000    0.000    0.000 
#
# Total GULP energy -134239.174063 kJ/mol
# GULP energy per Si atom -5593.298919 kJ/mol
# Density = 2.480467 g / cm^3
# Si number density = 24.861252 Si / 1000 Ang^3
#
#
#
# Elastic Constant Matrix: (Units=GPa)
#
#
# Indices 1 2 3 4 5 6 
#
# 1 104.4175 -2.1783 1.0201 -0.0001 5.8376 0.0000
# 2 -2.1783 45.8216 -0.9646 -0.0002 -1.3697 0.0001
# 3 1.0201 -0.9646 60.4164 -0.0004 -3.9992 -0.0001
# 4 -0.0001 -0.0002 -0.0004 8.2404 -0.0001 -0.0950
# 5 5.8376 -1.3697 -3.9992 -0.0001 47.9094 0.0000
# 6 0.0000 0.0001 -0.0001 -0.0950 0.0000 23.6539
#
#
#
# Elastic Compliance Matrix: (Units=1/GPa)
#
#
# Indices 1 2 3 4 5 6 
#
# 1 0.009654 0.000419 -0.000235 0.000000 -0.001184 0.000000
# 2 0.000419 0.021870 0.000382 0.000000 0.000606 0.000000
# 3 -0.000235 0.000382 0.016657 0.000001 0.001430 0.000000
# 4 0.000000 0.000000 0.000001 0.121359 0.000000 0.000488
# 5 -0.001184 0.000606 0.001430 0.000000 0.021154 0.000000
# 6 0.000000 0.000000 0.000000 0.000488 0.000000 0.042278
#
#
# Mechanical properties :
#
#
# Convention : Reuss Voigt Hill
#
# Bulk Modulus (GPa) = 20.27872 22.93444 21.60658
# Shear Modulus (GPa) = 20.13880 30.14596 25.14238
#
# Velocity S-wave (km/s) = 2.84922 3.48597 3.18356
# Velocity P-wave (km/s) = 4.35873 5.04457 4.71414
#
# Compressibility (1/GPa) = 0.04931279
#
# Stress axis : x y z
#
# Youngs Moduli (GPa) = 103.58236 45.72511 60.03656
#
# Poissons Ratio (x) = -0.01914 0.01409
# Poissons Ratio (y) = -0.04336 -0.02295
# Poissons Ratio (z) = 0.02431 -0.01748
#
# Static dielectric constant tensor:
#      x y z
#    x 1.972860 0.000000 -0.025860 
#    y 0.000000 1.885140 0.000000 
#    z -0.025860 0.000000 2.022210 
# 
# From -- ./inp_files/365573.got.cif
#   From: 2010.05.17/outbox.cif.g08.bks.cpg/sg12_183_cif.got.tgz:365573.got - 2010.06.03 13:09:07.
