data_PCOD9196789
_publ_section_title
;
Structure prediction by ZEFSAII (Michael W. Deem and Ramdas Pophale) SiO2 
 PCOD9196789
Probable space group: C 2/M
;
_chemical_formula_sum "Si O2"
_cell_formula_units_Z 64
_cell_length_a 29.747029
_cell_length_b 9.135927
_cell_length_c 14.731922
_cell_angle_alpha 90.000000
_cell_angle_beta 52.740172
_cell_angle_gamma 90.000000
_cell_volume 3186.494192
_symmetry_space_group_name_H-M "C 2/M"
_symmetry_group_IT_number 12
_symmetry_cell_setting 'monoclinic'
loop_
_space_group_symop_operation_xyz
x,y,z
-x,y,-z
-x,-y,-z
x,-y,z
1/2+x,1/2+y,z
1/2-x,1/2+y,-z
1/2-x,1/2-y,-z
1/2+x,1/2-y,z
loop_
_atom_site_type_symbol
_atom_site_label
_atom_site_fract_x
_atom_site_fract_y
_atom_site_fract_z
Si Si1 0.863946 0.827658 0.113923
Si Si2 0.034957 0.326471 0.117958
Si Si3 0.136946 0.673152 0.515581
Si Si4 0.420931 0.333865 0.770893
Si Si5 0.732758 0.176419 0.262478
Si Si6 0.567036 0.161866 0.419870
Si Si7 0.916755 0.171425 0.246320
Si Si8 0.796702 0.170575 0.884476
O O1 0.798770 0.781097 0.181220
O O2 0.880054 0.814978 0.200057
O O3 0.868412 0.000000 0.082870
O O4 0.911165 0.739047 0.000903
O O5 0.032561 0.500000 0.111690
O O6 0.044142 0.277623 0.211068
O O7 0.976134 0.254441 0.159413
O O8 0.138122 0.500000 0.536582
O O9 0.197281 0.714129 0.396605
O O10 0.092195 0.692090 0.487999
O O11 0.116450 0.762087 0.627468
O O12 0.440032 0.500000 0.762862
O O13 0.421870 0.289213 0.664992
O O14 0.354373 0.322120 0.871531
O O15 0.702259 0.249301 0.213814
O O16 0.730291 0.000000 0.257098
O O17 0.500000 0.150081 0.500000
O O18 0.589997 0.000000 0.363513
O O19 0.928522 0.000000 0.247326
O O20 0.784114 0.000000 0.885134
O O21 0.750000 0.250000 0.000000
#
# Coordination Sequence:
#
# PCOD9196789 Si02
#       8
#     8   8   8   8   8   8   8   8
#     4  10  23  43  65  91 123 162 208 258 316 374
#     4  12  25  41  64  93 124 159 206 261 315 376
#     4  10  21  38  61  91 128 167 208 256 306 363
#     4  11  23  38  58  87 121 158 197 240 297 361
#     4  10  21  40  64  89 124 167 208 253 307 366
#     4  10  20  35  57  86 120 159 201 245 294 353
#     4  11  24  42  65  91 123 163 206 259 318 373
#     4  11  23  37  57  87 122 160 203 248 297 357
#
# _framework density 20.084769000000001
#
# number of rings (size 3 to 8) (size 9 to 14) (size 15 to 20)
#    0.000    1.375    1.250    4.125    0.000   10.250 
#    0.000    0.000    0.000    0.000    0.000    0.000 
#    0.000    0.000    0.000    0.000    0.000    0.000 
#
# Total GULP energy -178805.326517 kJ/mol
# GULP energy per Si atom -5587.666454 kJ/mol
# Density = 2.003905 g / cm^3
# Si number density = 20.084769 Si / 1000 Ang^3
#
#
#
# Elastic Constant Matrix: (Units=GPa)
#
#
# Indices 1 2 3 4 5 6 
#
# 1 73.8320 20.3776 14.1154 0.0000 -10.1255 0.0000
# 2 20.3776 63.4298 28.7969 0.0000 -2.7584 0.0000
# 3 14.1154 28.7969 79.4438 0.0000 -9.0449 0.0000
# 4 0.0000 0.0000 0.0000 36.2417 0.0000 2.5296
# 5 -10.1255 -2.7584 -9.0449 0.0000 31.0498 0.0000
# 6 0.0000 0.0000 0.0000 2.5296 0.0000 23.6424
#
#
#
# Elastic Compliance Matrix: (Units=1/GPa)
#
#
# Indices 1 2 3 4 5 6 
#
# 1 0.015522 -0.004514 -0.000611 0.000000 0.004483 0.000000
# 2 -0.004514 0.020187 -0.006701 0.000000 -0.001631 0.000000
# 3 -0.000611 -0.006701 0.015550 0.000000 0.003735 0.000000
# 4 0.000000 0.000000 0.000000 0.027800 0.000000 -0.002974
# 5 0.004483 -0.001631 0.003735 0.000000 0.034611 0.000000
# 6 0.000000 0.000000 0.000000 -0.002974 0.000000 0.042615
#
#
# Mechanical properties :
#
#
# Convention : Reuss Voigt Hill
#
# Bulk Modulus (GPa) = 36.22345 38.14282 37.18314
# Shear Modulus (GPa) = 26.43534 28.41449 27.42491
#
# Velocity S-wave (km/s) = 3.63187 3.76537 3.69922
# Velocity P-wave (km/s) = 5.97174 6.15923 6.06621
#
# Compressibility (1/GPa) = 0.02760642
#
# Stress axis : x y z
#
# Youngs Moduli (GPa) = 64.42561 49.53680 64.30712
#
# Poissons Ratio (x) = 0.22362 0.03931
# Poissons Ratio (y) = 0.29083 0.43092
# Poissons Ratio (z) = 0.03938 0.33195
#
# Static dielectric constant tensor:
#      x y z
#    x 1.697870 0.000000 -0.004080 
#    y 0.000000 1.704990 0.000000 
#    z -0.004080 0.000000 1.740910 
# 
# From -- ./inp_files/249814.got.cif
#   From: 2010.05.17/outbox.cif.g08.bks.cpg/sg12_125_cif.got.tgz:249814.got - 2010.06.03 13:09:07.
