data_PCOD9196067
_publ_section_title
;
Structure prediction by ZEFSAII (Michael W. Deem and Ramdas Pophale) SiO2 
 PCOD9196067
Probable space group: C 2/M
;
_chemical_formula_sum "Si O2"
_cell_formula_units_Z 60
_cell_length_a 7.734413
_cell_length_b 21.193045
_cell_length_c 18.604996
_cell_angle_alpha 90.000000
_cell_angle_beta 78.072099
_cell_angle_gamma 90.000000
_cell_volume 2983.805410
_symmetry_space_group_name_H-M "C 2/M"
_symmetry_group_IT_number 12
_symmetry_cell_setting 'monoclinic'
loop_
_space_group_symop_operation_xyz
x,y,z
-x,y,-z
-x,-y,-z
x,-y,z
1/2+x,1/2+y,z
1/2-x,1/2+y,-z
1/2-x,1/2-y,-z
1/2+x,1/2-y,z
loop_
_atom_site_type_symbol
_atom_site_label
_atom_site_fract_x
_atom_site_fract_y
_atom_site_fract_z
Si Si1 0.262583 0.817787 0.592595
Si Si2 0.209874 0.072719 0.965473
Si Si3 0.628086 0.614069 0.822531
Si Si4 0.876477 0.349559 0.243120
Si Si5 0.006801 0.780362 0.259180
Si Si6 0.500000 0.285237 0.500000
Si Si7 0.597687 0.073451 0.323883
Si Si8 0.229903 0.426779 0.881881
O O1 0.132035 0.793657 0.665858
O O2 0.400738 0.762485 0.562805
O O3 0.354300 0.880770 0.614043
O O4 0.144075 0.824816 0.531300
O O5 0.226288 0.110284 0.890267
O O6 0.262884 0.000000 0.947931
O O7 0.294284 0.094202 0.033317
O O8 0.000000 0.072281 0.000000
O O9 0.568759 0.683652 0.803925
O O10 0.749216 0.584062 0.749887
O O11 0.440187 0.577966 0.846263
O O12 0.018180 0.293670 0.242263
O O13 0.689124 0.313986 0.264633
O O14 0.869904 0.384505 0.167465
O O15 0.920923 0.400334 0.300519
O O16 0.586506 0.000000 0.342868
O O17 0.179014 0.500000 0.880665
#
# Coordination Sequence:
#
# PCOD9196067 Si02
#       8
#     8   8   8   8   8   4   8   8
#     4  10  21  37  61  89 113 139 176 215 253 310
#     4   8  13  25  47  74 104 139 179 219 263 319
#     4   9  17  31  54  79 106 138 178 225 269 318
#     4  11  21  34  53  76 107 143 181 228 270 311
#     4  10  20  35  56  81 106 137 181 224 266 311
#     4  10  20  38  64  90 114 142 174 208 252 306
#     4  11  22  36  55  82 113 143 177 218 267 314
#     4   9  17  30  50  78 108 141 180 220 269 325
#
# _framework density 20.108549
#
# number of rings (size 3 to 8) (size 9 to 14) (size 15 to 20)
#    0.000    2.267    0.000    5.600    0.000    1.067 
#    0.000    2.667    0.000    5.600    0.000    0.000 
#    0.000    0.000    0.000    0.000    0.000    0.000 
#
# Total GULP energy -167506.376155 kJ/mol
# GULP energy per Si atom -5583.545872 kJ/mol
# Density = 2.006278 g / cm^3
# Si number density = 20.108549 Si / 1000 Ang^3
#
#
#
# Elastic Constant Matrix: (Units=GPa)
#
#
# Indices 1 2 3 4 5 6 
#
# 1 107.0689 38.6835 37.4175 0.0000 8.5359 0.0000
# 2 38.6835 107.0137 59.3398 0.0000 38.4813 0.0000
# 3 37.4175 59.3398 88.3391 0.0000 25.3018 0.0000
# 4 0.0000 0.0000 0.0000 29.5948 0.0000 9.0667
# 5 8.5359 38.4813 25.3018 0.0000 35.4594 0.0000
# 6 0.0000 0.0000 0.0000 9.0667 0.0000 15.3132
#
#
#
# Elastic Compliance Matrix: (Units=1/GPa)
#
#
# Indices 1 2 3 4 5 6 
#
# 1 0.011561 -0.003462 -0.003582 0.000000 0.003530 0.000000
# 2 -0.003462 0.020725 -0.007858 0.000000 -0.016051 0.000000
# 3 -0.003582 -0.007858 0.019389 0.000000 -0.004445 0.000000
# 4 0.000000 0.000000 0.000000 0.041277 0.000000 -0.024440
# 5 0.003530 -0.016051 -0.004445 0.000000 0.047942 0.000000
# 6 0.000000 0.000000 0.000000 -0.024440 0.000000 0.079774
#
#
# Mechanical properties :
#
#
# Convention : Reuss Voigt Hill
#
# Bulk Modulus (GPa) = 45.72447 63.70038 54.71242
# Shear Modulus (GPa) = 19.39767 27.20555 23.30161
#
# Velocity S-wave (km/s) = 3.10925 3.68222 3.40780
# Velocity P-wave (km/s) = 5.97311 7.05871 6.53848
#
# Compressibility (1/GPa) = 0.02187013
#
# Stress axis : x y z
#
# Youngs Moduli (GPa) = 86.49661 48.25033 51.57589
#
# Poissons Ratio (x) = 0.16705 0.18477
# Poissons Ratio (y) = 0.29946 0.40528
# Poissons Ratio (z) = 0.30987 0.37915
#
# Static dielectric constant tensor:
#      x y z
#    x 1.780110 0.000000 0.004120 
#    y 0.000000 1.674450 0.000000 
#    z 0.004120 0.000000 1.721650 
# 
# From -- ./inp_files/258075.got.cif
#   From: 2010.05.17/outbox.cif.g08.bks.cpg/sg12_130_cif.got.tgz:258075.got - 2010.06.03 13:09:07.
