data_PCOD9196266
_publ_section_title
;
Structure prediction by ZEFSAII (Michael W. Deem and Ramdas Pophale) SiO2 
 PCOD9196266
Probable space group: C 2/M
;
_chemical_formula_sum "Si O2"
_cell_formula_units_Z 52
_cell_length_a 13.992429
_cell_length_b 9.408975
_cell_length_c 18.607753
_cell_angle_alpha 90.000000
_cell_angle_beta 62.633020
_cell_angle_gamma 90.000000
_cell_volume 2175.613129
_symmetry_space_group_name_H-M "C 2/M"
_symmetry_group_IT_number 12
_symmetry_cell_setting 'monoclinic'
loop_
_space_group_symop_operation_xyz
x,y,z
-x,y,-z
-x,-y,-z
x,-y,z
1/2+x,1/2+y,z
1/2-x,1/2+y,-z
1/2-x,1/2-y,-z
1/2+x,1/2-y,z
loop_
_atom_site_type_symbol
_atom_site_label
_atom_site_fract_x
_atom_site_fract_y
_atom_site_fract_z
Si Si1 0.808960 0.732997 0.391454
Si Si2 0.660029 0.838800 0.251092
Si Si3 0.043954 0.662431 0.784148
Si Si4 0.414182 0.658597 0.588988
Si Si5 0.081467 0.836263 0.061303
Si Si6 0.796173 0.500000 0.493434
Si Si7 0.789479 0.664124 0.096777
O O1 0.873298 0.745369 0.295495
O O2 0.699316 0.647620 0.412562
O O3 0.865092 0.626076 0.427323
O O4 0.772743 0.877104 0.439776
O O5 0.564836 0.846708 0.225592
O O6 0.610726 0.764883 0.338243
O O7 0.749628 0.738100 0.183828
O O8 0.697608 0.000000 0.252538
O O9 0.081625 0.500000 0.782462
O O10 0.009096 0.743908 0.867623
O O11 0.500000 0.705299 0.500000
O O12 0.446133 0.500000 0.603694
O O13 0.184600 0.838397 0.080086
O O14 0.050057 0.000000 0.061014
O O15 0.124098 0.759275 0.975209
O O16 0.822878 0.500000 0.094172
#
# Coordination Sequence:
#
# PCOD9196266 Si02
#       7
#     8   8   8   8   8   4   8
#     4  11  23  41  59  84 110 149 185 241 278 337
#     4  10  22  35  55  83 114 151 190 232 279 334
#     4  10  20  35  56  83 114 149 190 234 281 334
#     4  11  25  40  57  83 115 150 187 232 283 337
#     4   9  17  28  50  82 113 144 185 233 279 329
#     4  10  24  38  64  80 108 146 196 230 286 326
#     4   9  16  31  51  77 113 150 184 227 281 332
#
# _framework density 23.901309000000001
#
# number of rings (size 3 to 8) (size 9 to 14) (size 15 to 20)
#    0.000    2.000    1.538    1.385    6.462    4.615 
#    0.000    0.000    0.000    0.923    0.000    5.385 
#    0.000    0.000    0.000    0.000    0.000    0.000 
#
# Total GULP energy -145016.590037 kJ/mol
# GULP energy per Si atom -5577.561155 kJ/mol
# Density = 2.384691 g / cm^3
# Si number density = 23.901309 Si / 1000 Ang^3
#
#
#
# Elastic Constant Matrix: (Units=GPa)
#
#
# Indices 1 2 3 4 5 6 
#
# 1 44.2802 -3.4653 1.5597 0.0000 0.5568 0.0000
# 2 -3.4653 199.4695 116.8387 0.0000 21.0402 0.0000
# 3 1.5597 116.8387 228.6471 0.0000 -9.1830 0.0000
# 4 0.0000 0.0000 0.0000 28.9386 0.0000 15.9151
# 5 0.5568 21.0402 -9.1830 0.0000 30.7842 0.0000
# 6 0.0000 0.0000 0.0000 15.9151 0.0000 0.0221
#
#
#
# Elastic Compliance Matrix: (Units=1/GPa)
#
#
# Indices 1 2 3 4 5 6 
#
# 1 0.022695 0.000921 -0.000675 0.000000 -0.001241 0.000000
# 2 0.000921 0.008512 -0.004646 0.000000 -0.007221 0.000000
# 3 -0.000675 -0.004646 0.006964 0.000000 0.005265 0.000000
# 4 0.000000 0.000000 0.000000 -0.000088 0.000000 0.062993
# 5 -0.001241 -0.007221 0.005265 0.000000 0.039012 0.000000
# 6 0.000000 0.000000 0.000000 0.062993 0.000000 -0.114541
#
#
# Mechanical properties :
#
#
# Convention : Reuss Voigt Hill
#
# Bulk Modulus (GPa) = 34.04851 78.02923 56.03887
# Shear Modulus (GPa) = -265.19848 35.77990 -114.70929
#
# Velocity S-wave (km/s) = -10.54498 3.87329 -6.93521
# Velocity P-wave (km/s) = 11.57522 7.26088 6.37437
#
# Compressibility (1/GPa) = 0.02936986
#
# Stress axis : x y z
#
# Youngs Moduli (GPa) = 44.06281 117.47616 143.60034
#
# Poissons Ratio (x) = -0.10815 0.09694
# Poissons Ratio (y) = -0.04056 0.66718
# Poissons Ratio (z) = 0.02975 0.54581
#
# Static dielectric constant tensor:
#      x y z
#    x 2.048900 0.000000 0.068220 
#    y 0.000000 1.831300 0.000000 
#    z 0.068220 0.000000 1.858500 
# 
# From -- ./inp_files/314681.got.cif
#   From: 2010.05.17/outbox.cif.g08.bks.cpg/sg12_158_cif.got.tgz:314681.got - 2010.06.03 13:09:07.
