data_PCOD9196277
_publ_section_title
;
Structure prediction by ZEFSAII (Michael W. Deem and Ramdas Pophale) SiO2 
 PCOD9196277
Probable space group: C 2/M
;
_chemical_formula_sum "Si O2"
_cell_formula_units_Z 56
_cell_length_a 29.055003
_cell_length_b 13.686068
_cell_length_c 7.438980
_cell_angle_alpha 90.000000
_cell_angle_beta 66.841708
_cell_angle_gamma 90.000000
_cell_volume 2719.742799
_symmetry_space_group_name_H-M "C 2/M"
_symmetry_group_IT_number 12
_symmetry_cell_setting 'monoclinic'
loop_
_space_group_symop_operation_xyz
x,y,z
-x,y,-z
-x,-y,-z
x,-y,z
1/2+x,1/2+y,z
1/2-x,1/2+y,-z
1/2-x,1/2-y,-z
1/2+x,1/2-y,z
loop_
_atom_site_type_symbol
_atom_site_label
_atom_site_fract_x
_atom_site_fract_y
_atom_site_fract_z
Si Si1 0.796281 0.180055 0.478116
Si Si2 0.488573 0.389989 0.232210
Si Si3 0.559335 0.888691 0.448896
Si Si4 0.913364 0.773174 0.865604
Si Si5 0.190680 0.826212 0.933147
Si Si6 0.096286 0.258170 0.691639
Si Si7 0.266755 0.109001 0.108675
O O1 0.750000 0.250000 0.500000
O O2 0.809429 0.131733 0.267817
O O3 0.845974 0.241070 0.449069
O O4 0.775052 0.115289 0.670041
O O5 0.485240 0.500000 0.303637
O O6 0.535171 0.331356 0.241735
O O7 0.437168 0.331438 0.329694
O O8 0.500000 0.392905 0.000000
O O9 0.500000 0.881749 0.500000
O O10 0.586171 0.818735 0.265769
O O11 0.573213 0.851102 0.626414
O O12 0.574831 0.000000 0.402635
O O13 0.864557 0.838522 0.903240
O O14 0.909561 0.741675 0.082622
O O15 0.199469 0.706929 0.918171
O O16 0.235713 0.872220 0.974625
O O17 0.289774 0.000000 0.075477
#
# Coordination Sequence:
#
# PCOD9196277 Si02
#       7
#     8   8   8   8   8   8   8
#     4   9  19  37  58  81 111 150 191 238 287 339
#     4   9  18  33  55  82 109 141 182 228 280 340
#     4  11  23  37  56  84 115 150 196 240 281 336
#     4  10  20  38  59  80 114 153 189 235 287 343
#     4   9  20  37  57  81 114 153 191 236 290 341
#     4  10  20  38  60  81 115 154 188 233 293 342
#     4  10  20  35  56  83 115 150 193 239 286 342
#
# _framework density 20.590183
#
# number of rings (size 3 to 8) (size 9 to 14) (size 15 to 20)
#    0.000    2.286    1.429    0.857    0.000    2.857 
#    0.000   11.429    0.000    0.000    0.000    0.000 
#    0.000    0.000    0.000    0.000    0.000    0.000 
#
# Total GULP energy -156213.384286 kJ/mol
# GULP energy per Si atom -5579.049439 kJ/mol
# Density = 2.054332 g / cm^3
# Si number density = 20.590183 Si / 1000 Ang^3
#
#
#
# Elastic Constant Matrix: (Units=GPa)
#
#
# Indices 1 2 3 4 5 6 
#
# 1 81.4611 -0.2977 2.7177 0.0000 -12.6115 0.0000
# 2 -0.2977 68.2709 2.4234 0.0000 -2.3213 0.0000
# 3 2.7177 2.4234 33.8801 0.0000 -2.4216 0.0000
# 4 0.0000 0.0000 0.0000 5.0292 0.0000 4.2196
# 5 -12.6115 -2.3213 -2.4216 0.0000 36.7758 0.0000
# 6 0.0000 0.0000 0.0000 4.2196 0.0000 6.0635
#
#
#
# Elastic Compliance Matrix: (Units=1/GPa)
#
#
# Indices 1 2 3 4 5 6 
#
# 1 0.012986 0.000233 -0.000742 0.000000 0.004419 0.000000
# 2 0.000233 0.014716 -0.001004 0.000000 0.000943 0.000000
# 3 -0.000742 -0.001004 0.029765 0.000000 0.001642 0.000000
# 4 0.000000 0.000000 0.000000 0.477823 0.000000 -0.332515
# 5 0.004419 0.000943 0.001642 0.000000 0.028875 0.000000
# 6 0.000000 0.000000 0.000000 -0.332515 0.000000 0.396316
#
#
# Mechanical properties :
#
#
# Convention : Reuss Voigt Hill
#
# Bulk Modulus (GPa) = 18.36886 21.47766 19.92326
# Shear Modulus (GPa) = 5.09345 21.49161 13.29253
#
# Velocity S-wave (km/s) = 1.57451 3.23426 2.54358
# Velocity P-wave (km/s) = 3.49943 4.93973 4.28059
#
# Compressibility (1/GPa) = 0.05443996
#
# Stress axis : x y z
#
# Youngs Moduli (GPa) = 77.00869 67.95215 33.59697
#
# Poissons Ratio (x) = -0.01585 0.02495
# Poissons Ratio (y) = -0.01796 0.03373
# Poissons Ratio (z) = 0.05718 0.06822
#
# Static dielectric constant tensor:
#      x y z
#    x 1.724740 0.000000 0.009410 
#    y 0.000000 1.735060 0.000000 
#    z 0.009410 0.000000 1.808680 
# 
# From -- ./inp_files/110362.got.cif
#   From: 2010.05.17/outbox.cif.g08.bks.cpg/sg12_56_cif.got.tgz:110362.got - 2010.06.03 13:09:07.
