data_PCOD9196791
_publ_section_title
;
Structure prediction by ZEFSAII (Michael W. Deem and Ramdas Pophale) SiO2 
 PCOD9196791
Probable space group: C 2/M
;
_chemical_formula_sum "Si O2"
_cell_formula_units_Z 40
_cell_length_a 21.114134
_cell_length_b 10.101859
_cell_length_c 24.470908
_cell_angle_alpha 90.000000
_cell_angle_beta 158.958888
_cell_angle_gamma 90.000000
_cell_volume 1873.979172
_symmetry_space_group_name_H-M "C 2/M"
_symmetry_group_IT_number 12
_symmetry_cell_setting 'monoclinic'
loop_
_space_group_symop_operation_xyz
x,y,z
-x,y,-z
-x,-y,-z
x,-y,z
1/2+x,1/2+y,z
1/2-x,1/2+y,-z
1/2-x,1/2-y,-z
1/2+x,1/2-y,z
loop_
_atom_site_type_symbol
_atom_site_label
_atom_site_fract_x
_atom_site_fract_y
_atom_site_fract_z
Si Si1 0.477240 0.348517 0.619338
Si Si2 0.669658 0.147206 0.159881
Si Si3 0.925552 0.344231 0.208036
Si Si4 0.327325 0.788437 0.389894
Si Si5 0.541323 0.356227 0.863286
O O1 0.419130 0.500000 0.585224
O O2 0.682148 0.356339 0.766993
O O3 0.473906 0.241324 0.665134
O O4 0.383405 0.290419 0.489706
O O5 0.760476 0.197104 0.287270
O O6 0.610550 0.000000 0.127539
O O7 0.500000 0.222497 0.000000
O O8 0.973974 0.500000 0.247161
O O9 0.960915 0.266913 0.179955
O O10 0.710696 0.338689 0.039239
O O11 0.500000 0.853488 0.500000
O O12 0.148860 0.863286 0.262006
O O13 0.572943 0.500000 0.860408
#
# Coordination Sequence:
#
# PCOD9196791 Si02
#       5
#     8   8   8   8   8
#     4  10  20  35  57  86 121 157 194 239 291 348
#     4   9  17  31  54  83 115 154 198 241 286 340
#     4  10  22  40  63  89 115 151 199 248 296 345
#     4  10  21  36  57  87 123 156 192 236 291 350
#     4  10  22  41  63  87 117 153 197 246 294 348
#
# _framework density 21.344954000000001
#
# number of rings (size 3 to 8) (size 9 to 14) (size 15 to 20)
#    0.000    2.200    0.000    2.400    0.000    6.800 
#    0.000    3.000    0.000   10.800    0.000    0.000 
#    0.000    0.000    0.000    0.000    0.000    0.000 
#
# Total GULP energy -111352.841398 kJ/mol
# GULP energy per Si atom -5567.642070 kJ/mol
# Density = 2.129637 g / cm^3
# Si number density = 21.344954 Si / 1000 Ang^3
#
#
#
# Elastic Constant Matrix: (Units=GPa)
#
#
# Indices 1 2 3 4 5 6 
#
# 1 54.0536 49.2222 36.2849 -0.0033 -7.4932 0.0001
# 2 49.2222 154.6108 34.1338 0.0083 -19.4011 -0.0008
# 3 36.2849 34.1338 114.2819 -0.0012 11.5393 0.0011
# 4 -0.0033 0.0083 -0.0012 14.4851 -0.0015 -0.7068
# 5 -7.4932 -19.4011 11.5393 -0.0015 44.9905 -0.0006
# 6 0.0001 -0.0008 0.0011 -0.7068 -0.0006 15.1983
#
#
#
# Elastic Compliance Matrix: (Units=1/GPa)
#
#
# Indices 1 2 3 4 5 6 
#
# 1 0.031558 -0.007757 -0.008106 0.000011 0.003990 0.000001
# 2 -0.007757 0.009453 -0.000659 -0.000007 0.002954 0.000000
# 3 -0.008106 -0.000659 0.011996 -0.000001 -0.004711 -0.000001
# 4 0.000011 -0.000007 -0.000001 0.069193 0.000001 0.003218
# 5 0.003990 0.002954 -0.004711 0.000001 0.025374 0.000002
# 6 0.000001 0.000000 -0.000001 0.003218 0.000002 0.065946
#
#
# Mechanical properties :
#
#
# Convention : Reuss Voigt Hill
#
# Bulk Modulus (GPa) = 50.08835 62.46979 56.27907
# Shear Modulus (GPa) = 19.74577 28.48848 24.11712
#
# Velocity S-wave (km/s) = 3.04481 3.65728 3.36501
# Velocity P-wave (km/s) = 5.98984 6.86765 6.44371
#
# Compressibility (1/GPa) = 0.01996472
#
# Stress axis : x y z
#
# Youngs Moduli (GPa) = 31.68780 105.78202 83.35779
#
# Poissons Ratio (x) = 0.82051 0.67569
# Poissons Ratio (y) = 0.24579 0.05494
# Poissons Ratio (z) = 0.25686 0.06972
#
# Static dielectric constant tensor:
#      x y z
#    x 1.759290 0.000000 0.043720 
#    y 0.000000 1.796230 0.000000 
#    z 0.043720 0.000000 1.875810 
# 
# From -- ./inp_files/347091.got.cif
#   From: 2010.05.17/outbox.cif.g08.bks.cpg/sg12_174_cif.got.tgz:347091.got - 2010.06.03 13:09:07.
