data_PCOD9196619
_publ_section_title
;
Structure prediction by ZEFSAII (Michael W. Deem and Ramdas Pophale) SiO2 
 PCOD9196619
Probable space group: C 2/M
;
_chemical_formula_sum "Si O2"
_cell_formula_units_Z 64
_cell_length_a 24.318943
_cell_length_b 9.332582
_cell_length_c 28.164262
_cell_angle_alpha 90.000000
_cell_angle_beta 149.789589
_cell_angle_gamma 90.000000
_cell_volume 3216.367398
_symmetry_space_group_name_H-M "C 2/M"
_symmetry_group_IT_number 12
_symmetry_cell_setting 'monoclinic'
loop_
_space_group_symop_operation_xyz
x,y,z
-x,y,-z
-x,-y,-z
x,-y,z
1/2+x,1/2+y,z
1/2-x,1/2+y,-z
1/2-x,1/2-y,-z
1/2+x,1/2-y,z
loop_
_atom_site_type_symbol
_atom_site_label
_atom_site_fract_x
_atom_site_fract_y
_atom_site_fract_z
Si Si1 0.130997 0.836505 0.643249
Si Si2 0.885756 0.662701 0.867424
Si Si3 0.449251 0.666440 0.825340
Si Si4 0.198657 0.667557 0.604676
Si Si5 0.834627 0.670922 0.529781
Si Si6 0.575067 0.829170 0.693692
Si Si7 0.655314 0.831752 0.957474
Si Si8 0.715917 0.832247 0.112911
O O1 0.258419 0.839924 0.755427
O O2 0.133662 0.763738 0.593782
O O3 0.072867 0.741456 0.639795
O O4 0.091711 0.000000 0.613231
O O5 0.929473 0.500000 0.894296
O O6 0.941838 0.770884 0.873141
O O7 0.875558 0.701012 0.915344
O O8 0.480815 0.500000 0.849360
O O9 0.327522 0.678743 0.713258
O O10 0.537860 0.758027 0.862760
O O11 0.167285 0.500000 0.586881
O O12 0.183198 0.709383 0.538680
O O13 0.819150 0.500000 0.522245
O O14 0.750000 0.750000 0.500000
O O15 0.961357 0.703607 0.634959
O O16 0.678799 0.763705 0.797847
O O17 0.585436 0.000000 0.696585
O O18 0.679384 0.817402 0.031709
O O19 0.653385 0.000000 0.944068
O O20 0.750000 0.750000 0.000000
O O21 0.744080 0.000000 0.142170
#
# Coordination Sequence:
#
# PCOD9196619 Si02
#       8
#     8   8   8   8   8   8   8   8
#     4   9  17  31  54  84 114 144 180 221 269 326
#     4   8  15  31  54  80 109 140 175 215 265 326
#     4  10  20  35  57  84 111 142 180 222 271 323
#     4   9  19  37  58  80 111 148 182 222 273 327
#     4  10  23  40  56  78 108 145 189 231 274 325
#     4  10  20  35  57  84 113 144 179 224 276 325
#     4  11  24  41  58  78 108 145 186 230 272 321
#     4   9  20  38  59  82 110 146 182 219 271 329
#
# _framework density 19.898225
#
# number of rings (size 3 to 8) (size 9 to 14) (size 15 to 20)
#    0.000    2.500    0.000    2.250    0.000    8.000 
#    0.000    8.750    0.000    0.000    0.000    0.000 
#    0.000    0.000    0.000    0.000    0.000    0.000 
#
# Total GULP energy -178779.152824 kJ/mol
# GULP energy per Si atom -5586.848526 kJ/mol
# Density = 1.985294 g / cm^3
# Si number density = 19.898225 Si / 1000 Ang^3
#
#
#
# Elastic Constant Matrix: (Units=GPa)
#
#
# Indices 1 2 3 4 5 6 
#
# 1 69.1557 44.5639 17.6121 0.0000 24.8819 0.0000
# 2 44.5639 93.1504 37.5484 0.0000 23.0396 0.0000
# 3 17.6121 37.5484 50.0758 -0.0001 9.6037 0.0000
# 4 0.0000 0.0000 -0.0001 23.4954 0.0000 2.9685
# 5 24.8819 23.0396 9.6037 0.0000 30.8351 0.0000
# 6 0.0000 0.0000 0.0000 2.9685 0.0000 41.3167
#
#
#
# Elastic Compliance Matrix: (Units=1/GPa)
#
#
# Indices 1 2 3 4 5 6 
#
# 1 0.024884 -0.008661 0.000375 0.000000 -0.013725 0.000000
# 2 -0.008661 0.020763 -0.011579 0.000000 -0.004919 0.000000
# 3 0.000375 -0.011579 0.028629 0.000000 -0.000567 0.000000
# 4 0.000000 0.000000 0.000000 0.042951 0.000000 -0.003086
# 5 -0.013725 -0.004919 -0.000567 0.000000 0.047357 0.000000
# 6 0.000000 0.000000 0.000000 -0.003086 0.000000 0.024425
#
#
# Mechanical properties :
#
#
# Convention : Reuss Voigt Hill
#
# Bulk Modulus (GPa) = 28.94792 45.75899 37.35345
# Shear Modulus (GPa) = 20.81113 26.63995 23.72554
#
# Velocity S-wave (km/s) = 3.23751 3.66295 3.45678
# Velocity P-wave (km/s) = 5.34368 6.39812 5.89453
#
# Compressibility (1/GPa) = 0.03454480
#
# Stress axis : x y z
#
# Youngs Moduli (GPa) = 40.18640 48.16293 34.92940
#
# Poissons Ratio (x) = 0.41714 -0.01308
# Poissons Ratio (y) = 0.34805 0.40445
# Poissons Ratio (z) = -0.01505 0.55769
#
# Static dielectric constant tensor:
#      x y z
#    x 1.673960 0.000000 0.000290 
#    y 0.000000 1.670970 0.000000 
#    z 0.000290 0.000000 1.756110 
# 
# From -- ./inp_files/382438.got.cif
#   From: 2010.05.17/outbox.cif.g08.bks.cpg/sg12_192_cif.got.tgz:382438.got - 2010.06.03 13:09:07.
