data_PCOD9196363
_publ_section_title
;
Structure prediction by ZEFSAII (Michael W. Deem and Ramdas Pophale) SiO2 
 PCOD9196363
Probable space group: C 2/M
;
_chemical_formula_sum "Si O2"
_cell_formula_units_Z 56
_cell_length_a 27.844216
_cell_length_b 8.756069
_cell_length_c 17.255833
_cell_angle_alpha 90.000000
_cell_angle_beta 41.497158
_cell_angle_gamma 90.000000
_cell_volume 2787.534943
_symmetry_space_group_name_H-M "C 2/M"
_symmetry_group_IT_number 12
_symmetry_cell_setting 'monoclinic'
loop_
_space_group_symop_operation_xyz
x,y,z
-x,y,-z
-x,-y,-z
x,-y,z
1/2+x,1/2+y,z
1/2-x,1/2+y,-z
1/2-x,1/2-y,-z
1/2+x,1/2-y,z
loop_
_atom_site_type_symbol
_atom_site_label
_atom_site_fract_x
_atom_site_fract_y
_atom_site_fract_z
Si Si1 0.670343 0.816224 0.110346
Si Si2 0.847743 0.317023 0.692290
Si Si3 0.759292 0.817521 0.573847
Si Si4 0.540579 0.817507 0.030035
Si Si5 0.533365 0.683268 0.199006
Si Si6 0.085460 0.817949 0.534988
Si Si7 0.693787 0.683030 0.802785
O O1 0.644654 0.769826 0.227950
O O2 0.612764 0.749051 0.120072
O O3 0.672318 0.000000 0.103579
O O4 0.750000 0.750000 0.000000
O O5 0.851480 0.500000 0.684498
O O6 0.904611 0.252010 0.561968
O O7 0.766970 0.272547 0.760654
O O8 0.750000 0.750000 0.500000
O O9 0.840294 0.785867 0.507818
O O10 0.706047 0.739496 0.700182
O O11 0.748331 0.000000 0.586868
O O12 0.507498 0.743143 0.147049
O O13 0.538145 0.000000 0.039985
O O14 0.500000 0.772590 0.000000
O O15 0.622941 0.760573 0.922829
O O16 0.535121 0.500000 0.196020
O O17 0.480796 0.736169 0.332009
O O18 0.079451 0.000000 0.533910
O O19 0.686764 0.500000 0.814282
#
# Coordination Sequence:
#
# PCOD9196363 Si02
#       7
#     8   8   8   8   8   8   8
#     4  11  23  40  64  94 125 161 205 254 305 363
#     4   9  20  38  61  89 120 155 198 245 301 360
#     4  10  20  35  56  85 116 154 201 252 303 360
#     4  11  25  42  60  87 119 157 203 253 310 369
#     4  11  24  42  62  89 123 162 205 251 303 366
#     4   9  21  39  59  85 120 159 202 247 300 361
#     4  10  20  37  60  86 115 153 197 246 302 364
#
# _framework density 20.089435000000002
#
# number of rings (size 3 to 8) (size 9 to 14) (size 15 to 20)
#    0.000    1.857    0.000    3.000    2.000    6.286 
#    0.000    2.857    0.000    0.000    0.000    0.000 
#    0.000    0.000    0.000    0.000    0.000    0.000 
#
# Total GULP energy -156521.174318 kJ/mol
# GULP energy per Si atom -5590.041940 kJ/mol
# Density = 2.004371 g / cm^3
# Si number density = 20.089435 Si / 1000 Ang^3
#
#
#
# Elastic Constant Matrix: (Units=GPa)
#
#
# Indices 1 2 3 4 5 6 
#
# 1 80.6371 31.3984 40.0415 0.0022 27.3381 -0.0016
# 2 31.3984 42.9693 27.3568 0.0081 6.5125 -0.0017
# 3 40.0415 27.3568 119.7471 0.0047 13.5021 -0.0032
# 4 0.0022 0.0081 0.0047 35.3599 -0.0025 8.3357
# 5 27.3381 6.5125 13.5021 -0.0025 34.2599 -0.0001
# 6 -0.0016 -0.0017 -0.0032 8.3357 -0.0001 20.2882
#
#
#
# Elastic Compliance Matrix: (Units=1/GPa)
#
#
# Indices 1 2 3 4 5 6 
#
# 1 0.024699 -0.013491 -0.003395 0.000001 -0.015806 0.000000
# 2 -0.013491 0.034871 -0.004104 -0.000007 0.005754 0.000004
# 3 -0.003395 -0.004104 0.010497 -0.000001 -0.000648 0.000001
# 4 0.000001 -0.000007 -0.000001 0.031314 0.000003 -0.012866
# 5 -0.015806 0.005754 -0.000648 0.000003 0.040963 -0.000002
# 6 0.000000 0.000004 0.000001 -0.012866 -0.000002 0.054576
#
#
# Mechanical properties :
#
#
# Convention : Reuss Voigt Hill
#
# Bulk Modulus (GPa) = 35.60311 48.99410 42.29860
# Shear Modulus (GPa) = 20.14008 27.61871 23.87940
#
# Velocity S-wave (km/s) = 3.16970 3.71184 3.45143
# Velocity P-wave (km/s) = 5.58182 6.54303 6.08145
#
# Compressibility (1/GPa) = 0.02808744
#
# Stress axis : x y z
#
# Youngs Moduli (GPa) = 40.48793 28.67681 95.26813
#
# Poissons Ratio (x) = 0.38688 0.32339
# Poissons Ratio (y) = 0.54622 0.39100
# Poissons Ratio (z) = 0.13744 0.11769
#
# Static dielectric constant tensor:
#      x y z
#    x 1.708310 0.000000 0.011000 
#    y 0.000000 1.668720 0.000000 
#    z 0.011000 0.000000 1.714360 
# 
# From -- ./inp_files/295106.got.cif
#   From: 2010.05.17/outbox.cif.g08.bks.cpg/sg12_148_cif.got.tgz:295106.got - 2010.06.03 13:09:07.
