data_PCOD9196200
_publ_section_title
;
Structure prediction by ZEFSAII (Michael W. Deem and Ramdas Pophale) SiO2 
 PCOD9196200
Probable space group: C 2/M
;
_chemical_formula_sum "Si O2"
_cell_formula_units_Z 40
_cell_length_a 18.773596
_cell_length_b 8.892776
_cell_length_c 26.961112
_cell_angle_alpha 90.000000
_cell_angle_beta 29.098504
_cell_angle_gamma 90.000000
_cell_volume 2188.961448
_symmetry_space_group_name_H-M "C 2/M"
_symmetry_group_IT_number 12
_symmetry_cell_setting 'monoclinic'
loop_
_space_group_symop_operation_xyz
x,y,z
-x,y,-z
-x,-y,-z
x,-y,z
1/2+x,1/2+y,z
1/2-x,1/2+y,-z
1/2-x,1/2-y,-z
1/2+x,1/2-y,z
loop_
_atom_site_type_symbol
_atom_site_label
_atom_site_fract_x
_atom_site_fract_y
_atom_site_fract_z
Si Si1 0.590628 0.677334 0.596230
Si Si2 0.827011 0.320611 0.001137
Si Si3 0.085333 0.177852 0.398863
Si Si4 0.145219 0.821794 0.816475
Si Si5 0.681597 0.179137 0.186552
O O1 0.598236 0.500000 0.602693
O O2 0.750000 0.750000 0.500000
O O3 0.520165 0.694996 0.584450
O O4 0.477859 0.758111 0.702008
O O5 0.819532 0.500000 0.003703
O O6 0.994786 0.266080 0.901345
O O7 0.750000 0.250000 0.000000
O O8 0.746696 0.259762 0.099113
O O9 0.232604 0.267753 0.296961
O O10 0.000000 0.226644 0.500000
O O11 0.120402 0.000000 0.382433
O O12 0.214427 0.792424 0.828876
O O13 0.119493 0.000000 0.827827
O O14 0.675838 0.000000 0.182232
#
# Coordination Sequence:
#
# PCOD9196200 Si02
#       5
#     8   8   8   8   8
#     4  10  20  35  56  82 113 149 190 235 284 335
#     4  12  25  40  59  84 115 148 186 233 285 338
#     4   9  19  36  57  81 110 147 190 233 277 327
#     4  10  21  38  60  85 114 149 189 232 279 335
#     4  10  21  39  61  84 113 149 190 234 282 338
#
# _framework density 18.273506999999999
#
# number of rings (size 3 to 8) (size 9 to 14) (size 15 to 20)
#    0.000    1.800    0.000    4.200    0.000    7.600 
#    0.000    6.000    0.000    0.000    0.000    0.000 
#    0.000    0.000    0.000    0.000    0.000    0.000 
#
# Total GULP energy -111777.675186 kJ/mol
# GULP energy per Si atom -5588.883759 kJ/mol
# Density = 1.823192 g / cm^3
# Si number density = 18.273507 Si / 1000 Ang^3
#
#
#
# Elastic Constant Matrix: (Units=GPa)
#
#
# Indices 1 2 3 4 5 6 
#
# 1 69.7240 80.7192 91.8912 0.0001 -4.1394 -0.0002
# 2 80.7192 139.0473 104.5809 0.0001 -5.9777 0.0000
# 3 91.8912 104.5809 187.8969 0.0005 1.8545 -0.0001
# 4 0.0001 0.0001 0.0005 41.4890 -0.0001 -2.7262
# 5 -4.1394 -5.9777 1.8545 -0.0001 39.6567 0.0000
# 6 -0.0002 0.0000 -0.0001 -2.7262 0.0000 29.2864
#
#
#
# Elastic Compliance Matrix: (Units=1/GPa)
#
#
# Indices 1 2 3 4 5 6 
#
# 1 0.072424 -0.026096 -0.020940 0.000000 0.004605 0.000000
# 2 -0.026096 0.021966 0.000531 0.000000 0.000562 0.000000
# 3 -0.020940 0.000531 0.015295 0.000000 -0.002821 0.000000
# 4 0.000000 0.000000 0.000000 0.024251 0.000000 0.002258
# 5 0.004605 0.000562 -0.002821 0.000000 0.025914 0.000000
# 6 0.000000 0.000000 0.000000 0.002258 0.000000 0.034356
#
#
# Mechanical properties :
#
#
# Convention : Reuss Voigt Hill
#
# Bulk Modulus (GPa) = 59.96979 105.67231 82.82105
# Shear Modulus (GPa) = 17.07798 30.05154 23.56476
#
# Velocity S-wave (km/s) = 3.06040 4.05969 3.59494
# Velocity P-wave (km/s) = 6.73626 8.94027 7.91536
#
# Compressibility (1/GPa) = 0.01667506
#
# Stress axis : x y z
#
# Youngs Moduli (GPa) = 13.80751 45.52519 65.38008
#
# Poissons Ratio (x) = 1.18803 1.36906
# Poissons Ratio (y) = 0.36032 -0.03471
# Poissons Ratio (z) = 0.28913 -0.02417
#
# Static dielectric constant tensor:
#      x y z
#    x 1.607160 0.000000 0.005730 
#    y 0.000000 1.609580 0.000000 
#    z 0.005730 0.000000 1.594970 
# 
# From -- ./inp_files/151930.got.cif
#   From: 2010.05.17/outbox.cif.g08.bks.cpg/sg12_76_cif.got.tgz:151930.got - 2010.06.03 13:09:07.
