data_PCOD9196139
_publ_section_title
;
Structure prediction by ZEFSAII (Michael W. Deem and Ramdas Pophale) SiO2 
 PCOD9196139
Probable space group: C 2/M
;
_chemical_formula_sum "Si O2"
_cell_formula_units_Z 48
_cell_length_a 11.836315
_cell_length_b 19.080522
_cell_length_c 10.761425
_cell_angle_alpha 90.000000
_cell_angle_beta 62.916106
_cell_angle_gamma 90.000000
_cell_volume 2163.878326
_symmetry_space_group_name_H-M "C 2/M"
_symmetry_group_IT_number 12
_symmetry_cell_setting 'monoclinic'
loop_
_space_group_symop_operation_xyz
x,y,z
-x,y,-z
-x,-y,-z
x,-y,z
1/2+x,1/2+y,z
1/2-x,1/2+y,-z
1/2-x,1/2-y,-z
1/2+x,1/2-y,z
loop_
_atom_site_type_symbol
_atom_site_label
_atom_site_fract_x
_atom_site_fract_y
_atom_site_fract_z
Si Si1 0.869116 0.082894 0.141182
Si Si2 0.713479 0.296834 0.325332
Si Si3 0.164775 0.169095 0.609104
Si Si4 0.673605 0.199833 0.130241
Si Si5 0.054786 0.615073 0.848645
Si Si6 0.394206 0.926656 0.448792
O O1 0.897825 0.115395 0.263508
O O2 0.760333 0.134047 0.135440
O O3 0.832025 0.000000 0.162827
O O4 0.000000 0.088380 0.000000
O O5 0.816862 0.243636 0.334833
O O6 0.630580 0.324245 0.481838
O O7 0.639969 0.249076 0.264230
O O8 0.800819 0.355867 0.215623
O O9 0.306153 0.137823 0.522360
O O10 0.549359 0.175307 0.121022
O O11 0.750000 0.250000 0.000000
O O12 0.052578 0.576988 0.716778
O O13 0.000000 0.579166 0.000000
O O14 0.500000 0.926921 0.500000
O O15 0.320212 0.000000 0.495845
#
# Coordination Sequence:
#
# PCOD9196139 Si02
#       6
#     8   8   8   8   8   8
#     4  10  22  39  63  91 120 162 211 256 306 370
#     4   9  19  35  54  86 117 149 194 244 304 364
#     4   9  18  33  57  78 115 148 192 249 296 357
#     4  11  22  35  62  86 122 161 197 260 305 363
#     4  11  22  36  56  87 119 152 195 246 310 359
#     4  10  20  35  56  81 112 152 196 239 293 366
#
# _framework density 22.182393999999999
#
# number of rings (size 3 to 8) (size 9 to 14) (size 15 to 20)
#    0.000    2.000    1.667    2.500    4.667    2.333 
#    0.000    0.000    0.000    0.000    0.000    2.333 
#    0.000    0.000    0.000    0.000    0.000    0.000 
#
# Total GULP energy -133838.167450 kJ/mol
# GULP energy per Si atom -5576.590310 kJ/mol
# Density = 2.213191 g / cm^3
# Si number density = 22.182394 Si / 1000 Ang^3
#
#
#
# Elastic Constant Matrix: (Units=GPa)
#
#
# Indices 1 2 3 4 5 6 
#
# 1 52.5102 11.6424 10.7511 0.0000 6.2547 0.0000
# 2 11.6424 101.2691 40.9909 0.0000 0.7445 0.0000
# 3 10.7511 40.9909 173.5071 0.0000 12.3432 0.0000
# 4 0.0000 0.0000 0.0000 235.5056 0.0000 189.9485
# 5 6.2547 0.7445 12.3432 0.0000 23.2009 0.0000
# 6 0.0000 0.0000 0.0000 189.9485 0.0000 189.7998
#
#
#
# Elastic Compliance Matrix: (Units=1/GPa)
#
#
# Indices 1 2 3 4 5 6 
#
# 1 0.020211 -0.002132 -0.000380 0.000000 -0.005178 0.000000
# 2 -0.002132 0.011169 -0.002621 0.000000 0.001611 0.000000
# 3 -0.000380 -0.002621 0.006644 0.000000 -0.003348 0.000000
# 4 0.000000 0.000000 0.000000 0.022022 0.000000 -0.022040
# 5 -0.005178 0.001611 -0.003348 0.000000 0.046227 0.000000
# 6 0.000000 0.000000 0.000000 -0.022040 0.000000 0.027326
#
#
# Mechanical properties :
#
#
# Convention : Reuss Voigt Hill
#
# Bulk Modulus (GPa) = 36.02529 50.45059 43.23794
# Shear Modulus (GPa) = 32.65442 107.29475 69.97459
#
# Velocity S-wave (km/s) = 3.84094 6.96235 5.62260
# Velocity P-wave (km/s) = 5.99551 9.35015 7.85403
#
# Compressibility (1/GPa) = 0.02775828
#
# Stress axis : x y z
#
# Youngs Moduli (GPa) = 49.47761 89.53470 150.50127
#
# Poissons Ratio (x) = 0.19085 0.05726
# Poissons Ratio (y) = 0.10546 0.39448
# Poissons Ratio (z) = 0.01882 0.23468
#
# Static dielectric constant tensor:
#      x y z
#    x 1.845800 0.000000 0.068470 
#    y 0.000000 1.823310 0.000000 
#    z 0.068470 0.000000 1.927390 
# 
# From -- ./inp_files/132440.got.cif
#   From: 2010.05.17/outbox.cif.g08.bks.cpg/sg12_67_cif.got.tgz:132440.got - 2010.06.03 13:09:07.
