data_PCOD9196437
_publ_section_title
;
Structure prediction by ZEFSAII (Michael W. Deem and Ramdas Pophale) SiO2 
 PCOD9196437
Probable space group: C 2/M
;
_chemical_formula_sum "Si O2"
_cell_formula_units_Z 56
_cell_length_a 14.923415
_cell_length_b 7.654892
_cell_length_c 29.503652
_cell_angle_alpha 90.000000
_cell_angle_beta 51.310455
_cell_angle_gamma 90.000000
_cell_volume 2630.756914
_symmetry_space_group_name_H-M "C 2/M"
_symmetry_group_IT_number 12
_symmetry_cell_setting 'monoclinic'
loop_
_space_group_symop_operation_xyz
x,y,z
-x,y,-z
-x,-y,-z
x,-y,z
1/2+x,1/2+y,z
1/2-x,1/2+y,-z
1/2-x,1/2-y,-z
1/2+x,1/2-y,z
loop_
_atom_site_type_symbol
_atom_site_label
_atom_site_fract_x
_atom_site_fract_y
_atom_site_fract_z
Si Si1 0.217447 0.701534 0.560912
Si Si2 0.278605 0.708119 0.775673
Si Si3 0.410512 0.804156 0.563374
Si Si4 0.114622 0.714106 0.907322
Si Si5 0.762367 0.211094 0.313226
Si Si6 0.355398 0.790841 0.999692
Si Si7 0.535996 0.289011 0.683072
O O1 0.245926 0.500000 0.559514
O O2 0.250000 0.750000 0.500000
O O3 0.296252 0.814475 0.569018
O O4 0.087837 0.731495 0.618307
O O5 0.287125 0.500000 0.780056
O O6 0.197474 0.776749 0.841195
O O7 0.228274 0.738238 0.741709
O O8 0.408823 0.777401 0.733380
O O9 0.500000 0.718376 0.500000
O O10 0.356752 0.723072 0.625838
O O11 0.456168 0.000000 0.559194
O O12 0.114916 0.500000 0.906483
O O13 0.981732 0.770009 0.943551
O O14 0.156574 0.768935 0.944223
O O15 0.871797 0.269823 0.308149
O O16 0.756912 0.000000 0.317757
O O17 0.362032 0.000000 0.999637
O O18 0.250000 0.750000 0.000000
O O19 0.533787 0.500000 0.684053
#
# Coordination Sequence:
#
# PCOD9196437 Si02
#       7
#     8   8   8   8   8   8   8
#     4  11  22  35  53  76 102 132 172 220 271 327
#     4  10  20  35  57  79 105 143 186 222 262 320
#     4   9  19  36  55  75 101 133 168 215 276 331
#     4   8  17  34  53  78 111 147 181 218 264 322
#     4   9  19  35  52  75 108 138 171 217 275 326
#     4   9  17  33  57  81 110 146 184 220 264 311
#     4   9  20  38  54  73 103 140 177 219 271 329
#
# _framework density 21.286650000000002
#
# number of rings (size 3 to 8) (size 9 to 14) (size 15 to 20)
#    0.000    2.714    0.000    3.000    2.000    4.286 
#    0.000    4.286    0.000    0.000    0.000    0.000 
#    0.000    0.000    0.000    0.000    0.000    0.000 
#
# Total GULP energy -156163.156542 kJ/mol
# GULP energy per Si atom -5577.255591 kJ/mol
# Density = 2.123820 g / cm^3
# Si number density = 21.286650 Si / 1000 Ang^3
#
#
#
# Elastic Constant Matrix: (Units=GPa)
#
#
# Indices 1 2 3 4 5 6 
#
# 1 124.1841 -0.1577 90.4207 0.0000 -3.5702 -0.0005
# 2 -0.1577 58.0528 10.4572 -0.0014 -3.7253 0.0002
# 3 90.4207 10.4572 238.8172 -0.0001 0.6848 -0.0001
# 4 0.0000 -0.0014 -0.0001 15.0179 -0.0001 6.0740
# 5 -3.5702 -3.7253 0.6848 -0.0001 21.4870 0.0001
# 6 -0.0005 0.0002 -0.0001 6.0740 0.0001 14.3738
#
#
#
# Elastic Compliance Matrix: (Units=1/GPa)
#
#
# Indices 1 2 3 4 5 6 
#
# 1 0.011253 0.000946 -0.004308 0.000000 0.002171 0.000000
# 2 0.000946 0.017642 -0.001140 0.000002 0.003252 -0.000001
# 3 -0.004308 -0.001140 0.005872 0.000000 -0.001101 0.000000
# 4 0.000000 0.000002 0.000000 0.080314 0.000001 -0.033939
# 5 0.002171 0.003252 -0.001101 0.000001 0.047499 0.000000
# 6 0.000000 -0.000001 0.000000 -0.033939 0.000000 0.083913
#
#
# Mechanical properties :
#
#
# Convention : Reuss Voigt Hill
#
# Bulk Modulus (GPa) = 38.81633 69.16605 53.99119
# Shear Modulus (GPa) = 18.93326 31.53133 25.23229
#
# Velocity S-wave (km/s) = 2.98559 3.85291 3.44664
# Velocity P-wave (km/s) = 5.49178 7.23577 6.42324
#
# Compressibility (1/GPa) = 0.02576235
#
# Stress axis : x y z
#
# Youngs Moduli (GPa) = 88.86425 56.68188 170.31205
#
# Poissons Ratio (x) = -0.05362 0.73375
# Poissons Ratio (y) = -0.08406 0.19415
# Poissons Ratio (z) = 0.38285 0.06462
#
# Static dielectric constant tensor:
#      x y z
#    x 1.762860 0.000000 -0.021820 
#    y 0.000000 1.822180 0.000000 
#    z -0.021820 0.000000 1.804700 
# 
# From -- ./inp_files/374936.got.cif
#   From: 2010.05.17/outbox.cif.g08.bks.cpg/sg12_188_cif.got.tgz:374936.got - 2010.06.03 13:09:07.
