data_PCOD9196535
_publ_section_title
;
Structure prediction by ZEFSAII (Michael W. Deem and Ramdas Pophale) SiO2 
 PCOD9196535
Probable space group: C 2/M
;
_chemical_formula_sum "Si O2"
_cell_formula_units_Z 56
_cell_length_a 9.181094
_cell_length_b 34.154679
_cell_length_c 21.013918
_cell_angle_alpha 90.000000
_cell_angle_beta 29.082644
_cell_angle_gamma 90.000000
_cell_volume 3202.956911
_symmetry_space_group_name_H-M "C 2/M"
_symmetry_group_IT_number 12
_symmetry_cell_setting 'monoclinic'
loop_
_space_group_symop_operation_xyz
x,y,z
-x,y,-z
-x,-y,-z
x,-y,z
1/2+x,1/2+y,z
1/2-x,1/2+y,-z
1/2-x,1/2-y,-z
1/2+x,1/2-y,z
loop_
_atom_site_type_symbol
_atom_site_label
_atom_site_fract_x
_atom_site_fract_y
_atom_site_fract_z
Si Si1 0.332152 0.500000 0.401355
Si Si2 0.282441 0.799711 0.750020
Si Si3 0.562309 0.000000 0.901414
Si Si4 0.793670 0.840514 0.017154
Si Si5 0.056714 0.414064 0.902741
Si Si6 0.832430 0.085933 0.402685
Si Si7 0.137996 0.159451 0.517011
Si Si8 0.373646 0.217789 0.250137
O O1 0.584119 0.500000 0.249981
O O2 0.367211 0.542422 0.420419
O O3 0.000000 0.500000 0.500000
O O4 0.523995 0.825491 0.620174
O O5 0.450844 0.784985 0.749918
O O6 0.180059 0.762059 0.749898
O O7 0.004208 0.825403 0.880061
O O8 0.450940 0.957576 0.920509
O O9 0.500000 0.000000 0.000000
O O10 0.615530 0.879059 0.065668
O O11 0.570517 0.805785 0.123498
O O12 0.000000 0.848478 0.000000
O O13 0.407208 0.410958 0.750018
O O14 0.000000 0.411424 0.000000
O O15 0.500000 0.088568 0.500000
O O16 0.878290 0.120936 0.434280
O O17 0.000000 0.151470 0.500000
O O18 0.936136 0.194232 0.623164
#
# Coordination Sequence:
#
# PCOD9196535 Si02
#       8
#     4   8   4   8   8   8   8   8
#     4   8  16  32  53  78 108 140 172 218 269 312
#     4  10  22  34  56  77 106 139 179 218 271 318
#     4   8  16  32  53  78 108 140 172 218 269 312
#     4  10  21  37  55  78 110 145 177 219 270 318
#     4  10  20  35  57  83 110 140 180 223 267 318
#     4  10  20  35  57  83 110 140 180 223 267 318
#     4  10  21  37  55  78 110 145 177 219 270 318
#     4  10  20  38  54  77 104 141 177 224 269 316
#
# _framework density 17.483844999999999
#
# number of rings (size 3 to 8) (size 9 to 14) (size 15 to 20)
#    0.000    2.286    1.429    0.857    2.000    2.286 
#    0.000    0.714    0.000    0.000    0.000    0.000 
#    0.000    0.000    0.000    0.000    0.000    0.000 
#
# Total GULP energy -156060.533269 kJ/mol
# GULP energy per Si atom -5573.590474 kJ/mol
# Density = 1.744405 g / cm^3
# Si number density = 17.483845 Si / 1000 Ang^3
#
#
#
# Elastic Constant Matrix: (Units=GPa)
#
#
# Indices 1 2 3 4 5 6 
#
# 1 17.3962 33.4414 19.4919 0.0000 0.0836 0.0001
# 2 33.4414 118.1704 42.5559 0.0001 0.2880 0.0002
# 3 19.4919 42.5559 113.3098 0.0005 1.1256 0.0005
# 4 0.0000 0.0001 0.0005 22.3754 -0.0012 0.0334
# 5 0.0836 0.2880 1.1256 -0.0012 1.2989 -0.0001
# 6 0.0001 0.0002 0.0005 0.0334 -0.0001 20.7336
#
#
#
# Elastic Compliance Matrix: (Units=1/GPa)
#
#
# Indices 1 2 3 4 5 6 
#
# 1 0.135836 -0.034711 -0.010410 0.000000 0.007971 0.000000
# 2 -0.034711 0.018657 -0.001026 0.000000 -0.001013 0.000000
# 3 -0.010410 -0.001026 0.011088 -0.000001 -0.008711 0.000000
# 4 0.000000 0.000000 -0.000001 0.044692 0.000040 -0.000072
# 5 0.007971 -0.001013 -0.008711 0.000040 0.777165 0.000005
# 6 0.000000 0.000000 0.000000 -0.000072 0.000005 0.048231
#
#
# Mechanical properties :
#
#
# Convention : Reuss Voigt Hill
#
# Bulk Modulus (GPa) = 13.64483 48.87275 31.25879
# Shear Modulus (GPa) = 4.33880 19.10738 11.72309
#
# Velocity S-wave (km/s) = 1.57702 3.30943 2.59223
# Velocity P-wave (km/s) = 3.33724 6.52816 5.18431
#
# Compressibility (1/GPa) = 0.07328781
#
# Stress axis : x y z
#
# Youngs Moduli (GPa) = 7.36180 53.59810 90.18848
#
# Poissons Ratio (x) = 1.86047 0.93882
# Poissons Ratio (y) = 0.25554 0.09253
# Poissons Ratio (z) = 0.07663 0.05499
#
# Static dielectric constant tensor:
#      x y z
#    x 1.560980 0.000000 0.000420 
#    y 0.000000 1.597800 0.000000 
#    z 0.000420 0.000000 1.604400 
# 
# From -- ./inp_files/91583.got.cif
#   From: 2010.05.17/outbox.cif.g08.bks.cpg/sg12_46_cif.got.tgz:91583.got - 2010.06.03 13:09:07.
