data_PCOD9196113
_publ_section_title
;
Structure prediction by ZEFSAII (Michael W. Deem and Ramdas Pophale) SiO2 
 PCOD9196113
Probable space group: C 2/M
;
_chemical_formula_sum "Si O2"
_cell_formula_units_Z 58
_cell_length_a 8.574005
_cell_length_b 11.565143
_cell_length_c 29.956602
_cell_angle_alpha 90.000000
_cell_angle_beta 95.961203
_cell_angle_gamma 90.000000
_cell_volume 2954.421438
_symmetry_space_group_name_H-M "C 2/M"
_symmetry_group_IT_number 12
_symmetry_cell_setting 'monoclinic'
loop_
_space_group_symop_operation_xyz
x,y,z
-x,y,-z
-x,-y,-z
x,-y,z
1/2+x,1/2+y,z
1/2-x,1/2+y,-z
1/2-x,1/2-y,-z
1/2+x,1/2-y,z
loop_
_atom_site_type_symbol
_atom_site_label
_atom_site_fract_x
_atom_site_fract_y
_atom_site_fract_z
Si Si1 0.698065 0.866502 0.918086
Si Si2 0.949496 0.868745 0.050368
Si Si3 0.967030 0.626588 0.182335
Si Si4 0.282364 0.808059 0.453184
Si Si5 0.571949 0.630276 0.705181
Si Si6 0.500000 0.000000 0.500000
Si Si7 0.804481 0.201997 0.762614
Si Si8 0.540407 0.368987 0.601751
O O1 0.885989 0.861550 0.918124
O O2 0.648300 0.748753 0.942892
O O3 0.606112 0.858760 0.868769
O O4 0.667210 0.000000 0.935362
O O5 0.881046 0.000000 0.056846
O O6 0.000000 0.867143 0.000000
O O7 0.042712 0.500000 0.187013
O O8 0.090662 0.723332 0.199999
O O9 0.822862 0.632543 0.212808
O O10 0.250000 0.750000 0.500000
O O11 0.416456 0.900476 0.466445
O O12 0.341291 0.714462 0.419760
O O13 0.123788 0.861510 0.429010
O O14 0.633505 0.500000 0.706149
O O15 0.704163 0.713878 0.728015
O O16 0.424919 0.636038 0.734340
O O17 0.522826 0.661605 0.653338
O O18 0.599553 0.500000 0.600612
#
# Coordination Sequence:
#
# PCOD9196113 Si02
#       8
#     8   8   8   8   8   2   8   8
#     4  10  21  36  55  83 114 146 193 237 283 339
#     4  10  21  37  56  80 114 152 191 237 286 339
#     4  10  20  35  56  81 110 145 181 231 279 328
#     4  12  24  40  60  85 113 146 183 224 270 323
#     4  10  21  38  57  83 110 143 181 223 266 327
#     4  12  24  40  60  84 116 140 186 226 264 324
#     4  10  20  36  58  80 111 143 182 221 276 329
#     4  11  24  39  61  84 114 146 182 225 273 319
#
# _framework density 19.631592999999999
#
# number of rings (size 3 to 8) (size 9 to 14) (size 15 to 20)
#    0.000    1.517    2.069    2.897    0.966    1.379 
#    0.000    3.448    1.517    0.000    0.000    0.000 
#    0.000    0.000    0.000    0.000    0.000    0.000 
#
# Total GULP energy -161514.107084 kJ/mol
# GULP energy per Si atom -5569.451968 kJ/mol
# Density = 1.958691 g / cm^3
# Si number density = 19.631593 Si / 1000 Ang^3
#
#
#
# Elastic Constant Matrix: (Units=GPa)
#
#
# Indices 1 2 3 4 5 6 
#
# 1 24.9087 17.5364 -14.2487 0.0000 6.5464 0.0000
# 2 17.5364 122.1263 20.4802 0.0000 -9.1861 0.0000
# 3 -14.2487 20.4802 55.1766 0.0000 9.6207 0.0000
# 4 0.0000 0.0000 0.0000 28.9039 0.0000 -8.5575
# 5 6.5464 -9.1861 9.6207 0.0000 27.8426 0.0000
# 6 0.0000 0.0000 0.0000 -8.5575 0.0000 42.3802
#
#
#
# Elastic Compliance Matrix: (Units=1/GPa)
#
#
# Indices 1 2 3 4 5 6 
#
# 1 0.088755 -0.022314 0.038441 0.000000 -0.041513 0.000000
# 2 -0.022314 0.014843 -0.013876 0.000000 0.014938 0.000000
# 3 0.038441 -0.013876 0.037856 0.000000 -0.026697 0.000000
# 4 0.000000 0.000000 0.000000 0.036797 0.000000 0.007430
# 5 -0.041513 0.014938 -0.026697 0.000000 0.059830 0.000000
# 6 0.000000 0.000000 0.000000 0.007430 0.000000 0.025096
#
#
# Mechanical properties :
#
#
# Convention : Reuss Voigt Hill
#
# Bulk Modulus (GPa) = 6.85138 27.74972 17.30055
# Shear Modulus (GPa) = 16.26925 31.72160 23.99542
#
# Velocity S-wave (km/s) = 2.88189 4.02412 3.49991
# Velocity P-wave (km/s) = 3.81723 5.97974 5.01640
#
# Compressibility (1/GPa) = 0.14595607
#
# Stress axis : x y z
#
# Youngs Moduli (GPa) = 11.26691 67.37220 26.41594
#
# Poissons Ratio (x) = 1.50331 -1.01544
# Poissons Ratio (y) = 0.25140 0.36655
# Poissons Ratio (z) = -0.43311 0.93487
#
# Static dielectric constant tensor:
#      x y z
#    x 1.663720 0.000000 0.001970 
#    y 0.000000 1.698620 0.000000 
#    z 0.001970 0.000000 1.671000 
# 
# From -- ./inp_files/355841.got.cif
#   From: 2010.05.17/outbox.cif.g08.bks.cpg/sg12_178_cif.got.tgz:355841.got - 2010.06.03 13:09:07.
