data_PCOD9196453
_publ_section_title
;
Structure prediction by ZEFSAII (Michael W. Deem and Ramdas Pophale) SiO2 
 PCOD9196453
Probable space group: C 2/M
;
_chemical_formula_sum "Si O2"
_cell_formula_units_Z 56
_cell_length_a 18.563472
_cell_length_b 7.604545
_cell_length_c 29.977517
_cell_angle_alpha 90.000000
_cell_angle_beta 37.969071
_cell_angle_gamma 90.000000
_cell_volume 2603.573512
_symmetry_space_group_name_H-M "C 2/M"
_symmetry_group_IT_number 12
_symmetry_cell_setting 'monoclinic'
loop_
_space_group_symop_operation_xyz
x,y,z
-x,y,-z
-x,-y,-z
x,-y,z
1/2+x,1/2+y,z
1/2-x,1/2+y,-z
1/2-x,1/2-y,-z
1/2+x,1/2-y,z
loop_
_atom_site_type_symbol
_atom_site_label
_atom_site_fract_x
_atom_site_fract_y
_atom_site_fract_z
Si Si1 0.197419 0.290548 0.574040
Si Si2 0.494727 0.288429 0.138782
Si Si3 0.865508 0.784645 0.571844
Si Si4 0.571200 0.706300 0.280849
Si Si5 0.145674 0.790214 0.148287
Si Si6 0.223877 0.210901 0.288322
Si Si7 0.082912 0.787547 0.999620
O O1 0.189358 0.500000 0.582447
O O2 0.250000 0.250000 0.500000
O O3 0.283297 0.225657 0.571297
O O4 0.066591 0.219591 0.643199
O O5 0.507200 0.500000 0.131663
O O6 0.572098 0.219901 0.142239
O O7 0.359164 0.247778 0.212867
O O8 0.539139 0.222588 0.069155
O O9 0.815974 0.724209 0.643663
O O10 0.000000 0.730478 0.500000
O O11 0.864533 0.000000 0.571835
O O12 0.602813 0.500000 0.263480
O O13 0.604493 0.782149 0.216263
O O14 0.644265 0.781276 0.286729
O O15 0.282882 0.760553 0.074334
O O16 0.124239 0.000000 0.159490
O O17 0.207981 0.000000 0.297623
O O18 0.075748 0.000000 0.003493
O O19 0.000000 0.724052 0.000000
#
# Coordination Sequence:
#
# PCOD9196453 Si02
#       7
#     8   8   8   8   8   8   8
#     4  11  22  36  57  82 108 141 178 217 263 313
#     4  10  21  36  53  77 110 142 174 220 272 316
#     4   9  18  34  55  78 105 137 174 216 259 306
#     4  10  21  37  56  80 110 140 174 219 267 316
#     4  10  21  36  55  80 109 141 176 219 271 319
#     4  10  20  35  57  81 104 138 181 219 260 314
#     4  10  21  36  54  77 106 142 182 222 265 315
#
# _framework density 21.508900000000001
#
# number of rings (size 3 to 8) (size 9 to 14) (size 15 to 20)
#    0.000    2.000    0.000    3.429    0.000    4.857 
#    0.000    0.714    0.000    3.000    0.000    0.000 
#    0.000    0.000    0.000    0.000    0.000    0.000 
#
# Total GULP energy -156536.337654 kJ/mol
# GULP energy per Si atom -5590.583488 kJ/mol
# Density = 2.145994 g / cm^3
# Si number density = 21.508900 Si / 1000 Ang^3
#
#
#
# Elastic Constant Matrix: (Units=GPa)
#
#
# Indices 1 2 3 4 5 6 
#
# 1 253.1962 -3.9169 128.9564 -0.0017 17.6978 0.0406
# 2 -3.9169 42.1282 -20.2569 0.0032 14.1284 -0.0055
# 3 128.9564 -20.2569 209.8709 -0.0034 22.4483 0.0016
# 4 -0.0017 0.0032 -0.0034 20.2940 -0.0009 -10.9081
# 5 17.6978 14.1284 22.4483 -0.0009 46.2805 0.0029
# 6 0.0406 -0.0055 0.0016 -10.9081 0.0029 8.4749
#
#
#
# Elastic Compliance Matrix: (Units=1/GPa)
#
#
# Indices 1 2 3 4 5 6 
#
# 1 0.005809 -0.001205 -0.003678 -0.000049 -0.000069 -0.000090
# 2 -0.001205 0.029557 0.004756 0.000034 -0.010869 0.000071
# 3 -0.003678 0.004756 0.007899 0.000036 -0.003877 0.000067
# 4 -0.000049 0.000034 0.000036 0.159895 -0.000019 0.205802
# 5 -0.000069 -0.010869 -0.003877 -0.000019 0.026832 -0.000039
# 6 -0.000090 0.000071 0.000067 0.205802 -0.000039 0.382884
#
#
# Mechanical properties :
#
#
# Convention : Reuss Voigt Hill
#
# Bulk Modulus (GPa) = 23.25061 79.41785 51.33423
# Shear Modulus (GPa) = 7.96853 41.70406 24.83629
#
# Velocity S-wave (km/s) = 1.92686 4.40810 3.40177
# Velocity P-wave (km/s) = 3.97286 7.93170 6.27278
#
# Compressibility (1/GPa) = 0.04300962
#
# Stress axis : x y z
#
# Youngs Moduli (GPa) = 172.14108 33.83286 126.60183
#
# Poissons Ratio (x) = 0.04078 0.46570
# Poissons Ratio (y) = 0.20750 -0.60213
# Poissons Ratio (z) = 0.63321 -0.16091
#
# Static dielectric constant tensor:
#      x y z
#    x 1.760100 -0.000010 0.037930 
#    y -0.000010 1.814620 0.000000 
#    z 0.037930 0.000000 1.711920 
# 
# From -- ./inp_files/275218.got.cif
#   From: 2010.05.17/outbox.cif.g08.bks.cpg/sg12_138_cif.got.tgz:275218.got - 2010.06.03 13:09:07.
