data_PCOD9196496
_publ_section_title
;
Structure prediction by ZEFSAII (Michael W. Deem and Ramdas Pophale) SiO2 
 PCOD9196496
Probable space group: C 2/M
;
_chemical_formula_sum "Si O2"
_cell_formula_units_Z 48
_cell_length_a 14.193114
_cell_length_b 15.461976
_cell_length_c 10.738092
_cell_angle_alpha 90.000000
_cell_angle_beta 77.226565
_cell_angle_gamma 90.000000
_cell_volume 2298.193767
_symmetry_space_group_name_H-M "C 2/M"
_symmetry_group_IT_number 12
_symmetry_cell_setting 'monoclinic'
loop_
_space_group_symop_operation_xyz
x,y,z
-x,y,-z
-x,-y,-z
x,-y,z
1/2+x,1/2+y,z
1/2-x,1/2+y,-z
1/2-x,1/2-y,-z
1/2+x,1/2-y,z
loop_
_atom_site_type_symbol
_atom_site_label
_atom_site_fract_x
_atom_site_fract_y
_atom_site_fract_z
Si Si1 0.156191 0.308013 0.002662
Si Si2 0.367100 0.500000 0.164331
Si Si3 0.966293 0.500000 0.718631
Si Si4 0.606252 0.688095 0.797640
Si Si5 0.787850 0.500000 0.577096
Si Si6 0.969924 0.690874 0.707482
Si Si7 0.293516 0.816188 0.582272
Si Si8 0.188439 0.500000 0.021911
O O1 0.102026 0.257793 0.908939
O O2 0.250000 0.250000 0.000000
O O3 0.096321 0.310111 0.148401
O O4 0.183989 0.406588 0.957413
O O5 0.422519 0.591701 0.148965
O O6 0.308719 0.500000 0.311594
O O7 0.284227 0.500000 0.081597
O O8 0.879487 0.500000 0.643319
O O9 0.015041 0.593689 0.688934
O O10 0.908688 0.500000 0.865549
O O11 0.543545 0.730601 0.705750
O O12 0.717227 0.679922 0.719246
O O13 0.792006 0.408229 0.512824
O O14 0.897659 0.701360 0.611991
O O15 0.250000 0.750000 0.500000
#
# Coordination Sequence:
#
# PCOD9196496 Si02
#       8
#     8   4   4   8   4   8   8   4
#     4  11  18  34  56  80 110 140 178 219 266 317
#     4   9  16  32  52  76 102 148 187 203 250 329
#     4   7  14  31  53  74 103 138 177 213 257 316
#     4  11  21  35  58  80 108 143 181 220 266 317
#     4   7  14  32  56  76  93 138 182 217 252 319
#     4  10  20  35  57  82 108 138 180 223 265 318
#     4  10  20  37  59  79 105 139 182 222 269 314
#     4   9  16  29  54  77 107 144 177 214 261 320
#
# _framework density 20.885966
#
# number of rings (size 3 to 8) (size 9 to 14) (size 15 to 20)
#    0.000    2.333    3.333    2.500    0.000    1.333 
#    0.000    7.500    0.000    6.000    0.000    0.000 
#    0.000    0.000    0.000    0.000    0.000    0.000 
#
# Total GULP energy -133814.865732 kJ/mol
# GULP energy per Si atom -5575.619406 kJ/mol
# Density = 2.083843 g / cm^3
# Si number density = 20.885966 Si / 1000 Ang^3
#
#
#
# Elastic Constant Matrix: (Units=GPa)
#
#
# Indices 1 2 3 4 5 6 
#
# 1 72.2479 47.7699 12.7911 0.0000 7.6503 0.0000
# 2 47.7699 231.4700 46.4005 0.0000 31.4394 0.0000
# 3 12.7911 46.4005 47.8545 0.0000 12.5348 0.0000
# 4 0.0000 0.0000 0.0000 31.2899 0.0000 9.4610
# 5 7.6503 31.4394 12.5348 0.0000 36.4654 0.0000
# 6 0.0000 0.0000 0.0000 9.4610 0.0000 18.7108
#
#
#
# Elastic Compliance Matrix: (Units=1/GPa)
#
#
# Indices 1 2 3 4 5 6 
#
# 1 0.016101 -0.003019 -0.001289 0.000000 -0.000332 0.000000
# 2 -0.003019 0.006272 -0.004422 0.000000 -0.003254 0.000000
# 3 -0.001289 -0.004422 0.026879 0.000000 -0.005157 0.000000
# 4 0.000000 0.000000 0.000000 0.037727 0.000000 -0.019077
# 5 -0.000332 -0.003254 -0.005157 0.000000 0.032071 0.000000
# 6 0.000000 0.000000 0.000000 -0.019077 0.000000 0.063091
#
#
# Mechanical properties :
#
#
# Convention : Reuss Voigt Hill
#
# Bulk Modulus (GPa) = 31.45497 62.83283 47.14390
# Shear Modulus (GPa) = 23.78697 33.60061 28.69379
#
# Velocity S-wave (km/s) = 3.37842 4.01529 3.71054
# Velocity P-wave (km/s) = 5.50557 7.18650 6.40145
#
# Compressibility (1/GPa) = 0.03179148
#
# Stress axis : x y z
#
# Youngs Moduli (GPa) = 62.10793 159.44664 37.20310
#
# Poissons Ratio (x) = 0.48143 0.04796
# Poissons Ratio (y) = 0.18753 0.16450
# Poissons Ratio (z) = 0.08007 0.70504
#
# Static dielectric constant tensor:
#      x y z
#    x 1.776320 0.000000 -0.039630 
#    y 0.000000 1.803250 0.000000 
#    z -0.039630 0.000000 1.800690 
# 
# From -- ./inp_files/143043.got.cif
#   From: 2010.05.17/outbox.cif.g08.bks.cpg/sg12_72_cif.got.tgz:143043.got - 2010.06.03 13:09:07.
