data_PCOD9196229
_publ_section_title
;
Structure prediction by ZEFSAII (Michael W. Deem and Ramdas Pophale) SiO2 
 PCOD9196229
Probable space group: C 2/M
;
_chemical_formula_sum "Si O2"
_cell_formula_units_Z 48
_cell_length_a 18.393003
_cell_length_b 16.070006
_cell_length_c 13.594072
_cell_angle_alpha 90.000000
_cell_angle_beta 46.406772
_cell_angle_gamma 90.000000
_cell_volume 2910.105730
_symmetry_space_group_name_H-M "C 2/M"
_symmetry_group_IT_number 12
_symmetry_cell_setting 'monoclinic'
loop_
_space_group_symop_operation_xyz
x,y,z
-x,y,-z
-x,-y,-z
x,-y,z
1/2+x,1/2+y,z
1/2-x,1/2+y,-z
1/2-x,1/2-y,-z
1/2+x,1/2-y,z
loop_
_atom_site_type_symbol
_atom_site_label
_atom_site_fract_x
_atom_site_fract_y
_atom_site_fract_z
Si Si1 0.344331 0.500000 0.093158
Si Si2 0.392966 0.671890 0.367371
Si Si3 0.584556 0.777698 0.149325
Si Si4 0.737829 0.682652 0.867038
Si Si5 0.732026 0.217925 0.670757
Si Si6 0.547671 0.094560 0.847445
Si Si7 0.944744 0.000000 0.214909
O O1 0.284623 0.585754 0.131918
O O2 0.383993 0.500000 0.168519
O O3 0.439667 0.500000 0.929761
O O4 0.497232 0.721399 0.276881
O O5 0.323569 0.716706 0.349740
O O6 0.330086 0.681547 0.525930
O O7 0.417420 0.580592 0.304432
O O8 0.666644 0.806017 0.151579
O O9 0.527961 0.854932 0.151773
O O10 0.642710 0.723788 0.012250
O O11 0.752307 0.734325 0.753229
O O12 0.651799 0.144033 0.757501
O O13 0.562230 0.000000 0.799890
O O14 0.500000 0.093657 0.000000
#
# Coordination Sequence:
#
# PCOD9196229 Si02
#       7
#     4   8   8   8   8   8   4
#     4  11  22  34  64  91 118 145 193 258 300 337
#     4  10  21  37  57  86 115 154 187 241 290 354
#     4  10  22  37  59  82 118 153 192 238 292 352
#     4  11  21  38  58  89 115 156 192 239 294 351
#     4  10  21  37  59  79 116 156 195 230 293 348
#     4  10  20  35  56  83 110 150 197 242 277 341
#     4  11  20  34  62  93 118 145 197 254 300 337
#
# _framework density 16.494246
#
# number of rings (size 3 to 8) (size 9 to 14) (size 15 to 20)
#    0.000    1.667    5.000    0.000    2.333    0.667 
#    0.000    0.000    1.833    2.000    0.000    0.000 
#    0.000    0.000    0.000    0.000    0.000    0.000 
#
# Total GULP energy -133907.688564 kJ/mol
# GULP energy per Si atom -5579.487023 kJ/mol
# Density = 1.645670 g / cm^3
# Si number density = 16.494246 Si / 1000 Ang^3
#
#
#
# Elastic Constant Matrix: (Units=GPa)
#
#
# Indices 1 2 3 4 5 6 
#
# 1 72.6016 60.4964 50.9726 0.0000 2.1323 0.0000
# 2 60.4964 172.6200 72.0207 0.0000 -0.8173 0.0000
# 3 50.9726 72.0207 138.2174 0.0000 2.6673 0.0000
# 4 0.0000 0.0000 0.0000 11.2557 0.0000 1.5119
# 5 2.1323 -0.8173 2.6673 0.0000 16.2643 0.0000
# 6 0.0000 0.0000 0.0000 1.5119 0.0000 11.3302
#
#
#
# Elastic Compliance Matrix: (Units=1/GPa)
#
#
# Indices 1 2 3 4 5 6 
#
# 1 0.022173 -0.005608 -0.005210 0.000000 -0.002334 0.000000
# 2 -0.005608 0.008837 -0.002567 0.000000 0.001600 0.000000
# 3 -0.005210 -0.002567 0.010517 0.000000 -0.001171 0.000000
# 4 0.000000 0.000000 0.000000 0.090465 0.000000 -0.012072
# 5 -0.002334 0.001600 -0.001171 0.000000 0.062063 0.000000
# 6 0.000000 0.000000 0.000000 -0.012072 0.000000 0.089870
#
#
# Mechanical properties :
#
#
# Convention : Reuss Voigt Hill
#
# Bulk Modulus (GPa) = 67.76837 83.37981 75.57409
# Shear Modulus (GPa) = 15.84205 21.10001 18.47103
#
# Velocity S-wave (km/s) = 3.10249 3.58052 3.35004
# Velocity P-wave (km/s) = 7.34909 8.23129 7.80267
#
# Compressibility (1/GPa) = 0.01475615
#
# Stress axis : x y z
#
# Youngs Moduli (GPa) = 45.09936 113.15645 95.08653
#
# Poissons Ratio (x) = 0.63461 0.49539
# Poissons Ratio (y) = 0.25293 0.24413
# Poissons Ratio (z) = 0.23496 0.29053
#
# Static dielectric constant tensor:
#      x y z
#    x 1.522380 0.000000 0.003060 
#    y 0.000000 1.537610 0.000000 
#    z 0.003060 0.000000 1.546640 
# 
# From -- ./inp_files/225133.got.cif
#   From: 2010.05.17/outbox.cif.g08.bks.cpg/sg12_113_cif.got.tgz:225133.got - 2010.06.03 13:09:07.
