data_PCOD9196782
_publ_section_title
;
Structure prediction by ZEFSAII (Michael W. Deem and Ramdas Pophale) SiO2 
 PCOD9196782
Probable space group: C 2/M
;
_chemical_formula_sum "Si O2"
_cell_formula_units_Z 64
_cell_length_a 15.868726
_cell_length_b 8.699305
_cell_length_c 25.694978
_cell_angle_alpha 90.000000
_cell_angle_beta 72.275808
_cell_angle_gamma 90.000000
_cell_volume 3378.741070
_symmetry_space_group_name_H-M "C 2/M"
_symmetry_group_IT_number 12
_symmetry_cell_setting 'monoclinic'
loop_
_space_group_symop_operation_xyz
x,y,z
-x,y,-z
-x,-y,-z
x,-y,z
1/2+x,1/2+y,z
1/2-x,1/2+y,-z
1/2-x,1/2-y,-z
1/2+x,1/2-y,z
loop_
_atom_site_type_symbol
_atom_site_label
_atom_site_fract_x
_atom_site_fract_y
_atom_site_fract_z
Si Si1 0.992725 0.183680 0.756611
Si Si2 0.941882 0.314524 0.364726
Si Si3 0.797806 0.187849 0.826512
Si Si4 0.386544 0.182949 0.175846
Si Si5 0.013049 0.682187 0.057853
Si Si6 0.694570 0.681435 0.057650
Si Si7 0.563130 0.185608 0.439313
Si Si8 0.251617 0.684895 0.558258
O O1 0.892934 0.238238 0.787935
O O2 0.028070 0.251375 0.696235
O O3 0.055083 0.233552 0.792360
O O4 0.991019 0.000000 0.753526
O O5 0.942889 0.500000 0.363369
O O6 0.841307 0.267891 0.397693
O O7 0.010646 0.266466 0.397136
O O8 0.714875 0.235020 0.807259
O O9 0.783435 0.240356 0.888698
O O10 0.797983 0.000000 0.827619
O O11 0.428557 0.204813 0.110559
O O12 0.389576 0.000000 0.186014
O O13 0.035694 0.500000 0.055483
O O14 0.092814 0.778675 0.066439
O O15 0.000000 0.722501 0.000000
O O16 0.709374 0.500000 0.054883
O O17 0.750000 0.750000 0.000000
O O18 0.500000 0.226266 0.500000
O O19 0.660223 0.255864 0.429448
O O20 0.571739 0.000000 0.437411
O O21 0.253784 0.500000 0.555781
O O22 0.250000 0.750000 0.500000
#
# Coordination Sequence:
#
# PCOD9196782 Si02
#       8
#     8   8   8   8   8   8   8   8
#     4  11  23  41  62  87 120 156 204 255 296 345
#     4  10  23  42  62  87 124 165 201 243 301 362
#     4   9  20  39  61  83 115 157 194 243 300 354
#     4  10  20  38  63  85 114 158 200 239 299 367
#     4  10  20  35  57  86 119 154 196 242 300 367
#     4  11  21  36  57  84 120 153 194 246 303 361
#     4  10  20  39  63  90 127 164 198 245 305 359
#     4  11  22  38  62  92 126 163 205 250 302 361
#
# _framework density 18.941966000000001
#
# number of rings (size 3 to 8) (size 9 to 14) (size 15 to 20)
#    0.000    1.750    2.500    1.875    0.000    5.000 
#    0.000    7.500    0.000    0.000    0.000    0.000 
#    0.000    0.000    0.000    0.000    0.000    0.000 
#
# Total GULP energy -178719.213385 kJ/mol
# GULP energy per Si atom -5584.975418 kJ/mol
# Density = 1.889885 g / cm^3
# Si number density = 18.941966 Si / 1000 Ang^3
#
#
#
# Elastic Constant Matrix: (Units=GPa)
#
#
# Indices 1 2 3 4 5 6 
#
# 1 163.2551 31.2409 73.3407 0.0000 -12.7886 0.0000
# 2 31.2409 19.3926 29.1372 0.0000 -4.5049 0.0000
# 3 73.3407 29.1372 136.2437 0.0000 -6.4649 0.0000
# 4 0.0000 0.0000 0.0000 16.3139 0.0000 0.5410
# 5 -12.7886 -4.5049 -6.4649 0.0000 28.4878 0.0000
# 6 0.0000 0.0000 0.0000 0.5410 0.0000 33.5459
#
#
#
# Elastic Compliance Matrix: (Units=1/GPa)
#
#
# Indices 1 2 3 4 5 6 
#
# 1 0.009593 -0.010873 -0.002746 0.000000 0.001964 0.000000
# 2 -0.010873 0.090355 -0.013166 0.000000 0.006419 0.000000
# 3 -0.002746 -0.013166 0.011601 0.000000 -0.000682 0.000000
# 4 0.000000 0.000000 0.000000 0.061330 0.000000 -0.000989
# 5 0.001964 0.006419 -0.000682 0.000000 0.036845 0.000000
# 6 0.000000 0.000000 0.000000 -0.000989 0.000000 0.029826
#
#
# Mechanical properties :
#
#
# Convention : Reuss Voigt Hill
#
# Bulk Modulus (GPa) = 17.24717 65.14766 41.19741
# Shear Modulus (GPa) = 16.00275 28.01437 22.00856
#
# Velocity S-wave (km/s) = 2.90975 3.84989 3.41235
# Velocity P-wave (km/s) = 4.51817 7.36412 6.10918
#
# Compressibility (1/GPa) = 0.05798053
#
# Stress axis : x y z
#
# Youngs Moduli (GPa) = 104.23822 11.06744 86.19904
#
# Poissons Ratio (x) = 0.12034 0.23667
# Poissons Ratio (y) = 1.13340 1.13487
# Poissons Ratio (z) = 0.28620 0.14571
#
# Static dielectric constant tensor:
#      x y z
#    x 1.652480 0.000000 -0.007540 
#    y 0.000000 1.643190 0.000000 
#    z -0.007540 0.000000 1.635570 
# 
# From -- ./inp_files/359708.got.cif
#   From: 2010.05.17/outbox.cif.g08.bks.cpg/sg12_180_cif.got.tgz:359708.got - 2010.06.03 13:09:07.
