data_PCOD9196260
_publ_section_title
;
Structure prediction by ZEFSAII (Michael W. Deem and Ramdas Pophale) SiO2 
 PCOD9196260
Probable space group: C 2/M
;
_chemical_formula_sum "Si O2"
_cell_formula_units_Z 64
_cell_length_a 29.820033
_cell_length_b 8.916094
_cell_length_c 14.544106
_cell_angle_alpha 90.000000
_cell_angle_beta 63.367666
_cell_angle_gamma 90.000000
_cell_volume 3456.681863
_symmetry_space_group_name_H-M "C 2/M"
_symmetry_group_IT_number 12
_symmetry_cell_setting 'monoclinic'
loop_
_space_group_symop_operation_xyz
x,y,z
-x,y,-z
-x,-y,-z
x,-y,z
1/2+x,1/2+y,z
1/2-x,1/2+y,-z
1/2-x,1/2-y,-z
1/2+x,1/2-y,z
loop_
_atom_site_type_symbol
_atom_site_label
_atom_site_fract_x
_atom_site_fract_y
_atom_site_fract_z
Si Si1 0.375213 0.819755 0.684278
Si Si2 0.343478 0.678707 0.057781
Si Si3 0.721736 0.821378 0.611943
Si Si4 0.584322 0.179269 0.155489
Si Si5 0.760410 0.319502 0.764452
Si Si6 0.477777 0.680481 0.248038
Si Si7 0.952532 0.180517 0.480422
Si Si8 0.378480 0.320358 0.232401
O O1 0.402858 0.770616 0.752260
O O2 0.316433 0.781300 0.743706
O O3 0.403070 0.748728 0.571725
O O4 0.378849 0.000000 0.674407
O O5 0.347499 0.500000 0.038289
O O6 0.284697 0.717624 0.124028
O O7 0.368908 0.711347 0.133654
O O8 0.372336 0.764780 0.952034
O O9 0.750000 0.750000 0.500000
O O10 0.747845 0.762193 0.680926
O O11 0.664629 0.763339 0.671220
O O12 0.723264 0.000000 0.605873
O O13 0.530843 0.246391 0.176535
O O14 0.582217 0.000000 0.156519
O O15 0.757590 0.500000 0.751998
O O16 0.483508 0.500000 0.241906
O O17 0.461770 0.725241 0.366459
O O18 0.433294 0.720099 0.218877
O O19 0.000000 0.226128 0.500000
O O20 0.949102 0.000000 0.486300
O O21 0.371806 0.500000 0.250859
#
# Coordination Sequence:
#
# PCOD9196260 Si02
#       8
#     8   8   8   8   8   8   8   8
#     4  10  22  38  57  83 116 151 187 231 285 341
#     4   9  19  38  61  80 108 148 189 237 288 337
#     4  11  22  36  56  83 115 150 188 231 280 335
#     4  11  23  37  56  84 116 149 190 237 286 338
#     4   9  20  40  60  82 112 148 190 233 282 339
#     4  10  21  38  59  83 114 150 190 232 280 341
#     4  10  20  35  56  83 114 147 186 234 279 333
#     4   9  20  39  60  83 112 148 190 235 283 338
#
# _framework density 18.514866000000001
#
# number of rings (size 3 to 8) (size 9 to 14) (size 15 to 20)
#    0.000    2.125    1.250    2.250    1.750    5.250 
#    0.000    2.500    0.000    0.000    0.000    0.000 
#    0.000    0.000    0.000    0.000    0.000    0.000 
#
# Total GULP energy -178678.656799 kJ/mol
# GULP energy per Si atom -5583.708025 kJ/mol
# Density = 1.847273 g / cm^3
# Si number density = 18.514866 Si / 1000 Ang^3
#
#
#
# Elastic Constant Matrix: (Units=GPa)
#
#
# Indices 1 2 3 4 5 6 
#
# 1 78.7325 13.4133 -0.5645 0.0000 -26.0167 0.0000
# 2 13.4133 20.7916 18.2633 0.0000 -9.7607 0.0000
# 3 -0.5645 18.2633 71.4266 0.0000 -24.3341 0.0000
# 4 0.0000 0.0000 0.0000 33.6243 0.0000 -7.7880
# 5 -26.0167 -9.7607 -24.3341 0.0000 21.5588 0.0000
# 6 0.0000 0.0000 0.0000 -7.7880 0.0000 22.9256
#
#
#
# Elastic Compliance Matrix: (Units=1/GPa)
#
#
# Indices 1 2 3 4 5 6 
#
# 1 0.041466 -0.017944 0.031190 0.000000 0.077122 0.000000
# 2 -0.017944 0.073649 -0.024357 0.000000 -0.015802 0.000000
# 3 0.031190 -0.024357 0.047999 0.000000 0.080789 0.000000
# 4 0.000000 0.000000 0.000000 0.032280 0.000000 0.010966
# 5 0.077122 -0.015802 0.080789 0.000000 0.223488 0.000000
# 6 0.000000 0.000000 0.000000 0.010966 0.000000 0.047345
#
#
# Mechanical properties :
#
#
# Convention : Reuss Voigt Hill
#
# Bulk Modulus (GPa) = 7.09757 25.90833 16.50295
# Shear Modulus (GPa) = 9.33860 24.94431 17.14145
#
# Velocity S-wave (km/s) = 2.24829 3.67448 3.04603
# Velocity P-wave (km/s) = 3.25292 5.65916 4.61560
#
# Compressibility (1/GPa) = 0.14089329
#
# Stress axis : x y z
#
# Youngs Moduli (GPa) = 24.11600 13.57791 20.83391
#
# Poissons Ratio (x) = 0.24364 -0.64981
# Poissons Ratio (y) = 0.43273 0.50745
# Poissons Ratio (z) = -0.75218 0.33072
#
# Static dielectric constant tensor:
#      x y z
#    x 1.640270 0.000000 0.001070 
#    y 0.000000 1.617530 0.000000 
#    z 0.001070 0.000000 1.610690 
# 
# From -- ./inp_files/249106.got.cif
#   From: 2010.05.17/outbox.cif.g08.bks.cpg/sg12_125_cif.got.tgz:249106.got - 2010.06.03 13:09:07.
