data_PCOD9196219
_publ_section_title
;
Structure prediction by ZEFSAII (Michael W. Deem and Ramdas Pophale) SiO2 
 PCOD9196219
Probable space group: C 2/M
;
_chemical_formula_sum "Si O2"
_cell_formula_units_Z 56
_cell_length_a 21.165426
_cell_length_b 7.881152
_cell_length_c 28.782613
_cell_angle_alpha 90.000000
_cell_angle_beta 34.650561
_cell_angle_gamma 90.000000
_cell_volume 2729.799844
_symmetry_space_group_name_H-M "C 2/M"
_symmetry_group_IT_number 12
_symmetry_cell_setting 'monoclinic'
loop_
_space_group_symop_operation_xyz
x,y,z
-x,y,-z
-x,-y,-z
x,-y,z
1/2+x,1/2+y,z
1/2-x,1/2+y,-z
1/2-x,1/2-y,-z
1/2+x,1/2-y,z
loop_
_atom_site_type_symbol
_atom_site_label
_atom_site_fract_x
_atom_site_fract_y
_atom_site_fract_z
Si Si1 0.676551 0.707750 0.277378
Si Si2 0.471068 0.292534 0.465362
Si Si3 0.957786 0.702219 0.256725
Si Si4 0.683362 0.700667 0.167159
Si Si5 0.758831 0.295457 0.440762
Si Si6 0.406643 0.204566 0.184483
Si Si7 0.067848 0.202472 0.004028
O O1 0.678015 0.500000 0.275997
O O2 0.567404 0.760290 0.371497
O O3 0.676454 0.767784 0.224246
O O4 0.788544 0.764361 0.235604
O O5 0.500000 0.237563 0.500000
O O6 0.470133 0.500000 0.466305
O O7 0.350667 0.235946 0.520532
O O8 0.940733 0.500000 0.264765
O O9 0.870253 0.768536 0.347960
O O10 0.931795 0.769821 0.220954
O O11 0.083380 0.730972 0.196666
O O12 0.667673 0.500000 0.179157
O O13 0.805899 0.735666 0.073806
O O14 0.759278 0.500000 0.438156
O O15 0.750000 0.250000 0.500000
O O16 0.400397 0.000000 0.190501
O O17 0.502138 0.248758 0.090053
O O18 0.070458 0.000000 0.999148
O O19 0.000000 0.269173 0.000000
#
# Coordination Sequence:
#
# PCOD9196219 Si02
#       7
#     8   8   8   8   8   8   8
#     4   9  17  30  52  81 107 139 187 235 275 322
#     4   9  16  28  50  80 110 140 182 233 277 321
#     4  10  22  38  56  83 118 154 190 236 290 337
#     4  11  22  37  60  85 112 147 190 237 279 337
#     4  10  20  35  56  82 115 154 192 233 283 335
#     4  10  20  37  60  83 113 151 192 237 284 336
#     4  11  23  39  60  87 117 146 182 230 286 344
#
# _framework density 20.514323999999998
#
# number of rings (size 3 to 8) (size 9 to 14) (size 15 to 20)
#    0.000    2.000    1.429    2.571    0.000    6.857 
#    0.000    0.000    0.000    0.429    0.000    0.000 
#    0.000    0.000    0.000    0.000    0.000    0.000 
#
# Total GULP energy -156454.446096 kJ/mol
# GULP energy per Si atom -5587.658789 kJ/mol
# Density = 2.046763 g / cm^3
# Si number density = 20.514324 Si / 1000 Ang^3
#
#
#
# Elastic Constant Matrix: (Units=GPa)
#
#
# Indices 1 2 3 4 5 6 
#
# 1 136.6722 8.4067 42.6016 -0.0098 -4.8614 0.0148
# 2 8.4067 26.5614 1.8249 -0.0078 -1.5955 -0.0072
# 3 42.6016 1.8249 119.9173 0.0009 -9.0085 -0.0114
# 4 -0.0098 -0.0078 0.0009 6.0421 -0.0010 6.3823
# 5 -4.8614 -1.5955 -9.0085 -0.0010 40.7186 -0.0012
# 6 0.0148 -0.0072 -0.0114 6.3823 -0.0012 13.0394
#
#
#
# Elastic Compliance Matrix: (Units=1/GPa)
#
#
# Indices 1 2 3 4 5 6 
#
# 1 0.008387 -0.002438 -0.002923 0.000052 0.000259 -0.000039
# 2 -0.002438 0.038472 0.000378 0.000042 0.001300 0.000004
# 3 -0.002923 0.000378 0.009505 -0.000037 0.001769 0.000030
# 4 0.000052 0.000042 -0.000037 0.342680 0.000003 -0.167729
# 5 0.000259 0.001300 0.001769 0.000003 0.025032 0.000003
# 6 -0.000039 0.000004 0.000030 -0.167729 0.000003 0.158788
#
#
# Mechanical properties :
#
#
# Convention : Reuss Voigt Hill
#
# Bulk Modulus (GPa) = 21.55240 43.20191 32.37716
# Shear Modulus (GPa) = 8.21968 27.31453 17.76711
#
# Velocity S-wave (km/s) = 2.00387 3.65291 2.94612
# Velocity P-wave (km/s) = 3.98533 6.23673 5.23353
#
# Compressibility (1/GPa) = 0.04639854
#
# Stress axis : x y z
#
# Youngs Moduli (GPa) = 119.23083 25.99268 105.21200
#
# Poissons Ratio (x) = 0.06337 0.30754
# Poissons Ratio (y) = 0.29070 -0.03981
# Poissons Ratio (z) = 0.34851 -0.00983
#
# Static dielectric constant tensor:
#      x y z
#    x 1.488430 0.000050 0.247950 
#    y 0.000050 1.748490 -0.000060 
#    z 0.247950 -0.000060 1.428670 
# 
# From -- ./inp_files/230986.got.cif
#   From: 2010.05.17/outbox.cif.g08.bks.cpg/sg12_116_cif.got.tgz:230986.got - 2010.06.03 13:09:07.
