data_PCOD9196221
_publ_section_title
;
Structure prediction by ZEFSAII (Michael W. Deem and Ramdas Pophale) SiO2 
 PCOD9196221
Probable space group: C 2/M
;
_chemical_formula_sum "Si O2"
_cell_formula_units_Z 64
_cell_length_a 29.804242
_cell_length_b 7.959842
_cell_length_c 17.104294
_cell_angle_alpha 90.000000
_cell_angle_beta 134.462416
_cell_angle_gamma 90.000000
_cell_volume 2896.072995
_symmetry_space_group_name_H-M "C 2/M"
_symmetry_group_IT_number 12
_symmetry_cell_setting 'monoclinic'
loop_
_space_group_symop_operation_xyz
x,y,z
-x,y,-z
-x,-y,-z
x,-y,z
1/2+x,1/2+y,z
1/2-x,1/2+y,-z
1/2-x,1/2-y,-z
1/2+x,1/2-y,z
loop_
_atom_site_type_symbol
_atom_site_label
_atom_site_fract_x
_atom_site_fract_y
_atom_site_fract_z
Si Si1 0.013946 0.197538 0.259252
Si Si2 0.681588 0.203822 0.031014
Si Si3 0.682206 0.299939 0.744125
Si Si4 0.355450 0.193736 0.604433
Si Si5 0.560526 0.695925 0.980061
Si Si6 0.134732 0.800977 0.207824
Si Si7 0.226302 0.702881 0.634332
Si Si8 0.896264 0.302503 0.211379
O O1 0.958846 0.216536 0.255203
O O2 0.077955 0.290116 0.358030
O O3 0.027693 0.000000 0.267280
O O4 0.986842 0.266827 0.142958
O O5 0.751111 0.261447 0.138501
O O6 0.628509 0.286764 0.020726
O O7 0.678194 0.000000 0.036075
O O8 0.660357 0.246713 0.916984
O O9 0.681984 0.500000 0.748998
O O10 0.683467 0.248871 0.655386
O O11 0.625722 0.234804 0.728270
O O12 0.366250 0.279086 0.700805
O O13 0.302136 0.265291 0.482323
O O14 0.340855 0.000000 0.602401
O O15 0.542209 0.500000 0.965403
O O16 0.576398 0.767249 0.085482
O O17 0.202989 0.731614 0.265906
O O18 0.134528 0.000000 0.191435
O O19 0.229107 0.500000 0.632709
O O20 0.906340 0.500000 0.214017
#
# Coordination Sequence:
#
# PCOD9196221 Si02
#       8
#     8   8   8   8   8   8   8   8
#     4  10  21  39  60  83 114 151 192 236 279 331
#     4   9  18  31  50  81 118 152 184 224 276 334
#     4  11  21  33  54  86 118 149 188 231 280 336
#     4  11  24  40  59  83 111 150 194 236 283 337
#     4   9  18  33  57  85 114 149 186 228 280 337
#     4  10  20  37  61  87 114 145 185 234 287 340
#     4  10  22  40  60  83 114 150 190 234 284 337
#     4  10  20  35  56  82 116 154 189 228 277 334
#
# _framework density 22.098891999999999
#
# number of rings (size 3 to 8) (size 9 to 14) (size 15 to 20)
#    0.000    2.000    1.250    2.250    0.000    4.000 
#    0.000    3.125    0.000    3.750    0.000    0.000 
#    0.000    0.000    0.000    0.000    0.000    0.000 
#
# Total GULP energy -178727.091039 kJ/mol
# GULP energy per Si atom -5585.221595 kJ/mol
# Density = 2.204859 g / cm^3
# Si number density = 22.098892 Si / 1000 Ang^3
#
#
#
# Elastic Constant Matrix: (Units=GPa)
#
#
# Indices 1 2 3 4 5 6 
#
# 1 70.0856 -6.3957 9.9427 0.0000 -16.5218 0.0000
# 2 -6.3957 27.7463 3.4701 0.0000 -0.5967 0.0000
# 3 9.9427 3.4701 66.7534 0.0000 1.2492 0.0000
# 4 0.0000 0.0000 0.0000 13.7261 0.0000 -0.5383
# 5 -16.5218 -0.5967 1.2492 0.0000 23.7057 0.0000
# 6 0.0000 0.0000 0.0000 -0.5383 0.0000 28.5502
#
#
#
# Elastic Compliance Matrix: (Units=1/GPa)
#
#
# Indices 1 2 3 4 5 6 
#
# 1 0.018235 0.004885 -0.003213 0.000000 0.013001 0.000000
# 2 0.004885 0.037609 -0.002767 0.000000 0.004497 0.000000
# 3 -0.003213 -0.002767 0.015662 0.000000 -0.003134 0.000000
# 4 0.000000 0.000000 0.000000 0.072908 0.000000 0.001375
# 5 0.013001 0.004497 -0.003134 0.000000 0.051524 0.000000
# 6 0.000000 0.000000 0.000000 0.001375 0.000000 0.035052
#
#
# Mechanical properties :
#
#
# Convention : Reuss Voigt Hill
#
# Bulk Modulus (GPa) = 14.42688 19.84663 17.13675
# Shear Modulus (GPa) = 19.50956 23.70095 21.60526
#
# Velocity S-wave (km/s) = 2.97447 3.27845 3.13015
# Velocity P-wave (km/s) = 4.28242 4.83025 4.56456
#
# Compressibility (1/GPa) = 0.06931506
#
# Stress axis : x y z
#
# Youngs Moduli (GPa) = 54.84043 26.58903 63.85047
#
# Poissons Ratio (x) = -0.12988 0.20517
# Poissons Ratio (y) = -0.26788 0.17666
# Poissons Ratio (z) = 0.17622 0.07357
#
# Static dielectric constant tensor:
#      x y z
#    x 1.832060 0.000000 -0.008760 
#    y 0.000000 1.796240 0.000000 
#    z -0.008760 0.000000 1.829460 
# 
# From -- ./inp_files/295851.got.cif
#   From: 2010.05.17/outbox.cif.g08.bks.cpg/sg12_148_cif.got.tgz:295851.got - 2010.06.03 13:09:07.
