data_PCOD9196080
_publ_section_title
;
Structure prediction by ZEFSAII (Michael W. Deem and Ramdas Pophale) SiO2 
 PCOD9196080
Probable space group: C 2/M
;
_chemical_formula_sum "Si O2"
_cell_formula_units_Z 48
_cell_length_a 20.837690
_cell_length_b 19.750675
_cell_length_c 8.119745
_cell_angle_alpha 90.000000
_cell_angle_beta 133.634751
_cell_angle_gamma 90.000000
_cell_volume 2418.602844
_symmetry_space_group_name_H-M "C 2/M"
_symmetry_group_IT_number 12
_symmetry_cell_setting 'monoclinic'
loop_
_space_group_symop_operation_xyz
x,y,z
-x,y,-z
-x,-y,-z
x,-y,z
1/2+x,1/2+y,z
1/2-x,1/2+y,-z
1/2-x,1/2-y,-z
1/2+x,1/2-y,z
loop_
_atom_site_type_symbol
_atom_site_label
_atom_site_fract_x
_atom_site_fract_y
_atom_site_fract_z
Si Si1 0.207641 0.287770 0.181771
Si Si2 0.751026 0.925429 0.084070
Si Si3 0.936624 0.926725 0.227882
Si Si4 0.415599 0.077208 0.453943
Si Si5 0.467092 0.278896 0.252067
Si Si6 0.867421 0.299704 0.584116
O O1 0.244286 0.359737 0.185416
O O2 0.165987 0.297916 0.288776
O O3 0.288635 0.234945 0.338513
O O4 0.127435 0.258492 0.929929
O O5 0.837677 0.921033 0.123977
O O6 0.754070 0.000000 0.173190
O O7 0.665754 0.924351 0.816148
O O8 0.957117 0.856596 0.174854
O O9 0.000000 0.928537 0.500000
O O10 0.946256 0.000000 0.159248
O O11 0.500000 0.103438 0.500000
O O12 0.389811 0.126090 0.556207
O O13 0.435373 0.000000 0.541848
O O14 0.500000 0.278999 0.500000
O O15 0.542883 0.242516 0.281863
#
# Coordination Sequence:
#
# PCOD9196080 Si02
#       6
#     8   8   8   8   8   8
#     4  11  23  37  54  81 114 146 182 219 266 327
#     4  10  20  35  56  81 108 139 179 226 270 317
#     4   9  18  32  53  81 107 133 173 223 270 315
#     4  10  21  37  57  81 107 138 181 228 271 317
#     4  11  21  35  59  82 107 143 183 228 273 314
#     4  11  23  37  55  80 113 149 180 219 268 324
#
# _framework density 19.846169
#
# number of rings (size 3 to 8) (size 9 to 14) (size 15 to 20)
#    0.000    1.667    0.000    6.000    0.000    2.667 
#    0.000    0.000    0.000    9.000    0.000    0.000 
#    0.000    0.000    0.000    0.000    0.000    0.000 
#
# Total GULP energy -134069.808060 kJ/mol
# GULP energy per Si atom -5586.242003 kJ/mol
# Density = 1.980100 g / cm^3
# Si number density = 19.846169 Si / 1000 Ang^3
#
#
#
# Elastic Constant Matrix: (Units=GPa)
#
#
# Indices 1 2 3 4 5 6 
#
# 1 37.8359 23.1097 5.7705 0.0000 4.9702 0.0000
# 2 23.1097 139.8643 4.2224 0.0000 -10.3571 0.0000
# 3 5.7705 4.2224 74.7567 0.0000 20.0520 0.0000
# 4 0.0000 0.0000 0.0000 19.1562 0.0000 10.9798
# 5 4.9702 -10.3571 20.0520 0.0000 27.9426 0.0000
# 6 0.0000 0.0000 0.0000 10.9798 0.0000 23.9220
#
#
#
# Elastic Compliance Matrix: (Units=1/GPa)
#
#
# Indices 1 2 3 4 5 6 
#
# 1 0.030888 -0.005663 -0.000034 0.000000 -0.007569 0.000000
# 2 -0.005663 0.008513 -0.001437 0.000000 0.005194 0.000000
# 3 -0.000034 -0.001437 0.016844 0.000000 -0.012614 0.000000
# 4 0.000000 0.000000 0.000000 0.070839 0.000000 -0.032514
# 5 -0.007569 0.005194 -0.012614 0.000000 0.048111 0.000000
# 6 0.000000 0.000000 0.000000 -0.032514 0.000000 0.056726
#
#
# Mechanical properties :
#
#
# Convention : Reuss Voigt Hill
#
# Bulk Modulus (GPa) = 23.82247 35.40689 29.61468
# Shear Modulus (GPa) = 19.21731 28.82778 24.02254
#
# Velocity S-wave (km/s) = 3.11515 3.81538 3.48291
# Velocity P-wave (km/s) = 4.99685 6.10647 5.57931
#
# Compressibility (1/GPa) = 0.04197717
#
# Stress axis : x y z
#
# Youngs Moduli (GPa) = 32.37472 117.46060 59.36835
#
# Poissons Ratio (x) = 0.66519 0.00204
# Poissons Ratio (y) = 0.18334 0.08531
# Poissons Ratio (z) = 0.00111 0.16878
#
# Static dielectric constant tensor:
#      x y z
#    x 1.658180 0.000000 0.000450 
#    y 0.000000 1.749070 0.000000 
#    z 0.000450 0.000000 1.687340 
# 
# From -- ./inp_files/89725.got.cif
#   From: 2010.05.17/outbox.cif.g08.bks.cpg/sg12_45_cif.got.tgz:89725.got - 2010.06.03 13:09:07.
