data_PCOD9196053
_publ_section_title
;
Structure prediction by ZEFSAII (Michael W. Deem and Ramdas Pophale) SiO2 
 PCOD9196053
Probable space group: C 2/M
;
_chemical_formula_sum "Si O2"
_cell_formula_units_Z 52
_cell_length_a 23.191902
_cell_length_b 7.968761
_cell_length_c 20.472650
_cell_angle_alpha 90.000000
_cell_angle_beta 137.520058
_cell_angle_gamma 90.000000
_cell_volume 2555.162935
_symmetry_space_group_name_H-M "C 2/M"
_symmetry_group_IT_number 12
_symmetry_cell_setting 'monoclinic'
loop_
_space_group_symop_operation_xyz
x,y,z
-x,y,-z
-x,-y,-z
x,-y,z
1/2+x,1/2+y,z
1/2-x,1/2+y,-z
1/2-x,1/2-y,-z
1/2+x,1/2-y,z
loop_
_atom_site_type_symbol
_atom_site_label
_atom_site_fract_x
_atom_site_fract_y
_atom_site_fract_z
Si Si1 0.733457 0.701634 0.356761
Si Si2 0.721818 0.802773 0.871019
Si Si3 0.500000 0.750279 0.500000
Si Si4 0.558136 0.700708 0.275257
Si Si5 0.827007 0.808889 0.311708
Si Si6 0.580826 0.801752 0.440010
Si Si7 0.377268 0.200750 0.082340
O O1 0.728270 0.500000 0.346527
O O2 0.646714 0.762238 0.317594
O O3 0.752247 0.775409 0.301035
O O4 0.818456 0.738888 0.470133
O O5 0.701469 0.716412 0.785853
O O6 0.663280 0.740148 0.882279
O O7 0.705425 0.000000 0.848855
O O8 0.818355 0.775205 0.976323
O O9 0.594143 0.810704 0.602104
O O10 0.531744 0.695034 0.453977
O O11 0.562300 0.500000 0.283741
O O12 0.549233 0.771573 0.340808
O O13 0.475775 0.750267 0.164602
O O14 0.858765 0.000000 0.347539
O O15 0.568333 0.000000 0.445795
O O16 0.368628 0.000000 0.072859
#
# Coordination Sequence:
#
# PCOD9196053 Si02
#       7
#     8   8   4   8   8   8   8
#     4   9  21  39  55  76 110 150 188 226 273 327
#     4  10  21  38  59  83 113 146 178 221 279 330
#     4  10  22  36  54  84 118 148 182 222 272 328
#     4  11  22  36  56  82 112 146 184 228 277 326
#     4  11  22  36  57  83 112 146 184 228 273 322
#     4  10  20  35  56  80 110 149 189 228 270 322
#     4  10  21  37  59  85 111 142 183 227 270 325
#
# _framework density 20.350950999999998
#
# number of rings (size 3 to 8) (size 9 to 14) (size 15 to 20)
#    0.000    1.846    0.000    3.692    0.000   10.462 
#    0.000    0.769    0.000    4.615    0.000    0.000 
#    0.000    0.000    0.000    0.000    0.000    0.000 
#
# Total GULP energy -144991.893742 kJ/mol
# GULP energy per Si atom -5576.611298 kJ/mol
# Density = 2.030463 g / cm^3
# Si number density = 20.350951 Si / 1000 Ang^3
#
#
#
# Elastic Constant Matrix: (Units=GPa)
#
#
# Indices 1 2 3 4 5 6 
#
# 1 102.5065 6.2668 45.6248 0.0000 10.8065 0.0000
# 2 6.2668 53.6965 4.7233 0.0000 -3.6799 0.0000
# 3 45.6248 4.7233 95.0004 0.0000 -10.1851 0.0000
# 4 0.0000 0.0000 0.0000 19.5699 0.0000 1.4335
# 5 10.8065 -3.6799 -10.1851 0.0000 33.6747 0.0000
# 6 0.0000 0.0000 0.0000 1.4335 0.0000 4.5466
#
#
#
# Elastic Compliance Matrix: (Units=1/GPa)
#
#
# Indices 1 2 3 4 5 6 
#
# 1 0.013801 -0.001435 -0.007285 0.000000 -0.006789 0.000000
# 2 -0.001435 0.018963 0.000019 0.000000 0.002538 0.000000
# 3 -0.007285 0.000019 0.014753 0.000000 0.006802 0.000000
# 4 0.000000 0.000000 0.000000 0.052307 0.000000 -0.016492
# 5 -0.006789 0.002538 0.006802 0.000000 0.034209 0.000000
# 6 0.000000 0.000000 0.000000 -0.016492 0.000000 0.225143
#
#
# Mechanical properties :
#
#
# Convention : Reuss Voigt Hill
#
# Bulk Modulus (GPa) = 33.20623 40.49257 36.84940
# Shear Modulus (GPa) = 12.93268 24.53081 18.73174
#
# Velocity S-wave (km/s) = 2.52361 3.47564 3.03716
# Velocity P-wave (km/s) = 4.98435 6.00392 5.51773
#
# Compressibility (1/GPa) = 0.03011483
#
# Stress axis : x y z
#
# Youngs Moduli (GPa) = 72.45692 52.73419 67.78229
#
# Poissons Ratio (x) = 0.07568 0.49377
# Poissons Ratio (y) = 0.10399 -0.00126
# Poissons Ratio (z) = 0.52783 -0.00098
#
# Static dielectric constant tensor:
#      x y z
#    x 1.712830 0.000000 0.012980 
#    y 0.000000 1.824080 0.000000 
#    z 0.012980 0.000000 1.682610 
# 
# From -- ./inp_files/282300.got.cif
#   From: 2010.05.17/outbox.cif.g08.bks.cpg/sg12_142_cif.got.tgz:282300.got - 2010.06.03 13:09:07.
