data_PCOD9196040
_publ_section_title
;
Structure prediction by ZEFSAII (Michael W. Deem and Ramdas Pophale) SiO2 
 PCOD9196040
Probable space group: C 2/M
;
_chemical_formula_sum "Si O2"
_cell_formula_units_Z 48
_cell_length_a 32.110982
_cell_length_b 8.824559
_cell_length_c 16.900121
_cell_angle_alpha 90.000000
_cell_angle_beta 34.829628
_cell_angle_gamma 90.000000
_cell_volume 2735.127363
_symmetry_space_group_name_H-M "C 2/M"
_symmetry_group_IT_number 12
_symmetry_cell_setting 'monoclinic'
loop_
_space_group_symop_operation_xyz
x,y,z
-x,y,-z
-x,-y,-z
x,-y,z
1/2+x,1/2+y,z
1/2-x,1/2+y,-z
1/2-x,1/2-y,-z
1/2+x,1/2-y,z
loop_
_atom_site_type_symbol
_atom_site_label
_atom_site_fract_x
_atom_site_fract_y
_atom_site_fract_z
Si Si1 0.272485 0.681355 0.548060
Si Si2 0.582988 0.318617 0.110286
Si Si3 0.650130 0.180782 0.332415
Si Si4 0.580185 0.317023 0.593854
Si Si5 0.830476 0.818866 0.863318
Si Si6 0.704934 0.818880 0.817854
O O1 0.272252 0.500000 0.541229
O O2 0.250000 0.750000 0.500000
O O3 0.353121 0.726751 0.452570
O O4 0.218819 0.721666 0.704510
O O5 0.587825 0.500000 0.090028
O O6 0.498398 0.276210 0.249216
O O7 0.621940 0.285279 0.133314
O O8 0.628486 0.234774 0.971851
O O9 0.596173 0.242297 0.484136
O O10 0.635463 0.249069 0.269072
O O11 0.730420 0.239168 0.233501
O O12 0.649667 0.000000 0.330481
O O13 0.582716 0.500000 0.579824
O O14 0.824771 0.000000 0.863931
O O15 0.750000 0.750000 0.000000
O O16 0.713571 0.000000 0.812456
#
# Coordination Sequence:
#
# PCOD9196040 Si02
#       6
#     8   8   8   8   8   8
#     4   9  19  36  59  83 105 136 175 218 269 324
#     4  10  21  36  56  80 108 144 184 223 270 320
#     4  11  21  34  53  78 107 146 190 226 267 318
#     4   9  20  39  57  78 110 143 178 224 273 320
#     4  11  21  33  52  79 109 144 187 232 268 311
#     4  10  20  35  56  80 109 142 179 223 270 318
#
# _framework density 17.549457
#
# number of rings (size 3 to 8) (size 9 to 14) (size 15 to 20)
#    0.000    2.000    1.667    3.500    0.000    5.333 
#    0.000    4.167    0.000    5.000    0.000    0.000 
#    0.000    0.000    0.000    0.000    0.000    0.000 
#
# Total GULP energy -134002.536547 kJ/mol
# GULP energy per Si atom -5583.439023 kJ/mol
# Density = 1.750951 g / cm^3
# Si number density = 17.549457 Si / 1000 Ang^3
#
#
#
# Elastic Constant Matrix: (Units=GPa)
#
#
# Indices 1 2 3 4 5 6 
#
# 1 98.6493 47.0543 80.4563 0.0003 17.0241 -0.0001
# 2 47.0543 55.4653 57.8513 0.0010 5.8798 -0.0010
# 3 80.4563 57.8513 161.0551 0.0003 -1.3338 -0.0003
# 4 0.0003 0.0010 0.0003 34.3387 -0.0006 5.1822
# 5 17.0241 5.8798 -1.3338 -0.0006 26.4484 0.0004
# 6 -0.0001 -0.0010 -0.0003 5.1822 0.0004 25.7350
#
#
#
# Elastic Compliance Matrix: (Units=1/GPa)
#
#
# Indices 1 2 3 4 5 6 
#
# 1 0.024514 -0.010277 -0.008670 0.000000 -0.013932 0.000000
# 2 -0.010277 0.034469 -0.007259 -0.000001 -0.001414 0.000001
# 3 -0.008670 -0.007259 0.013213 0.000000 0.007861 0.000000
# 4 0.000000 -0.000001 0.000000 0.030034 0.000001 -0.006048
# 5 -0.013932 -0.001414 0.007861 0.000001 0.047488 -0.000001
# 6 0.000000 0.000001 0.000000 -0.006048 -0.000001 0.040076
#
#
# Mechanical properties :
#
#
# Convention : Reuss Voigt Hill
#
# Bulk Modulus (GPa) = 50.54617 76.21040 63.37828
# Shear Modulus (GPa) = 20.09638 25.95826 23.02732
#
# Velocity S-wave (km/s) = 3.38765 3.85014 3.62627
# Velocity P-wave (km/s) = 6.64576 7.95520 7.32978
#
# Compressibility (1/GPa) = 0.01978389
#
# Stress axis : x y z
#
# Youngs Moduli (GPa) = 40.79263 29.01153 75.68299
#
# Poissons Ratio (x) = 0.29814 0.65619
# Poissons Ratio (y) = 0.41921 0.54940
# Poissons Ratio (z) = 0.35368 0.21060
#
# Static dielectric constant tensor:
#      x y z
#    x 1.574910 0.000000 -0.002380 
#    y 0.000000 1.590220 0.000000 
#    z -0.002380 0.000000 1.598940 
# 
# From -- ./inp_files/230342.got.cif
#   From: 2010.05.17/outbox.cif.g08.bks.cpg/sg12_116_cif.got.tgz:230342.got - 2010.06.03 13:09:07.
