data_PCOD9196360
_publ_section_title
;
Structure prediction by ZEFSAII (Michael W. Deem and Ramdas Pophale) SiO2 
 PCOD9196360
Probable space group: C 2/M
;
_chemical_formula_sum "Si O2"
_cell_formula_units_Z 56
_cell_length_a 25.709099
_cell_length_b 8.492224
_cell_length_c 17.519022
_cell_angle_alpha 90.000000
_cell_angle_beta 137.077367
_cell_angle_gamma 90.000000
_cell_volume 2604.784285
_symmetry_space_group_name_H-M "C 2/M"
_symmetry_group_IT_number 12
_symmetry_cell_setting 'monoclinic'
loop_
_space_group_symop_operation_xyz
x,y,z
-x,y,-z
-x,-y,-z
x,-y,z
1/2+x,1/2+y,z
1/2-x,1/2+y,-z
1/2-x,1/2-y,-z
1/2+x,1/2-y,z
loop_
_atom_site_type_symbol
_atom_site_label
_atom_site_fract_x
_atom_site_fract_y
_atom_site_fract_z
Si Si1 0.640560 0.683814 0.010237
Si Si2 0.260820 0.185988 0.348037
Si Si3 0.305703 0.811217 0.222769
Si Si4 0.516915 0.184161 0.184631
Si Si5 0.971043 0.189593 0.385764
Si Si6 0.608720 0.182300 0.138485
Si Si7 0.104011 0.814578 0.414181
O O1 0.638104 0.500000 0.987590
O O2 0.727704 0.744411 0.097477
O O3 0.621931 0.706672 0.080269
O O4 0.570916 0.770799 0.894529
O O5 0.297987 0.227205 0.305016
O O6 0.184507 0.288663 0.270422
O O7 0.320693 0.225115 0.478182
O O8 0.242771 0.000000 0.328207
O O9 0.385402 0.746328 0.278728
O O10 0.305970 0.000000 0.217561
O O11 0.538361 0.212796 0.119098
O O12 0.574463 0.282844 0.297919
O O13 0.528897 0.000000 0.212019
O O14 0.000000 0.244502 0.500000
O O15 0.033542 0.240763 0.391595
O O16 0.969936 0.000000 0.385084
O O17 0.605506 0.000000 0.108889
O O18 0.116293 0.000000 0.440012
#
# Coordination Sequence:
#
# PCOD9196360 Si02
#       7
#     8   8   8   8   8   8   8
#     4  10  21  38  60  87 115 146 189 234 278 331
#     4  10  20  35  56  85 116 147 187 232 280 335
#     4   9  19  34  56  86 114 143 181 229 279 327
#     4  11  24  40  57  81 113 152 193 233 279 333
#     4  10  20  35  57  86 114 143 184 229 277 334
#     4  10  21  37  59  85 113 147 190 235 280 330
#     4  11  23  38  57  82 115 152 187 230 285 339
#
# _framework density 21.498902999999999
#
# number of rings (size 3 to 8) (size 9 to 14) (size 15 to 20)
#    0.000    1.857    1.429    3.429    0.000    8.857 
#    0.000    0.714    0.000    0.000    0.000    0.000 
#    0.000    0.000    0.000    0.000    0.000    0.000 
#
# Total GULP energy -156446.300198 kJ/mol
# GULP energy per Si atom -5587.367864 kJ/mol
# Density = 2.144997 g / cm^3
# Si number density = 21.498903 Si / 1000 Ang^3
#
#
#
# Elastic Constant Matrix: (Units=GPa)
#
#
# Indices 1 2 3 4 5 6 
#
# 1 28.9483 2.6225 -10.7179 0.0000 15.5415 0.0000
# 2 2.6225 17.7567 -2.5983 0.0000 4.8594 0.0000
# 3 -10.7179 -2.5983 66.7756 0.0000 24.7797 0.0000
# 4 0.0000 0.0000 0.0000 -710.1533 0.0000 -352.7798
# 5 15.5415 4.8594 24.7797 0.0000 38.1407 0.0000
# 6 0.0000 0.0000 0.0000 -352.7798 0.0000 -150.9058
#
#
#
# Elastic Compliance Matrix: (Units=1/GPa)
#
#
# Indices 1 2 3 4 5 6 
#
# 1 0.072015 0.007521 0.030434 0.000000 -0.050076 0.000000
# 2 0.007521 0.061451 0.010068 0.000000 -0.017435 0.000000
# 3 0.030434 0.010068 0.033377 0.000000 -0.035369 0.000000
# 4 0.000000 0.000000 0.000000 0.008729 0.000000 -0.020407
# 5 -0.050076 -0.017435 -0.035369 0.000000 0.071824 0.000000
# 6 0.000000 0.000000 0.000000 -0.020407 0.000000 0.041079
#
#
# Mechanical properties :
#
#
# Convention : Reuss Voigt Hill
#
# Bulk Modulus (GPa) = 3.80387 10.23259 7.01823
# Shear Modulus (GPa) = 17.85346 -156.30540 -69.22597
#
# Velocity S-wave (km/s) = 2.88485 -8.53591 -5.68064
# Velocity P-wave (km/s) = 3.58743 9.61140 6.30513
#
# Compressibility (1/GPa) = 0.26289032
#
# Stress axis : x y z
#
# Youngs Moduli (GPa) = 13.88598 16.27325 29.96061
#
# Poissons Ratio (x) = -0.12240 -0.91182
# Poissons Ratio (y) = -0.10444 -0.30165
# Poissons Ratio (z) = -0.42261 -0.16385
#
# Static dielectric constant tensor:
#      x y z
#    x 1.785620 0.000000 -0.003540 
#    y 0.000000 1.715180 0.000000 
#    z -0.003540 0.000000 1.810820 
# 
# From -- ./inp_files/288402.got.cif
#   From: 2010.05.17/outbox.cif.g08.bks.cpg/sg12_145_cif.got.tgz:288402.got - 2010.06.03 13:09:07.
