data_PCOD9196844
_publ_section_title
;
Structure prediction by ZEFSAII (Michael W. Deem and Ramdas Pophale) SiO2 
 PCOD9196844
Probable space group: C 2/M
;
_chemical_formula_sum "Si O2"
_cell_formula_units_Z 48
_cell_length_a 12.245003
_cell_length_b 21.941615
_cell_length_c 8.461571
_cell_angle_alpha 90.000000
_cell_angle_beta 73.662081
_cell_angle_gamma 90.000000
_cell_volume 2181.611822
_symmetry_space_group_name_H-M "C 2/M"
_symmetry_group_IT_number 12
_symmetry_cell_setting 'monoclinic'
loop_
_space_group_symop_operation_xyz
x,y,z
-x,y,-z
-x,-y,-z
x,-y,z
1/2+x,1/2+y,z
1/2-x,1/2+y,-z
1/2-x,1/2-y,-z
1/2+x,1/2-y,z
loop_
_atom_site_type_symbol
_atom_site_label
_atom_site_fract_x
_atom_site_fract_y
_atom_site_fract_z
Si Si1 0.479020 0.340245 0.322092
Si Si2 0.292797 0.748732 0.298935
Si Si3 0.270606 0.624191 0.813740
Si Si4 0.723070 0.570878 0.531004
Si Si5 0.396380 0.158933 0.641288
Si Si6 0.089969 0.567997 0.103759
O O1 0.500000 0.325135 0.500000
O O2 0.411461 0.286832 0.260173
O O3 0.600642 0.356299 0.201321
O O4 0.393769 0.398001 0.361569
O O5 0.250000 0.750000 0.500000
O O6 0.293380 0.814569 0.219923
O O7 0.193065 0.708494 0.260028
O O8 0.273806 0.580584 0.659041
O O9 0.207822 0.591175 0.981600
O O10 0.731910 0.500000 0.566317
O O11 0.822338 0.611905 0.566295
O O12 0.500000 0.186111 0.500000
O O13 0.448600 0.117658 0.755869
O O14 0.099961 0.500000 0.167247
O O15 0.000000 0.566055 0.000000
#
# Coordination Sequence:
#
# PCOD9196844 Si02
#       6
#     8   8   8   8   8   8
#     4   9  19  34  57  91 124 159 204 254 313 367
#     4  11  21  38  64  97 127 158 208 269 307 378
#     4  11  22  38  63  89 128 169 202 259 326 375
#     4  10  20  35  57  89 120 159 216 259 304 374
#     4  11  24  40  68  91 121 168 214 266 321 379
#     4  11  26  45  62  92 131 167 215 269 322 379
#
# _framework density 22.002079999999999
#
# number of rings (size 3 to 8) (size 9 to 14) (size 15 to 20)
#    0.000    1.500    5.000    2.000    2.333    7.000 
#    0.000    3.333    0.000    5.000    0.000    0.000 
#    0.000    0.000    0.000    0.000    0.000    0.000 
#
# Total GULP energy -134281.486650 kJ/mol
# GULP energy per Si atom -5595.061944 kJ/mol
# Density = 2.195200 g / cm^3
# Si number density = 22.002080 Si / 1000 Ang^3
#
#
#
# Elastic Constant Matrix: (Units=GPa)
#
#
# Indices 1 2 3 4 5 6 
#
# 1 105.6317 23.1408 -2.3164 0.0000 -15.8755 0.0000
# 2 23.1408 109.8686 -6.8481 0.0000 4.8710 0.0000
# 3 -2.3164 -6.8481 13.5881 0.0000 -8.9918 0.0000
# 4 0.0000 0.0000 0.0000 16.3405 0.0000 2.9973
# 5 -15.8755 4.8710 -8.9918 0.0000 28.2027 0.0000
# 6 0.0000 0.0000 0.0000 2.9973 0.0000 18.6044
#
#
#
# Elastic Compliance Matrix: (Units=1/GPa)
#
#
# Indices 1 2 3 4 5 6 
#
# 1 0.011498 -0.002403 0.006726 0.000000 0.009032 0.000000
# 2 -0.002403 0.009900 0.003236 0.000000 -0.002031 0.000000
# 3 0.006726 0.003236 0.099500 0.000000 0.034950 0.000000
# 4 0.000000 0.000000 0.000000 0.063061 0.000000 -0.010160
# 5 0.009032 -0.002031 0.034950 0.000000 0.052036 0.000000
# 6 0.000000 0.000000 0.000000 -0.010160 0.000000 0.055388
#
#
# Mechanical properties :
#
#
# Convention : Reuss Voigt Hill
#
# Bulk Modulus (GPa) = 7.35216 28.56011 17.95613
# Shear Modulus (GPa) = 15.54712 26.97032 21.25872
#
# Velocity S-wave (km/s) = 2.66112 3.50495 3.11177
# Velocity P-wave (km/s) = 3.57644 5.42111 4.59235
#
# Compressibility (1/GPa) = 0.13601443
#
# Stress axis : x y z
#
# Youngs Moduli (GPa) = 86.97041 101.01396 10.05029
#
# Poissons Ratio (x) = 0.24273 -0.06760
# Poissons Ratio (y) = 0.20899 -0.03252
# Poissons Ratio (z) = -0.58495 -0.32685
#
# Static dielectric constant tensor:
#      x y z
#    x 1.821390 0.000000 0.022500 
#    y 0.000000 1.807230 0.000000 
#    z 0.022500 0.000000 1.816650 
# 
# From -- ./inp_files/51309.got.cif
#   From: 2010.05.17/outbox.cif.g08.bks.cpg/sg12_26_cif.got.tgz:51309.got - 2010.06.03 13:09:07.
