data_PCOD9196831
_publ_section_title
;
Structure prediction by ZEFSAII (Michael W. Deem and Ramdas Pophale) SiO2 
 PCOD9196831
Probable space group: C 2/M
;
_chemical_formula_sum "Si O2"
_cell_formula_units_Z 60
_cell_length_a 8.760983
_cell_length_b 30.495552
_cell_length_c 18.207458
_cell_angle_alpha 90.000000
_cell_angle_beta 40.597577
_cell_angle_gamma 90.000000
_cell_volume 3165.538231
_symmetry_space_group_name_H-M "C 2/M"
_symmetry_group_IT_number 12
_symmetry_cell_setting 'monoclinic'
loop_
_space_group_symop_operation_xyz
x,y,z
-x,y,-z
-x,-y,-z
x,-y,z
1/2+x,1/2+y,z
1/2-x,1/2+y,-z
1/2-x,1/2-y,-z
1/2+x,1/2-y,z
loop_
_atom_site_type_symbol
_atom_site_label
_atom_site_fract_x
_atom_site_fract_y
_atom_site_fract_z
Si Si1 0.000000 0.615866 0.000000
Si Si2 0.738038 0.786254 0.614830
Si Si3 0.767995 0.051529 0.797430
Si Si4 0.241785 0.451188 0.631224
Si Si5 0.763774 0.745923 0.227152
Si Si6 0.142312 0.880474 0.662676
Si Si7 0.117790 0.625057 0.577717
Si Si8 0.144013 0.187803 0.147557
O O1 0.917776 0.583290 0.094637
O O2 0.793572 0.650014 0.052880
O O3 0.510768 0.759709 0.669775
O O4 0.704823 0.785778 0.714561
O O5 0.709390 0.833187 0.588134
O O6 0.000000 0.768758 0.500000
O O7 0.749780 0.054980 0.715778
O O8 0.015481 0.073943 0.728839
O O9 0.749481 0.000000 0.823656
O O10 0.500000 0.448927 0.500000
O O11 0.149472 0.500000 0.650551
O O12 0.099528 0.414436 0.641177
O O13 0.798596 0.723086 0.135904
O O14 0.944679 0.786162 0.175056
O O15 0.205632 0.882935 0.554185
O O16 0.370440 0.870491 0.627531
O O17 0.976011 0.839974 0.742791
#
# Coordination Sequence:
#
# PCOD9196831 Si02
#       8
#     4   8   8   8   8   8   8   8
#     4  10  23  38  68  88 118 152 208 260 307 350
#     4  11  21  33  54  84 118 166 203 239 291 364
#     4  10  21  40  64  89 118 156 199 247 301 365
#     4  10  20  35  57  88 121 152 193 240 297 368
#     4  10  22  37  57  79 122 158 205 251 304 351
#     4  10  21  35  53  84 126 157 198 242 290 361
#     4  11  21  33  54  85 123 166 194 235 297 354
#     4  10  21  41  56  87 115 156 204 260 301 350
#
# _framework density 18.954122000000002
#
# number of rings (size 3 to 8) (size 9 to 14) (size 15 to 20)
#    0.000    1.733    2.667    1.800    3.733    2.133 
#    0.000    1.333    0.000    6.400    0.000    8.400 
#    0.000    0.000    0.000    0.000    0.000    0.000 
#
# Total GULP energy -167216.855853 kJ/mol
# GULP energy per Si atom -5573.895195 kJ/mol
# Density = 1.891098 g / cm^3
# Si number density = 18.954122 Si / 1000 Ang^3
#
#
#
# Elastic Constant Matrix: (Units=GPa)
#
#
# Indices 1 2 3 4 5 6 
#
# 1 76.8678 49.6920 27.5745 0.0000 -4.1734 0.0000
# 2 49.6920 109.5396 52.3094 0.0000 -1.8686 0.0000
# 3 27.5745 52.3094 88.4642 0.0000 1.4780 0.0000
# 4 0.0000 0.0000 0.0000 21.4676 0.0000 -0.0547
# 5 -4.1734 -1.8686 1.4780 0.0000 14.4827 0.0000
# 6 0.0000 0.0000 0.0000 -0.0547 0.0000 30.0938
#
#
#
# Elastic Compliance Matrix: (Units=1/GPa)
#
#
# Indices 1 2 3 4 5 6 
#
# 1 0.018778 -0.007817 -0.001307 0.000000 0.004536 0.000000
# 2 -0.007817 0.016060 -0.007069 0.000000 0.000541 0.000000
# 3 -0.001307 -0.007069 0.015940 0.000000 -0.002915 0.000000
# 4 0.000000 0.000000 0.000000 0.046582 0.000000 0.000085
# 5 0.004536 0.000541 -0.002915 0.000000 0.070722 0.000000
# 6 0.000000 0.000000 0.000000 0.000085 0.000000 0.033230
#
#
# Mechanical properties :
#
#
# Convention : Reuss Voigt Hill
#
# Bulk Modulus (GPa) = 54.36951 59.33593 56.85272
# Shear Modulus (GPa) = 20.84832 22.89522 21.87177
#
# Velocity S-wave (km/s) = 3.32013 3.47930 3.40064
# Velocity P-wave (km/s) = 6.59126 6.89302 6.74383
#
# Compressibility (1/GPa) = 0.01839266
#
# Stress axis : x y z
#
# Youngs Moduli (GPa) = 53.25450 62.26577 62.73583
#
# Poissons Ratio (x) = 0.48674 0.08197
# Poissons Ratio (y) = 0.41630 0.44347
# Poissons Ratio (z) = 0.06958 0.44015
#
# Static dielectric constant tensor:
#      x y z
#    x 1.645420 0.000000 -0.019870 
#    y 0.000000 1.677500 0.000000 
#    z -0.019870 0.000000 1.702250 
# 
# From -- ./inp_files/302759.got.cif
#   From: 2010.05.17/outbox.cif.g08.bks.cpg/sg12_152_cif.got.tgz:302759.got - 2010.06.03 13:09:07.
