data_PCOD9196766
_publ_section_title
;
Structure prediction by ZEFSAII (Michael W. Deem and Ramdas Pophale) SiO2 
 PCOD9196766
Probable space group: C 2/M
;
_chemical_formula_sum "Si O2"
_cell_formula_units_Z 64
_cell_length_a 19.295094
_cell_length_b 8.826259
_cell_length_c 30.051742
_cell_angle_alpha 90.000000
_cell_angle_beta 40.421480
_cell_angle_gamma 90.000000
_cell_volume 3318.484624
_symmetry_space_group_name_H-M "C 2/M"
_symmetry_group_IT_number 12
_symmetry_cell_setting 'monoclinic'
loop_
_space_group_symop_operation_xyz
x,y,z
-x,y,-z
-x,-y,-z
x,-y,z
1/2+x,1/2+y,z
1/2-x,1/2+y,-z
1/2-x,1/2-y,-z
1/2+x,1/2-y,z
loop_
_atom_site_type_symbol
_atom_site_label
_atom_site_fract_x
_atom_site_fract_y
_atom_site_fract_z
Si Si1 0.868155 0.680437 0.941967
Si Si2 0.728797 0.182825 0.673522
Si Si3 0.791419 0.818652 0.832536
Si Si4 0.723989 0.181314 0.442223
Si Si5 0.521008 0.182256 0.205319
Si Si6 0.083201 0.817153 0.588552
Si Si7 0.663467 0.315577 0.286943
Si Si8 0.898477 0.824976 0.017657
O O1 0.860547 0.500000 0.947241
O O2 0.930354 0.722150 0.866740
O O3 0.750000 0.750000 0.000000
O O4 0.922612 0.740272 0.960032
O O5 0.783652 0.252265 0.603286
O O6 0.603407 0.222531 0.732737
O O7 0.780111 0.234151 0.695136
O O8 0.737187 0.000000 0.667555
O O9 0.906927 0.765662 0.793586
O O10 0.780032 0.769230 0.786672
O O11 0.702485 0.747371 0.907935
O O12 0.784040 0.000000 0.838516
O O13 0.838345 0.224580 0.408926
O O14 0.635338 0.247051 0.518901
O O15 0.717550 0.000000 0.444337
O O16 0.530847 0.000000 0.206209
O O17 0.960761 0.768840 0.653935
O O18 0.085399 0.000000 0.583847
O O19 0.664855 0.500000 0.286496
O O20 0.873149 0.000000 0.020192
O O21 0.000000 0.816982 0.000000
#
# Coordination Sequence:
#
# PCOD9196766 Si02
#       8
#     8   8   8   8   8   8   8   8
#     4  11  22  38  62  89 117 151 194 244 294 350
#     4  10  21  38  58  82 113 152 189 229 283 341
#     4  11  22  38  63  87 112 150 195 242 289 344
#     4  10  20  35  57  86 116 145 187 236 279 331
#     4  10  22  38  59  84 116 150 187 238 290 346
#     4   9  18  36  60  83 111 149 188 229 275 332
#     4   9  20  37  58  84 112 146 192 236 278 337
#     4  11  25  42  59  84 120 157 195 242 294 350
#
# _framework density 19.285912
#
# number of rings (size 3 to 8) (size 9 to 14) (size 15 to 20)
#    0.000    1.875    1.250    2.250    1.750    4.000 
#    0.000    5.625    0.000    0.000    0.000    0.000 
#    0.000    0.000    0.000    0.000    0.000    0.000 
#
# Total GULP energy -178781.955682 kJ/mol
# GULP energy per Si atom -5586.936115 kJ/mol
# Density = 1.924202 g / cm^3
# Si number density = 19.285912 Si / 1000 Ang^3
#
#
#
# Elastic Constant Matrix: (Units=GPa)
#
#
# Indices 1 2 3 4 5 6 
#
# 1 84.0706 19.8522 19.7568 -0.0001 28.4966 -0.0001
# 2 19.8522 22.6282 11.5265 -0.0001 6.7689 0.0013
# 3 19.7568 11.5265 51.2876 -0.0001 17.2070 0.0002
# 4 -0.0001 -0.0001 -0.0001 15.9119 0.0000 5.5875
# 5 28.4966 6.7689 17.2070 0.0000 37.7387 -0.0001
# 6 -0.0001 0.0013 0.0002 5.5875 -0.0001 23.1056
#
#
#
# Elastic Compliance Matrix: (Units=1/GPa)
#
#
# Indices 1 2 3 4 5 6 
#
# 1 0.019090 -0.012962 -0.000454 0.000000 -0.011883 0.000001
# 2 -0.012962 0.059372 -0.009517 0.000001 0.003478 -0.000004
# 3 -0.000454 -0.009517 0.024939 0.000000 -0.009321 0.000000
# 4 0.000000 0.000001 0.000000 0.068678 0.000000 -0.016608
# 5 -0.011883 0.003478 -0.009321 0.000000 0.039097 0.000000
# 6 0.000001 -0.000004 0.000000 -0.016608 0.000000 0.047296
#
#
# Mechanical properties :
#
#
# Convention : Reuss Voigt Hill
#
# Bulk Modulus (GPa) = 17.38078 28.91746 23.14912
# Shear Modulus (GPa) = 15.45514 22.47464 18.96489
#
# Velocity S-wave (km/s) = 2.83392 3.41741 3.13925
# Velocity P-wave (km/s) = 4.44295 5.53157 5.01688
#
# Compressibility (1/GPa) = 0.05753482
#
# Stress axis : x y z
#
# Youngs Moduli (GPa) = 52.38263 16.84289 40.09806
#
# Poissons Ratio (x) = 0.21832 0.01820
# Poissons Ratio (y) = 0.67901 0.38162
# Poissons Ratio (z) = 0.02377 0.16029
#
# Static dielectric constant tensor:
#      x y z
#    x 1.683970 0.000000 0.002020 
#    y 0.000000 1.648050 0.000000 
#    z 0.002020 0.000000 1.646470 
# 
# From -- ./inp_files/378179.got.cif
#   From: 2010.05.17/outbox.cif.g08.bks.cpg/sg12_190_cif.got.tgz:378179.got - 2010.06.03 13:09:07.
