data_PCOD9196142
_publ_section_title
;
Structure prediction by ZEFSAII (Michael W. Deem and Ramdas Pophale) SiO2 
 PCOD9196142
Probable space group: C 2/M
;
_chemical_formula_sum "Si O2"
_cell_formula_units_Z 56
_cell_length_a 20.529479
_cell_length_b 12.754365
_cell_length_c 19.532514
_cell_angle_alpha 90.000000
_cell_angle_beta 28.711924
_cell_angle_gamma 90.000000
_cell_volume 2456.989870
_symmetry_space_group_name_H-M "C 2/M"
_symmetry_group_IT_number 12
_symmetry_cell_setting 'monoclinic'
loop_
_space_group_symop_operation_xyz
x,y,z
-x,y,-z
-x,-y,-z
x,-y,z
1/2+x,1/2+y,z
1/2-x,1/2+y,-z
1/2-x,1/2-y,-z
1/2+x,1/2-y,z
loop_
_atom_site_type_symbol
_atom_site_label
_atom_site_fract_x
_atom_site_fract_y
_atom_site_fract_z
Si Si1 0.827933 0.797230 0.312091
Si Si2 0.431272 0.618388 0.988659
Si Si3 0.471669 0.115797 0.406938
Si Si4 0.031343 0.616122 0.745875
Si Si5 0.218794 0.703512 0.954074
Si Si6 0.783549 0.888423 0.659521
Si Si7 0.439345 0.663465 0.651389
O O1 0.688897 0.859111 0.450156
O O2 0.872795 0.716801 0.330469
O O3 0.805774 0.712892 0.271284
O O4 0.948515 0.872170 0.178153
O O5 0.373375 0.500000 0.042088
O O6 0.500000 0.635410 0.000000
O O7 0.328168 0.707602 0.057384
O O8 0.523296 0.120790 0.281143
O O9 0.538775 0.212688 0.383154
O O10 0.494781 0.000000 0.413794
O O11 0.094678 0.500000 0.692837
O O12 0.910227 0.629694 0.911994
O O13 0.351693 0.649890 0.800164
O O14 0.250000 0.750000 0.000000
O O15 0.855266 0.882210 0.666401
O O16 0.908611 0.881292 0.490211
O O17 0.712412 0.000000 0.719735
#
# Coordination Sequence:
#
# PCOD9196142 Si02
#       7
#     8   8   8   8   8   8   8
#     4  10  20  37  60  82 111 147 191 242 291 340
#     4  10  22  40  61  87 119 159 202 246 300 360
#     4  10  20  35  56  81 113 148 188 234 286 348
#     4  10  21  36  56  82 113 149 188 234 290 350
#     4  11  22  38  60  86 123 158 199 248 299 359
#     4  10  21  38  60  86 116 151 197 245 293 349
#     4  10  20  36  57  82 118 154 189 242 291 349
#
# _framework density 22.792117000000001
#
# number of rings (size 3 to 8) (size 9 to 14) (size 15 to 20)
#    0.000    1.857    1.429    3.000    0.000    2.286 
#    0.000    6.429    0.000    4.714    0.000    0.000 
#    0.000    0.000    0.000    0.000    0.000    0.000 
#
# Total GULP energy -156322.921193 kJ/mol
# GULP energy per Si atom -5582.961471 kJ/mol
# Density = 2.274024 g / cm^3
# Si number density = 22.792117 Si / 1000 Ang^3
#
#
#
# Elastic Constant Matrix: (Units=GPa)
#
#
# Indices 1 2 3 4 5 6 
#
# 1 65.4454 13.2269 -15.6917 0.0001 11.1208 -0.0001
# 2 13.2269 128.1185 -5.8143 0.0002 6.9825 -0.0001
# 3 -15.6917 -5.8143 93.5788 0.0003 7.4045 -0.0002
# 4 0.0001 0.0002 0.0003 -8.3119 -0.0002 9.1302
# 5 11.1208 6.9825 7.4045 -0.0002 24.7848 0.0001
# 6 -0.0001 -0.0001 -0.0002 9.1302 0.0001 19.1778
#
#
#
# Elastic Compliance Matrix: (Units=1/GPa)
#
#
# Indices 1 2 3 4 5 6 
#
# 1 0.017880 -0.001204 0.003617 0.000000 -0.008764 0.000000
# 2 -0.001204 0.008051 0.000446 0.000000 -0.001861 0.000000
# 3 0.003617 0.000446 0.011736 0.000001 -0.005255 0.000000
# 4 0.000000 0.000000 0.000001 -0.078997 -0.000001 0.037609
# 5 -0.008764 -0.001861 -0.005255 -0.000001 0.046374 0.000000
# 6 0.000000 0.000000 0.000000 0.037609 0.000000 0.034239
#
#
# Mechanical properties :
#
#
# Convention : Reuss Voigt Hill
#
# Bulk Modulus (GPa) = 23.05028 30.06496 26.55762
# Shear Modulus (GPa) = 104.10901 26.82492 65.46697
#
# Velocity S-wave (km/s) = 6.76586 3.43438 5.36525
# Velocity P-wave (km/s) = 8.43629 5.38016 7.07521
#
# Compressibility (1/GPa) = 0.04338341
#
# Stress axis : x y z
#
# Youngs Moduli (GPa) = 55.92958 124.20448 85.20715
#
# Poissons Ratio (x) = 0.14956 -0.30817
# Poissons Ratio (y) = 0.06735 -0.03797
# Poissons Ratio (z) = -0.20228 -0.05534
#
# Static dielectric constant tensor:
#      x y z
#    x 1.858810 0.000000 -0.012560 
#    y 0.000000 1.858810 0.000000 
#    z -0.012560 0.000000 1.853830 
# 
# From -- ./inp_files/325130.got.cif
#   From: 2010.05.17/outbox.cif.g08.bks.cpg/sg12_163_cif.got.tgz:325130.got - 2010.06.03 13:09:07.
