data_PCOD9196510
_publ_section_title
;
Structure prediction by ZEFSAII (Michael W. Deem and Ramdas Pophale) SiO2 
 PCOD9196510
Probable space group: C 2/M
;
_chemical_formula_sum "Si O2"
_cell_formula_units_Z 64
_cell_length_a 31.402870
_cell_length_b 8.816213
_cell_length_c 18.147718
_cell_angle_alpha 90.000000
_cell_angle_beta 41.816349
_cell_angle_gamma 90.000000
_cell_volume 3349.911313
_symmetry_space_group_name_H-M "C 2/M"
_symmetry_group_IT_number 12
_symmetry_cell_setting 'monoclinic'
loop_
_space_group_symop_operation_xyz
x,y,z
-x,y,-z
-x,-y,-z
x,-y,z
1/2+x,1/2+y,z
1/2-x,1/2+y,-z
1/2-x,1/2-y,-z
1/2+x,1/2-y,z
loop_
_atom_site_type_symbol
_atom_site_label
_atom_site_fract_x
_atom_site_fract_y
_atom_site_fract_z
Si Si1 0.862515 0.178011 0.584538
Si Si2 0.397652 0.176581 0.694260
Si Si3 0.067876 0.817819 0.126004
Si Si4 0.489966 0.817798 0.099246
Si Si5 0.652837 0.182458 0.663820
Si Si6 0.017871 0.323244 0.634938
Si Si7 0.181902 0.178467 0.073736
Si Si8 0.224023 0.318977 0.420434
O O1 0.879113 0.265883 0.638036
O O2 0.921912 0.217711 0.455179
O O3 0.801086 0.240857 0.621122
O O4 0.857551 0.000000 0.604817
O O5 0.471630 0.187032 0.623218
O O6 0.360904 0.276619 0.801312
O O7 0.379736 0.000000 0.725678
O O8 0.140084 0.773825 0.056428
O O9 0.043663 0.764713 0.078231
O O10 0.022390 0.733137 0.243456
O O11 0.061999 0.000000 0.141694
O O12 0.419311 0.773885 0.220795
O O13 0.495653 0.000000 0.101808
O O14 0.500000 0.784822 0.000000
O O15 0.706385 0.260329 0.645519
O O16 0.675486 0.218370 0.551026
O O17 0.657459 0.000000 0.665969
O O18 0.036719 0.500000 0.619979
O O19 0.190094 0.000000 0.058584
O O20 0.250000 0.250000 0.000000
O O21 0.224219 0.500000 0.411725
#
# Coordination Sequence:
#
# PCOD9196510 Si02
#       8
#     8   8   8   8   8   8   8   8
#     4  12  23  34  52  82 118 152 187 229 280 339
#     4  10  21  37  56  80 112 148 188 235 285 338
#     4  10  21  37  59  87 115 147 193 241 286 341
#     4  10  21  38  60  86 116 153 194 241 295 351
#     4   9  19  37  58  80 110 144 188 240 288 344
#     4  10  20  35  57  82 112 150 189 232 281 338
#     4  10  21  39  61  85 113 151 195 240 288 341
#     4  10  20  35  57  82 109 149 192 235 287 346
#
# _framework density 19.104984000000002
#
# number of rings (size 3 to 8) (size 9 to 14) (size 15 to 20)
#    0.000    1.875    0.000    4.125    0.000    6.750 
#    2.250    0.000    0.000    0.000    0.000    0.000 
#    0.000    0.000    0.000    0.000    0.000    0.000 
#
# Total GULP energy -178687.107152 kJ/mol
# GULP energy per Si atom -5583.972099 kJ/mol
# Density = 1.906150 g / cm^3
# Si number density = 19.104984 Si / 1000 Ang^3
#
#
#
# Elastic Constant Matrix: (Units=GPa)
#
#
# Indices 1 2 3 4 5 6 
#
# 1 134.1224 30.8055 27.9487 0.0020 0.3647 -0.0015
# 2 30.8055 16.3704 5.0631 0.0055 -1.2185 -0.0053
# 3 27.9487 5.0631 41.2317 0.0057 -13.3733 -0.0030
# 4 0.0020 0.0055 0.0057 26.6468 -0.0022 -0.9315
# 5 0.3647 -1.2185 -13.3733 -0.0022 25.4497 0.0004
# 6 -0.0015 -0.0053 -0.0030 -0.9315 0.0004 32.3682
#
#
#
# Elastic Compliance Matrix: (Units=1/GPa)
#
#
# Indices 1 2 3 4 5 6 
#
# 1 0.015621 -0.026978 -0.009363 0.000006 -0.006436 -0.000004
# 2 -0.026978 0.110125 0.007956 -0.000021 0.009840 0.000017
# 3 -0.009363 0.007956 0.035910 -0.000007 0.019385 0.000004
# 4 0.000006 -0.000021 -0.000007 0.037566 -0.000001 0.001081
# 5 -0.006436 0.009840 0.019385 -0.000001 0.050043 0.000002
# 6 -0.000004 0.000017 0.000004 0.001081 0.000002 0.030926
#
#
# Mechanical properties :
#
#
# Convention : Reuss Voigt Hill
#
# Bulk Modulus (GPa) = 9.53428 35.48437 22.50932
# Shear Modulus (GPa) = 13.44361 25.42010 19.43186
#
# Velocity S-wave (km/s) = 2.65556 3.65163 3.19267
# Velocity P-wave (km/s) = 3.79525 6.03265 5.03968
#
# Compressibility (1/GPa) = 0.10488474
#
# Stress axis : x y z
#
# Youngs Moduli (GPa) = 64.01673 9.08059 27.84705
#
# Poissons Ratio (x) = 0.24498 0.26073
# Poissons Ratio (y) = 1.72706 -0.22154
# Poissons Ratio (z) = 0.59939 -0.07224
#
# Static dielectric constant tensor:
#      x y z
#    x 1.681420 -0.000010 -0.012130 
#    y -0.000010 1.744870 -0.000010 
#    z -0.012130 -0.000010 1.684460 
# 
# From -- ./inp_files/295659.got.cif
#   From: 2010.05.17/outbox.cif.g08.bks.cpg/sg12_148_cif.got.tgz:295659.got - 2010.06.03 13:09:07.
