data_PCOD9196329
_publ_section_title
;
Structure prediction by ZEFSAII (Michael W. Deem and Ramdas Pophale) SiO2 
 PCOD9196329
Probable space group: C 2/M
;
_chemical_formula_sum "Si O2"
_cell_formula_units_Z 64
_cell_length_a 30.859776
_cell_length_b 8.590803
_cell_length_c 23.040443
_cell_angle_alpha 90.000000
_cell_angle_beta 148.083374
_cell_angle_gamma 90.000000
_cell_volume 3229.342206
_symmetry_space_group_name_H-M "C 2/M"
_symmetry_group_IT_number 12
_symmetry_cell_setting 'monoclinic'
loop_
_space_group_symop_operation_xyz
x,y,z
-x,y,-z
-x,-y,-z
x,-y,z
1/2+x,1/2+y,z
1/2-x,1/2+y,-z
1/2-x,1/2-y,-z
1/2+x,1/2-y,z
loop_
_atom_site_type_symbol
_atom_site_label
_atom_site_fract_x
_atom_site_fract_y
_atom_site_fract_z
Si Si1 0.025014 0.813692 0.651327
Si Si2 0.129026 0.812766 0.988376
Si Si3 0.508731 0.311644 0.256119
Si Si4 0.186326 0.688303 0.779635
Si Si5 0.280435 0.812440 0.696383
Si Si6 0.371793 0.185774 0.414632
Si Si7 0.919904 0.312306 0.944969
Si Si8 0.329780 0.813183 0.623511
O O1 0.995490 0.762216 0.681675
O O2 0.114726 0.749727 0.739261
O O3 0.960173 0.753861 0.530333
O O4 0.026604 0.000000 0.652002
O O5 0.223101 0.756844 0.098873
O O6 0.085196 0.760707 0.997682
O O7 0.131860 0.000000 0.990071
O O8 0.073405 0.760747 0.871303
O O9 0.511993 0.500000 0.258815
O O10 0.588296 0.249945 0.313219
O O11 0.186137 0.500000 0.780097
O O12 0.163339 0.738254 0.687772
O O13 0.192444 0.739787 0.609431
O O14 0.341058 0.766799 0.817372
O O15 0.319697 0.766986 0.679568
O O16 0.272352 0.000000 0.687293
O O17 0.377132 0.000000 0.419914
O O18 0.920767 0.500000 0.951494
O O19 0.000000 0.266277 0.000000
O O20 0.250000 0.750000 0.500000
O O21 0.330821 0.000000 0.622161
#
# Coordination Sequence:
#
# PCOD9196329 Si02
#       8
#     8   8   8   8   8   8   8   8
#     4  11  24  40  60  87 117 154 199 245 298 355
#     4  10  21  40  62  85 118 157 195 243 294 347
#     4  10  23  42  61  85 120 159 201 246 293 349
#     4  10  22  40  61  88 119 151 194 247 300 353
#     4  10  21  36  56  84 119 154 190 237 292 348
#     4  11  22  38  61  89 120 153 195 244 297 356
#     4  10  20  35  56  84 117 152 191 236 287 344
#     4  11  23  39  60  87 120 159 202 245 293 348
#
# _framework density 19.818276999999998
#
# number of rings (size 3 to 8) (size 9 to 14) (size 15 to 20)
#    0.000    1.625    1.250    3.000    0.000   10.250 
#    0.000    0.000    0.000    0.000    0.000    0.000 
#    0.000    0.000    0.000    0.000    0.000    0.000 
#
# Total GULP energy -178865.639485 kJ/mol
# GULP energy per Si atom -5589.551234 kJ/mol
# Density = 1.977317 g / cm^3
# Si number density = 19.818277 Si / 1000 Ang^3
#
#
#
# Elastic Constant Matrix: (Units=GPa)
#
#
# Indices 1 2 3 4 5 6 
#
# 1 87.1040 14.3534 24.9642 0.0000 8.5510 0.0000
# 2 14.3534 6.9956 18.3512 0.0000 -1.7593 0.0000
# 3 24.9642 18.3512 117.5933 0.0000 7.0468 0.0000
# 4 0.0000 0.0000 0.0000 25.7815 0.0000 6.1097
# 5 8.5510 -1.7593 7.0468 0.0000 39.8476 0.0000
# 6 0.0000 0.0000 0.0000 6.1097 0.0000 31.9357
#
#
#
# Elastic Compliance Matrix: (Units=1/GPa)
#
#
# Indices 1 2 3 4 5 6 
#
# 1 0.020047 -0.056034 0.004947 0.000000 -0.007651 0.000000
# 2 -0.056034 0.411430 -0.054699 0.000000 0.039863 0.000000
# 3 0.004947 -0.054699 0.016372 0.000000 -0.006372 0.000000
# 4 0.000000 0.000000 0.000000 0.040630 0.000000 -0.007773
# 5 -0.007651 0.039863 -0.006372 0.000000 0.029624 0.000000
# 6 0.000000 0.000000 0.000000 -0.007773 0.000000 0.032800
#
#
# Mechanical properties :
#
#
# Convention : Reuss Voigt Hill
#
# Bulk Modulus (GPa) = 4.23233 36.33672 20.28453
# Shear Modulus (GPa) = 5.94365 29.78122 17.86244
#
# Velocity S-wave (km/s) = 1.73366 3.88069 3.00544
# Velocity P-wave (km/s) = 2.47945 6.20117 4.72240
#
# Compressibility (1/GPa) = 0.23627620
#
# Stress axis : x y z
#
# Youngs Moduli (GPa) = 49.88195 2.43055 61.08109
#
# Poissons Ratio (x) = 0.13619 -0.30217
# Poissons Ratio (y) = 2.79508 3.34110
# Poissons Ratio (z) = -0.24677 0.13295
#
# Static dielectric constant tensor:
#      x y z
#    x 1.677440 0.000000 -0.012050 
#    y 0.000000 1.672900 0.000000 
#    z -0.012050 0.000000 1.701300 
# 
# From -- ./inp_files/353491.got.cif
#   From: 2010.05.17/outbox.cif.g08.bks.cpg/sg12_177_cif.got.tgz:353491.got - 2010.06.03 13:09:07.
