data_PCOD9196696
_publ_section_title
;
Structure prediction by ZEFSAII (Michael W. Deem and Ramdas Pophale) SiO2 
 PCOD9196696
Probable space group: C 2/M
;
_chemical_formula_sum "Si O2"
_cell_formula_units_Z 40
_cell_length_a 24.601336
_cell_length_b 8.969166
_cell_length_c 8.458019
_cell_angle_alpha 90.000000
_cell_angle_beta 96.090512
_cell_angle_gamma 90.000000
_cell_volume 1855.756982
_symmetry_space_group_name_H-M "C 2/M"
_symmetry_group_IT_number 12
_symmetry_cell_setting 'monoclinic'
loop_
_space_group_symop_operation_xyz
x,y,z
-x,y,-z
-x,-y,-z
x,-y,z
1/2+x,1/2+y,z
1/2-x,1/2+y,-z
1/2-x,1/2-y,-z
1/2+x,1/2-y,z
loop_
_atom_site_type_symbol
_atom_site_label
_atom_site_fract_x
_atom_site_fract_y
_atom_site_fract_z
Si Si1 0.971738 0.322609 0.824439
Si Si2 0.931926 0.177307 0.321129
Si Si3 0.673808 0.676357 0.908241
Si Si4 0.280086 0.175285 0.764506
Si Si5 0.126202 0.177512 0.369377
O O1 0.964222 0.500000 0.815726
O O2 0.914380 0.242304 0.776273
O O3 0.013966 0.266822 0.703968
O O4 0.000000 0.283606 0.000000
O O5 0.887134 0.201642 0.170360
O O6 0.901789 0.220196 0.473730
O O7 0.944610 0.000000 0.332479
O O8 0.680052 0.500000 0.950642
O O9 0.716294 0.706306 0.777719
O O10 0.691817 0.774587 0.061566
O O11 0.313153 0.261319 0.640467
O O12 0.286654 0.000000 0.741477
O O13 0.127457 0.000000 0.360850
#
# Coordination Sequence:
#
# PCOD9196696 Si02
#       5
#     8   8   8   8   8
#     4  11  24  40  59  84 111 141 182 230 278 329
#     4  10  22  39  58  82 112 147 186 225 272 331
#     4   9  19  37  59  82 112 149 186 227 274 324
#     4  10  20  35  57  85 114 146 187 230 272 322
#     4  11  23  38  57  82 113 148 185 226 274 329
#
# _framework density 21.554545000000001
#
# number of rings (size 3 to 8) (size 9 to 14) (size 15 to 20)
#    0.000    1.800    0.000    3.600    0.000   11.200 
#    0.000    0.000    0.000    0.000    0.000    0.000 
#    0.000    0.000    0.000    0.000    0.000    0.000 
#
# Total GULP energy -111861.583621 kJ/mol
# GULP energy per Si atom -5593.079181 kJ/mol
# Density = 2.150549 g / cm^3
# Si number density = 21.554545 Si / 1000 Ang^3
#
#
#
# Elastic Constant Matrix: (Units=GPa)
#
#
# Indices 1 2 3 4 5 6 
#
# 1 85.4312 19.0197 -3.6240 0.0000 -22.7052 0.0000
# 2 19.0197 21.7938 5.3124 0.0000 -11.5029 0.0000
# 3 -3.6240 5.3124 51.5464 0.0000 -18.4681 0.0000
# 4 0.0000 0.0000 0.0000 24.6953 0.0000 -5.6189
# 5 -22.7052 -11.5029 -18.4681 0.0000 37.1457 0.0000
# 6 0.0000 0.0000 0.0000 -5.6189 0.0000 -15.7138
#
#
#
# Elastic Compliance Matrix: (Units=1/GPa)
#
#
# Indices 1 2 3 4 5 6 
#
# 1 0.017063 -0.011089 0.005900 0.000000 0.009929 0.000000
# 2 -0.011089 0.062067 -0.003308 0.000000 0.010798 0.000000
# 3 0.005900 -0.003308 0.025650 0.000000 0.015335 0.000000
# 4 0.000000 0.000000 0.000000 0.037447 0.000000 -0.013390
# 5 0.009929 0.010798 0.015335 0.000000 0.043958 0.000000
# 6 0.000000 0.000000 0.000000 -0.013390 0.000000 -0.058850
#
#
# Mechanical properties :
#
#
# Convention : Reuss Voigt Hill
#
# Bulk Modulus (GPa) = 11.39113 22.24307 16.81710
# Shear Modulus (GPa) = 28.80354 18.42966 23.61660
#
# Velocity S-wave (km/s) = 3.65952 2.92725 3.31368
# Velocity P-wave (km/s) = 4.81169 4.66550 4.73916
#
# Compressibility (1/GPa) = 0.08778763
#
# Stress axis : x y z
#
# Youngs Moduli (GPa) = 58.60561 16.11159 38.98670
#
# Poissons Ratio (x) = 0.17866 -0.23002
# Poissons Ratio (y) = 0.64985 0.12895
# Poissons Ratio (z) = -0.34577 0.05329
#
# Static dielectric constant tensor:
#      x y z
#    x 1.772720 0.000000 -0.017810 
#    y 0.000000 1.716240 0.000000 
#    z -0.017810 0.000000 1.816220 
# 
# From -- ./inp_files/92733.got.cif
#   From: 2010.05.17/outbox.cif.g08.bks.cpg/sg12_47_cif.got.tgz:92733.got - 2010.06.03 13:09:07.
