data_PCOD9196552
_publ_section_title
;
Structure prediction by ZEFSAII (Michael W. Deem and Ramdas Pophale) SiO2 
 PCOD9196552
Probable space group: C 2/M
;
_chemical_formula_sum "Si O2"
_cell_formula_units_Z 56
_cell_length_a 25.396940
_cell_length_b 9.410911
_cell_length_c 12.404669
_cell_angle_alpha 90.000000
_cell_angle_beta 103.162567
_cell_angle_gamma 90.000000
_cell_volume 2886.927291
_symmetry_space_group_name_H-M "C 2/M"
_symmetry_group_IT_number 12
_symmetry_cell_setting 'monoclinic'
loop_
_space_group_symop_operation_xyz
x,y,z
-x,y,-z
-x,-y,-z
x,-y,z
1/2+x,1/2+y,z
1/2-x,1/2+y,-z
1/2-x,1/2-y,-z
1/2+x,1/2-y,z
loop_
_atom_site_type_symbol
_atom_site_label
_atom_site_fract_x
_atom_site_fract_y
_atom_site_fract_z
Si Si1 0.058184 0.669414 0.580563
Si Si2 0.607112 0.333841 0.799064
Si Si3 0.938671 0.834224 0.978359
Si Si4 0.200973 0.659123 0.929830
Si Si5 0.279232 0.332496 0.669683
Si Si6 0.332547 0.167660 0.498957
Si Si7 0.654323 0.157288 0.142288
O O1 0.059839 0.500000 0.606008
O O2 0.069430 0.759806 0.693005
O O3 0.109001 0.698482 0.524654
O O4 0.000000 0.700206 0.500000
O O5 0.616325 0.500000 0.778849
O O6 0.581041 0.326378 0.906548
O O7 0.663588 0.247447 0.831187
O O8 0.936138 0.000000 0.946148
O O9 0.900733 0.745474 0.880999
O O10 0.000000 0.784151 0.000000
O O11 0.215814 0.500000 0.897484
O O12 0.165580 0.641544 0.021180
O O13 0.250000 0.750000 0.000000
O O14 0.289005 0.500000 0.685133
O O15 0.315979 0.265494 0.591641
O O16 0.216666 0.311204 0.608591
O O17 0.297614 0.247262 0.783015
O O18 0.331104 0.000000 0.528199
O O19 0.650858 0.000000 0.189112
#
# Coordination Sequence:
#
# PCOD9196552 Si02
#       7
#     8   8   8   8   8   8   8
#     4  10  22  40  60  83 114 153 196 241 292 348
#     4  10  21  37  57  83 114 148 189 236 284 335
#     4   9  19  37  58  81 112 149 188 231 279 332
#     4  10  21  36  55  82 114 148 185 225 277 337
#     4  10  20  35  57  83 111 146 187 236 290 341
#     4   9  20  38  57  80 109 146 189 236 291 344
#     4  10  21  35  53  81 113 144 183 227 274 335
#
# _framework density 19.397786
#
# number of rings (size 3 to 8) (size 9 to 14) (size 15 to 20)
#    0.000    2.286    0.000    1.714    2.000    5.143 
#    0.000    2.857    0.000    0.000    0.000    0.000 
#    0.000    0.000    0.000    0.000    0.000    0.000 
#
# Total GULP energy -156208.633905 kJ/mol
# GULP energy per Si atom -5578.879782 kJ/mol
# Density = 1.935364 g / cm^3
# Si number density = 19.397786 Si / 1000 Ang^3
#
#
#
# Elastic Constant Matrix: (Units=GPa)
#
#
# Indices 1 2 3 4 5 6 
#
# 1 92.2690 46.9097 18.1956 0.0000 23.8596 0.0000
# 2 46.9097 115.3856 55.4661 0.0000 25.9330 0.0000
# 3 18.1956 55.4661 79.2177 0.0000 22.0978 0.0000
# 4 0.0000 0.0000 0.0000 31.5355 0.0000 7.6548
# 5 23.8596 25.9330 22.0978 0.0000 30.9551 0.0000
# 6 0.0000 0.0000 0.0000 7.6548 0.0000 20.4326
#
#
#
# Elastic Compliance Matrix: (Units=1/GPa)
#
#
# Indices 1 2 3 4 5 6 
#
# 1 0.015550 -0.005657 0.003010 0.000000 -0.009395 0.000000
# 2 -0.005657 0.015921 -0.009170 0.000000 -0.002432 0.000000
# 3 0.003010 -0.009170 0.021048 0.000000 -0.009664 0.000000
# 4 0.000000 0.000000 0.000000 0.034882 0.000000 -0.013068
# 5 -0.009395 -0.002432 -0.009664 0.000000 0.048482 0.000000
# 6 0.000000 0.000000 0.000000 -0.013068 0.000000 0.053837
#
#
# Mechanical properties :
#
#
# Convention : Reuss Voigt Hill
#
# Bulk Modulus (GPa) = 34.61977 58.66835 46.64406
# Shear Modulus (GPa) = 22.42330 27.67137 25.04734
#
# Velocity S-wave (km/s) = 3.40365 3.78103 3.59729
# Velocity P-wave (km/s) = 5.77343 7.02653 6.43057
#
# Compressibility (1/GPa) = 0.02888523
#
# Stress axis : x y z
#
# Youngs Moduli (GPa) = 64.30951 62.81063 47.51018
#
# Poissons Ratio (x) = 0.35533 -0.14301
# Poissons Ratio (y) = 0.36381 0.43565
# Poissons Ratio (z) = -0.19358 0.57595
#
# Static dielectric constant tensor:
#      x y z
#    x 1.682020 0.000000 -0.025950 
#    y 0.000000 1.687670 0.000000 
#    z -0.025950 0.000000 1.681900 
# 
# From -- ./inp_files/181105.got.cif
#   From: 2010.05.17/outbox.cif.g08.bks.cpg/sg12_91_cif.got.tgz:181105.got - 2010.06.03 13:09:07.
