data_PCOD9196795
_publ_section_title
;
Structure prediction by ZEFSAII (Michael W. Deem and Ramdas Pophale) SiO2 
 PCOD9196795
Probable space group: C 2/M
;
_chemical_formula_sum "Si O2"
_cell_formula_units_Z 58
_cell_length_a 20.013102
_cell_length_b 15.108037
_cell_length_c 8.758084
_cell_angle_alpha 90.000000
_cell_angle_beta 101.296257
_cell_angle_gamma 90.000000
_cell_volume 2596.782669
_symmetry_space_group_name_H-M "C 2/M"
_symmetry_group_IT_number 12
_symmetry_cell_setting 'monoclinic'
loop_
_space_group_symop_operation_xyz
x,y,z
-x,y,-z
-x,-y,-z
x,-y,z
1/2+x,1/2+y,z
1/2-x,1/2+y,-z
1/2-x,1/2-y,-z
1/2+x,1/2-y,z
loop_
_atom_site_type_symbol
_atom_site_label
_atom_site_fract_x
_atom_site_fract_y
_atom_site_fract_z
Si Si1 0.206763 0.162663 0.937727
Si Si2 0.243789 0.096328 0.416852
Si Si3 0.000000 0.500000 0.000000
Si Si4 0.956219 0.401392 0.257710
Si Si5 0.151153 0.272532 0.653847
Si Si6 0.314046 0.095165 0.773488
Si Si7 0.611449 0.598942 0.172554
Si Si8 0.920239 0.731321 0.699135
O O1 0.159962 0.193270 0.775164
O O2 0.265879 0.099903 0.898207
O O3 0.250000 0.250000 0.000000
O O4 0.159383 0.124460 0.049610
O O5 0.277181 0.181898 0.355459
O O6 0.264694 0.099725 0.603011
O O7 0.165427 0.095736 0.336804
O O8 0.271291 0.000000 0.373006
O O9 0.959201 0.423911 0.080433
O O10 0.964268 0.500000 0.331518
O O11 0.890437 0.351406 0.285144
O O12 0.018651 0.335067 0.312289
O O13 0.114369 0.249041 0.479759
O O14 0.366005 0.175210 0.774884
O O15 0.351766 0.000000 0.782742
O O16 0.582668 0.500000 0.139424
O O17 0.562711 0.679895 0.199059
#
# Coordination Sequence:
#
# PCOD9196795 Si02
#       8
#     8   8   2   8   8   8   8   8
#     4  12  22  36  57  86 121 163 198 257 307 371
#     4   9  18  34  55  85 119 155 195 246 303 366
#     4   8  24  40  58  96 126 172 186 244 300 374
#     4  10  23  41  63  94 131 163 201 244 309 372
#     4  11  22  37  61  89 122 163 204 251 305 372
#     4  10  20  35  57  86 122 158 200 246 306 372
#     4  11  23  39  59  86 119 160 206 255 314 368
#     4  11  22  39  63  89 121 165 207 255 305 365
#
# _framework density 22.335332000000001
#
# number of rings (size 3 to 8) (size 9 to 14) (size 15 to 20)
#    0.414    1.103    2.759    2.483    1.931    4.414 
#    0.000    0.690    0.000    4.138    0.000    0.000 
#    0.000    0.000    0.000    0.000    0.000    0.000 
#
# Total GULP energy -161685.402857 kJ/mol
# GULP energy per Si atom -5575.358719 kJ/mol
# Density = 2.228450 g / cm^3
# Si number density = 22.335332 Si / 1000 Ang^3
#
#
#
# Elastic Constant Matrix: (Units=GPa)
#
#
# Indices 1 2 3 4 5 6 
#
# 1 31.5124 22.3839 -3.9196 0.0000 -5.7370 0.0000
# 2 22.3839 137.1874 22.6393 0.0000 -11.4520 0.0000
# 3 -3.9196 22.6393 50.5629 0.0000 -4.2061 0.0000
# 4 0.0000 0.0000 0.0000 29.5163 0.0000 -11.8498
# 5 -5.7370 -11.4520 -4.2061 0.0000 25.9948 0.0000
# 6 0.0000 0.0000 0.0000 -11.8498 0.0000 32.3863
#
#
#
# Elastic Compliance Matrix: (Units=1/GPa)
#
#
# Indices 1 2 3 4 5 6 
#
# 1 0.038611 -0.006841 0.006603 0.000000 0.006576 0.000000
# 2 -0.006841 0.009310 -0.004545 0.000000 0.001857 0.000000
# 3 0.006603 -0.004545 0.022583 0.000000 0.003109 0.000000
# 4 0.000000 0.000000 0.000000 0.039713 0.000000 0.014531
# 5 0.006576 0.001857 0.003109 0.000000 0.041242 0.000000
# 6 0.000000 0.000000 0.000000 0.014531 0.000000 0.036194
#
#
# Mechanical properties :
#
#
# Convention : Reuss Voigt Hill
#
# Bulk Modulus (GPa) = 16.40961 33.49665 24.95313
# Shear Modulus (GPa) = 22.98531 29.45675 26.22103
#
# Velocity S-wave (km/s) = 3.21144 3.63552 3.43004
# Velocity P-wave (km/s) = 4.59500 5.71423 5.18490
#
# Compressibility (1/GPa) = 0.06093988
#
# Stress axis : x y z
#
# Youngs Moduli (GPa) = 25.89927 107.40713 44.28184
#
# Poissons Ratio (x) = 0.73473 -0.29239
# Poissons Ratio (y) = 0.17717 0.20124
# Poissons Ratio (z) = -0.17101 0.48811
#
# Static dielectric constant tensor:
#      x y z
#    x 1.810980 0.000000 0.038100 
#    y 0.000000 1.875210 0.000000 
#    z 0.038100 0.000000 1.862150 
# 
# From -- ./inp_files/96426.got.cif
#   From: 2010.05.17/outbox.cif.g08.bks.cpg/sg12_49_cif.got.tgz:96426.got - 2010.06.03 13:09:07.
