data_PCOD9196428
_publ_section_title
;
Structure prediction by ZEFSAII (Michael W. Deem and Ramdas Pophale) SiO2 
 PCOD9196428
Probable space group: C 2/M
;
_chemical_formula_sum "Si O2"
_cell_formula_units_Z 64
_cell_length_a 11.743795
_cell_length_b 27.563198
_cell_length_c 10.286039
_cell_angle_alpha 90.000000
_cell_angle_beta 119.452622
_cell_angle_gamma 90.000000
_cell_volume 2899.252182
_symmetry_space_group_name_H-M "C 2/M"
_symmetry_group_IT_number 12
_symmetry_cell_setting 'monoclinic'
loop_
_space_group_symop_operation_xyz
x,y,z
-x,y,-z
-x,-y,-z
x,-y,z
1/2+x,1/2+y,z
1/2-x,1/2+y,-z
1/2-x,1/2-y,-z
1/2+x,1/2-y,z
loop_
_atom_site_type_symbol
_atom_site_label
_atom_site_fract_x
_atom_site_fract_y
_atom_site_fract_z
Si Si1 0.803528 0.772486 0.692603
Si Si2 0.581065 0.944758 0.725231
Si Si3 0.687125 0.623061 0.193574
Si Si4 0.137867 0.176649 0.647604
Si Si5 0.368572 0.886781 0.702145
Si Si6 0.065667 0.294743 0.395148
Si Si7 0.320543 0.946415 0.920380
Si Si8 0.921674 0.893118 0.156485
O O1 0.811833 0.818757 0.788885
O O2 0.724424 0.725987 0.705166
O O3 0.935915 0.751414 0.702119
O O4 0.716407 0.793838 0.526427
O O5 0.676743 0.905453 0.711964
O O6 0.429514 0.928199 0.644490
O O7 0.597779 0.000000 0.688818
O O8 0.626200 0.943575 0.902965
O O9 0.576539 0.602071 0.227873
O O10 0.636088 0.614326 0.019557
O O11 0.222603 0.135265 0.618965
O O12 0.110093 0.152664 0.770939
O O13 0.000000 0.185675 0.500000
O O14 0.457842 0.841101 0.707875
O O15 0.376595 0.906599 0.853360
O O16 0.000000 0.295363 0.500000
O O17 0.164472 0.937277 0.837158
O O18 0.349911 0.000000 0.885384
#
# Coordination Sequence:
#
# PCOD9196428 Si02
#       8
#     8   8   8   8   8   8   8   8
#     4  10  22  35  60  86 111 156 212 246 295 357
#     4  10  20  36  62  91 122 159 200 246 304 375
#     4  10  21  38  58  92 126 160 195 252 313 355
#     4  10  22  39  62  89 117 159 211 252 292 358
#     4  10  20  35  56  90 117 148 193 254 304 346
#     4  10  21  35  53  84 115 153 207 246 285 360
#     4   9  18  36  63  90 115 155 205 253 300 360
#     4   9  21  37  60  89 127 157 199 251 308 356
#
# _framework density 22.074657999999999
#
# number of rings (size 3 to 8) (size 9 to 14) (size 15 to 20)
#    0.000    2.250    0.000    1.875    7.000    2.000 
#    0.000    2.500   16.500   16.125    0.000    0.000 
#    0.000    0.000    0.000    0.000    0.000    0.000 
#
# Total GULP energy -178247.103000 kJ/mol
# GULP energy per Si atom -5570.221969 kJ/mol
# Density = 2.202441 g / cm^3
# Si number density = 22.074658 Si / 1000 Ang^3
#
#
#
# Elastic Constant Matrix: (Units=GPa)
#
#
# Indices 1 2 3 4 5 6 
#
# 1 153.7473 62.7225 19.2882 0.0000 -12.0715 0.0000
# 2 62.7225 126.9855 22.1461 0.0000 -12.9016 0.0000
# 3 19.2882 22.1461 32.9903 0.0000 -11.8890 0.0000
# 4 0.0000 0.0000 0.0000 -26.6791 0.0000 9.5757
# 5 -12.0715 -12.9016 -11.8890 0.0000 27.5452 0.0000
# 6 0.0000 0.0000 0.0000 9.5757 0.0000 27.6166
#
#
#
# Elastic Compliance Matrix: (Units=1/GPa)
#
#
# Indices 1 2 3 4 5 6 
#
# 1 0.008333 -0.003653 -0.002037 0.000000 0.001062 0.000000
# 2 -0.003653 0.010604 -0.004464 0.000000 0.001439 0.000000
# 3 -0.002037 -0.004464 0.039581 0.000000 0.014100 0.000000
# 4 0.000000 0.000000 0.000000 -0.033334 0.000000 0.011558
# 5 0.001062 0.001439 0.014100 0.000000 0.043529 0.000000
# 6 0.000000 0.000000 0.000000 0.011558 0.000000 0.032202
#
#
# Mechanical properties :
#
#
# Convention : Reuss Voigt Hill
#
# Bulk Modulus (GPa) = 26.17125 58.00408 42.08766
# Shear Modulus (GPa) = 37.32411 19.66761 28.49586
#
# Velocity S-wave (km/s) = 4.11641 2.98813 3.59679
# Velocity P-wave (km/s) = 5.87151 6.18374 6.02965
#
# Compressibility (1/GPa) = 0.03820986
#
# Stress axis : x y z
#
# Youngs Moduli (GPa) = 119.99908 94.30439 25.26449
#
# Poissons Ratio (x) = 0.34449 0.05147
# Poissons Ratio (y) = 0.43835 0.11278
# Poissons Ratio (z) = 0.24449 0.42097
#
# Static dielectric constant tensor:
#      x y z
#    x 1.968590 0.000000 -0.031660 
#    y 0.000000 1.853530 0.000000 
#    z -0.031660 0.000000 1.821950 
# 
# From -- ./inp_files/136004.got.cif
#   From: 2010.05.17/outbox.cif.g08.bks.cpg/sg12_69_cif.got.tgz:136004.got - 2010.06.03 13:09:07.
