data_PCOD9196093
_publ_section_title
;
Structure prediction by ZEFSAII (Michael W. Deem and Ramdas Pophale) SiO2 
 PCOD9196093
Probable space group: C 2/M
;
_chemical_formula_sum "Si O2"
_cell_formula_units_Z 56
_cell_length_a 24.749068
_cell_length_b 7.557843
_cell_length_c 15.990497
_cell_angle_alpha 90.000000
_cell_angle_beta 58.506425
_cell_angle_gamma 90.000000
_cell_volume 2550.435260
_symmetry_space_group_name_H-M "C 2/M"
_symmetry_group_IT_number 12
_symmetry_cell_setting 'monoclinic'
loop_
_space_group_symop_operation_xyz
x,y,z
-x,y,-z
-x,-y,-z
x,-y,z
1/2+x,1/2+y,z
1/2-x,1/2+y,-z
1/2-x,1/2-y,-z
1/2+x,1/2-y,z
loop_
_atom_site_type_symbol
_atom_site_label
_atom_site_fract_x
_atom_site_fract_y
_atom_site_fract_z
Si Si1 0.163602 0.784924 0.511355
Si Si2 0.794720 0.788408 0.884804
Si Si3 0.551021 0.211377 0.025913
Si Si4 0.699515 0.704439 0.664123
Si Si5 0.685650 0.795934 0.861740
Si Si6 0.474738 0.283647 0.430587
Si Si7 0.061948 0.213533 0.206204
O O1 0.225359 0.719319 0.413056
O O2 0.168490 0.725013 0.603948
O O3 0.097659 0.730057 0.525060
O O4 0.167206 0.000000 0.508718
O O5 0.752300 0.720708 0.841384
O O6 0.865786 0.718886 0.840725
O O7 0.802980 0.000000 0.869475
O O8 0.750000 0.750000 0.000000
O O9 0.536033 0.240371 0.135273
O O10 0.554255 0.000000 0.009724
O O11 0.500000 0.280343 0.000000
O O12 0.621691 0.285213 0.951394
O O13 0.681328 0.500000 0.686963
O O14 0.682083 0.792396 0.765027
O O15 0.686326 0.000000 0.889400
O O16 0.500000 0.225530 0.500000
O O17 0.475621 0.500000 0.429649
O O18 0.518142 0.225232 0.318012
O O19 0.063022 0.000000 0.208786
#
# Coordination Sequence:
#
# PCOD9196093 Si02
#       7
#     8   8   8   8   8   8   8
#     4   9  19  37  58  79 108 144 181 224 278 331
#     4  10  20  35  56  81 109 141 183 226 272 327
#     4  10  22  39  57  81 114 154 191 221 272 341
#     4  10  21  35  55  84 111 139 181 229 275 324
#     4  10  21  36  56  81 110 146 185 223 272 331
#     4   9  19  35  58  83 108 142 185 228 272 329
#     4  10  21  36  58  87 111 142 188 236 280 322
#
# _framework density 21.957035999999999
#
# number of rings (size 3 to 8) (size 9 to 14) (size 15 to 20)
#    0.000    2.286    1.429    0.429    4.000    2.000 
#    0.000    0.714    0.000    0.857    0.000    0.000 
#    0.000    0.000    0.000    0.000    0.000    0.000 
#
# Total GULP energy -156367.426890 kJ/mol
# GULP energy per Si atom -5584.550960 kJ/mol
# Density = 2.190706 g / cm^3
# Si number density = 21.957036 Si / 1000 Ang^3
#
#
#
# Elastic Constant Matrix: (Units=GPa)
#
#
# Indices 1 2 3 4 5 6 
#
# 1 158.6930 2.7828 53.4714 -0.0012 14.7742 -0.0024
# 2 2.7828 49.7382 -15.1747 -0.0021 -0.5226 -0.0048
# 3 53.4714 -15.1747 98.2650 0.0001 29.0523 0.0003
# 4 -0.0012 -0.0021 0.0001 36.8130 0.0000 28.0286
# 5 14.7742 -0.5226 29.0523 0.0000 20.0920 0.0000
# 6 -0.0024 -0.0048 0.0003 28.0286 0.0000 54.9300
#
#
#
# Elastic Compliance Matrix: (Units=1/GPa)
#
#
# Indices 1 2 3 4 5 6 
#
# 1 0.007894 -0.001955 -0.005006 0.000000 0.001384 0.000000
# 2 -0.001955 0.022209 0.006808 0.000000 -0.007829 0.000002
# 3 -0.005006 0.006808 0.022378 0.000000 -0.028499 0.000000
# 4 0.000000 0.000000 0.000000 0.044422 0.000000 -0.022667
# 5 0.001384 -0.007829 -0.028499 0.000000 0.089759 -0.000001
# 6 0.000000 0.000002 0.000000 -0.022667 -0.000001 0.029771
#
#
# Mechanical properties :
#
#
# Convention : Reuss Voigt Hill
#
# Bulk Modulus (GPa) = 19.16604 43.20613 31.18609
# Shear Modulus (GPa) = 21.35555 40.07479 30.71517
#
# Velocity S-wave (km/s) = 3.12205 4.27681 3.74421
# Velocity P-wave (km/s) = 4.66305 6.64142 5.73814
#
# Compressibility (1/GPa) = 0.05217561
#
# Stress axis : x y z
#
# Youngs Moduli (GPa) = 126.68137 45.02591 44.68666
#
# Poissons Ratio (x) = 0.08800 0.22372
# Poissons Ratio (y) = 0.24760 -0.30423
# Poissons Ratio (z) = 0.63421 -0.30654
#
# Static dielectric constant tensor:
#      x y z
#    x 1.818260 0.000000 0.003860 
#    y 0.000000 1.904280 0.000000 
#    z 0.003860 0.000000 1.739940 
# 
# From -- ./inp_files/238340.got.cif
#   From: 2010.05.17/outbox.cif.g08.bks.cpg/sg12_120_cif.got.tgz:238340.got - 2010.06.03 13:09:07.
