data_PCOD9196542
_publ_section_title
;
Structure prediction by ZEFSAII (Michael W. Deem and Ramdas Pophale) SiO2 
 PCOD9196542
Probable space group: C 2/M
;
_chemical_formula_sum "Si O2"
_cell_formula_units_Z 56
_cell_length_a 18.793084
_cell_length_b 8.849360
_cell_length_c 18.904752
_cell_angle_alpha 90.000000
_cell_angle_beta 104.148088
_cell_angle_gamma 90.000000
_cell_volume 3048.622228
_symmetry_space_group_name_H-M "C 2/M"
_symmetry_group_IT_number 12
_symmetry_cell_setting 'monoclinic'
loop_
_space_group_symop_operation_xyz
x,y,z
-x,y,-z
-x,-y,-z
x,-y,z
1/2+x,1/2+y,z
1/2-x,1/2+y,-z
1/2-x,1/2-y,-z
1/2+x,1/2-y,z
loop_
_atom_site_type_symbol
_atom_site_label
_atom_site_fract_x
_atom_site_fract_y
_atom_site_fract_z
Si Si1 0.383075 0.820547 0.368416
Si Si2 0.275614 0.817779 0.932106
Si Si3 0.051205 0.680017 0.366286
Si Si4 0.060422 0.317673 0.073312
Si Si5 0.328687 0.680107 0.500916
Si Si6 0.011371 0.180133 0.209469
Si Si7 0.844936 0.818985 0.212402
O O1 0.469980 0.790662 0.378467
O O2 0.353590 0.735536 0.429651
O O3 0.344204 0.763762 0.287428
O O4 0.373368 0.000000 0.374739
O O5 0.358587 0.773440 0.933134
O O6 0.219699 0.772732 0.856150
O O7 0.273196 0.000000 0.936588
O O8 0.250000 0.750000 0.000000
O O9 0.062869 0.500000 0.368968
O O10 0.111919 0.759715 0.428523
O O11 0.049658 0.742730 0.286209
O O12 0.058884 0.500000 0.080663
O O13 0.041001 0.244039 0.143310
O O14 0.000000 0.275504 0.000000
O O15 0.325094 0.500000 0.502276
O O16 0.250000 0.750000 0.500000
O O17 0.924202 0.212546 0.196300
O O18 0.021053 0.000000 0.215420
O O19 0.840447 0.000000 0.222932
#
# Coordination Sequence:
#
# PCOD9196542 Si02
#       7
#     8   8   8   8   8   8   8
#     4  10  21  38  61  87 114 148 190 233 281 340
#     4  10  21  36  55  79 108 143 183 228 277 331
#     4  10  21  39  62  86 115 150 188 232 282 339
#     4  10  21  36  54  78 110 147 185 229 285 343
#     4  12  25  40  59  84 117 153 190 235 284 334
#     4  10  20  35  57  83 110 143 185 231 278 332
#     4   9  19  36  56  80 110 144 184 230 279 331
#
# _framework density 18.368953000000001
#
# number of rings (size 3 to 8) (size 9 to 14) (size 15 to 20)
#    0.000    1.857    0.000    3.857    0.000    6.571 
#    0.000    4.286    0.000    0.000    0.000    0.000 
#    0.000    0.000    0.000    0.000    0.000    0.000 
#
# Total GULP energy -156492.187242 kJ/mol
# GULP energy per Si atom -5589.006687 kJ/mol
# Density = 1.832714 g / cm^3
# Si number density = 18.368953 Si / 1000 Ang^3
#
#
#
# Elastic Constant Matrix: (Units=GPa)
#
#
# Indices 1 2 3 4 5 6 
#
# 1 128.5420 77.5482 128.1348 0.0000 -1.6378 0.0000
# 2 77.5482 82.1378 89.2972 0.0000 -3.5422 0.0000
# 3 128.1348 89.2972 198.1414 0.0000 0.8913 0.0000
# 4 0.0000 0.0000 0.0000 39.7200 0.0000 -7.1587
# 5 -1.6378 -3.5422 0.8913 0.0000 38.1288 0.0000
# 6 0.0000 0.0000 0.0000 -7.1587 0.0000 24.0648
#
#
#
# Elastic Compliance Matrix: (Units=1/GPa)
#
#
# Indices 1 2 3 4 5 6 
#
# 1 0.027535 -0.012991 -0.011953 0.000000 0.000255 0.000000
# 2 -0.012991 0.030233 -0.005235 0.000000 0.002373 0.000000
# 3 -0.011953 -0.005235 0.015142 0.000000 -0.001354 0.000000
# 4 0.000000 0.000000 0.000000 0.026602 0.000000 0.007914
# 5 0.000255 0.002373 -0.001354 0.000000 0.026490 0.000000
# 6 0.000000 0.000000 0.000000 0.007914 0.000000 0.043909
#
#
# Mechanical properties :
#
#
# Convention : Reuss Voigt Hill
#
# Bulk Modulus (GPa) = 79.66360 110.97574 95.31967
# Shear Modulus (GPa) = 21.32611 27.97214 24.64913
#
# Velocity S-wave (km/s) = 3.41102 3.90653 3.66716
# Velocity P-wave (km/s) = 7.67960 8.99411 8.36272
#
# Compressibility (1/GPa) = 0.01255278
#
# Stress axis : x y z
#
# Youngs Moduli (GPa) = 36.31696 33.07613 66.03996
#
# Poissons Ratio (x) = 0.42968 0.78939
# Poissons Ratio (y) = 0.47178 0.34573
# Poissons Ratio (z) = 0.43411 0.17316
#
# Static dielectric constant tensor:
#      x y z
#    x 1.613360 0.000000 0.012330 
#    y 0.000000 1.612870 0.000000 
#    z 0.012330 0.000000 1.593710 
# 
# From -- ./inp_files/275602.got.cif
#   From: 2010.05.17/outbox.cif.g08.bks.cpg/sg12_138_cif.got.tgz:275602.got - 2010.06.03 13:09:07.
