data_PCOD9196603
_publ_section_title
;
Structure prediction by ZEFSAII (Michael W. Deem and Ramdas Pophale) SiO2 
 PCOD9196603
Probable space group: C 2/M
;
_chemical_formula_sum "Si O2"
_cell_formula_units_Z 40
_cell_length_a 17.592904
_cell_length_b 14.118432
_cell_length_c 11.662818
_cell_angle_alpha 90.000000
_cell_angle_beta 37.239994
_cell_angle_gamma 90.000000
_cell_volume 1753.049180
_symmetry_space_group_name_H-M "C 2/M"
_symmetry_group_IT_number 12
_symmetry_cell_setting 'monoclinic'
loop_
_space_group_symop_operation_xyz
x,y,z
-x,y,-z
-x,-y,-z
x,-y,z
1/2+x,1/2+y,z
1/2-x,1/2+y,-z
1/2-x,1/2-y,-z
1/2+x,1/2-y,z
loop_
_atom_site_type_symbol
_atom_site_label
_atom_site_fract_x
_atom_site_fract_y
_atom_site_fract_z
Si Si1 0.400142 0.891975 0.016708
Si Si2 0.421975 0.771348 0.311261
Si Si3 0.205596 0.104891 0.637176
Si Si4 0.149562 0.602459 0.295493
Si Si5 0.634158 0.692696 0.368357
O O1 0.257065 0.870903 0.219551
O O2 0.414982 0.000000 0.962604
O O3 0.500000 0.875414 0.000000
O O4 0.445889 0.820671 0.863684
O O5 0.318805 0.855108 0.422323
O O6 0.398777 0.685695 0.251122
O O7 0.391495 0.731129 0.472713
O O8 0.264476 0.098615 0.692984
O O9 0.164265 0.000000 0.652201
O O10 0.178260 0.500000 0.199915
O O11 0.161362 0.714922 0.254557
O O12 0.000000 0.597045 0.500000
O O13 0.500000 0.646815 0.500000
#
# Coordination Sequence:
#
# PCOD9196603 Si02
#       5
#     8   8   8   8   8
#     4  11  23  39  62  91 120 156 203 249 300 366
#     4  10  20  35  57  83 118 160 201 246 300 360
#     4   9  16  29  52  80 112 152 194 240 295 349
#     4   8  14  27  49  76 106 143 187 232 281 341
#     4  10  22  39  60  86 120 158 200 251 304 356
#
# _framework density 22.817385999999999
#
# number of rings (size 3 to 8) (size 9 to 14) (size 15 to 20)
#    0.000    2.400    0.000    4.200    0.000    4.400 
#    0.000    1.000    0.000    7.200    0.000    0.000 
#    0.000    0.000    0.000    0.000    0.000    0.000 
#
# Total GULP energy -111403.550926 kJ/mol
# GULP energy per Si atom -5570.177546 kJ/mol
# Density = 2.276545 g / cm^3
# Si number density = 22.817386 Si / 1000 Ang^3
#
#
#
# Elastic Constant Matrix: (Units=GPa)
#
#
# Indices 1 2 3 4 5 6 
#
# 1 78.2888 28.7725 35.1503 0.0000 -13.7154 0.0000
# 2 28.7725 113.5289 36.1476 0.0000 -19.3412 0.0000
# 3 35.1503 36.1476 97.0267 0.0000 -19.4086 0.0000
# 4 0.0000 0.0000 0.0000 31.8960 0.0000 -9.5861
# 5 -13.7154 -19.3412 -19.4086 0.0000 27.8377 0.0000
# 6 0.0000 0.0000 0.0000 -9.5861 0.0000 12.4315
#
#
#
# Elastic Compliance Matrix: (Units=1/GPa)
#
#
# Indices 1 2 3 4 5 6 
#
# 1 0.016108 -0.002109 -0.004364 0.000000 0.003429 0.000000
# 2 -0.002109 0.010921 -0.002318 0.000000 0.004933 0.000000
# 3 -0.004364 -0.002318 0.013943 0.000000 0.005961 0.000000
# 4 0.000000 0.000000 0.000000 0.040810 0.000000 0.031469
# 5 0.003429 0.004933 0.005961 0.000000 0.045195 0.000000
# 6 0.000000 0.000000 0.000000 0.031469 0.000000 0.104708
#
#
# Mechanical properties :
#
#
# Convention : Reuss Voigt Hill
#
# Bulk Modulus (GPa) = 42.75173 54.33169 48.54171
# Shear Modulus (GPa) = 19.45042 27.01797 23.23420
#
# Velocity S-wave (km/s) = 2.92282 3.44480 3.19449
# Velocity P-wave (km/s) = 5.49251 6.29964 5.90987
#
# Compressibility (1/GPa) = 0.02339087
#
# Stress axis : x y z
#
# Youngs Moduli (GPa) = 62.07977 91.56499 71.71847
#
# Poissons Ratio (x) = 0.19309 0.31299
# Poissons Ratio (y) = 0.13091 0.16625
# Poissons Ratio (z) = 0.27093 0.21225
#
# Static dielectric constant tensor:
#      x y z
#    x 1.942860 0.000000 0.035450 
#    y 0.000000 1.899990 0.000000 
#    z 0.035450 0.000000 1.874660 
# 
# From -- ./inp_files/233299.got.cif
#   From: 2010.05.17/outbox.cif.g08.bks.cpg/sg12_117_cif.got.tgz:233299.got - 2010.06.03 13:09:07.
