data_PCOD9196426
_publ_section_title
;
Structure prediction by ZEFSAII (Michael W. Deem and Ramdas Pophale) SiO2 
 PCOD9196426
Probable space group: C 2/M
;
_chemical_formula_sum "Si O2"
_cell_formula_units_Z 64
_cell_length_a 21.948045
_cell_length_b 17.762238
_cell_length_c 10.529906
_cell_angle_alpha 90.000000
_cell_angle_beta 49.567959
_cell_angle_gamma 90.000000
_cell_volume 3124.661403
_symmetry_space_group_name_H-M "C 2/M"
_symmetry_group_IT_number 12
_symmetry_cell_setting 'monoclinic'
loop_
_space_group_symop_operation_xyz
x,y,z
-x,y,-z
-x,-y,-z
x,-y,z
1/2+x,1/2+y,z
1/2-x,1/2+y,-z
1/2-x,1/2-y,-z
1/2+x,1/2-y,z
loop_
_atom_site_type_symbol
_atom_site_label
_atom_site_fract_x
_atom_site_fract_y
_atom_site_fract_z
Si Si1 0.731887 0.170725 0.093374
Si Si2 0.927290 0.194470 0.459009
Si Si3 0.630559 0.301654 0.909919
Si Si4 0.455542 0.910778 0.196509
Si Si5 0.661341 0.217979 0.615785
Si Si6 0.357660 0.415999 0.764042
Si Si7 0.983660 0.084112 0.826509
Si Si8 0.564433 0.806474 0.220685
O O1 0.781284 0.172690 0.159059
O O2 0.635906 0.164481 0.214513
O O3 0.750000 0.250000 0.000000
O O4 0.776462 0.109554 0.943801
O O5 0.868530 0.255749 0.480685
O O6 0.887918 0.146067 0.623610
O O7 0.944638 0.134078 0.323610
O O8 0.008621 0.243229 0.360821
O O9 0.622859 0.262996 0.785518
O O10 0.570553 0.371715 0.000172
O O11 0.602721 0.240068 0.051558
O O12 0.370457 0.866623 0.317692
O O13 0.511022 0.871621 0.229294
O O14 0.446960 0.000000 0.226895
O O15 0.500000 0.899038 0.000000
O O16 0.750000 0.250000 0.500000
O O17 0.350735 0.500000 0.717311
O O18 0.424994 0.419454 0.782157
O O19 0.005854 0.000000 0.833075
#
# Coordination Sequence:
#
# PCOD9196426 Si02
#       8
#     8   8   8   8   8   8   8   8
#     4   9  19  33  58  84 116 152 199 244 286 359
#     4  10  21  33  55  84 116 156 191 235 295 354
#     4   9  18  36  56  78 114 156 201 238 288 355
#     4  10  20  37  64  89 116 154 198 253 306 351
#     4  11  24  40  58  82 120 160 195 246 297 353
#     4  10  20  35  56  89 126 150 182 243 306 347
#     4   9  18  34  56  83 115 152 188 236 294 349
#     4   9  18  34  56  86 116 148 198 246 291 356
#
# _framework density 20.482219000000001
#
# number of rings (size 3 to 8) (size 9 to 14) (size 15 to 20)
#    0.000    2.375    1.250    1.500    3.500    1.500 
#    0.000    5.000    0.000    0.000    0.000    0.875 
#    0.000    4.000    0.000    0.000    0.000    0.000 
#
# Total GULP energy -178413.031623 kJ/mol
# GULP energy per Si atom -5575.407238 kJ/mol
# Density = 2.043560 g / cm^3
# Si number density = 20.482219 Si / 1000 Ang^3
#
#
#
# Elastic Constant Matrix: (Units=GPa)
#
#
# Indices 1 2 3 4 5 6 
#
# 1 77.5127 35.9978 20.4745 0.0000 -11.7294 0.0000
# 2 35.9978 146.5837 46.7141 0.0000 -4.8086 0.0000
# 3 20.4745 46.7141 60.7458 0.0000 -0.8944 0.0000
# 4 0.0000 0.0000 0.0000 21.2784 0.0000 3.3658
# 5 -11.7294 -4.8086 -0.8944 0.0000 32.1048 0.0000
# 6 0.0000 0.0000 0.0000 3.3658 0.0000 23.0058
#
#
#
# Elastic Compliance Matrix: (Units=1/GPa)
#
#
# Indices 1 2 3 4 5 6 
#
# 1 0.015788 -0.002693 -0.003173 0.000000 0.005276 0.000000
# 2 -0.002693 0.009539 -0.006424 0.000000 0.000266 0.000000
# 3 -0.003173 -0.006424 0.022450 0.000000 -0.001496 0.000000
# 4 0.000000 0.000000 0.000000 0.048109 0.000000 -0.007039
# 5 0.005276 0.000266 -0.001496 0.000000 0.033074 0.000000
# 6 0.000000 0.000000 0.000000 -0.007039 0.000000 0.044497
#
#
# Mechanical properties :
#
#
# Convention : Reuss Voigt Hill
#
# Bulk Modulus (GPa) = 43.10868 54.57945 48.84407
# Shear Modulus (GPa) = 24.29892 27.38820 25.84356
#
# Velocity S-wave (km/s) = 3.44807 3.66070 3.55597
# Velocity P-wave (km/s) = 6.07822 6.67628 6.38426
#
# Compressibility (1/GPa) = 0.02319718
#
# Stress axis : x y z
#
# Youngs Moduli (GPa) = 63.33800 104.82773 44.54390
#
# Poissons Ratio (x) = 0.28231 0.14133
# Poissons Ratio (y) = 0.17057 0.28616
# Poissons Ratio (z) = 0.20096 0.67345
#
# Static dielectric constant tensor:
#      x y z
#    x 1.802580 0.000000 -0.013930 
#    y 0.000000 1.742010 0.000000 
#    z -0.013930 0.000000 1.821810 
# 
# From -- ./inp_files/177131.got.cif
#   From: 2010.05.17/outbox.cif.g08.bks.cpg/sg12_89_cif.got.tgz:177131.got - 2010.06.03 13:09:07.
