data_PCOD9196064
_publ_section_title
;
Structure prediction by ZEFSAII (Michael W. Deem and Ramdas Pophale) SiO2 
 PCOD9196064
Probable space group: C 2/M
;
_chemical_formula_sum "Si O2"
_cell_formula_units_Z 56
_cell_length_a 19.060507
_cell_length_b 10.570341
_cell_length_c 19.371212
_cell_angle_alpha 90.000000
_cell_angle_beta 45.396987
_cell_angle_gamma 90.000000
_cell_volume 2778.776378
_symmetry_space_group_name_H-M "C 2/M"
_symmetry_group_IT_number 12
_symmetry_cell_setting 'monoclinic'
loop_
_space_group_symop_operation_xyz
x,y,z
-x,y,-z
-x,-y,-z
x,-y,z
1/2+x,1/2+y,z
1/2-x,1/2+y,-z
1/2-x,1/2-y,-z
1/2+x,1/2-y,z
loop_
_atom_site_type_symbol
_atom_site_label
_atom_site_fract_x
_atom_site_fract_y
_atom_site_fract_z
Si Si1 0.681145 0.351729 0.509836
Si Si2 0.568000 0.861788 0.802576
Si Si3 0.920943 0.771557 0.997723
Si Si4 0.390466 0.653323 0.590647
Si Si5 0.324227 0.362841 0.934350
Si Si6 0.481264 0.354648 0.269378
Si Si7 0.737703 0.854154 0.799348
O O1 0.712599 0.500000 0.495884
O O2 0.750000 0.250000 0.500000
O O3 0.671816 0.322263 0.435547
O O4 0.572791 0.343274 0.620082
O O5 0.564540 0.749600 0.749905
O O6 0.663196 0.857175 0.785300
O O7 0.561922 0.000000 0.773596
O O8 0.477250 0.841131 0.918404
O O9 0.821750 0.724485 0.103101
O O10 0.892249 0.864239 0.956015
O O11 0.000000 0.818042 0.000000
O O12 0.500000 0.700363 0.500000
O O13 0.394902 0.500000 0.594458
O O14 0.337448 0.698903 0.696809
O O15 0.276519 0.500000 0.959014
O O16 0.400661 0.338588 0.818953
O O17 0.250000 0.250000 0.000000
O O18 0.462462 0.500000 0.259423
O O19 0.750759 0.000000 0.812831
#
# Coordination Sequence:
#
# PCOD9196064 Si02
#       7
#     8   8   8   8   8   8   8
#     4  10  20  35  56  81 106 135 175 221 267 314
#     4   9  16  28  49  78 106 131 167 214 260 309
#     4   9  18  32  52  78 105 133 170 214 262 312
#     4   9  18  31  48  72 101 134 174 215 253 302
#     4  10  22  38  55  79 111 145 179 216 261 314
#     4   9  19  34  51  74 106 141 174 212 264 318
#     4   9  16  27  46  73 103 133 167 212 262 305
#
# _framework density 20.152754999999999
#
# number of rings (size 3 to 8) (size 9 to 14) (size 15 to 20)
#    0.000    2.714    0.000    1.286    0.000    7.714 
#    0.000    5.000    0.000    1.286    0.000    0.000 
#    0.000    0.000    0.000    0.000    0.000    0.000 
#
# Total GULP energy -156126.512914 kJ/mol
# GULP energy per Si atom -5575.946890 kJ/mol
# Density = 2.010689 g / cm^3
# Si number density = 20.152755 Si / 1000 Ang^3
#
#
#
# Elastic Constant Matrix: (Units=GPa)
#
#
# Indices 1 2 3 4 5 6 
#
# 1 47.0349 22.3797 21.3048 0.0000 5.2915 0.0000
# 2 22.3797 77.0630 25.8225 0.0000 -3.5562 0.0000
# 3 21.3048 25.8225 159.5052 0.0000 0.7095 0.0000
# 4 0.0000 0.0000 0.0000 16.5173 0.0000 -5.6202
# 5 5.2915 -3.5562 0.7095 0.0000 29.9427 0.0000
# 6 0.0000 0.0000 0.0000 -5.6202 0.0000 19.4993
#
#
#
# Elastic Compliance Matrix: (Units=1/GPa)
#
#
# Indices 1 2 3 4 5 6 
#
# 1 0.026315 -0.007109 -0.002340 0.000000 -0.005439 0.000000
# 2 -0.007109 0.015727 -0.001611 0.000000 0.003162 0.000000
# 3 -0.002340 -0.001611 0.006842 0.000000 0.000060 0.000000
# 4 0.000000 0.000000 0.000000 0.067126 0.000000 0.019347
# 5 -0.005439 0.003162 0.000060 0.000000 0.034733 0.000000
# 6 0.000000 0.000000 0.000000 0.019347 0.000000 0.056860
#
#
# Mechanical properties :
#
#
# Convention : Reuss Voigt Hill
#
# Bulk Modulus (GPa) = 37.36186 46.95747 42.15967
# Shear Modulus (GPa) = 20.95177 27.46491 24.20834
#
# Velocity S-wave (km/s) = 3.22785 3.69567 3.46965
# Velocity P-wave (km/s) = 5.69839 6.44686 6.08414
#
# Compressibility (1/GPa) = 0.02676526
#
# Stress axis : x y z
#
# Youngs Moduli (GPa) = 38.00088 63.58680 146.14834
#
# Poissons Ratio (x) = 0.45205 0.34195
# Poissons Ratio (y) = 0.27015 0.23537
# Poissons Ratio (z) = 0.08891 0.10241
#
# Static dielectric constant tensor:
#      x y z
#    x 1.755690 0.000000 -0.030510 
#    y 0.000000 1.673520 0.000000 
#    z -0.030510 0.000000 1.763930 
# 
# From -- ./inp_files/320915.got.cif
#   From: 2010.05.17/outbox.cif.g08.bks.cpg/sg12_161_cif.got.tgz:320915.got - 2010.06.03 13:09:07.
