data_PCOD9196745
_publ_section_title
;
Structure prediction by ZEFSAII (Michael W. Deem and Ramdas Pophale) SiO2 
 PCOD9196745
Probable space group: C 2/M
;
_chemical_formula_sum "Si O2"
_cell_formula_units_Z 58
_cell_length_a 24.970933
_cell_length_b 7.230866
_cell_length_c 12.180608
_cell_angle_alpha 90.000000
_cell_angle_beta 107.808685
_cell_angle_gamma 90.000000
_cell_volume 2093.962406
_symmetry_space_group_name_H-M "C 2/M"
_symmetry_group_IT_number 12
_symmetry_cell_setting 'monoclinic'
loop_
_space_group_symop_operation_xyz
x,y,z
-x,y,-z
-x,-y,-z
x,-y,z
1/2+x,1/2+y,z
1/2-x,1/2+y,-z
1/2-x,1/2-y,-z
1/2+x,1/2-y,z
loop_
_atom_site_type_symbol
_atom_site_label
_atom_site_fract_x
_atom_site_fract_y
_atom_site_fract_z
Si Si1 0.441201 0.779798 0.906183
Si Si2 0.811485 0.219252 0.592708
Si Si3 0.332529 0.713999 0.989675
Si Si4 0.000000 0.500000 0.500000
Si Si5 0.633905 0.288730 0.581724
Si Si6 0.904320 0.775190 0.224100
Si Si7 0.474177 0.717862 0.686907
Si Si8 0.253657 0.274947 0.765035
O O1 0.386982 0.717661 0.942867
O O2 0.435239 0.733800 0.771669
O O3 0.442119 0.000000 0.913242
O O4 0.500000 0.711728 0.000000
O O5 0.750000 0.250000 0.500000
O O6 0.855071 0.294099 0.530755
O O7 0.801550 0.286478 0.708156
O O8 0.821130 0.000000 0.602850
O O9 0.320221 0.500000 0.002076
O O10 0.277541 0.789774 0.895587
O O11 0.354886 0.796121 0.116805
O O12 0.024610 0.338068 0.424411
O O13 0.615733 0.500000 0.555030
O O14 0.597601 0.198946 0.653783
O O15 0.694625 0.293176 0.681854
O O16 0.965561 0.729616 0.219829
O O17 0.899883 0.000000 0.225436
O O18 0.475845 0.500000 0.659447
O O19 0.250938 0.500000 0.760361
#
# Coordination Sequence:
#
# PCOD9196745 Si02
#       8
#     8   8   8   2   8   8   8   8
#     4  11  22  39  65  95 124 159 209 270 326 388
#     4   8  14  27  47  67  95 136 184 234 287 344
#     4  10  20  35  57  85 120 155 202 256 313 385
#     4  12  26  48  66  98 136 164 218 278 316 398
#     4   9  17  32  53  75 109 154 203 250 302 368
#     4   9  19  36  59  86 115 159 208 250 309 388
#     4  11  23  44  71  94 131 176 212 265 331 389
#     4   9  18  32  49  78 113 149 195 255 311 366
#
# _framework density 27.698682999999999
#
# number of rings (size 3 to 8) (size 9 to 14) (size 15 to 20)
#    0.000    2.345    2.069    0.621    0.000    1.655 
#    3.724    0.000    0.000    0.000    0.000    0.000 
#    0.000    0.000    0.000    0.000    0.000    0.000 
#
# Total GULP energy -161888.775469 kJ/mol
# GULP energy per Si atom -5582.371568 kJ/mol
# Density = 2.763564 g / cm^3
# Si number density = 27.698683 Si / 1000 Ang^3
#
#
#
# Elastic Constant Matrix: (Units=GPa)
#
#
# Indices 1 2 3 4 5 6 
#
# 1 90.7778 -17.4384 19.9414 0.0000 -11.5838 0.0000
# 2 -17.4384 185.8647 0.9061 0.0000 -8.7629 0.0000
# 3 19.9414 0.9061 177.6857 0.0000 3.7453 0.0000
# 4 0.0000 0.0000 0.0000 -4.8874 0.0000 -13.2613
# 5 -11.5838 -8.7629 3.7453 0.0000 64.8556 0.0000
# 6 0.0000 0.0000 0.0000 -13.2613 0.0000 -8.1237
#
#
#
# Elastic Compliance Matrix: (Units=1/GPa)
#
#
# Indices 1 2 3 4 5 6 
#
# 1 0.011859 0.001231 -0.001387 0.000000 0.002364 0.000000
# 2 0.001231 0.005543 -0.000187 0.000000 0.000980 0.000000
# 3 -0.001387 -0.000187 0.005797 0.000000 -0.000608 0.000000
# 4 0.000000 0.000000 0.000000 0.059663 0.000000 -0.097396
# 5 0.002364 0.000980 -0.000608 0.000000 0.016009 0.000000
# 6 0.000000 0.000000 0.000000 -0.097396 0.000000 0.035895
#
#
# Mechanical properties :
#
#
# Convention : Reuss Voigt Hill
#
# Bulk Modulus (GPa) = 44.41966 51.23849 47.82907
# Shear Modulus (GPa) = 34.97589 40.43018 37.70304
#
# Velocity S-wave (km/s) = 3.55734 3.82467 3.69343
# Velocity P-wave (km/s) = 5.73973 6.16789 5.95766
#
# Compressibility (1/GPa) = 0.02251256
#
# Stress axis : x y z
#
# Youngs Moduli (GPa) = 84.32580 180.41308 172.49283
#
# Poissons Ratio (x) = -0.22206 0.23925
# Poissons Ratio (y) = -0.10379 0.03226
# Poissons Ratio (z) = 0.11696 0.03375
#
# Static dielectric constant tensor:
#      x y z
#    x 2.234320 0.000000 0.020520 
#    y 0.000000 2.067360 0.000000 
#    z 0.020520 0.000000 2.176810 
# 
# From -- ./inp_files/186726.got.cif
#   From: 2010.05.17/outbox.cif.g08.bks.cpg/sg12_94_cif.got.tgz:186726.got - 2010.06.03 13:09:07.
