data_PCOD9196676
_publ_section_title
;
Structure prediction by ZEFSAII (Michael W. Deem and Ramdas Pophale) SiO2 
 PCOD9196676
Probable space group: C 2/M
;
_chemical_formula_sum "Si O2"
_cell_formula_units_Z 44
_cell_length_a 9.646000
_cell_length_b 17.000145
_cell_length_c 20.028260
_cell_angle_alpha 90.000000
_cell_angle_beta 47.405564
_cell_angle_gamma 90.000000
_cell_volume 2417.781112
_symmetry_space_group_name_H-M "C 2/M"
_symmetry_group_IT_number 12
_symmetry_cell_setting 'monoclinic'
loop_
_space_group_symop_operation_xyz
x,y,z
-x,y,-z
-x,-y,-z
x,-y,z
1/2+x,1/2+y,z
1/2-x,1/2+y,-z
1/2-x,1/2-y,-z
1/2+x,1/2-y,z
loop_
_atom_site_type_symbol
_atom_site_label
_atom_site_fract_x
_atom_site_fract_y
_atom_site_fract_z
Si Si1 0.575171 0.500000 0.050405
Si Si2 0.413444 0.000000 0.455080
Si Si3 0.893606 0.322764 0.462928
Si Si4 0.853302 0.362834 0.995015
Si Si5 0.179507 0.500000 0.241725
Si Si6 0.868633 0.674291 0.748617
Si Si7 0.969016 0.752962 0.848252
O O1 0.705468 0.425139 0.017516
O O2 0.404354 0.500000 0.159130
O O3 0.500000 0.500000 0.000000
O O4 0.500000 0.000000 0.500000
O O5 0.314560 0.086384 0.481612
O O6 0.586163 0.000000 0.345693
O O7 0.750000 0.250000 0.500000
O O8 0.000000 0.317148 0.500000
O O9 0.038070 0.316363 0.354110
O O10 0.727328 0.297199 0.073383
O O11 0.000000 0.396619 0.000000
O O12 0.961019 0.322760 0.898647
O O13 0.115226 0.583482 0.233146
O O14 0.649306 0.696549 0.811320
O O15 0.967570 0.728137 0.771675
#
# Coordination Sequence:
#
# PCOD9196676 Si02
#       7
#     4   4   8   8   4   8   8
#     4  12  23  37  60  84 115 158 204 242 292 358
#     4   8  18  36  58  83 118 149 189 240 293 350
#     4  10  20  37  61  89 118 152 194 245 304 360
#     4  11  23  38  54  80 120 152 195 246 298 340
#     4  10  20  35  57  85 108 149 196 237 278 352
#     4  11  21  38  60  85 116 150 198 244 291 360
#     4  11  22  36  58  81 112 155 195 240 295 346
#
# _framework density 18.198504
#
# number of rings (size 3 to 8) (size 9 to 14) (size 15 to 20)
#    0.000    1.455    3.636    2.455    0.000    0.000 
#    0.000    0.455    0.000    2.182    0.000    0.000 
#    0.000    0.000    0.000    0.000    0.000    0.000 
#
# Total GULP energy -122591.875527 kJ/mol
# GULP energy per Si atom -5572.357978 kJ/mol
# Density = 1.815708 g / cm^3
# Si number density = 18.198504 Si / 1000 Ang^3
#
#
#
# Elastic Constant Matrix: (Units=GPa)
#
#
# Indices 1 2 3 4 5 6 
#
# 1 90.6467 37.4499 17.2219 -0.0002 15.8341 -0.0001
# 2 37.4499 112.3784 34.0823 0.0000 3.5199 -0.0001
# 3 17.2219 34.0823 58.4641 -0.0007 8.7971 -0.0001
# 4 -0.0002 0.0000 -0.0007 28.1783 0.0001 -4.0643
# 5 15.8341 3.5199 8.7971 0.0001 29.8716 0.0002
# 6 -0.0001 -0.0001 -0.0001 -4.0643 0.0002 28.6325
#
#
#
# Elastic Compliance Matrix: (Units=1/GPa)
#
#
# Indices 1 2 3 4 5 6 
#
# 1 0.014114 -0.004300 -0.000629 0.000000 -0.006789 0.000000
# 2 -0.004300 0.012130 -0.006208 0.000000 0.002678 0.000000
# 3 -0.000629 -0.006208 0.021711 0.000001 -0.005329 0.000000
# 4 0.000000 0.000000 0.000001 0.036230 0.000000 0.005143
# 5 -0.006789 0.002678 -0.005329 0.000000 0.038329 0.000000
# 6 0.000000 0.000000 0.000000 0.005143 0.000000 0.035655
#
#
# Mechanical properties :
#
#
# Convention : Reuss Voigt Hill
#
# Bulk Modulus (GPa) = 38.93971 48.77749 43.85860
# Shear Modulus (GPa) = 26.45453 28.85215 27.65334
#
# Velocity S-wave (km/s) = 3.81683 3.98604 3.90236
# Velocity P-wave (km/s) = 6.39280 6.93152 6.66760
#
# Compressibility (1/GPa) = 0.02568073
#
# Stress axis : x y z
#
# Youngs Moduli (GPa) = 70.85252 82.43826 46.06037
#
# Poissons Ratio (x) = 0.35448 0.02898
# Poissons Ratio (y) = 0.30466 0.28594
# Poissons Ratio (z) = 0.04458 0.51176
#
# Static dielectric constant tensor:
#      x y z
#    x 1.589330 0.000000 0.008440 
#    y 0.000000 1.676610 0.000000 
#    z 0.008440 0.000000 1.620540 
# 
# From -- ./inp_files/195481.got.cif
#   From: 2010.05.17/outbox.cif.g08.bks.cpg/sg12_98_cif.got.tgz:195481.got - 2010.06.03 13:09:07.
