data_PCOD9196018
_publ_section_title
;
Structure prediction by ZEFSAII (Michael W. Deem and Ramdas Pophale) SiO2 
 PCOD9196018
Probable space group: C 2/M
;
_chemical_formula_sum "Si O2"
_cell_formula_units_Z 48
_cell_length_a 18.083922
_cell_length_b 12.949446
_cell_length_c 16.716082
_cell_angle_alpha 90.000000
_cell_angle_beta 144.653368
_cell_angle_gamma 90.000000
_cell_volume 2264.633566
_symmetry_space_group_name_H-M "C 2/M"
_symmetry_group_IT_number 12
_symmetry_cell_setting 'monoclinic'
loop_
_space_group_symop_operation_xyz
x,y,z
-x,y,-z
-x,-y,-z
x,-y,z
1/2+x,1/2+y,z
1/2-x,1/2+y,-z
1/2-x,1/2-y,-z
1/2+x,1/2-y,z
loop_
_atom_site_type_symbol
_atom_site_label
_atom_site_fract_x
_atom_site_fract_y
_atom_site_fract_z
Si Si1 0.427313 0.119673 0.825719
Si Si2 0.231483 0.248826 0.194608
Si Si3 0.081346 0.877934 0.750302
Si Si4 0.768839 0.119286 0.659024
Si Si5 0.712067 0.376879 0.500187
Si Si6 0.064025 0.181452 0.913367
O O1 0.368060 0.169899 0.853470
O O2 0.313526 0.129706 0.660227
O O3 0.537162 0.195016 0.889953
O O4 0.461855 0.000000 0.864986
O O5 0.332392 0.311416 0.232132
O O6 0.287266 0.186549 0.318965
O O7 0.157016 0.169602 0.070562
O O8 0.113875 0.856501 0.872192
O O9 0.933012 0.845551 0.609789
O O10 0.094808 0.000000 0.745599
O O11 0.740521 0.161869 0.544875
O O12 0.924144 0.130868 0.802975
O O13 0.732538 0.000000 0.634274
O O14 0.697046 0.500000 0.471207
#
# Coordination Sequence:
#
# PCOD9196018 Si02
#       6
#     8   8   8   8   8   8
#     4  10  20  35  56  80 108 137 171 222 264 301
#     4  11  22  33  51  83 111 135 175 211 258 323
#     4  10  21  38  56  75 106 141 174 218 262 307
#     4   9  18  34  56  79 105 136 174 223 260 298
#     4   8  17  35  57  79 100 135 182 213 255 313
#     4  10  21  35  53  79 105 139 182 210 252 321
#
# _framework density 21.195482999999999
#
# number of rings (size 3 to 8) (size 9 to 14) (size 15 to 20)
#    0.000    2.333    0.000    4.500    0.000   10.667 
#    0.000    3.333    0.000    0.000    0.000   14.000 
#    0.000    0.000    0.000    0.000    0.000    0.000 
#
# Total GULP energy -134066.746542 kJ/mol
# GULP energy per Si atom -5586.114439 kJ/mol
# Density = 2.114724 g / cm^3
# Si number density = 21.195483 Si / 1000 Ang^3
#
#
#
# Elastic Constant Matrix: (Units=GPa)
#
#
# Indices 1 2 3 4 5 6 
#
# 1 110.4253 17.1009 30.8927 0.0000 -24.4372 0.0000
# 2 17.1009 64.5811 -6.5947 0.0000 -4.8847 0.0000
# 3 30.8927 -6.5947 84.5138 0.0000 -20.6417 0.0000
# 4 0.0000 0.0000 0.0000 26.6744 0.0000 1.3173
# 5 -24.4372 -4.8847 -20.6417 0.0000 20.8744 0.0000
# 6 0.0000 0.0000 0.0000 1.3173 0.0000 29.4341
#
#
#
# Elastic Compliance Matrix: (Units=1/GPa)
#
#
# Indices 1 2 3 4 5 6 
#
# 1 0.012734 -0.002609 -0.001801 0.000000 0.012515 0.000000
# 2 -0.002609 0.016821 0.003272 0.000000 0.004117 0.000000
# 3 -0.001801 0.003272 0.016372 0.000000 0.014846 0.000000
# 4 0.000000 0.000000 0.000000 0.037572 0.000000 -0.001681
# 5 0.012515 0.004117 0.014846 0.000000 0.078201 0.000000
# 6 0.000000 0.000000 0.000000 -0.001681 0.000000 0.034049
#
#
# Mechanical properties :
#
#
# Convention : Reuss Voigt Hill
#
# Bulk Modulus (GPa) = 22.91007 38.03533 30.47270
# Shear Modulus (GPa) = 23.52097 29.93801 26.72949
#
# Velocity S-wave (km/s) = 3.33485 3.76236 3.55504
# Velocity P-wave (km/s) = 5.06564 6.07106 5.59100
#
# Compressibility (1/GPa) = 0.04364892
#
# Stress axis : x y z
#
# Youngs Moduli (GPa) = 78.53300 59.45023 61.07880
#
# Poissons Ratio (x) = 0.15512 0.11003
# Poissons Ratio (y) = 0.20491 -0.19984
# Poissons Ratio (z) = 0.14148 -0.19451
#
# Static dielectric constant tensor:
#      x y z
#    x 1.735600 0.000000 -0.019760 
#    y 0.000000 1.824700 0.000000 
#    z -0.019760 0.000000 1.804540 
# 
# From -- ./inp_files/166536.got.cif
#   From: 2010.05.17/outbox.cif.g08.bks.cpg/sg12_84_cif.got.tgz:166536.got - 2010.06.03 13:09:07.
