data_PCOD9196121
_publ_section_title
;
Structure prediction by ZEFSAII (Michael W. Deem and Ramdas Pophale) SiO2 
 PCOD9196121
Probable space group: C 2/M
;
_chemical_formula_sum "Si O2"
_cell_formula_units_Z 64
_cell_length_a 28.998313
_cell_length_b 7.615291
_cell_length_c 13.430351
_cell_angle_alpha 90.000000
_cell_angle_beta 93.683984
_cell_angle_gamma 90.000000
_cell_volume 2959.703820
_symmetry_space_group_name_H-M "C 2/M"
_symmetry_group_IT_number 12
_symmetry_cell_setting 'monoclinic'
loop_
_space_group_symop_operation_xyz
x,y,z
-x,y,-z
-x,-y,-z
x,-y,z
1/2+x,1/2+y,z
1/2-x,1/2+y,-z
1/2-x,1/2-y,-z
1/2+x,1/2-y,z
loop_
_atom_site_type_symbol
_atom_site_label
_atom_site_fract_x
_atom_site_fract_y
_atom_site_fract_z
Si Si1 0.945339 0.712272 0.782308
Si Si2 0.395298 0.703361 0.366132
Si Si3 0.395633 0.784621 0.977155
Si Si4 0.202565 0.286284 0.727792
Si Si5 0.885551 0.790110 0.580764
Si Si6 0.718212 0.289595 0.400197
Si Si7 0.300456 0.789884 0.047014
Si Si8 0.450942 0.205077 0.178934
O O1 0.946202 0.500000 0.784820
O O2 0.918011 0.772918 0.876836
O O3 0.918967 0.760779 0.677976
O O4 0.998037 0.778624 0.794629
O O5 0.409031 0.500000 0.365536
O O6 0.340214 0.719994 0.343144
O O7 0.404593 0.778297 0.477479
O O8 0.420158 0.785014 0.274037
O O9 0.396070 0.000000 0.976549
O O10 0.342831 0.726173 0.985674
O O11 0.424471 0.724034 0.078177
O O12 0.201060 0.500000 0.725304
O O13 0.251522 0.227876 0.689593
O O14 0.195304 0.224936 0.839353
O O15 0.833807 0.720166 0.595936
O O16 0.880867 0.000000 0.565949
O O17 0.714654 0.500000 0.390890
O O18 0.750000 0.250000 0.500000
O O19 0.304965 0.000000 0.052824
O O20 0.250000 0.750000 0.000000
O O21 0.457647 0.000000 0.156777
#
# Coordination Sequence:
#
# PCOD9196121 Si02
#       8
#     8   8   8   8   8   8   8   8
#     4  10  22  38  61  88 110 146 195 238 283 339
#     4  11  22  37  59  85 114 150 194 236 285 344
#     4   9  18  37  61  85 114 147 185 233 285 335
#     4  10  20  36  58  82 111 151 193 234 281 332
#     4  10  23  40  55  80 121 158 185 230 291 341
#     4  10  20  35  56  81 110 148 189 225 271 329
#     4  10  21  36  55  83 117 150 183 224 280 336
#     4  10  20  39  64  86 111 143 188 243 292 339
#
# _framework density 21.623785000000002
#
# number of rings (size 3 to 8) (size 9 to 14) (size 15 to 20)
#    0.000    2.000    2.500    0.750    1.750    4.500 
#    0.000    3.125    0.000    1.500    0.000    0.000 
#    0.000    0.000    0.000    0.000    0.000    0.000 
#
# Total GULP energy -178740.620635 kJ/mol
# GULP energy per Si atom -5585.644395 kJ/mol
# Density = 2.157457 g / cm^3
# Si number density = 21.623785 Si / 1000 Ang^3
#
#
#
# Elastic Constant Matrix: (Units=GPa)
#
#
# Indices 1 2 3 4 5 6 
#
# 1 93.7914 -12.8422 49.5959 0.0000 22.3467 0.0000
# 2 -12.8422 38.1815 -8.7327 0.0000 -1.2330 0.0000
# 3 49.5959 -8.7327 144.1723 0.0000 8.6526 0.0000
# 4 0.0000 0.0000 0.0000 23.4605 0.0000 16.7892
# 5 22.3467 -1.2330 8.6526 0.0000 29.2010 0.0000
# 6 0.0000 0.0000 0.0000 16.7892 0.0000 28.8646
#
#
#
# Elastic Compliance Matrix: (Units=1/GPa)
#
#
# Indices 1 2 3 4 5 6 
#
# 1 0.016308 0.004055 -0.004709 0.000000 -0.010913 0.000000
# 2 0.004055 0.027580 0.000399 0.000000 -0.002057 0.000000
# 3 -0.004709 0.000399 0.008514 0.000000 0.001098 0.000000
# 4 0.000000 0.000000 0.000000 0.073019 0.000000 -0.042472
# 5 -0.010913 -0.002057 0.001098 0.000000 0.042185 0.000000
# 6 0.000000 0.000000 0.000000 -0.042472 0.000000 0.059348
#
#
# Mechanical properties :
#
#
# Convention : Reuss Voigt Hill
#
# Bulk Modulus (GPa) = 19.27088 36.90970 28.09029
# Shear Modulus (GPa) = 20.42809 32.84683 26.63746
#
# Velocity S-wave (km/s) = 3.07694 3.90168 3.51359
# Velocity P-wave (km/s) = 4.64270 6.11585 5.42947
#
# Compressibility (1/GPa) = 0.05189175
#
# Stress axis : x y z
#
# Youngs Moduli (GPa) = 61.32099 36.25876 117.44756
#
# Poissons Ratio (x) = -0.14705 0.55310
# Poissons Ratio (y) = -0.24869 -0.04685
# Poissons Ratio (z) = 0.28878 -0.01446
#
# Static dielectric constant tensor:
#      x y z
#    x 1.875880 0.000000 -0.064010 
#    y 0.000000 1.823470 0.000000 
#    z -0.064010 0.000000 1.792070 
# 
# From -- ./inp_files/187611.got.cif
#   From: 2010.05.17/outbox.cif.g08.bks.cpg/sg12_94_cif.got.tgz:187611.got - 2010.06.03 13:09:07.
