data_PCOD9196084
_publ_section_title
;
Structure prediction by ZEFSAII (Michael W. Deem and Ramdas Pophale) SiO2 
 PCOD9196084
Probable space group: C 2/M
;
_chemical_formula_sum "Si O2"
_cell_formula_units_Z 56
_cell_length_a 8.592921
_cell_length_b 25.894361
_cell_length_c 14.269526
_cell_angle_alpha 90.000000
_cell_angle_beta 71.864190
_cell_angle_gamma 90.000000
_cell_volume 3017.352582
_symmetry_space_group_name_H-M "C 2/M"
_symmetry_group_IT_number 12
_symmetry_cell_setting 'monoclinic'
loop_
_space_group_symop_operation_xyz
x,y,z
-x,y,-z
-x,-y,-z
x,-y,z
1/2+x,1/2+y,z
1/2-x,1/2+y,-z
1/2-x,1/2-y,-z
1/2+x,1/2-y,z
loop_
_atom_site_type_symbol
_atom_site_label
_atom_site_fract_x
_atom_site_fract_y
_atom_site_fract_z
Si Si1 0.975456 0.940808 0.796854
Si Si2 0.482123 0.717795 0.115313
Si Si3 0.097982 0.160739 0.265473
Si Si4 0.586568 0.728549 0.576117
Si Si5 0.734549 0.873401 0.171458
Si Si6 0.684642 0.942056 0.004973
Si Si7 0.553091 0.190665 0.733729
O O1 0.909675 0.900628 0.733002
O O2 0.831883 0.940421 0.902392
O O3 0.142249 0.913211 0.801064
O O4 0.002379 0.000000 0.764811
O O5 0.606754 0.683147 0.156602
O O6 0.320062 0.682688 0.155029
O O7 0.479116 0.771979 0.170435
O O8 0.500000 0.723845 0.000000
O O9 0.254001 0.179906 0.293807
O O10 0.932866 0.184325 0.342177
O O11 0.500000 0.708471 0.500000
O O12 0.750000 0.750000 0.500000
O O13 0.512064 0.776880 0.648035
O O14 0.554515 0.860892 0.243306
O O15 0.716067 0.897047 0.072274
O O16 0.693104 0.000000 0.046900
O O17 0.500000 0.936825 0.000000
#
# Coordination Sequence:
#
# PCOD9196084 Si02
#       7
#     8   8   8   8   8   8   8
#     4  10  21  37  57  80 112 149 192 241 286 335
#     4  10  21  34  50  75 117 159 188 224 276 339
#     4  10  21  37  56  85 114 147 195 231 285 342
#     4  11  22  39  65  90 117 148 187 240 291 342
#     4  11  21  33  53  76 112 150 193 233 281 335
#     4  10  20  35  56  81 108 149 200 245 285 332
#     4  11  23  36  53  86 117 149 191 235 279 349
#
# _framework density 18.559315000000002
#
# number of rings (size 3 to 8) (size 9 to 14) (size 15 to 20)
#    0.000    1.571    1.429    5.143    4.000    5.143 
#    0.000    0.714    0.000    0.429    0.000    1.000 
#    0.000    0.000    0.000    0.000    0.000    0.000 
#
# Total GULP energy -155878.467047 kJ/mol
# GULP energy per Si atom -5567.088109 kJ/mol
# Density = 1.851707 g / cm^3
# Si number density = 18.559315 Si / 1000 Ang^3
#
#
#
# Elastic Constant Matrix: (Units=GPa)
#
#
# Indices 1 2 3 4 5 6 
#
# 1 54.6741 25.5888 10.2390 0.0000 -3.2903 0.0000
# 2 25.5888 105.9117 30.8410 0.0000 -5.1141 0.0000
# 3 10.2390 30.8410 84.6984 0.0000 3.8743 0.0000
# 4 0.0000 0.0000 0.0000 17.9728 0.0000 -7.0356
# 5 -3.2903 -5.1141 3.8743 0.0000 24.1357 0.0000
# 6 0.0000 0.0000 0.0000 -7.0356 0.0000 18.7778
#
#
#
# Elastic Compliance Matrix: (Units=1/GPa)
#
#
# Indices 1 2 3 4 5 6 
#
# 1 0.020758 -0.004656 -0.000905 0.000000 0.001989 0.000000
# 2 -0.004656 0.011808 -0.003850 0.000000 0.002485 0.000000
# 3 -0.000905 -0.003850 0.013460 0.000000 -0.003100 0.000000
# 4 0.000000 0.000000 0.000000 0.065203 0.000000 0.024430
# 5 0.001989 0.002485 -0.003100 0.000000 0.042728 0.000000
# 6 0.000000 0.000000 0.000000 0.024430 0.000000 0.062408
#
#
# Mechanical properties :
#
#
# Convention : Reuss Voigt Hill
#
# Bulk Modulus (GPa) = 36.75992 42.06909 39.41450
# Shear Modulus (GPa) = 20.47043 24.08496 22.27770
#
# Velocity S-wave (km/s) = 3.32471 3.60631 3.46837
# Velocity P-wave (km/s) = 5.88115 6.32908 6.10922
#
# Compressibility (1/GPa) = 0.02720354
#
# Stress axis : x y z
#
# Youngs Moduli (GPa) = 48.17336 84.68890 74.29492
#
# Poissons Ratio (x) = 0.39429 0.06725
# Poissons Ratio (y) = 0.22428 0.28607
# Poissons Ratio (z) = 0.04360 0.32609
#
# Static dielectric constant tensor:
#      x y z
#    x 1.736770 0.000000 -0.011420 
#    y 0.000000 1.645780 0.000000 
#    z -0.011420 0.000000 1.640270 
# 
# From -- ./inp_files/199304.got.cif
#   From: 2010.05.17/outbox.cif.g08.bks.cpg/sg12_100_cif.got.tgz:199304.got - 2010.06.03 13:09:07.
