data_PCOD9196429
_publ_section_title
;
Structure prediction by ZEFSAII (Michael W. Deem and Ramdas Pophale) SiO2 
 PCOD9196429
Probable space group: C 2/M
;
_chemical_formula_sum "Si O2"
_cell_formula_units_Z 64
_cell_length_a 26.204401
_cell_length_b 20.943284
_cell_length_c 11.851767
_cell_angle_alpha 90.000000
_cell_angle_beta 30.699999
_cell_angle_gamma 90.000000
_cell_volume 3320.736127
_symmetry_space_group_name_H-M "C 2/M"
_symmetry_group_IT_number 12
_symmetry_cell_setting 'monoclinic'
loop_
_space_group_symop_operation_xyz
x,y,z
-x,y,-z
-x,-y,-z
x,-y,z
1/2+x,1/2+y,z
1/2-x,1/2+y,-z
1/2-x,1/2-y,-z
1/2+x,1/2-y,z
loop_
_atom_site_type_symbol
_atom_site_label
_atom_site_fract_x
_atom_site_fract_y
_atom_site_fract_z
Si Si1 0.977054 0.574887 0.165819
Si Si2 0.196213 0.649147 0.127930
Si Si3 0.335058 0.923263 0.049010
Si Si4 0.285335 0.331626 0.566674
Si Si5 0.095779 0.219586 0.256600
Si Si6 0.967147 0.239346 0.285786
Si Si7 0.825172 0.637943 0.581993
Si Si8 0.850377 0.794316 0.196400
O O1 0.995909 0.500000 0.119889
O O2 0.864667 0.585843 0.419927
O O3 0.054678 0.595061 0.115141
O O4 0.000000 0.605079 0.000000
O O5 0.131842 0.714521 0.245155
O O6 0.166887 0.617718 0.302919
O O7 0.181987 0.609014 0.040809
O O8 0.310373 0.673039 0.920542
O O9 0.264106 0.892796 0.281000
O O10 0.324526 0.000000 0.061647
O O11 0.377644 0.311200 0.471300
O O12 0.203004 0.275072 0.713338
O O13 0.330072 0.328260 0.355198
O O14 0.000000 0.190681 0.500000
O O15 0.050988 0.239887 0.222089
O O16 0.902758 0.304189 0.404922
O O17 0.035081 0.218594 0.051406
O O18 0.714075 0.662513 0.767692
#
# Coordination Sequence:
#
# PCOD9196429 Si02
#       8
#     8   8   8   8   8   8   8   8
#     4  10  22  39  59  82 111 153 197 234 282 346
#     4  11  23  35  56  88 116 153 197 233 289 351
#     4  11  24  41  60  82 117 159 199 242 284 345
#     4  10  21  36  58  84 118 151 193 239 296 352
#     4  11  20  34  57  84 118 153 184 237 296 350
#     4  11  20  33  55  87 118 146 185 236 300 352
#     4  11  21  34  58  87 120 155 187 238 293 347
#     4  10  20  35  56  90 119 148 184 242 303 354
#
# _framework density 19.272836000000002
#
# number of rings (size 3 to 8) (size 9 to 14) (size 15 to 20)
#    0.000    1.375    2.500    4.125    3.500    2.500 
#    0.000    1.250    0.000    5.625    0.000    0.000 
#    0.000    0.000    0.000    0.000    0.000    0.000 
#
# Total GULP energy -178369.224901 kJ/mol
# GULP energy per Si atom -5574.038278 kJ/mol
# Density = 1.922897 g / cm^3
# Si number density = 19.272836 Si / 1000 Ang^3
#
#
#
# Elastic Constant Matrix: (Units=GPa)
#
#
# Indices 1 2 3 4 5 6 
#
# 1 79.4621 14.9267 13.2730 0.0000 7.5760 0.0000
# 2 14.9267 29.0869 10.8988 0.0000 -0.3155 0.0000
# 3 13.2730 10.8988 86.5770 0.0000 -0.2099 0.0000
# 4 0.0000 0.0000 0.0000 19.8442 0.0000 6.0596
# 5 7.5760 -0.3155 -0.2099 0.0000 42.3854 0.0000
# 6 0.0000 0.0000 0.0000 6.0596 0.0000 15.7368
#
#
#
# Elastic Compliance Matrix: (Units=1/GPa)
#
#
# Indices 1 2 3 4 5 6 
#
# 1 0.014353 -0.006892 -0.001339 0.000000 -0.002623 0.000000
# 2 -0.006892 0.039394 -0.003899 0.000000 0.001506 0.000000
# 3 -0.001339 -0.003899 0.012247 0.000000 0.000271 0.000000
# 4 0.000000 0.000000 0.000000 0.057107 0.000000 -0.021989
# 5 -0.002623 0.001506 0.000271 0.000000 0.024074 0.000000
# 6 0.000000 0.000000 0.000000 -0.021989 0.000000 0.072013
#
#
# Mechanical properties :
#
#
# Convention : Reuss Voigt Hill
#
# Bulk Modulus (GPa) = 23.96153 30.36923 27.16538
# Shear Modulus (GPa) = 19.42800 25.99511 22.71155
#
# Velocity S-wave (km/s) = 3.17843 3.67658 3.43654
# Velocity P-wave (km/s) = 5.09212 5.81504 5.46555
#
# Compressibility (1/GPa) = 0.04173356
#
# Stress axis : x y z
#
# Youngs Moduli (GPa) = 69.67116 25.38457 81.65140
#
# Poissons Ratio (x) = 0.17496 0.10935
# Poissons Ratio (y) = 0.48020 0.31835
# Poissons Ratio (z) = 0.09330 0.09897
#
# Static dielectric constant tensor:
#      x y z
#    x 1.759880 0.000000 0.062420 
#    y 0.000000 1.667930 0.000000 
#    z 0.062420 0.000000 1.756800 
# 
# From -- ./inp_files/184692.got.cif
#   From: 2010.05.17/outbox.cif.g08.bks.cpg/sg12_93_cif.got.tgz:184692.got - 2010.06.03 13:09:07.
