data_PCOD9196540
_publ_section_title
;
Structure prediction by ZEFSAII (Michael W. Deem and Ramdas Pophale) SiO2 
 PCOD9196540
Probable space group: C 2/M
;
_chemical_formula_sum "Si O2"
_cell_formula_units_Z 48
_cell_length_a 29.310116
_cell_length_b 8.883248
_cell_length_c 12.104558
_cell_angle_alpha 90.000000
_cell_angle_beta 137.973495
_cell_angle_gamma 90.000000
_cell_volume 2109.950069
_symmetry_space_group_name_H-M "C 2/M"
_symmetry_group_IT_number 12
_symmetry_cell_setting 'monoclinic'
loop_
_space_group_symop_operation_xyz
x,y,z
-x,y,-z
-x,-y,-z
x,-y,z
1/2+x,1/2+y,z
1/2-x,1/2+y,-z
1/2-x,1/2-y,-z
1/2+x,1/2-y,z
loop_
_atom_site_type_symbol
_atom_site_label
_atom_site_fract_x
_atom_site_fract_y
_atom_site_fract_z
Si Si1 0.211535 0.175657 0.260823
Si Si2 0.254425 0.674884 0.126603
Si Si3 0.502323 0.677977 0.131077
Si Si4 0.457708 0.822136 0.266028
Si Si5 0.909338 0.822730 0.392181
Si Si6 0.341470 0.676281 0.602058
O O1 0.207288 0.262453 0.138575
O O2 0.284763 0.219967 0.445265
O O3 0.159775 0.207356 0.268073
O O4 0.208512 0.000000 0.231011
O O5 0.240888 0.500000 0.089023
O O6 0.333813 0.695117 0.303618
O O7 0.250000 0.750000 0.000000
O O8 0.484461 0.500000 0.101909
O O9 0.458074 0.765539 0.140965
O O10 0.582446 0.691795 0.305536
O O11 0.500000 0.729105 0.000000
O O12 0.533494 0.778413 0.447117
O O13 0.410371 0.729528 0.265771
O O14 0.445785 0.000000 0.253381
O O15 0.927650 0.000000 0.433623
O O16 0.320918 0.500000 0.551334
#
# Coordination Sequence:
#
# PCOD9196540 Si02
#       6
#     8   8   8   8   8   8
#     4  10  20  35  57  83 110 142 183 229 274 322
#     4  11  24  39  57  82 113 149 186 226 275 331
#     4  10  21  37  56  78 109 149 187 222 267 329
#     4  11  22  36  58  87 114 141 181 235 285 323
#     4  10  21  39  61  82 108 147 190 226 269 332
#     4   9  19  36  57  81 108 142 185 227 270 324
#
# _framework density 22.749352999999999
#
# number of rings (size 3 to 8) (size 9 to 14) (size 15 to 20)
#    0.000    1.833    0.000    5.000    0.000    9.667 
#    0.000    3.333    0.000    0.000    0.000    0.000 
#    0.000    0.000    0.000    0.000    0.000    0.000 
#
# Total GULP energy -134273.831104 kJ/mol
# GULP energy per Si atom -5594.742963 kJ/mol
# Density = 2.269757 g / cm^3
# Si number density = 22.749353 Si / 1000 Ang^3
#
#
#
# Elastic Constant Matrix: (Units=GPa)
#
#
# Indices 1 2 3 4 5 6 
#
# 1 117.1712 41.0902 10.4690 0.0000 -23.7701 0.0000
# 2 41.0902 62.4046 7.9205 0.0000 -13.7264 0.0000
# 3 10.4690 7.9205 55.0223 0.0000 -17.8682 0.0000
# 4 0.0000 0.0000 0.0000 31.5631 0.0000 -15.6161
# 5 -23.7701 -13.7264 -17.8682 0.0000 44.9687 0.0000
# 6 0.0000 0.0000 0.0000 -15.6161 0.0000 26.5730
#
#
#
# Elastic Compliance Matrix: (Units=1/GPa)
#
#
# Indices 1 2 3 4 5 6 
#
# 1 0.011773 -0.006847 0.000101 0.000000 0.004173 0.000000
# 2 -0.006847 0.021197 -0.000945 0.000000 0.002476 0.000000
# 3 0.000101 -0.000945 0.020914 0.000000 0.008075 0.000000
# 4 0.000000 0.000000 0.000000 0.044671 0.000000 0.026252
# 5 0.004173 0.002476 0.008075 0.000000 0.028408 0.000000
# 6 0.000000 0.000000 0.000000 0.026252 0.000000 0.053060
#
#
# Mechanical properties :
#
#
# Convention : Reuss Voigt Hill
#
# Bulk Modulus (GPa) = 25.97229 39.28416 32.62823
# Shear Modulus (GPa) = 24.01099 32.29553 28.15326
#
# Velocity S-wave (km/s) = 3.25231 3.77188 3.52169
# Velocity P-wave (km/s) = 5.05419 6.02289 5.55968
#
# Compressibility (1/GPa) = 0.03850257
#
# Stress axis : x y z
#
# Youngs Moduli (GPa) = 84.93835 47.17598 47.81592
#
# Poissons Ratio (x) = 0.32301 -0.00482
# Poissons Ratio (y) = 0.58156 0.04517
# Poissons Ratio (z) = -0.00856 0.04456
#
# Static dielectric constant tensor:
#      x y z
#    x 1.863130 0.000000 0.008490 
#    y 0.000000 1.755670 0.000000 
#    z 0.008490 0.000000 1.930140 
# 
# From -- ./inp_files/180246.got.cif
#   From: 2010.05.17/outbox.cif.g08.bks.cpg/sg12_91_cif.got.tgz:180246.got - 2010.06.03 13:09:07.
