data_PCOD9196059
_publ_section_title
;
Structure prediction by ZEFSAII (Michael W. Deem and Ramdas Pophale) SiO2 
 PCOD9196059
Probable space group: C 2/M
;
_chemical_formula_sum "Si O2"
_cell_formula_units_Z 56
_cell_length_a 21.479412
_cell_length_b 7.978321
_cell_length_c 32.035662
_cell_angle_alpha 90.000000
_cell_angle_beta 29.262043
_cell_angle_gamma 90.000000
_cell_volume 2683.508033
_symmetry_space_group_name_H-M "C 2/M"
_symmetry_group_IT_number 12
_symmetry_cell_setting 'monoclinic'
loop_
_space_group_symop_operation_xyz
x,y,z
-x,y,-z
-x,-y,-z
x,-y,z
1/2+x,1/2+y,z
1/2-x,1/2+y,-z
1/2-x,1/2-y,-z
1/2+x,1/2-y,z
loop_
_atom_site_type_symbol
_atom_site_label
_atom_site_fract_x
_atom_site_fract_y
_atom_site_fract_z
Si Si1 0.259963 0.298036 0.429708
Si Si2 0.645446 0.204272 0.408209
Si Si3 0.623543 0.701148 0.953262
Si Si4 0.263431 0.309932 0.794598
Si Si5 0.847229 0.194980 0.224091
Si Si6 0.124417 0.203029 0.048073
Si Si7 0.458511 0.195179 0.377721
O O1 0.273037 0.500000 0.425288
O O2 0.226671 0.255669 0.401959
O O3 0.383539 0.217435 0.378166
O O4 0.140028 0.249324 0.528896
O O5 0.500000 0.264521 0.500000
O O6 0.728546 0.265948 0.320159
O O7 0.635153 0.000000 0.411046
O O8 0.614648 0.500000 0.960581
O O9 0.739662 0.747588 0.855283
O O10 0.500000 0.763373 0.000000
O O11 0.632196 0.763516 0.995465
O O12 0.220124 0.500000 0.816148
O O13 0.186219 0.206152 0.805276
O O14 0.411573 0.294408 0.697784
O O15 0.989830 0.265468 0.146034
O O16 0.854210 0.000000 0.232176
O O17 0.117302 0.000000 0.051275
O O18 0.250000 0.250000 0.000000
O O19 0.488706 0.000000 0.367304
#
# Coordination Sequence:
#
# PCOD9196059 Si02
#       7
#     8   8   8   8   8   8   8
#     4   9  18  34  55  82 115 150 194 242 284 336
#     4   9  17  31  56  86 114 148 190 234 282 344
#     4  10  20  40  64  84 114 153 194 234 286 355
#     4  12  24  36  57  88 116 144 192 249 295 342
#     4  10  20  38  60  82 113 154 195 234 292 358
#     4  10  22  39  61  88 120 159 195 241 294 357
#     4  10  20  35  56  80 113 155 192 234 292 352
#
# _framework density 20.868206000000001
#
# number of rings (size 3 to 8) (size 9 to 14) (size 15 to 20)
#    0.000    2.000    1.429    2.571    0.000    5.429 
#    0.000    2.143    0.000    1.714    0.000    0.000 
#    0.000    0.000    0.000    0.000    0.000    0.000 
#
# Total GULP energy -156315.706240 kJ/mol
# GULP energy per Si atom -5582.703794 kJ/mol
# Density = 2.082071 g / cm^3
# Si number density = 20.868206 Si / 1000 Ang^3
#
#
#
# Elastic Constant Matrix: (Units=GPa)
#
#
# Indices 1 2 3 4 5 6 
#
# 1 83.8732 3.1042 54.0655 0.0013 2.6810 -0.0067
# 2 3.1042 16.5523 8.9388 0.0215 -2.3703 -0.0024
# 3 54.0655 8.9388 120.6201 -0.0053 -4.5588 -0.0041
# 4 0.0013 0.0215 -0.0053 -0.5098 -0.0035 -8.4057
# 5 2.6810 -2.3703 -4.5588 -0.0035 31.3066 0.0012
# 6 -0.0067 -0.0024 -0.0041 -8.4057 0.0012 23.4115
#
#
#
# Elastic Compliance Matrix: (Units=1/GPa)
#
#
# Indices 1 2 3 4 5 6 
#
# 1 0.016978 0.000640 -0.007753 0.000016 -0.002534 0.000009
# 2 0.000640 0.063487 -0.004839 0.000377 0.004047 0.000141
# 3 -0.007753 -0.004839 0.012203 -0.000051 0.002075 -0.000019
# 4 0.000016 0.000377 -0.000051 -0.283460 -0.000008 -0.101774
# 5 -0.002534 0.004047 0.002075 -0.000008 0.032768 -0.000005
# 6 0.000009 0.000141 -0.000019 -0.101774 -0.000005 0.006173
#
#
# Mechanical properties :
#
#
# Convention : Reuss Voigt Hill
#
# Bulk Modulus (GPa) = 14.54262 39.25140 26.89701
# Shear Modulus (GPa) = -47.60675 21.17079 -13.21798
#
# Velocity S-wave (km/s) = -4.78148 3.18858 -2.51948
# Velocity P-wave (km/s) = 4.84763 5.69263 2.11028
#
# Compressibility (1/GPa) = 0.06876339
#
# Stress axis : x y z
#
# Youngs Moduli (GPa) = 58.90017 15.75135 81.94915
#
# Poissons Ratio (x) = -0.01008 0.63537
# Poissons Ratio (y) = -0.03770 0.39653
# Poissons Ratio (z) = 0.45666 0.07622
#
# Static dielectric constant tensor:
#      x y z
#    x 1.724430 0.000000 0.010020 
#    y 0.000000 1.745260 0.000000 
#    z 0.010020 0.000000 1.777680 
# 
# From -- ./inp_files/380566.got.cif
#   From: 2010.05.17/outbox.cif.g08.bks.cpg/sg12_191_cif.got.tgz:380566.got - 2010.06.03 13:09:07.
