data_PCOD9196048
_publ_section_title
;
Structure prediction by ZEFSAII (Michael W. Deem and Ramdas Pophale) SiO2 
 PCOD9196048
Probable space group: C 2/M
;
_chemical_formula_sum "Si O2"
_cell_formula_units_Z 56
_cell_length_a 28.250690
_cell_length_b 9.430986
_cell_length_c 15.072208
_cell_angle_alpha 90.000000
_cell_angle_beta 41.465643
_cell_angle_gamma 90.000000
_cell_volume 2659.090261
_symmetry_space_group_name_H-M "C 2/M"
_symmetry_group_IT_number 12
_symmetry_cell_setting 'monoclinic'
loop_
_space_group_symop_operation_xyz
x,y,z
-x,y,-z
-x,-y,-z
x,-y,z
1/2+x,1/2+y,z
1/2-x,1/2+y,-z
1/2-x,1/2-y,-z
1/2+x,1/2-y,z
loop_
_atom_site_type_symbol
_atom_site_label
_atom_site_fract_x
_atom_site_fract_y
_atom_site_fract_z
Si Si1 0.732035 0.163241 0.774576
Si Si2 0.753296 0.843932 0.082190
Si Si3 0.915296 0.657125 0.680195
Si Si4 0.469706 0.335977 0.766748
Si Si5 0.816433 0.670636 0.357314
Si Si6 0.099057 0.159738 0.462889
Si Si7 0.032889 0.828520 0.856671
O O1 0.711346 0.266627 0.883734
O O2 0.695572 0.186455 0.731716
O O3 0.817335 0.181925 0.638381
O O4 0.720993 0.000000 0.818438
O O5 0.669262 0.857122 0.218333
O O6 0.783320 0.000000 0.024420
O O7 0.750000 0.750000 0.000000
O O8 0.945504 0.500000 0.649587
O O9 0.934052 0.735384 0.562333
O O10 0.927417 0.745510 0.753243
O O11 0.447437 0.500000 0.792760
O O12 0.551853 0.330449 0.616675
O O13 0.475271 0.290640 0.860905
O O14 0.816324 0.500000 0.377730
O O15 0.750000 0.750000 0.500000
O O16 0.893221 0.744792 0.265532
O O17 0.091369 0.000000 0.437061
O O18 0.045249 0.000000 0.833552
O O19 0.000000 0.798074 0.000000
#
# Coordination Sequence:
#
# PCOD9196048 Si02
#       7
#     8   8   8   8   8   8   8
#     4   9  19  36  57  82 113 148 186 235 291 346
#     4  10  21  36  54  78 109 145 185 230 280 340
#     4  10  21  34  50  78 111 139 176 227 279 334
#     4  10  20  35  56  80 109 149 190 227 277 343
#     4  11  23  40  65  94 123 157 202 255 309 366
#     4   9  17  32  54  79 110 146 182 221 273 340
#     4  10  23  43  63  86 120 160 205 255 304 359
#
# _framework density 21.059835
#
# number of rings (size 3 to 8) (size 9 to 14) (size 15 to 20)
#    0.000    2.143    0.000    2.571    0.000    9.429 
#    0.000    5.714    0.000    0.000    0.000    0.000 
#    0.000    0.000    0.000    0.000    0.000    0.000 
#
# Total GULP energy -156210.229510 kJ/mol
# GULP energy per Si atom -5578.936768 kJ/mol
# Density = 2.101190 g / cm^3
# Si number density = 21.059835 Si / 1000 Ang^3
#
#
#
# Elastic Constant Matrix: (Units=GPa)
#
#
# Indices 1 2 3 4 5 6 
#
# 1 114.0032 57.6147 22.3625 0.0001 21.8940 0.0000
# 2 57.6147 98.5700 27.9923 0.0001 21.3671 0.0000
# 3 22.3625 27.9923 67.4954 0.0001 14.4086 0.0000
# 4 0.0001 0.0001 0.0001 18.4031 -0.0001 1.6264
# 5 21.8940 21.3671 14.4086 -0.0001 40.9356 0.0000
# 6 0.0000 0.0000 0.0000 1.6264 0.0000 32.1391
#
#
#
# Elastic Compliance Matrix: (Units=1/GPa)
#
#
# Indices 1 2 3 4 5 6 
#
# 1 0.012881 -0.006605 -0.000858 0.000000 -0.003140 0.000000
# 2 -0.006605 0.015777 -0.003623 0.000000 -0.003428 0.000000
# 3 -0.000858 -0.003623 0.017409 0.000000 -0.003777 0.000000
# 4 0.000000 0.000000 0.000000 0.054583 0.000000 -0.002762
# 5 -0.003140 -0.003428 -0.003777 0.000000 0.029227 0.000000
# 6 0.000000 0.000000 0.000000 -0.002762 0.000000 0.031255
#
#
# Mechanical properties :
#
#
# Convention : Reuss Voigt Hill
#
# Bulk Modulus (GPa) = 41.84985 55.11196 48.48090
# Shear Modulus (GPa) = 26.14118 29.76883 27.95501
#
# Velocity S-wave (km/s) = 3.52700 3.76378 3.64731
# Velocity P-wave (km/s) = 6.04164 6.71670 6.38809
#
# Compressibility (1/GPa) = 0.02389495
#
# Stress axis : x y z
#
# Youngs Moduli (GPa) = 77.63481 63.38145 57.44053
#
# Poissons Ratio (x) = 0.41861 0.04930
# Poissons Ratio (y) = 0.51274 0.20813
# Poissons Ratio (z) = 0.06663 0.22966
#
# Static dielectric constant tensor:
#      x y z
#    x 1.761800 0.000000 -0.045290 
#    y 0.000000 1.802470 0.000000 
#    z -0.045290 0.000000 1.830560 
# 
# From -- ./inp_files/248878.got.cif
#   From: 2010.05.17/outbox.cif.g08.bks.cpg/sg12_125_cif.got.tgz:248878.got - 2010.06.03 13:09:07.
