data_PCOD9196516
_publ_section_title
;
Structure prediction by ZEFSAII (Michael W. Deem and Ramdas Pophale) SiO2 
 PCOD9196516
Probable space group: C 2/M
;
_chemical_formula_sum "Si O2"
_cell_formula_units_Z 56
_cell_length_a 15.291078
_cell_length_b 8.681770
_cell_length_c 25.119642
_cell_angle_alpha 90.000000
_cell_angle_beta 62.542184
_cell_angle_gamma 90.000000
_cell_volume 2959.068718
_symmetry_space_group_name_H-M "C 2/M"
_symmetry_group_IT_number 12
_symmetry_cell_setting 'monoclinic'
loop_
_space_group_symop_operation_xyz
x,y,z
-x,y,-z
-x,-y,-z
x,-y,z
1/2+x,1/2+y,z
1/2-x,1/2+y,-z
1/2-x,1/2-y,-z
1/2+x,1/2-y,z
loop_
_atom_site_type_symbol
_atom_site_label
_atom_site_fract_x
_atom_site_fract_y
_atom_site_fract_z
Si Si1 0.785493 0.814013 0.615372
Si Si2 0.577955 0.812683 0.933265
Si Si3 0.433281 0.185769 0.289341
Si Si4 0.097022 0.324316 0.510866
Si Si5 0.971013 0.816794 0.635945
Si Si6 0.488105 0.186660 0.847291
Si Si7 0.275704 0.314787 0.934553
O O1 0.677182 0.763519 0.663800
O O2 0.817899 0.748660 0.549045
O O3 0.870047 0.767342 0.634428
O O4 0.787541 0.000000 0.611805
O O5 0.547851 0.762103 0.882909
O O6 0.686641 0.768020 0.920765
O O7 0.574251 0.000000 0.934502
O O8 0.500000 0.760241 0.000000
O O9 0.509373 0.243755 0.312362
O O10 0.463719 0.236580 0.221735
O O11 0.433010 0.000000 0.290107
O O12 0.120352 0.500000 0.518868
O O13 0.000000 0.324493 0.500000
O O14 0.061577 0.232330 0.572351
O O15 0.968282 0.000000 0.641356
O O16 0.378362 0.249203 0.885284
O O17 0.485310 0.000000 0.848359
O O18 0.279423 0.500000 0.936257
O O19 0.250000 0.250000 0.000000
#
# Coordination Sequence:
#
# PCOD9196516 Si02
#       7
#     8   8   8   8   8   8   8
#     4   9  19  36  56  79 108 145 189 231 275 327
#     4   9  17  33  58  83 108 143 180 215 265 328
#     4  10  22  38  56  78 108 148 187 227 274 330
#     4   9  17  31  54  83 111 142 182 230 283 332
#     4  10  20  35  57  82 111 144 184 234 278 325
#     4  10  21  39  58  79 111 147 186 226 271 328
#     4  11  21  35  59  87 113 142 178 222 271 323
#
# _framework density 18.924873000000002
#
# number of rings (size 3 to 8) (size 9 to 14) (size 15 to 20)
#    0.000    2.286    1.429    1.286    0.000    5.143 
#    0.000    5.000    0.000    0.000    0.000    0.000 
#    0.000    0.000    0.000    0.000    0.000    0.000 
#
# Total GULP energy -156315.833822 kJ/mol
# GULP energy per Si atom -5582.708351 kJ/mol
# Density = 1.888180 g / cm^3
# Si number density = 18.924873 Si / 1000 Ang^3
#
#
#
# Elastic Constant Matrix: (Units=GPa)
#
#
# Indices 1 2 3 4 5 6 
#
# 1 92.9289 8.9131 28.4175 0.0000 7.1606 0.0000
# 2 8.9131 11.8313 9.2572 0.0000 -0.3047 0.0000
# 3 28.4175 9.2572 87.0262 0.0000 8.7749 0.0000
# 4 0.0000 0.0000 0.0000 25.7189 0.0000 -0.9042
# 5 7.1606 -0.3047 8.7749 0.0000 33.9645 0.0000
# 6 0.0000 0.0000 0.0000 -0.9042 0.0000 25.2579
#
#
#
# Elastic Compliance Matrix: (Units=1/GPa)
#
#
# Indices 1 2 3 4 5 6 
#
# 1 0.012547 -0.007030 -0.003158 0.000000 -0.001892 0.000000
# 2 -0.007030 0.096529 -0.008429 0.000000 0.004526 0.000000
# 3 -0.003158 -0.008429 0.013717 0.000000 -0.002953 0.000000
# 4 0.000000 0.000000 0.000000 0.038931 0.000000 0.001394
# 5 -0.001892 0.004526 -0.002953 0.000000 0.030645 0.000000
# 6 0.000000 0.000000 0.000000 0.001394 0.000000 0.039641
#
#
# Mechanical properties :
#
#
# Convention : Reuss Voigt Hill
#
# Bulk Modulus (GPa) = 11.68797 31.66245 21.67521
# Shear Modulus (GPa) = 16.79191 26.66818 21.73004
#
# Velocity S-wave (km/s) = 2.98198 3.75795 3.39223
# Velocity P-wave (km/s) = 4.24802 5.96628 5.17891
#
# Compressibility (1/GPa) = 0.08555808
#
# Stress axis : x y z
#
# Youngs Moduli (GPa) = 79.70158 10.35963 72.90460
#
# Poissons Ratio (x) = 0.07282 0.23027
# Poissons Ratio (y) = 0.56027 0.61450
# Poissons Ratio (z) = 0.25174 0.08732
#
# Static dielectric constant tensor:
#      x y z
#    x 1.665260 0.000000 0.008620 
#    y 0.000000 1.646360 0.000000 
#    z 0.008620 0.000000 1.628420 
# 
# From -- ./inp_files/338529.got.cif
#   From: 2010.05.17/outbox.cif.g08.bks.cpg/sg12_170_cif.got.tgz:338529.got - 2010.06.03 13:09:07.
