data_PCOD9196814
_publ_section_title
;
Structure prediction by ZEFSAII (Michael W. Deem and Ramdas Pophale) SiO2 
 PCOD9196814
Probable space group: C 2/M
;
_chemical_formula_sum "Si O2"
_cell_formula_units_Z 56
_cell_length_a 15.450200
_cell_length_b 15.278724
_cell_length_c 11.437803
_cell_angle_alpha 90.000000
_cell_angle_beta 116.104196
_cell_angle_gamma 90.000000
_cell_volume 2424.587678
_symmetry_space_group_name_H-M "C 2/M"
_symmetry_group_IT_number 12
_symmetry_cell_setting 'monoclinic'
loop_
_space_group_symop_operation_xyz
x,y,z
-x,y,-z
-x,-y,-z
x,-y,z
1/2+x,1/2+y,z
1/2-x,1/2+y,-z
1/2-x,1/2-y,-z
1/2+x,1/2-y,z
loop_
_atom_site_type_symbol
_atom_site_label
_atom_site_fract_x
_atom_site_fract_y
_atom_site_fract_z
Si Si1 0.766205 0.099503 0.814166
Si Si2 0.060019 0.152368 0.394898
Si Si3 0.594290 0.093510 0.895253
Si Si4 0.194676 0.726382 0.086834
Si Si5 0.740511 0.156292 0.559337
Si Si6 0.854349 0.898940 0.298848
Si Si7 0.542532 0.136589 0.398758
O O1 0.695071 0.092073 0.882582
O O2 0.837218 0.179976 0.881839
O O3 0.706106 0.144410 0.672167
O O4 0.796356 0.000000 0.805815
O O5 0.149496 0.126029 0.367104
O O6 0.105358 0.120201 0.546139
O O7 0.045232 0.256872 0.398912
O O8 0.957166 0.114733 0.294651
O O9 0.518385 0.107888 0.747730
O O10 0.580438 0.000000 0.943480
O O11 0.605463 0.167400 0.997699
O O12 0.270971 0.668698 0.209535
O O13 0.250000 0.750000 0.000000
O O14 0.750000 0.250000 0.500000
O O15 0.653533 0.107978 0.443867
O O16 0.823046 0.000000 0.269582
O O17 0.500000 0.108528 0.500000
#
# Coordination Sequence:
#
# PCOD9196814 Si02
#       7
#     8   8   8   8   8   8   8
#     4  10  20  35  57  87 119 154 198 252 306 363
#     4  10  20  35  58  88 120 154 198 254 313 358
#     4  10  21  35  57  89 121 159 208 249 297 361
#     4  10  20  36  59  83 116 158 203 254 297 356
#     4  10  21  34  57  89 124 160 198 245 311 370
#     4  11  21  36  60  86 117 158 208 253 302 365
#     4  11  18  34  59  85 120 159 200 244 302 363
#
# _framework density 23.096710999999999
#
# number of rings (size 3 to 8) (size 9 to 14) (size 15 to 20)
#    0.000    1.714    2.857    4.714    0.000    2.571 
#    0.000    0.000    0.000   19.714    0.000   31.000 
#    0.000    0.000    0.000    0.000    0.000    0.000 
#
# Total GULP energy -155899.953232 kJ/mol
# GULP energy per Si atom -5567.855473 kJ/mol
# Density = 2.304414 g / cm^3
# Si number density = 23.096711 Si / 1000 Ang^3
#
#
#
# Elastic Constant Matrix: (Units=GPa)
#
#
# Indices 1 2 3 4 5 6 
#
# 1 55.4194 15.2473 1.6603 0.0000 8.0340 0.0000
# 2 15.2473 188.2993 56.8500 0.0000 5.7170 0.0000
# 3 1.6603 56.8500 73.8120 0.0000 9.1777 0.0000
# 4 0.0000 0.0000 0.0000 13.3749 0.0000 -4.5046
# 5 8.0340 5.7170 9.1777 0.0000 15.8085 0.0000
# 6 0.0000 0.0000 0.0000 -4.5046 0.0000 4.7720
#
#
#
# Elastic Compliance Matrix: (Units=1/GPa)
#
#
# Indices 1 2 3 4 5 6 
#
# 1 0.020117 -0.002047 0.002482 0.000000 -0.010924 0.000000
# 2 -0.002047 0.007134 -0.005666 0.000000 0.001750 0.000000
# 3 0.002482 -0.005666 0.019140 0.000000 -0.010324 0.000000
# 4 0.000000 0.000000 0.000000 0.109615 0.000000 0.103471
# 5 -0.010924 0.001750 -0.010324 0.000000 0.074170 0.000000
# 6 0.000000 0.000000 0.000000 0.103471 0.000000 0.307228
#
#
# Mechanical properties :
#
#
# Convention : Reuss Voigt Hill
#
# Bulk Modulus (GPa) = 27.83251 51.67176 39.75213
# Shear Modulus (GPa) = 8.93112 23.04263 15.98688
#
# Velocity S-wave (km/s) = 1.96856 3.16200 2.63377
# Velocity P-wave (km/s) = 4.15254 5.97925 5.14757
#
# Compressibility (1/GPa) = 0.03592921
#
# Stress axis : x y z
#
# Youngs Moduli (GPa) = 49.71014 140.17456 52.24712
#
# Poissons Ratio (x) = 0.28689 -0.12968
# Poissons Ratio (y) = 0.10174 0.29604
# Poissons Ratio (z) = -0.12339 0.79424
#
# Static dielectric constant tensor:
#      x y z
#    x 2.073020 0.000000 -0.065980 
#    y 0.000000 1.948140 0.000000 
#    z -0.065980 0.000000 1.924980 
# 
# From -- ./inp_files/156757.got.cif
#   From: 2010.05.17/outbox.cif.g08.bks.cpg/sg12_79_cif.got.tgz:156757.got - 2010.06.03 13:09:07.
