data_PCOD9196624
_publ_section_title
;
Structure prediction by ZEFSAII (Michael W. Deem and Ramdas Pophale) SiO2 
 PCOD9196624
Probable space group: C 2/M
;
_chemical_formula_sum "Si O2"
_cell_formula_units_Z 48
_cell_length_a 29.712729
_cell_length_b 9.854605
_cell_length_c 14.763862
_cell_angle_alpha 90.000000
_cell_angle_beta 39.041973
_cell_angle_gamma 90.000000
_cell_volume 2722.990539
_symmetry_space_group_name_H-M "C 2/M"
_symmetry_group_IT_number 12
_symmetry_cell_setting 'monoclinic'
loop_
_space_group_symop_operation_xyz
x,y,z
-x,y,-z
-x,-y,-z
x,-y,z
1/2+x,1/2+y,z
1/2-x,1/2+y,-z
1/2-x,1/2-y,-z
1/2+x,1/2-y,z
loop_
_atom_site_type_symbol
_atom_site_label
_atom_site_fract_x
_atom_site_fract_y
_atom_site_fract_z
Si Si1 0.971405 0.655919 0.949431
Si Si2 0.229708 0.339260 0.444385
Si Si3 0.523321 0.660578 0.359089
Si Si4 0.841760 0.155078 0.106993
Si Si5 0.073955 0.656863 0.618927
Si Si6 0.811820 0.159499 0.946668
O O1 0.948654 0.500000 0.999616
O O2 0.032694 0.657748 0.778792
O O3 0.906379 0.742822 0.015695
O O4 0.000000 0.709991 0.000000
O O5 0.224456 0.500000 0.477239
O O6 0.250000 0.250000 0.500000
O O7 0.288436 0.325678 0.273907
O O8 0.154323 0.299046 0.516734
O O9 0.500000 0.678223 0.500000
O O10 0.516731 0.500000 0.346924
O O11 0.470494 0.749077 0.379647
O O12 0.606915 0.697019 0.210839
O O13 0.868513 0.000000 0.067759
O O14 0.807035 0.173580 0.062825
O O15 0.075734 0.500000 0.583034
O O16 0.802148 0.000000 0.938840
O O17 0.750000 0.250000 0.000000
#
# Coordination Sequence:
#
# PCOD9196624 Si02
#       6
#     8   8   8   8   8   8
#     4  10  20  35  57  84 112 145 185 230 279 331
#     4  10  22  39  58  84 116 151 192 232 278 333
#     4  10  22  40  60  84 114 148 188 233 283 338
#     4  10  21  38  58  82 114 149 185 230 281 334
#     4  10  21  37  58  84 114 148 188 233 279 333
#     4  10  22  39  59  85 115 146 186 234 282 337
#
# _framework density 17.627678
#
# number of rings (size 3 to 8) (size 9 to 14) (size 15 to 20)
#    0.000    2.000    1.667    1.000    2.333    4.667 
#    0.000    0.000    0.000    0.000    0.000    0.000 
#    0.000    0.000    0.000    0.000    0.000    0.000 
#
# Total GULP energy -133918.156188 kJ/mol
# GULP energy per Si atom -5579.923174 kJ/mol
# Density = 1.758756 g / cm^3
# Si number density = 17.627678 Si / 1000 Ang^3
#
#
#
# Elastic Constant Matrix: (Units=GPa)
#
#
# Indices 1 2 3 4 5 6 
#
# 1 -135.8440 -111.4079 -93.3381 0.0000 47.8697 0.0000
# 2 -111.4079 -67.3606 -60.1106 0.0000 31.2710 0.0000
# 3 -93.3381 -60.1106 -7.0240 0.0000 26.1443 0.0000
# 4 0.0000 0.0000 0.0000 22.5036 0.0000 1.1380
# 5 47.8697 31.2710 26.1443 0.0000 20.7258 0.0000
# 6 0.0000 0.0000 0.0000 1.1380 0.0000 37.3199
#
#
#
# Elastic Compliance Matrix: (Units=1/GPa)
#
#
# Indices 1 2 3 4 5 6 
#
# 1 0.021165 -0.031604 -0.002678 0.000000 0.002178 0.000000
# 2 -0.031604 0.054698 -0.014682 0.000000 0.008987 0.000000
# 3 -0.002678 -0.014682 0.021831 0.000000 0.000798 0.000000
# 4 0.000000 0.000000 0.000000 0.044506 0.000000 -0.001357
# 5 0.002178 0.008987 0.000798 0.000000 0.028652 0.000000
# 6 0.000000 0.000000 0.000000 -0.001357 0.000000 0.026837
#
#
# Mechanical properties :
#
#
# Convention : Reuss Voigt Hill
#
# Bulk Modulus (GPa) = -4282.41960 -82.21577 -2182.31768
# Shear Modulus (GPa) = 16.91836 19.75172 18.33504
#
# Velocity S-wave (km/s) = 3.10136 3.35101 3.22860
# Velocity P-wave (km/s) = 49.21201 5.63640 35.02564
#
# Compressibility (1/GPa) = -0.00023351
#
# Stress axis : x y z
#
# Youngs Moduli (GPa) = 47.24856 18.28235 45.80693
#
# Poissons Ratio (x) = 0.57779 0.12266
# Poissons Ratio (y) = 1.49323 0.67253
# Poissons Ratio (z) = 0.12652 0.26842
#
# Static dielectric constant tensor:
#      x y z
#    x 1.558070 0.000000 0.007760 
#    y 0.000000 1.597390 0.000000 
#    z 0.007760 0.000000 1.601120 
# 
# From -- ./inp_files/244712.got.cif
#   From: 2010.05.17/outbox.cif.g08.bks.cpg/sg12_123_cif.got.tgz:244712.got - 2010.06.03 13:09:07.
