data_PCOD9196476
_publ_section_title
;
Structure prediction by ZEFSAII (Michael W. Deem and Ramdas Pophale) SiO2 
 PCOD9196476
Probable space group: C 2/M
;
_chemical_formula_sum "Si O2"
_cell_formula_units_Z 52
_cell_length_a 20.303758
_cell_length_b 21.219220
_cell_length_c 8.032019
_cell_angle_alpha 90.000000
_cell_angle_beta 50.191494
_cell_angle_gamma 90.000000
_cell_volume 2658.265559
_symmetry_space_group_name_H-M "C 2/M"
_symmetry_group_IT_number 12
_symmetry_cell_setting 'monoclinic'
loop_
_space_group_symop_operation_xyz
x,y,z
-x,y,-z
-x,-y,-z
x,-y,z
1/2+x,1/2+y,z
1/2-x,1/2+y,-z
1/2-x,1/2-y,-z
1/2+x,1/2-y,z
loop_
_atom_site_type_symbol
_atom_site_label
_atom_site_fract_x
_atom_site_fract_y
_atom_site_fract_z
Si Si1 0.183780 0.677608 0.282078
Si Si2 0.533557 0.393183 0.126516
Si Si3 0.000000 0.688280 0.500000
Si Si4 0.251203 0.808201 0.196159
Si Si5 0.147075 0.071477 0.479755
Si Si6 0.561796 0.244507 0.052116
Si Si7 0.206443 0.932718 0.766718
O O1 0.187503 0.749805 0.340614
O O2 0.234231 0.627473 0.307771
O O3 0.087534 0.654112 0.408180
O O4 0.232035 0.684144 0.027742
O O5 0.451845 0.405374 0.374962
O O6 0.560646 0.320354 0.058342
O O7 0.500000 0.415756 0.000000
O O8 0.622758 0.426950 0.019981
O O9 0.973214 0.725810 0.709291
O O10 0.209892 0.874108 0.313786
O O11 0.343748 0.786281 0.119094
O O12 0.171427 0.067960 0.635775
O O13 0.156499 0.000000 0.397989
O O14 0.500000 0.224764 0.000000
O O15 0.249821 0.000000 0.728019
#
# Coordination Sequence:
#
# PCOD9196476 Si02
#       7
#     8   8   4   8   8   8   8
#     4  10  21  38  56  82 112 153 195 241 300 337
#     4   9  17  34  54  83 118 152 191 230 288 357
#     4  10  22  36  55  84 119 150 192 252 290 344
#     4  10  21  37  57  84 117 148 194 247 288 353
#     4  10  21  35  57  87 118 154 190 237 297 353
#     4  10  20  35  59  90 117 152 193 241 299 350
#     4  10  20  35  57  81 115 154 194 238 289 360
#
# _framework density 19.561627000000001
#
# number of rings (size 3 to 8) (size 9 to 14) (size 15 to 20)
#    0.000    2.154    1.538    1.385    2.154    3.077 
#    0.000    0.385    0.000    3.231    0.000    0.000 
#    0.000    0.000    0.000    0.000    0.000    0.000 
#
# Total GULP energy -144907.059124 kJ/mol
# GULP energy per Si atom -5573.348428 kJ/mol
# Density = 1.951710 g / cm^3
# Si number density = 19.561627 Si / 1000 Ang^3
#
#
#
# Elastic Constant Matrix: (Units=GPa)
#
#
# Indices 1 2 3 4 5 6 
#
# 1 45.1216 23.3497 21.7909 0.0000 -5.0574 0.0000
# 2 23.3497 128.3506 39.6952 0.0000 -20.0753 0.0000
# 3 21.7909 39.6952 60.8369 0.0000 -20.9292 0.0000
# 4 0.0000 0.0000 0.0000 8.3720 0.0000 -17.0777
# 5 -5.0574 -20.0753 -20.9292 0.0000 21.6175 0.0000
# 6 0.0000 0.0000 0.0000 -17.0777 0.0000 -19.5091
#
#
#
# Elastic Compliance Matrix: (Units=1/GPa)
#
#
# Indices 1 2 3 4 5 6 
#
# 1 0.027890 -0.002861 -0.010184 0.000000 -0.005992 0.000000
# 2 -0.002861 0.010335 -0.003969 0.000000 0.005085 0.000000
# 3 -0.010184 -0.003969 0.030868 0.000000 0.023817 0.000000
# 4 0.000000 0.000000 0.000000 0.042879 0.000000 -0.037535
# 5 -0.005992 0.005085 0.023817 0.000000 0.072638 0.000000
# 6 0.000000 0.000000 0.000000 -0.037535 0.000000 -0.018401
#
#
# Mechanical properties :
#
#
# Convention : Reuss Voigt Hill
#
# Bulk Modulus (GPa) = 28.51915 44.88672 36.70294
# Shear Modulus (GPa) = 23.59314 12.06097 17.82706
#
# Velocity S-wave (km/s) = 3.47665 2.48576 3.02210
# Velocity P-wave (km/s) = 5.54319 5.58881 5.56605
#
# Compressibility (1/GPa) = 0.03506416
#
# Stress axis : x y z
#
# Youngs Moduli (GPa) = 35.85555 96.76304 32.39553
#
# Poissons Ratio (x) = 0.27687 0.32992
# Poissons Ratio (y) = 0.10259 0.12857
# Poissons Ratio (z) = 0.36516 0.38403
#
# Static dielectric constant tensor:
#      x y z
#    x 1.712710 0.000000 0.002610 
#    y 0.000000 1.692620 0.000000 
#    z 0.002610 0.000000 1.735700 
# 
# From -- ./inp_files/88369.got.cif
#   From: 2010.05.17/outbox.cif.g08.bks.cpg/sg12_45_cif.got.tgz:88369.got - 2010.06.03 13:09:07.
