data_PCOD9196353
_publ_section_title
;
Structure prediction by ZEFSAII (Michael W. Deem and Ramdas Pophale) SiO2 
 PCOD9196353
Probable space group: C 2/M
;
_chemical_formula_sum "Si O2"
_cell_formula_units_Z 48
_cell_length_a 20.695546
_cell_length_b 18.445749
_cell_length_c 9.365021
_cell_angle_alpha 90.000000
_cell_angle_beta 34.471891
_cell_angle_gamma 90.000000
_cell_volume 2023.484094
_symmetry_space_group_name_H-M "C 2/M"
_symmetry_group_IT_number 12
_symmetry_cell_setting 'monoclinic'
loop_
_space_group_symop_operation_xyz
x,y,z
-x,y,-z
-x,-y,-z
x,-y,z
1/2+x,1/2+y,z
1/2-x,1/2+y,-z
1/2-x,1/2-y,-z
1/2+x,1/2-y,z
loop_
_atom_site_type_symbol
_atom_site_label
_atom_site_fract_x
_atom_site_fract_y
_atom_site_fract_z
Si Si1 0.098385 0.254787 0.910940
Si Si2 0.320367 0.083077 0.570289
Si Si3 0.178279 0.807800 0.036344
Si Si4 0.445222 0.086599 0.745218
Si Si5 0.698916 0.638773 0.527763
Si Si6 0.677266 0.415467 0.269911
O O1 0.213125 0.301518 0.692147
O O2 0.118001 0.183350 0.779291
O O3 0.089152 0.232361 0.093154
O O4 0.000000 0.293221 0.000000
O O5 0.455236 0.100766 0.322641
O O6 0.268284 0.086938 0.507533
O O7 0.306778 0.000000 0.651212
O O8 0.257880 0.142195 0.785954
O O9 0.125793 0.863949 0.243914
O O10 0.250000 0.750000 0.000000
O O11 0.500000 0.117591 0.500000
O O12 0.441226 0.000000 0.736854
O O13 0.314204 0.103612 0.013855
O O14 0.641925 0.601107 0.496446
O O15 0.661955 0.500000 0.265888
#
# Coordination Sequence:
#
# PCOD9196353 Si02
#       6
#     8   8   8   8   8   8
#     4  10  23  43  62  85 125 166 202 250 304 367
#     4  10  20  35  56  84 126 166 198 242 305 374
#     4  11  21  37  60  86 119 160 206 244 295 362
#     4   9  17  30  51  87 124 156 191 230 301 386
#     4  10  22  38  61  90 122 156 208 248 304 367
#     4  11  21  36  61  91 126 156 196 260 312 359
#
# _framework density 23.721461999999999
#
# number of rings (size 3 to 8) (size 9 to 14) (size 15 to 20)
#    0.000    1.833    3.333    1.000    2.333    0.000 
#    0.000    3.333    0.000   19.000    0.000    0.000 
#    0.000    0.000    0.000    0.000    0.000    0.000 
#
# Total GULP energy -134024.909903 kJ/mol
# GULP energy per Si atom -5584.371246 kJ/mol
# Density = 2.366747 g / cm^3
# Si number density = 23.721462 Si / 1000 Ang^3
#
#
#
# Elastic Constant Matrix: (Units=GPa)
#
#
# Indices 1 2 3 4 5 6 
#
# 1 122.7850 46.5236 40.5764 0.0000 41.4315 0.0000
# 2 46.5236 118.9350 23.0557 0.0000 22.6293 0.0000
# 3 40.5764 23.0557 41.5776 0.0000 12.2385 0.0000
# 4 0.0000 0.0000 0.0000 -30.8674 0.0000 31.8069
# 5 41.4315 22.6293 12.2385 0.0000 43.4167 0.0000
# 6 0.0000 0.0000 0.0000 31.8069 0.0000 28.7093
#
#
#
# Elastic Compliance Matrix: (Units=1/GPa)
#
#
# Indices 1 2 3 4 5 6 
#
# 1 0.016713 -0.002057 -0.011767 0.000000 -0.011560 0.000000
# 2 -0.002057 0.010269 -0.002932 0.000000 -0.002563 0.000000
# 3 -0.011767 -0.002932 0.036429 0.000000 0.002489 0.000000
# 4 0.000000 0.000000 0.000000 -0.015127 0.000000 0.016759
# 5 -0.011560 -0.002563 0.002489 0.000000 0.034698 0.000000
# 6 0.000000 0.000000 0.000000 0.016759 0.000000 0.016264
#
#
# Mechanical properties :
#
#
# Convention : Reuss Voigt Hill
#
# Bulk Modulus (GPa) = 33.44814 55.95656 44.70235
# Shear Modulus (GPa) = 35.03261 19.79452 27.41356
#
# Velocity S-wave (km/s) = 3.84713 2.89183 3.40316
# Velocity P-wave (km/s) = 5.81935 5.89834 5.85898
#
# Compressibility (1/GPa) = 0.02989703
#
# Stress axis : x y z
#
# Youngs Moduli (GPa) = 59.83356 97.38410 27.45089
#
# Poissons Ratio (x) = 0.20033 0.32302
# Poissons Ratio (y) = 0.12308 0.08049
# Poissons Ratio (z) = 0.70408 0.28556
#
# Static dielectric constant tensor:
#      x y z
#    x 1.963940 0.000000 -0.022900 
#    y 0.000000 1.931990 0.000000 
#    z -0.022900 0.000000 1.921680 
# 
# From -- ./inp_files/89447.got.cif
#   From: 2010.05.17/outbox.cif.g08.bks.cpg/sg12_45_cif.got.tgz:89447.got - 2010.06.03 13:09:07.
