data_PCOD9196452
_publ_section_title
;
Structure prediction by ZEFSAII (Michael W. Deem and Ramdas Pophale) SiO2 
 PCOD9196452
Probable space group: C 2/M
;
_chemical_formula_sum "Si O2"
_cell_formula_units_Z 48
_cell_length_a 18.562531
_cell_length_b 7.616234
_cell_length_c 15.827643
_cell_angle_alpha 90.000000
_cell_angle_beta 91.218464
_cell_angle_gamma 90.000000
_cell_volume 2237.152059
_symmetry_space_group_name_H-M "C 2/M"
_symmetry_group_IT_number 12
_symmetry_cell_setting 'monoclinic'
loop_
_space_group_symop_operation_xyz
x,y,z
-x,y,-z
-x,-y,-z
x,-y,z
1/2+x,1/2+y,z
1/2-x,1/2+y,-z
1/2-x,1/2-y,-z
1/2+x,1/2-y,z
loop_
_atom_site_type_symbol
_atom_site_label
_atom_site_fract_x
_atom_site_fract_y
_atom_site_fract_z
Si Si1 0.203341 0.293426 0.743827
Si Si2 0.209876 0.290887 0.086346
Si Si3 0.292948 0.711156 0.586521
Si Si4 0.456743 0.288449 0.580703
Si Si5 0.044667 0.715023 0.083579
Si Si6 0.458627 0.789733 0.245928
O O1 0.194084 0.500000 0.725006
O O2 0.246323 0.277915 0.832200
O O3 0.249619 0.219691 0.666961
O O4 0.122830 0.218892 0.750911
O O5 0.207181 0.500000 0.095346
O O6 0.127494 0.225522 0.083114
O O7 0.250000 0.250000 0.000000
O O8 0.297848 0.500000 0.595234
O O9 0.250000 0.750000 0.500000
O O10 0.374789 0.778234 0.583131
O O11 0.500000 0.222387 0.500000
O O12 0.453379 0.500000 0.573631
O O13 0.499369 0.245455 0.666797
O O14 0.045869 0.500000 0.083728
O O15 0.003810 0.775764 0.166802
O O16 0.000000 0.768809 0.000000
O O17 0.453662 0.000000 0.234346
#
# Coordination Sequence:
#
# PCOD9196452 Si02
#       6
#     8   8   8   8   8   8
#     4  10  21  37  56  80 110 141 177 224 271 315
#     4  11  22  36  57  82 108 141 178 218 266 319
#     4  10  21  36  55  80 110 144 181 223 270 318
#     4  10  21  36  53  76 109 145 177 216 268 319
#     4   9  18  34  55  78 105 137 173 214 260 310
#     4  10  20  35  57  81 104 137 180 222 263 310
#
# _framework density 21.455850000000002
#
# number of rings (size 3 to 8) (size 9 to 14) (size 15 to 20)
#    0.000    2.000    0.000    3.500    0.000    5.000 
#    0.000    0.833    0.000    3.500    0.000    0.000 
#    0.000    0.000    0.000    0.000    0.000    0.000 
#
# Total GULP energy -134173.589134 kJ/mol
# GULP energy per Si atom -5590.566214 kJ/mol
# Density = 2.140702 g / cm^3
# Si number density = 21.455850 Si / 1000 Ang^3
#
#
#
# Elastic Constant Matrix: (Units=GPa)
#
#
# Indices 1 2 3 4 5 6 
#
# 1 265.0002 -0.1054 140.1257 0.0000 -13.8848 0.0000
# 2 -0.1054 40.6543 -18.9247 0.0000 -12.3497 0.0000
# 3 140.1257 -18.9247 217.6961 0.0000 -19.3943 0.0000
# 4 0.0000 0.0000 0.0000 42.1652 0.0000 16.0820
# 5 -13.8848 -12.3497 -19.3943 0.0000 46.7615 0.0000
# 6 0.0000 0.0000 0.0000 16.0820 0.0000 7.9892
#
#
#
# Elastic Compliance Matrix: (Units=1/GPa)
#
#
# Indices 1 2 3 4 5 6 
#
# 1 0.005853 -0.001967 -0.003977 0.000000 -0.000431 0.000000
# 2 -0.001967 0.029534 0.004648 0.000000 0.009144 0.000000
# 3 -0.003977 0.004648 0.007852 0.000000 0.003303 0.000000
# 4 0.000000 0.000000 0.000000 0.102120 0.000000 -0.205565
# 5 -0.000431 0.009144 0.003303 0.000000 0.025042 0.000000
# 6 0.000000 0.000000 0.000000 -0.205565 0.000000 0.538967
#
#
# Mechanical properties :
#
#
# Convention : Reuss Voigt Hill
#
# Bulk Modulus (GPa) = 24.60188 85.06020 54.83104
# Shear Modulus (GPa) = 6.89172 46.20018 26.54595
#
# Velocity S-wave (km/s) = 1.79416 4.64536 3.52125
# Velocity P-wave (km/s) = 3.97281 8.27665 6.49177
#
# Compressibility (1/GPa) = 0.04064730
#
# Stress axis : x y z
#
# Youngs Moduli (GPa) = 170.84958 33.85937 127.36034
#
# Poissons Ratio (x) = 0.06660 0.50650
# Poissons Ratio (y) = 0.33606 -0.59199
# Poissons Ratio (z) = 0.67945 -0.15738
#
# Static dielectric constant tensor:
#      x y z
#    x 1.761320 0.000000 -0.033940 
#    y 0.000000 1.822010 0.000000 
#    z -0.033940 0.000000 1.689330 
# 
# From -- ./inp_files/221577.got.cif
#   From: 2010.05.17/outbox.cif.g08.bks.cpg/sg12_111_cif.got.tgz:221577.got - 2010.06.03 13:09:07.
