data_PCOD9196851
_publ_section_title
;
Structure prediction by ZEFSAII (Michael W. Deem and Ramdas Pophale) SiO2 
 PCOD9196851
Probable space group: C 2/M
;
_chemical_formula_sum "Si O2"
_cell_formula_units_Z 56
_cell_length_a 16.277059
_cell_length_b 16.865063
_cell_length_c 13.592158
_cell_angle_alpha 90.000000
_cell_angle_beta 136.746307
_cell_angle_gamma 90.000000
_cell_volume 2556.752256
_symmetry_space_group_name_H-M "C 2/M"
_symmetry_group_IT_number 12
_symmetry_cell_setting 'monoclinic'
loop_
_space_group_symop_operation_xyz
x,y,z
-x,y,-z
-x,-y,-z
x,-y,z
1/2+x,1/2+y,z
1/2-x,1/2+y,-z
1/2-x,1/2-y,-z
1/2+x,1/2-y,z
loop_
_atom_site_type_symbol
_atom_site_label
_atom_site_fract_x
_atom_site_fract_y
_atom_site_fract_z
Si Si1 0.020066 0.167240 0.632646
Si Si2 0.640804 0.823439 0.809318
Si Si3 0.195604 0.089936 0.911261
Si Si4 0.242681 0.799817 0.288937
Si Si5 0.089079 0.410001 0.440575
Si Si6 0.968069 0.086511 0.857031
Si Si7 0.256594 0.669321 0.440239
O O1 0.058146 0.245343 0.727828
O O2 0.128866 0.108428 0.750948
O O3 0.000000 0.185049 0.500000
O O4 0.891726 0.136986 0.558601
O O5 0.740712 0.810583 0.812394
O O6 0.550245 0.893316 0.699725
O O7 0.704892 0.847404 0.966337
O O8 0.086392 0.095896 0.894950
O O9 0.241752 0.000000 0.954574
O O10 0.356779 0.846179 0.435483
O O11 0.129032 0.844933 0.234252
O O12 0.235374 0.708488 0.314994
O O13 0.108837 0.500000 0.490014
O O14 0.161587 0.390277 0.403289
O O15 0.914664 0.000000 0.784873
O O16 0.000000 0.084479 0.000000
O O17 0.250000 0.750000 0.500000
#
# Coordination Sequence:
#
# PCOD9196851 Si02
#       7
#     8   8   8   8   8   8   8
#     4  12  23  43  67  92 125 166 222 270 309 373
#     4  12  22  40  63  93 128 163 205 270 325 384
#     4  11  25  41  62  94 131 170 211 261 326 387
#     4  11  20  36  61  88 125 165 210 263 317 381
#     4  11  23  36  59  93 129 171 208 255 327 387
#     4  10  20  35  57  89 128 165 202 254 318 386
#     4  10  20  38  62  85 125 161 213 268 305 376
#
# _framework density 21.902787
#
# number of rings (size 3 to 8) (size 9 to 14) (size 15 to 20)
#    0.000    1.000    5.714    3.429    0.000    4.286 
#    0.000    0.000    0.000    0.000    0.000    2.000 
#    0.000    0.000    0.000    0.000    0.000    0.000 
#
# Total GULP energy -156370.986496 kJ/mol
# GULP energy per Si atom -5584.678089 kJ/mol
# Density = 2.185294 g / cm^3
# Si number density = 21.902787 Si / 1000 Ang^3
#
#
#
# Elastic Constant Matrix: (Units=GPa)
#
#
# Indices 1 2 3 4 5 6 
#
# 1 60.6428 9.4396 4.6265 0.0000 -2.6527 0.0000
# 2 9.4396 55.8420 17.5532 0.0000 -9.4070 0.0000
# 3 4.6265 17.5532 90.1997 0.0000 -11.1208 0.0000
# 4 0.0000 0.0000 0.0000 29.1135 0.0000 5.0894
# 5 -2.6527 -9.4070 -11.1208 0.0000 19.1226 0.0000
# 6 0.0000 0.0000 0.0000 5.0894 0.0000 13.9944
#
#
#
# Elastic Compliance Matrix: (Units=1/GPa)
#
#
# Indices 1 2 3 4 5 6 
#
# 1 0.016959 -0.002636 -0.000244 0.000000 0.000914 0.000000
# 2 -0.002636 0.020624 -0.002879 0.000000 0.008106 0.000000
# 3 -0.000244 -0.002879 0.012367 0.000000 0.005742 0.000000
# 4 0.000000 0.000000 0.000000 0.036680 0.000000 -0.013340
# 5 0.000914 0.008106 0.005742 0.000000 0.059748 0.000000
# 6 0.000000 0.000000 0.000000 -0.013340 0.000000 0.076308
#
#
# Mechanical properties :
#
#
# Convention : Reuss Voigt Hill
#
# Bulk Modulus (GPa) = 26.02031 29.99143 28.00587
# Shear Modulus (GPa) = 20.24171 24.11712 22.17941
#
# Velocity S-wave (km/s) = 3.04330 3.32188 3.18564
# Velocity P-wave (km/s) = 4.92490 5.33253 5.13276
#
# Compressibility (1/GPa) = 0.03843151
#
# Stress axis : x y z
#
# Youngs Moduli (GPa) = 58.96596 48.48798 80.85896
#
# Poissons Ratio (x) = 0.12782 0.01975
# Poissons Ratio (y) = 0.15544 0.23278
# Poissons Ratio (z) = 0.01440 0.13959
#
# Static dielectric constant tensor:
#      x y z
#    x 1.838390 0.000000 -0.049350 
#    y 0.000000 1.836250 0.000000 
#    z -0.049350 0.000000 1.871870 
# 
# From -- ./inp_files/226598.got.cif
#   From: 2010.05.17/outbox.cif.g08.bks.cpg/sg12_114_cif.got.tgz:226598.got - 2010.06.03 13:09:07.
