data_PCOD9196046
_publ_section_title
;
Structure prediction by ZEFSAII (Michael W. Deem and Ramdas Pophale) SiO2 
 PCOD9196046
Probable space group: C 2/M
;
_chemical_formula_sum "Si O2"
_cell_formula_units_Z 40
_cell_length_a 21.098814
_cell_length_b 7.752207
_cell_length_c 23.523143
_cell_angle_alpha 90.000000
_cell_angle_beta 149.889191
_cell_angle_gamma 90.000000
_cell_volume 1930.191043
_symmetry_space_group_name_H-M "C 2/M"
_symmetry_group_IT_number 12
_symmetry_cell_setting 'monoclinic'
loop_
_space_group_symop_operation_xyz
x,y,z
-x,y,-z
-x,-y,-z
x,-y,z
1/2+x,1/2+y,z
1/2-x,1/2+y,-z
1/2-x,1/2-y,-z
1/2+x,1/2-y,z
loop_
_atom_site_type_symbol
_atom_site_label
_atom_site_fract_x
_atom_site_fract_y
_atom_site_fract_z
Si Si1 0.621548 0.804071 0.750303
Si Si2 0.613538 0.199137 0.365557
Si Si3 0.558844 0.303689 0.484288
Si Si4 0.361445 0.710492 0.869536
Si Si5 0.336364 0.303203 0.720507
O O1 0.517621 0.720312 0.712046
O O2 0.538111 0.800533 0.628705
O O3 0.753526 0.725839 0.829833
O O4 0.650360 0.000000 0.792129
O O5 0.750000 0.250000 0.500000
O O6 0.608980 0.217550 0.293950
O O7 0.604456 0.000000 0.374318
O O8 0.500000 0.320851 0.500000
O O9 0.580758 0.500000 0.478785
O O10 0.688741 0.205448 0.591637
O O11 0.347081 0.500000 0.856398
O O12 0.349951 0.771178 0.794897
O O13 0.500000 0.750847 0.000000
O O14 0.382501 0.500000 0.757989
#
# Coordination Sequence:
#
# PCOD9196046 Si02
#       5
#     8   8   8   8   8
#     4  10  20  35  56  80 109 145 184 226 271 328
#     4  11  22  34  52  82 119 152 180 220 275 338
#     4  11  21  31  50  82 116 144 174 225 284 337
#     4   9  19  37  60  82 103 139 194 242 275 318
#     4  11  21  34  56  82 112 147 183 229 277 330
#
# _framework density 20.723338999999999
#
# number of rings (size 3 to 8) (size 9 to 14) (size 15 to 20)
#    0.000    1.600    4.000    1.800    0.000    1.600 
#    0.000    1.000    0.000    5.400    0.000    0.000 
#    0.000    0.000    0.000    0.000    0.000    0.000 
#
# Total GULP energy -111348.493567 kJ/mol
# GULP energy per Si atom -5567.424678 kJ/mol
# Density = 2.067617 g / cm^3
# Si number density = 20.723339 Si / 1000 Ang^3
#
#
#
# Elastic Constant Matrix: (Units=GPa)
#
#
# Indices 1 2 3 4 5 6 
#
# 1 163.5034 2.9347 53.6324 0.0000 35.6825 0.0000
# 2 2.9347 45.4499 -6.6925 0.0000 -2.3699 0.0000
# 3 53.6324 -6.6925 95.8975 0.0000 31.1856 0.0000
# 4 0.0000 0.0000 0.0000 8.8696 0.0000 -2.9770
# 5 35.6825 -2.3699 31.1856 0.0000 18.9256 0.0000
# 6 0.0000 0.0000 0.0000 -2.9770 0.0000 19.8455
#
#
#
# Elastic Compliance Matrix: (Units=1/GPa)
#
#
# Indices 1 2 3 4 5 6 
#
# 1 0.010581 -0.001665 0.001124 0.000000 -0.022009 0.000000
# 2 -0.001665 0.022495 0.001215 0.000000 0.003954 0.000000
# 3 0.001124 0.001215 0.022673 0.000000 -0.039328 0.000000
# 4 0.000000 0.000000 0.000000 0.118722 0.000000 0.017810
# 5 -0.022009 0.003954 -0.039328 0.000000 0.159633 0.000000
# 6 0.000000 0.000000 0.000000 0.017810 0.000000 0.053061
#
#
# Mechanical properties :
#
#
# Convention : Reuss Voigt Hill
#
# Bulk Modulus (GPa) = 17.51426 44.95556 31.23491
# Shear Modulus (GPa) = 12.35027 26.52655 19.43841
#
# Velocity S-wave (km/s) = 2.44388 3.58164 3.06600
# Velocity P-wave (km/s) = 4.05379 6.23253 5.25726
#
# Compressibility (1/GPa) = 0.05709633
#
# Stress axis : x y z
#
# Youngs Moduli (GPa) = 94.51347 44.45445 44.10443
#
# Poissons Ratio (x) = 0.07403 -0.04955
# Poissons Ratio (y) = 0.15740 -0.05361
# Poissons Ratio (z) = -0.10619 -0.05403
#
# Static dielectric constant tensor:
#      x y z
#    x 1.850490 0.000000 0.038660 
#    y 0.000000 1.836990 0.000000 
#    z 0.038660 0.000000 1.690770 
# 
# From -- ./inp_files/162489.got.cif
#   From: 2010.05.17/outbox.cif.g08.bks.cpg/sg12_82_cif.got.tgz:162489.got - 2010.06.03 13:09:07.
