data_PCOD9196580
_publ_section_title
;
Structure prediction by ZEFSAII (Michael W. Deem and Ramdas Pophale) SiO2 
 PCOD9196580
Probable space group: C 2/M
;
_chemical_formula_sum "Si O2"
_cell_formula_units_Z 32
_cell_length_a 9.770821
_cell_length_b 11.572176
_cell_length_c 22.486271
_cell_angle_alpha 90.000000
_cell_angle_beta 148.580986
_cell_angle_gamma 90.000000
_cell_volume 1325.394928
_symmetry_space_group_name_H-M "C 2/M"
_symmetry_group_IT_number 12
_symmetry_cell_setting 'monoclinic'
loop_
_space_group_symop_operation_xyz
x,y,z
-x,y,-z
-x,-y,-z
x,-y,z
1/2+x,1/2+y,z
1/2-x,1/2+y,-z
1/2-x,1/2-y,-z
1/2+x,1/2-y,z
loop_
_atom_site_type_symbol
_atom_site_label
_atom_site_fract_x
_atom_site_fract_y
_atom_site_fract_z
Si Si1 0.303124 0.705595 0.341113
Si Si2 0.151329 0.368838 0.411781
Si Si3 0.929784 0.372733 0.864364
Si Si4 0.537361 0.374571 0.084093
O O1 0.592012 0.646410 0.451480
O O2 0.201963 0.703802 0.370635
O O3 0.387507 0.830479 0.347332
O O4 0.120170 0.642767 0.225106
O O5 0.150630 0.500000 0.392467
O O6 0.821760 0.500000 0.841479
O O7 0.834197 0.249473 0.854317
O O8 0.236877 0.374153 0.996185
O O9 0.654254 0.500000 0.145076
O O10 0.500000 0.377444 0.000000
#
# Coordination Sequence:
#
# PCOD9196580 Si02
#       4
#     8   8   8   8
#     4  10  21  37  62  91 118 159 205 244 298 364
#     4  10  21  40  61  86 125 161 198 250 301 356
#     4  10  20  35  57  83 114 150 193 245 299 354
#     4   9  20  37  57  81 111 148 193 242 294 358
#
# _framework density 24.143747999999999
#
# number of rings (size 3 to 8) (size 9 to 14) (size 15 to 20)
#    0.000    2.250    0.000    3.000    3.500    1.500 
#    0.000   12.500    0.000    0.000    0.000    0.000 
#    0.000    0.000    0.000    0.000    0.000    0.000 
#
# Total GULP energy -89223.461126 kJ/mol
# GULP energy per Si atom -5576.466320 kJ/mol
# Density = 2.408880 g / cm^3
# Si number density = 24.143748 Si / 1000 Ang^3
#
#
#
# Elastic Constant Matrix: (Units=GPa)
#
#
# Indices 1 2 3 4 5 6 
#
# 1 45.8067 52.0606 -18.0585 0.0001 -11.8336 0.0000
# 2 52.0606 181.1040 31.9411 0.0000 -13.5776 0.0000
# 3 -18.0585 31.9411 92.2427 0.0002 4.2175 0.0000
# 4 0.0001 0.0000 0.0002 4.4315 0.0001 -6.7041
# 5 -11.8336 -13.5776 4.2175 0.0001 35.0729 0.0000
# 6 0.0000 0.0000 0.0000 -6.7041 0.0000 11.8290
#
#
#
# Elastic Compliance Matrix: (Units=1/GPa)
#
#
# Indices 1 2 3 4 5 6 
#
# 1 0.047052 -0.015410 0.014172 -0.000011 0.008205 -0.000006
# 2 -0.015410 0.011161 -0.006879 0.000004 -0.000051 0.000002
# 3 0.014172 -0.006879 0.015989 -0.000007 0.000196 -0.000004
# 4 -0.000011 0.000004 -0.000007 1.582592 -0.000004 0.896943
# 5 0.008205 -0.000051 0.000196 -0.000004 0.031237 -0.000002
# 6 -0.000006 0.000002 -0.000004 0.896943 -0.000002 0.592886
#
#
# Mechanical properties :
#
#
# Convention : Reuss Voigt Hill
#
# Bulk Modulus (GPa) = 17.25105 50.11552 33.68329
# Shear Modulus (GPa) = 2.15845 27.14735 14.65290
#
# Velocity S-wave (km/s) = 0.94654 3.35685 2.46621
# Velocity P-wave (km/s) = 2.89054 5.98555 4.70011
#
# Compressibility (1/GPa) = 0.05796748
#
# Stress axis : x y z
#
# Youngs Moduli (GPa) = 21.25320 89.59853 62.54449
#
# Poissons Ratio (x) = 1.38071 -0.88640
# Poissons Ratio (y) = 0.32751 0.43026
# Poissons Ratio (z) = -0.30121 0.61637
#
# Static dielectric constant tensor:
#      x y z
#    x 1.933030 0.000000 0.037990 
#    y 0.000000 1.977370 0.000000 
#    z 0.037990 0.000000 1.960630 
# 
# From -- ./inp_files/127214.got.cif
#   From: 2010.05.17/outbox.cif.g08.bks.cpg/sg12_64_cif.got.tgz:127214.got - 2010.06.03 13:09:07.
