data_PCOD9196210
_publ_section_title
;
Structure prediction by ZEFSAII (Michael W. Deem and Ramdas Pophale) SiO2 
 PCOD9196210
Probable space group: C 2/M
;
_chemical_formula_sum "Si O2"
_cell_formula_units_Z 56
_cell_length_a 19.103434
_cell_length_b 16.569854
_cell_length_c 11.485919
_cell_angle_alpha 90.000000
_cell_angle_beta 54.212643
_cell_angle_gamma 90.000000
_cell_volume 2949.307138
_symmetry_space_group_name_H-M "C 2/M"
_symmetry_group_IT_number 12
_symmetry_cell_setting 'monoclinic'
loop_
_space_group_symop_operation_xyz
x,y,z
-x,y,-z
-x,-y,-z
x,-y,z
1/2+x,1/2+y,z
1/2-x,1/2+y,-z
1/2-x,1/2-y,-z
1/2+x,1/2-y,z
loop_
_atom_site_type_symbol
_atom_site_label
_atom_site_fract_x
_atom_site_fract_y
_atom_site_fract_z
Si Si1 0.697544 0.402416 0.694697
Si Si2 0.509499 0.407586 0.849641
Si Si3 0.312261 0.907473 0.944649
Si Si4 0.852445 0.598083 0.370588
Si Si5 0.604030 0.157272 0.919583
Si Si6 0.519909 0.097872 0.352292
Si Si7 0.663374 0.674847 0.975513
O O1 0.694994 0.500000 0.701809
O O2 0.604979 0.374558 0.733258
O O3 0.776636 0.379710 0.534725
O O4 0.699108 0.372473 0.826075
O O5 0.504718 0.500000 0.814751
O O6 0.500000 0.407496 0.000000
O O7 0.426834 0.359897 0.888629
O O8 0.386188 0.879715 0.783092
O O9 0.234083 0.845147 0.004649
O O10 0.284386 0.000000 0.946533
O O11 0.361649 0.906951 0.019917
O O12 0.850299 0.500000 0.358146
O O13 0.850408 0.640181 0.247663
O O14 0.943820 0.620847 0.339307
O O15 0.636582 0.239345 0.948446
O O16 0.500000 0.156535 0.000000
O O17 0.500000 0.128270 0.500000
O O18 0.519447 0.000000 0.356178
#
# Coordination Sequence:
#
# PCOD9196210 Si02
#       7
#     8   8   8   8   8   8   8
#     4   9  17  32  56  84 111 144 190 241 288 329
#     4   8  14  28  52  79 106 137 179 233 285 327
#     4  11  22  37  59  82 111 151 196 240 281 333
#     4  10  20  35  56  82 114 150 194 238 277 335
#     4  12  24  38  55  81 120 162 191 222 283 354
#     4   9  17  31  54  82 108 137 179 236 286 321
#     4  11  21  35  55  84 115 145 188 240 289 336
#
# _framework density 18.98751
#
# number of rings (size 3 to 8) (size 9 to 14) (size 15 to 20)
#    0.000    2.000    1.429    5.143    0.000    3.429 
#    0.000    0.000    0.000    0.857    0.000    4.000 
#    0.000    0.000    0.000    0.000    0.000    0.000 
#
# Total GULP energy -156090.085735 kJ/mol
# GULP energy per Si atom -5574.645919 kJ/mol
# Density = 1.894429 g / cm^3
# Si number density = 18.987510 Si / 1000 Ang^3
#
#
#
# Elastic Constant Matrix: (Units=GPa)
#
#
# Indices 1 2 3 4 5 6 
#
# 1 109.4504 27.4166 12.4585 0.0000 -13.6672 0.0000
# 2 27.4166 44.5129 0.3649 0.0000 -9.0333 0.0000
# 3 12.4585 0.3649 26.7368 0.0000 -9.5443 0.0000
# 4 0.0000 0.0000 0.0000 -1.8554 0.0000 0.9116
# 5 -13.6672 -9.0333 -9.5443 0.0000 32.6600 0.0000
# 6 0.0000 0.0000 0.0000 0.9116 0.0000 19.0940
#
#
#
# Elastic Compliance Matrix: (Units=1/GPa)
#
#
# Indices 1 2 3 4 5 6 
#
# 1 0.011568 -0.006764 -0.004731 0.000000 0.001587 0.000000
# 2 -0.006764 0.027879 0.005039 0.000000 0.006353 0.000000
# 3 -0.004731 0.005039 0.043909 0.000000 0.012245 0.000000
# 4 0.000000 0.000000 0.000000 -0.526612 0.000000 0.025143
# 5 0.001587 0.006353 0.012245 0.000000 0.036618 0.000000
# 6 0.000000 0.000000 0.000000 0.025143 0.000000 0.051172
#
#
# Mechanical properties :
#
#
# Convention : Reuss Voigt Hill
#
# Bulk Modulus (GPa) = 14.19570 29.02001 21.60786
# Shear Modulus (GPa) = -15.67040 19.34372 1.83666
#
# Velocity S-wave (km/s) = -2.87592 3.19527 0.98458
# Velocity P-wave (km/s) = 1.88025 5.37865 3.56332
#
# Compressibility (1/GPa) = 0.07044386
#
# Stress axis : x y z
#
# Youngs Moduli (GPa) = 86.44829 35.86874 22.77452
#
# Poissons Ratio (x) = 0.24261 0.10775
# Poissons Ratio (y) = 0.58473 -0.11476
# Poissons Ratio (z) = 0.40900 -0.18075
#
# Static dielectric constant tensor:
#      x y z
#    x 1.695590 0.000000 -0.008840 
#    y 0.000000 1.700420 0.000000 
#    z -0.008840 0.000000 1.648750 
# 
# From -- ./inp_files/158192.got.cif
#   From: 2010.05.17/outbox.cif.g08.bks.cpg/sg12_80_cif.got.tgz:158192.got - 2010.06.03 13:09:07.
