data_PCOD9196570
_publ_section_title
;
Structure prediction by ZEFSAII (Michael W. Deem and Ramdas Pophale) SiO2 
 PCOD9196570
Probable space group: C 2/M
;
_chemical_formula_sum "Si O2"
_cell_formula_units_Z 48
_cell_length_a 12.688941
_cell_length_b 12.834366
_cell_length_c 21.249517
_cell_angle_alpha 90.000000
_cell_angle_beta 145.294984
_cell_angle_gamma 90.000000
_cell_volume 1970.286254
_symmetry_space_group_name_H-M "C 2/M"
_symmetry_group_IT_number 12
_symmetry_cell_setting 'monoclinic'
loop_
_space_group_symop_operation_xyz
x,y,z
-x,y,-z
-x,-y,-z
x,-y,z
1/2+x,1/2+y,z
1/2-x,1/2+y,-z
1/2-x,1/2-y,-z
1/2+x,1/2-y,z
loop_
_atom_site_type_symbol
_atom_site_label
_atom_site_fract_x
_atom_site_fract_y
_atom_site_fract_z
Si Si1 0.544273 0.112855 0.744633
Si Si2 0.748433 0.838928 0.300728
Si Si3 0.030655 0.659851 0.944039
Si Si4 0.346063 0.613647 0.004833
Si Si5 0.285497 0.886111 0.372546
Si Si6 0.574782 0.308612 0.385844
O O1 0.346535 0.116380 0.683714
O O2 0.696821 0.118933 0.874767
O O3 0.549782 0.216227 0.705736
O O4 0.560808 0.000000 0.720699
O O5 0.624622 0.874727 0.181105
O O6 0.737723 0.714205 0.307802
O O7 0.957121 0.861910 0.382927
O O8 0.227004 0.626170 0.010537
O O9 0.028970 0.785773 0.941210
O O10 0.000000 0.625161 0.000000
O O11 0.436211 0.500000 0.047035
O O12 0.500000 0.875569 0.500000
O O13 0.152571 0.878753 0.368116
O O14 0.262873 0.000000 0.332098
O O15 0.750000 0.250000 0.500000
#
# Coordination Sequence:
#
# PCOD9196570 Si02
#       6
#     8   8   8   8   8   8
#     4   9  20  37  57  81 112 147 184 228 276 328
#     4  10  21  37  56  81 113 146 184 230 274 328
#     4  10  20  35  57  83 113 147 183 227 275 325
#     4   9  19  37  57  81 114 148 183 225 274 330
#     4  10  21  38  57  78 107 143 183 228 278 329
#     4  11  21  35  57  80 109 143 184 230 276 327
#
# _framework density 24.361941000000002
#
# number of rings (size 3 to 8) (size 9 to 14) (size 15 to 20)
#    0.000    2.167    1.667    1.000    0.000    4.667 
#    0.000    0.833    0.000    0.000    0.000    0.000 
#    0.000    0.000    0.000    0.000    0.000    0.000 
#
# Total GULP energy -134257.604758 kJ/mol
# GULP energy per Si atom -5594.066865 kJ/mol
# Density = 2.430649 g / cm^3
# Si number density = 24.361941 Si / 1000 Ang^3
#
#
#
# Elastic Constant Matrix: (Units=GPa)
#
#
# Indices 1 2 3 4 5 6 
#
# 1 122.3980 -1.6737 1.1710 0.0000 5.0120 0.0000
# 2 -1.6737 143.0875 4.9655 0.0000 -8.1121 0.0000
# 3 1.1710 4.9655 41.6309 0.0001 -2.4307 0.0000
# 4 0.0000 0.0000 0.0001 -2.5824 0.0000 4.8598
# 5 5.0120 -8.1121 -2.4307 0.0000 34.1648 0.0000
# 6 0.0000 0.0000 0.0000 4.8598 0.0000 -13.8145
#
#
#
# Elastic Compliance Matrix: (Units=1/GPa)
#
#
# Indices 1 2 3 4 5 6 
#
# 1 0.008223 0.000038 -0.000307 0.000000 -0.001219 0.000000
# 2 0.000038 0.007108 -0.000754 0.000000 0.001628 0.000000
# 3 -0.000307 -0.000754 0.024212 0.000003 0.001589 0.000001
# 4 0.000000 0.000000 0.000003 -1.145765 0.000001 -0.403067
# 5 -0.001219 0.001628 0.001589 0.000001 0.029948 0.000000
# 6 0.000000 0.000000 0.000001 -0.403067 0.000000 -0.214182
#
#
# Mechanical properties :
#
#
# Convention : Reuss Voigt Hill
#
# Bulk Modulus (GPa) = 26.66884 35.11579 30.89231
# Shear Modulus (GPa) = -3.91877 23.73048 9.90586
#
# Velocity S-wave (km/s) = -1.26967 3.12441 2.01865
# Velocity P-wave (km/s) = 2.97006 5.24036 4.25927
#
# Compressibility (1/GPa) = 0.03749695
#
# Stress axis : x y z
#
# Youngs Moduli (GPa) = 121.60350 140.69338 41.30203
#
# Poissons Ratio (x) = -0.00531 0.01268
# Poissons Ratio (y) = -0.00459 0.03113
# Poissons Ratio (z) = 0.03733 0.10605
#
# Static dielectric constant tensor:
#      x y z
#    x 1.952020 0.000000 0.010730 
#    y 0.000000 1.945760 0.000000 
#    z 0.010730 0.000000 1.907380 
# 
# From -- ./inp_files/142724.got.cif
#   From: 2010.05.17/outbox.cif.g08.bks.cpg/sg12_72_cif.got.tgz:142724.got - 2010.06.03 13:09:07.
