data_PCOD9196909
_publ_section_title
;
Structure prediction by ZEFSAII (Michael W. Deem and Ramdas Pophale) SiO2 
 PCOD9196909
Probable space group: C 2/M
;
_chemical_formula_sum "Si O2"
_cell_formula_units_Z 56
_cell_length_a 18.662962
_cell_length_b 20.305740
_cell_length_c 16.751790
_cell_angle_alpha 90.000000
_cell_angle_beta 152.998777
_cell_angle_gamma 90.000000
_cell_volume 2882.209671
_symmetry_space_group_name_H-M "C 2/M"
_symmetry_group_IT_number 12
_symmetry_cell_setting 'monoclinic'
loop_
_space_group_symop_operation_xyz
x,y,z
-x,y,-z
-x,-y,-z
x,-y,z
1/2+x,1/2+y,z
1/2-x,1/2+y,-z
1/2-x,1/2-y,-z
1/2+x,1/2-y,z
loop_
_atom_site_type_symbol
_atom_site_label
_atom_site_fract_x
_atom_site_fract_y
_atom_site_fract_z
Si Si1 0.589961 0.077076 0.791910
Si Si2 0.677683 0.804104 0.988408
Si Si3 0.419731 0.573601 0.841618
Si Si4 0.674199 0.121998 0.703890
Si Si5 0.688616 0.786515 0.330350
Si Si6 0.816454 0.226472 0.291866
Si Si7 0.251798 0.355333 0.547818
O O1 0.666556 0.125951 0.932620
O O2 0.675461 0.090086 0.792145
O O3 0.407934 0.102193 0.603734
O O4 0.594545 0.000000 0.815976
O O5 0.496565 0.784645 0.831070
O O6 0.750000 0.750000 0.000000
O O7 0.779207 0.805626 0.169926
O O8 0.480875 0.500000 0.891747
O O9 0.246902 0.575376 0.708588
O O10 0.399104 0.610503 0.738204
O O11 0.500000 0.605274 0.000000
O O12 0.500000 0.131677 0.500000
O O13 0.735680 0.196932 0.769142
O O14 0.717232 0.802574 0.266986
O O15 0.765374 0.714813 0.424016
O O16 0.769677 0.836497 0.473067
O O17 0.000000 0.222417 0.500000
#
# Coordination Sequence:
#
# PCOD9196909 Si02
#       7
#     8   8   8   8   8   8   8
#     4  11  22  39  61  90 125 164 209 262 314 380
#     4  11  24  39  64  98 124 166 213 262 317 376
#     4  11  23  34  48  80 120 157 195 237 296 375
#     4  11  20  34  58  84 117 161 200 232 308 375
#     4  10  22  37  61  89 124 158 205 265 312 361
#     4  11  22  39  63  92 126 158 211 261 317 376
#     4  10  20  35  58  83 116 159 204 242 309 358
#
# _framework density 19.429535999999999
#
# number of rings (size 3 to 8) (size 9 to 14) (size 15 to 20)
#    0.000    1.286    4.286    2.143    6.000    0.571 
#    0.000    0.000    0.000    9.000    0.000    0.000 
#    0.000    0.000    0.000    0.000    0.000    0.000 
#
# Total GULP energy -156195.549808 kJ/mol
# GULP energy per Si atom -5578.412493 kJ/mol
# Density = 1.938531 g / cm^3
# Si number density = 19.429536 Si / 1000 Ang^3
#
#
#
# Elastic Constant Matrix: (Units=GPa)
#
#
# Indices 1 2 3 4 5 6 
#
# 1 103.4108 39.9147 42.4478 0.0000 -27.9820 0.0000
# 2 39.9147 107.3679 56.0389 0.0000 -20.5239 0.0000
# 3 42.4478 56.0389 117.6827 0.0000 -39.5394 0.0000
# 4 0.0000 0.0000 0.0000 24.3298 0.0000 -13.9350
# 5 -27.9820 -20.5239 -39.5394 0.0000 36.2432 0.0000
# 6 0.0000 0.0000 0.0000 -13.9350 0.0000 33.9650
#
#
#
# Elastic Compliance Matrix: (Units=1/GPa)
#
#
# Indices 1 2 3 4 5 6 
#
# 1 0.013234 -0.003070 -0.000730 0.000000 0.007682 0.000000
# 2 -0.003070 0.013126 -0.005434 0.000000 -0.000865 0.000000
# 3 -0.000730 -0.005434 0.015984 0.000000 0.013796 0.000000
# 4 0.000000 0.000000 0.000000 0.053727 0.000000 0.022043
# 5 0.007682 -0.000865 0.013796 0.000000 0.048083 0.000000
# 6 0.000000 0.000000 0.000000 0.022043 0.000000 0.038486
#
#
# Mechanical properties :
#
#
# Convention : Reuss Voigt Hill
#
# Bulk Modulus (GPa) = 41.88530 67.25160 54.56845
# Shear Modulus (GPa) = 23.91597 31.57827 27.74712
#
# Velocity S-wave (km/s) = 3.51224 4.03584 3.78311
# Velocity P-wave (km/s) = 6.16864 7.51036 6.87232
#
# Compressibility (1/GPa) = 0.02387472
#
# Stress axis : x y z
#
# Youngs Moduli (GPa) = 75.56520 76.18668 62.56397
#
# Poissons Ratio (x) = 0.23389 0.04570
# Poissons Ratio (y) = 0.23199 0.33995
# Poissons Ratio (z) = 0.05520 0.41397
#
# Static dielectric constant tensor:
#      x y z
#    x 2.134740 0.000000 0.661300 
#    y 0.000000 1.695550 0.000000 
#    z 0.661300 0.000000 2.683730 
# 
# From -- ./inp_files/77369.got.cif
#   From: 2010.05.17/outbox.cif.g08.bks.cpg/sg12_39_cif.got.tgz:77369.got - 2010.06.03 13:09:07.
