data_PCOD9196096
_publ_section_title
;
Structure prediction by ZEFSAII (Michael W. Deem and Ramdas Pophale) SiO2 
 PCOD9196096
Probable space group: C 2/M
;
_chemical_formula_sum "Si O2"
_cell_formula_units_Z 48
_cell_length_a 15.578803
_cell_length_b 9.336246
_cell_length_c 27.272733
_cell_angle_alpha 90.000000
_cell_angle_beta 32.810454
_cell_angle_gamma 90.000000
_cell_volume 2149.430377
_symmetry_space_group_name_H-M "C 2/M"
_symmetry_group_IT_number 12
_symmetry_cell_setting 'monoclinic'
loop_
_space_group_symop_operation_xyz
x,y,z
-x,y,-z
-x,-y,-z
x,-y,z
1/2+x,1/2+y,z
1/2-x,1/2+y,-z
1/2-x,1/2-y,-z
1/2+x,1/2-y,z
loop_
_atom_site_type_symbol
_atom_site_label
_atom_site_fract_x
_atom_site_fract_y
_atom_site_fract_z
Si Si1 0.187778 0.338788 0.893763
Si Si2 0.227109 0.155821 0.963660
Si Si3 0.983813 0.669680 0.419101
Si Si4 0.375427 0.339769 0.164637
Si Si5 0.177956 0.668212 0.604693
Si Si6 0.309012 0.828808 0.289008
O O1 0.248073 0.500000 0.867184
O O2 0.267715 0.236495 0.894901
O O3 0.212488 0.270257 0.828774
O O4 0.000000 0.346516 0.000000
O O5 0.303121 0.000000 0.930749
O O6 0.250000 0.250000 0.000000
O O7 0.037516 0.138861 0.057067
O O8 0.002183 0.500000 0.420436
O O9 0.951580 0.688454 0.376053
O O10 0.826365 0.731486 0.520207
O O11 0.133422 0.760869 0.365831
O O12 0.306195 0.500000 0.204741
O O13 0.404177 0.260568 0.202247
O O14 0.226298 0.500000 0.578128
O O15 0.134757 0.693806 0.682110
O O16 0.307910 0.000000 0.280024
#
# Coordination Sequence:
#
# PCOD9196096 Si02
#       6
#     8   8   8   8   8   8
#     4   9  17  32  55  78 102 135 176 219 266 326
#     4  10  20  35  56  81 109 143 184 231 278 330
#     4  10  20  36  59  85 113 148 191 237 285 338
#     4  10  21  37  55  79 110 143 183 230 278 333
#     4   9  20  38  58  82 114 150 191 234 280 340
#     4  11  22  37  57  82 115 154 190 232 287 344
#
# _framework density 22.331496999999999
#
# number of rings (size 3 to 8) (size 9 to 14) (size 15 to 20)
#    0.000    2.167    0.000    3.000    0.000    8.000 
#    3.000    0.000    0.000    0.000    0.000    0.000 
#    0.000    0.000    0.000    0.000    0.000    0.000 
#
# Total GULP energy -133987.890871 kJ/mol
# GULP energy per Si atom -5582.828786 kJ/mol
# Density = 2.228067 g / cm^3
# Si number density = 22.331497 Si / 1000 Ang^3
#
#
#
# Elastic Constant Matrix: (Units=GPa)
#
#
# Indices 1 2 3 4 5 6 
#
# 1 85.5746 51.4032 19.2606 0.0000 45.0914 0.0000
# 2 51.4032 165.9080 36.1511 0.0000 33.3986 0.0001
# 3 19.2606 36.1511 77.0216 -0.0001 13.1075 0.0000
# 4 0.0000 0.0000 -0.0001 23.2976 0.0000 6.4729
# 5 45.0914 33.3986 13.1075 0.0000 42.7715 0.0000
# 6 0.0000 0.0001 0.0000 6.4729 0.0000 30.7952
#
#
#
# Elastic Compliance Matrix: (Units=1/GPa)
#
#
# Indices 1 2 3 4 5 6 
#
# 1 0.027720 -0.003026 -0.000992 0.000000 -0.026556 0.000000
# 2 -0.003026 0.007986 -0.002609 0.000000 -0.002246 0.000000
# 3 -0.000992 -0.002609 0.014698 0.000000 -0.001421 0.000000
# 4 0.000000 0.000000 0.000000 0.045585 0.000000 -0.009582
# 5 -0.026556 -0.002246 -0.001421 0.000000 0.053566 0.000000
# 6 0.000000 0.000000 0.000000 -0.009582 0.000000 0.034487
#
#
# Mechanical properties :
#
#
# Convention : Reuss Voigt Hill
#
# Bulk Modulus (GPa) = 26.91905 60.23710 43.57807
# Shear Modulus (GPa) = 23.84595 34.15215 28.99905
#
# Velocity S-wave (km/s) = 3.27129 3.91490 3.60748
# Velocity P-wave (km/s) = 5.13312 6.88970 6.07523
#
# Compressibility (1/GPa) = 0.03714842
#
# Stress axis : x y z
#
# Youngs Moduli (GPa) = 36.07495 125.22390 68.03674
#
# Poissons Ratio (x) = 0.37896 0.06750
# Poissons Ratio (y) = 0.10917 0.17752
# Poissons Ratio (z) = 0.03579 0.32674
#
# Static dielectric constant tensor:
#      x y z
#    x 2.030100 0.000000 -0.152290 
#    y 0.000000 1.820760 0.000000 
#    z -0.152290 0.000000 1.928800 
# 
# From -- ./inp_files/273691.got.cif
#   From: 2010.05.17/outbox.cif.g08.bks.cpg/sg12_137_cif.got.tgz:273691.got - 2010.06.03 13:09:07.
