data_PCOD9196042
_publ_section_title
;
Structure prediction by ZEFSAII (Michael W. Deem and Ramdas Pophale) SiO2 
 PCOD9196042
Probable space group: C 2/M
;
_chemical_formula_sum "Si O2"
_cell_formula_units_Z 56
_cell_length_a 19.395322
_cell_length_b 8.195337
_cell_length_c 26.054213
_cell_angle_alpha 90.000000
_cell_angle_beta 40.897884
_cell_angle_gamma 90.000000
_cell_volume 2711.394230
_symmetry_space_group_name_H-M "C 2/M"
_symmetry_group_IT_number 12
_symmetry_cell_setting 'monoclinic'
loop_
_space_group_symop_operation_xyz
x,y,z
-x,y,-z
-x,-y,-z
x,-y,z
1/2+x,1/2+y,z
1/2-x,1/2+y,-z
1/2-x,1/2-y,-z
1/2+x,1/2-y,z
loop_
_atom_site_type_symbol
_atom_site_label
_atom_site_fract_x
_atom_site_fract_y
_atom_site_fract_z
Si Si1 0.832192 0.690424 0.329533
Si Si2 0.064114 0.303257 0.013416
Si Si3 0.101160 0.187469 0.816202
Si Si4 0.786830 0.194548 0.923189
Si Si5 0.952950 0.306222 0.752584
Si Si6 0.809796 0.806639 0.739749
Si Si7 0.886853 0.199186 0.583108
O O1 0.822693 0.500000 0.348521
O O2 0.872694 0.704485 0.248015
O O3 0.713705 0.759279 0.393407
O O4 0.927671 0.760410 0.309561
O O5 0.056305 0.500000 0.020562
O O6 0.006932 0.232083 0.095409
O O7 0.186882 0.261999 0.943489
O O8 0.000000 0.246494 0.000000
O O9 0.196917 0.218549 0.802044
O O10 0.100611 0.000000 0.800100
O O11 0.890358 0.272101 0.840634
O O12 0.800477 0.000000 0.915568
O O13 0.750000 0.250000 0.000000
O O14 0.958015 0.500000 0.742267
O O15 0.884607 0.232111 0.745185
O O16 0.865516 0.759477 0.654574
O O17 0.788613 0.000000 0.751061
O O18 0.000000 0.256250 0.500000
O O19 0.886118 0.000000 0.580931
#
# Coordination Sequence:
#
# PCOD9196042 Si02
#       7
#     8   8   8   8   8   8   8
#     4   9  19  35  55  78 106 141 175 212 262 315
#     4  10  21  36  52  70  96 133 176 222 270 315
#     4  11  21  33  53  78 103 134 177 224 265 316
#     4  11  23  37  54  76 105 143 184 227 275 322
#     4  11  22  36  54  78 110 144 182 226 270 320
#     4  10  20  35  56  80 109 144 179 219 270 322
#     4   8  15  32  59  85 106 136 180 219 255 314
#
# _framework density 20.653580000000002
#
# number of rings (size 3 to 8) (size 9 to 14) (size 15 to 20)
#    0.000    2.000    0.000    5.143    0.000    7.143 
#    0.000    0.714    0.000   10.714    0.000    0.000 
#    0.000    0.000    0.000    0.000    0.000    0.000 
#
# Total GULP energy -156372.075127 kJ/mol
# GULP energy per Si atom -5584.716969 kJ/mol
# Density = 2.060657 g / cm^3
# Si number density = 20.653580 Si / 1000 Ang^3
#
#
#
# Elastic Constant Matrix: (Units=GPa)
#
#
# Indices 1 2 3 4 5 6 
#
# 1 89.9474 2.6574 13.7194 0.0001 -23.5175 -0.0002
# 2 2.6574 19.1574 8.2758 0.0002 -5.9390 -0.0010
# 3 13.7194 8.2758 88.2086 0.0000 -29.9258 0.0000
# 4 0.0001 0.0002 0.0000 12.2674 0.0000 -0.6904
# 5 -23.5175 -5.9390 -29.9258 0.0000 32.6813 0.0001
# 6 -0.0002 -0.0010 0.0000 -0.6904 0.0001 23.1260
#
#
#
# Elastic Compliance Matrix: (Units=1/GPa)
#
#
# Indices 1 2 3 4 5 6 
#
# 1 0.013902 0.000970 0.001742 0.000000 0.011775 0.000000
# 2 0.000970 0.055791 -0.002479 -0.000001 0.008566 0.000002
# 3 0.001742 -0.002479 0.016785 0.000000 0.016173 0.000000
# 4 0.000000 -0.000001 0.000000 0.081654 0.000000 0.002438
# 5 0.011775 0.008566 0.016173 0.000000 0.055438 0.000000
# 6 0.000000 0.000002 0.000000 0.002438 0.000000 0.043314
#
#
# Mechanical properties :
#
#
# Convention : Reuss Voigt Hill
#
# Bulk Modulus (GPa) = 11.50183 27.40207 19.45195
# Shear Modulus (GPa) = 16.92619 25.12568 21.02593
#
# Velocity S-wave (km/s) = 2.86585 3.49166 3.19412
# Velocity P-wave (km/s) = 4.06593 5.43616 4.80019
#
# Compressibility (1/GPa) = 0.08694272
#
# Stress axis : x y z
#
# Youngs Moduli (GPa) = 71.93245 17.92401 59.57600
#
# Poissons Ratio (x) = -0.01738 -0.10375
# Poissons Ratio (y) = -0.06974 0.14768
# Poissons Ratio (z) = -0.12527 0.04443
#
# Static dielectric constant tensor:
#      x y z
#    x 1.790460 0.000000 -0.028700 
#    y 0.000000 1.725530 0.000000 
#    z -0.028700 0.000000 1.713880 
# 
# From -- ./inp_files/342543.got.cif
#   From: 2010.05.17/outbox.cif.g08.bks.cpg/sg12_172_cif.got.tgz:342543.got - 2010.06.03 13:09:07.
