data_PCOD9196549
_publ_section_title
;
Structure prediction by ZEFSAII (Michael W. Deem and Ramdas Pophale) SiO2 
 PCOD9196549
Probable space group: C 2/M
;
_chemical_formula_sum "Si O2"
_cell_formula_units_Z 56
_cell_length_a 18.354240
_cell_length_b 8.975783
_cell_length_c 29.405335
_cell_angle_alpha 90.000000
_cell_angle_beta 140.973838
_cell_angle_gamma 90.000000
_cell_volume 3050.362529
_symmetry_space_group_name_H-M "C 2/M"
_symmetry_group_IT_number 12
_symmetry_cell_setting 'monoclinic'
loop_
_space_group_symop_operation_xyz
x,y,z
-x,y,-z
-x,-y,-z
x,-y,z
1/2+x,1/2+y,z
1/2-x,1/2+y,-z
1/2-x,1/2-y,-z
1/2+x,1/2-y,z
loop_
_atom_site_type_symbol
_atom_site_label
_atom_site_fract_x
_atom_site_fract_y
_atom_site_fract_z
Si Si1 0.726052 0.679088 0.346521
Si Si2 0.112884 0.823172 0.652754
Si Si3 0.875835 0.678445 0.066669
Si Si4 0.538541 0.678794 0.069861
Si Si5 0.419174 0.828838 0.506099
Si Si6 0.522393 0.821751 0.785119
Si Si7 0.307850 0.177963 0.215818
O O1 0.731557 0.500000 0.345265
O O2 0.795924 0.749929 0.338236
O O3 0.795258 0.719928 0.426375
O O4 0.596100 0.736985 0.282631
O O5 0.142134 0.763912 0.716791
O O6 0.985897 0.770752 0.574700
O O7 0.122369 0.000000 0.654915
O O8 0.866522 0.500000 0.059881
O O9 0.929146 0.717962 0.141697
O O10 0.959779 0.738710 0.068238
O O11 0.750000 0.750000 0.000000
O O12 0.524110 0.500000 0.068345
O O13 0.673301 0.714560 0.142741
O O14 0.500000 0.716531 0.000000
O O15 0.500000 0.828208 0.500000
O O16 0.413340 0.000000 0.519325
O O17 0.617950 0.789446 0.793170
O O18 0.500486 0.000000 0.774112
O O19 0.315290 0.000000 0.228005
#
# Coordination Sequence:
#
# PCOD9196549 Si02
#       7
#     8   8   8   8   8   8   8
#     4  10  20  35  57  83 111 145 184 227 278 334
#     4  11  21  33  54  83 112 143 185 233 276 326
#     4  11  23  39  60  87 116 146 184 228 275 326
#     4  10  21  39  62  86 113 147 186 225 271 329
#     4   8  16  32  53  78 108 142 182 227 276 331
#     4  10  22  39  58  82 112 146 186 231 275 325
#     4  10  21  38  58  79 110 150 185 224 278 331
#
# _framework density 18.358474000000001
#
# number of rings (size 3 to 8) (size 9 to 14) (size 15 to 20)
#    0.000    2.000    0.000    4.714    0.000   10.286 
#    0.000    2.143    0.000    0.000    0.000    0.000 
#    0.000    0.000    0.000    0.000    0.000    0.000 
#
# Total GULP energy -156392.891328 kJ/mol
# GULP energy per Si atom -5585.460405 kJ/mol
# Density = 1.831669 g / cm^3
# Si number density = 18.358474 Si / 1000 Ang^3
#
#
#
# Elastic Constant Matrix: (Units=GPa)
#
#
# Indices 1 2 3 4 5 6 
#
# 1 118.6778 65.0318 92.8022 0.0000 5.2414 0.0000
# 2 65.0318 68.1499 86.5692 0.0000 0.7403 0.0000
# 3 92.8022 86.5692 194.6731 0.0000 7.6383 0.0000
# 4 0.0000 0.0000 0.0000 15.2359 0.0000 7.6601
# 5 5.2414 0.7403 7.6383 0.0000 30.9523 0.0000
# 6 0.0000 0.0000 0.0000 7.6601 0.0000 28.4975
#
#
#
# Elastic Compliance Matrix: (Units=1/GPa)
#
#
# Indices 1 2 3 4 5 6 
#
# 1 0.018203 -0.014787 -0.002014 0.000000 -0.002232 0.000000
# 2 -0.014787 0.045999 -0.013593 0.000000 0.004758 0.000000
# 3 -0.002014 -0.013593 0.012234 0.000000 -0.002353 0.000000
# 4 0.000000 0.000000 0.000000 0.075890 0.000000 -0.020399
# 5 -0.002232 0.004758 -0.002353 0.000000 0.033152 0.000000
# 6 0.000000 0.000000 0.000000 -0.020399 0.000000 0.040574
#
#
# Mechanical properties :
#
#
# Convention : Reuss Voigt Hill
#
# Bulk Modulus (GPa) = 63.90821 96.70083 80.30452
# Shear Modulus (GPa) = 17.11998 24.07699 20.59848
#
# Velocity S-wave (km/s) = 3.05706 3.62538 3.35328
# Velocity P-wave (km/s) = 6.88097 8.38526 7.67008
#
# Compressibility (1/GPa) = 0.01564744
#
# Stress axis : x y z
#
# Youngs Moduli (GPa) = 54.93747 21.73955 81.73991
#
# Poissons Ratio (x) = 0.32146 0.16463
# Poissons Ratio (y) = 0.81236 1.11109
# Poissons Ratio (z) = 0.11065 0.29551
#
# Static dielectric constant tensor:
#      x y z
#    x 1.603540 0.000000 0.006180 
#    y 0.000000 1.613420 0.000000 
#    z 0.006180 0.000000 1.628060 
# 
# From -- ./inp_files/363151.got.cif
#   From: 2010.05.17/outbox.cif.g08.bks.cpg/sg12_182_cif.got.tgz:363151.got - 2010.06.03 13:09:07.
