data_PCOD9196914
_publ_section_title
;
Structure prediction by ZEFSAII (Michael W. Deem and Ramdas Pophale) SiO2 
 PCOD9196914
Probable space group: C 2/M
;
_chemical_formula_sum "Si O2"
_cell_formula_units_Z 48
_cell_length_a 29.336089
_cell_length_b 9.057940
_cell_length_c 8.271000
_cell_angle_alpha 90.000000
_cell_angle_beta 77.485771
_cell_angle_gamma 90.000000
_cell_volume 2145.592603
_symmetry_space_group_name_H-M "C 2/M"
_symmetry_group_IT_number 12
_symmetry_cell_setting 'monoclinic'
loop_
_space_group_symop_operation_xyz
x,y,z
-x,y,-z
-x,-y,-z
x,-y,z
1/2+x,1/2+y,z
1/2-x,1/2+y,-z
1/2-x,1/2-y,-z
1/2+x,1/2-y,z
loop_
_atom_site_type_symbol
_atom_site_label
_atom_site_fract_x
_atom_site_fract_y
_atom_site_fract_z
Si Si1 0.470078 0.672604 0.374541
Si Si2 0.726066 0.824218 0.364126
Si Si3 0.396496 0.175149 0.231602
Si Si4 0.938261 0.828864 0.888165
Si Si5 0.637654 0.826874 0.246703
Si Si6 0.803559 0.328353 0.131331
O O1 0.500000 0.735184 0.500000
O O2 0.460423 0.500000 0.414846
O O3 0.423033 0.753009 0.360892
O O4 0.507571 0.680287 0.199732
O O5 0.750000 0.750000 0.500000
O O6 0.673004 0.780503 0.361321
O O7 0.759591 0.775638 0.190680
O O8 0.726046 0.000000 0.381858
O O9 0.342731 0.212056 0.235684
O O10 0.399281 0.000000 0.241849
O O11 0.423780 0.230277 0.050780
O O12 0.906781 0.772561 0.761743
O O13 0.927103 0.000000 0.931246
O O14 0.624575 0.000000 0.278089
O O15 0.669617 0.818835 0.059309
O O16 0.789958 0.500000 0.165234
#
# Coordination Sequence:
#
# PCOD9196914 Si02
#       6
#     8   8   8   8   8   8
#     4  10  22  38  54  78 113 147 182 226 272 321
#     4  11  23  37  55  81 113 148 182 220 269 323
#     4  10  21  37  58  83 110 142 181 225 272 323
#     4  10  20  35  58  84 108 140 182 226 272 322
#     4   9  20  38  58  81 109 140 179 228 274 319
#     4   9  19  37  58  81 108 138 179 228 272 319
#
# _framework density 22.371441999999998
#
# number of rings (size 3 to 8) (size 9 to 14) (size 15 to 20)
#    0.000    2.167    0.000    3.500    0.000    9.667 
#    0.000    3.333    0.000    0.000    0.000    0.000 
#    0.000    0.000    0.000    0.000    0.000    0.000 
#
# Total GULP energy -134194.211157 kJ/mol
# GULP energy per Si atom -5591.425465 kJ/mol
# Density = 2.232052 g / cm^3
# Si number density = 22.371442 Si / 1000 Ang^3
#
#
#
# Elastic Constant Matrix: (Units=GPa)
#
#
# Indices 1 2 3 4 5 6 
#
# 1 124.7675 48.4597 13.3503 0.0000 32.2580 0.0000
# 2 48.4597 32.1631 -3.7393 0.0000 11.6766 0.0000
# 3 13.3503 -3.7393 56.6001 0.0000 20.6050 0.0000
# 4 0.0000 0.0000 0.0000 24.9835 0.0000 15.0026
# 5 32.2580 11.6766 20.6050 0.0000 44.8967 0.0000
# 6 0.0000 0.0000 0.0000 15.0026 0.0000 2.6697
#
#
#
# Elastic Compliance Matrix: (Units=1/GPa)
#
#
# Indices 1 2 3 4 5 6 
#
# 1 0.022882 -0.033265 -0.005714 0.000000 -0.005167 0.000000
# 2 -0.033265 0.084894 0.015357 0.000000 -0.005227 0.000000
# 3 -0.005714 0.015357 0.023999 0.000000 -0.010903 0.000000
# 4 0.000000 0.000000 0.000000 -0.016857 0.000000 0.094726
# 5 -0.005167 -0.005227 -0.010903 0.000000 0.032349 0.000000
# 6 0.000000 0.000000 0.000000 0.094726 0.000000 -0.157746
#
#
# Mechanical properties :
#
#
# Convention : Reuss Voigt Hill
#
# Bulk Modulus (GPa) = 11.82967 36.63022 24.22994
# Shear Modulus (GPa) = 76.99142 24.87399 50.93271
#
# Velocity S-wave (km/s) = 5.87280 3.33808 4.77664
# Velocity P-wave (km/s) = 7.16140 5.59162 6.42464
#
# Compressibility (1/GPa) = 0.08453321
#
# Stress axis : x y z
#
# Youngs Moduli (GPa) = 43.70190 11.77936 41.66783
#
# Poissons Ratio (x) = 0.39184 0.23808
# Poissons Ratio (y) = 1.45374 -0.63991
# Poissons Ratio (z) = 0.24971 -0.18090
#
# Static dielectric constant tensor:
#      x y z
#    x 1.810480 0.000000 0.016890 
#    y 0.000000 1.739240 0.000000 
#    z 0.016890 0.000000 1.944150 
# 
# From -- ./inp_files/108642.got.cif
#   From: 2010.05.17/outbox.cif.g08.bks.cpg/sg12_55_cif.got.tgz:108642.got - 2010.06.03 13:09:07.
