data_PCOD9196186
_publ_section_title
;
Structure prediction by ZEFSAII (Michael W. Deem and Ramdas Pophale) SiO2 
 PCOD9196186
Probable space group: C 2/M
;
_chemical_formula_sum "Si O2"
_cell_formula_units_Z 40
_cell_length_a 19.473335
_cell_length_b 8.570940
_cell_length_c 27.746771
_cell_angle_alpha 90.000000
_cell_angle_beta 28.329160
_cell_angle_gamma 90.000000
_cell_volume 2197.610084
_symmetry_space_group_name_H-M "C 2/M"
_symmetry_group_IT_number 12
_symmetry_cell_setting 'monoclinic'
loop_
_space_group_symop_operation_xyz
x,y,z
-x,y,-z
-x,-y,-z
x,-y,z
1/2+x,1/2+y,z
1/2-x,1/2+y,-z
1/2-x,1/2-y,-z
1/2+x,1/2-y,z
loop_
_atom_site_type_symbol
_atom_site_label
_atom_site_fract_x
_atom_site_fract_y
_atom_site_fract_z
Si Si1 0.678702 0.687340 0.495236
Si Si2 0.931521 0.310744 0.091719
Si Si3 0.089554 0.686958 0.092773
Si Si4 0.811295 0.814096 0.315054
Si Si5 0.848794 0.810967 0.680178
O O1 0.681842 0.500000 0.494084
O O2 0.750000 0.750000 0.500000
O O3 0.761823 0.747161 0.396706
O O4 0.510721 0.737171 0.593412
O O5 0.927234 0.500000 0.091133
O O6 0.769700 0.261185 0.206642
O O7 0.031764 0.271153 0.075215
O O8 0.000000 0.250561 0.000000
O O9 0.086883 0.500000 0.098846
O O10 0.972446 0.757906 0.201717
O O11 0.250000 0.750000 0.000000
O O12 0.706512 0.752491 0.337017
O O13 0.806055 0.000000 0.319203
O O14 0.844905 0.000000 0.679509
#
# Coordination Sequence:
#
# PCOD9196186 Si02
#       5
#     8   8   8   8   8
#     4  11  23  38  56  81 114 147 184 232 286 339
#     4   8  15  30  53  79 105 137 178 219 263 322
#     4  10  20  35  56  82 112 145 183 228 278 331
#     4  11  22  37  58  81 108 146 191 234 279 333
#     4   9  19  36  57  80 109 147 186 227 278 335
#
# _framework density 18.201589999999999
#
# number of rings (size 3 to 8) (size 9 to 14) (size 15 to 20)
#    0.000    2.200    0.000    4.800    0.000    5.600 
#    0.000    4.000    0.000   15.000    0.000    0.000 
#    0.000    0.000    0.000    0.000    0.000    0.000 
#
# Total GULP energy -111647.520391 kJ/mol
# GULP energy per Si atom -5582.376020 kJ/mol
# Density = 1.816016 g / cm^3
# Si number density = 18.201590 Si / 1000 Ang^3
#
#
#
# Elastic Constant Matrix: (Units=GPa)
#
#
# Indices 1 2 3 4 5 6 
#
# 1 126.1065 38.4935 134.8383 -0.0003 6.9552 0.0002
# 2 38.4935 50.8022 48.7483 -0.0010 -3.2854 0.0005
# 3 134.8383 48.7483 200.6796 -0.0007 3.3247 -0.0001
# 4 -0.0003 -0.0010 -0.0007 23.9999 -0.0001 -3.0367
# 5 6.9552 -3.2854 3.3247 -0.0001 41.0173 -0.0001
# 6 0.0002 0.0005 -0.0001 -3.0367 -0.0001 29.4613
#
#
#
# Elastic Compliance Matrix: (Units=1/GPa)
#
#
# Indices 1 2 3 4 5 6 
#
# 1 0.029444 -0.004744 -0.018567 0.000000 -0.003868 0.000000
# 2 -0.004744 0.026704 -0.003353 0.000001 0.003215 0.000000
# 3 -0.018567 -0.003353 0.018250 0.000000 0.001401 0.000000
# 4 0.000000 0.000001 0.000000 0.042217 0.000000 0.004352
# 5 -0.003868 0.003215 0.001401 0.000000 0.025180 0.000000
# 6 0.000000 0.000000 0.000000 0.004352 0.000000 0.034391
#
#
# Mechanical properties :
#
#
# Convention : Reuss Voigt Hill
#
# Bulk Modulus (GPa) = 47.46055 91.30540 69.38298
# Shear Modulus (GPa) = 21.13838 29.26292 25.20065
#
# Velocity S-wave (km/s) = 3.41155 4.01398 3.72496
# Velocity P-wave (km/s) = 6.45367 8.47083 7.53010
#
# Compressibility (1/GPa) = 0.02107013
#
# Stress axis : x y z
#
# Youngs Moduli (GPa) = 33.96277 37.44819 54.79511
#
# Poissons Ratio (x) = 0.17764 1.01740
# Poissons Ratio (y) = 0.16111 0.18371
# Poissons Ratio (z) = 0.63060 0.12555
#
# Static dielectric constant tensor:
#      x y z
#    x 1.591990 0.000000 -0.001190 
#    y 0.000000 1.619420 0.000000 
#    z -0.001190 0.000000 1.625430 
# 
# From -- ./inp_files/229095.got.cif
#   From: 2010.05.17/outbox.cif.g08.bks.cpg/sg12_115_cif.got.tgz:229095.got - 2010.06.03 13:09:07.
