data_PCOD9196523
_publ_section_title
;
Structure prediction by ZEFSAII (Michael W. Deem and Ramdas Pophale) SiO2 
 PCOD9196523
Probable space group: C 2/M
;
_chemical_formula_sum "Si O2"
_cell_formula_units_Z 58
_cell_length_a 8.109586
_cell_length_b 12.499798
_cell_length_c 27.588518
_cell_angle_alpha 90.000000
_cell_angle_beta 90.129169
_cell_angle_gamma 90.000000
_cell_volume 2796.590941
_symmetry_space_group_name_H-M "C 2/M"
_symmetry_group_IT_number 12
_symmetry_cell_setting 'monoclinic'
loop_
_space_group_symop_operation_xyz
x,y,z
-x,y,-z
-x,-y,-z
x,-y,z
1/2+x,1/2+y,z
1/2-x,1/2+y,-z
1/2-x,1/2-y,-z
1/2+x,1/2-y,z
loop_
_atom_site_type_symbol
_atom_site_label
_atom_site_fract_x
_atom_site_fract_y
_atom_site_fract_z
Si Si1 0.996484 0.879487 0.795146
Si Si2 0.191972 0.707035 0.738195
Si Si3 0.125149 0.692993 0.963223
Si Si4 0.927643 0.119186 0.908572
Si Si5 0.820470 0.342713 0.575966
Si Si6 0.000000 0.500000 0.500000
Si Si7 0.451504 0.383342 0.556425
Si Si8 0.114554 0.618602 0.317716
O O1 0.838196 0.862240 0.760759
O O2 0.943800 0.868333 0.850969
O O3 0.121229 0.786370 0.779483
O O4 0.063016 0.000000 0.788930
O O5 0.262426 0.787346 0.697662
O O6 0.047638 0.638163 0.714423
O O7 0.239003 0.628055 0.926498
O O8 0.029339 0.786285 0.934225
O O9 0.250000 0.750000 0.000000
O O10 0.000000 0.634475 0.000000
O O11 0.990062 0.000000 0.921840
O O12 0.899459 0.407033 0.531445
O O13 0.628464 0.372616 0.582605
O O14 0.916322 0.371299 0.625152
O O15 0.836477 0.216067 0.567647
O O16 0.500000 0.379482 0.500000
O O17 0.374763 0.500000 0.566274
O O18 0.181335 0.500000 0.308252
#
# Coordination Sequence:
#
# PCOD9196523 Si02
#       8
#     8   8   8   8   8   2   8   8
#     4  10  20  37  60  86 114 147 190 243 293 349
#     4  10  22  38  60  86 115 148 186 234 297 353
#     4   9  19  34  52  79 116 155 197 240 280 335
#     4  10  20  35  57  82 112 153 198 244 296 343
#     4  12  24  42  63  88 119 153 193 237 288 342
#     4  12  24  40  68  88 120 156 194 242 288 344
#     4  11  24  41  60  86 114 149 189 233 279 334
#     4  11  22  40  60  85 116 150 186 231 285 354
#
# _framework density 20.739536999999999
#
# number of rings (size 3 to 8) (size 9 to 14) (size 15 to 20)
#    0.000    1.517    2.069    2.897    0.000    2.759 
#    0.000    5.517    0.000   11.586    0.000    0.000 
#    0.000    0.000    0.000    0.000    0.000    0.000 
#
# Total GULP energy -161752.074898 kJ/mol
# GULP energy per Si atom -5577.657755 kJ/mol
# Density = 2.069233 g / cm^3
# Si number density = 20.739537 Si / 1000 Ang^3
#
#
#
# Elastic Constant Matrix: (Units=GPa)
#
#
# Indices 1 2 3 4 5 6 
#
# 1 22.7498 2.1670 3.6192 0.0000 -8.3305 0.0000
# 2 2.1670 124.5442 25.0253 0.0000 0.8578 0.0000
# 3 3.6192 25.0253 60.6491 0.0000 -3.9824 0.0000
# 4 0.0000 0.0000 0.0000 -7.9704 0.0000 17.6529
# 5 -8.3305 0.8578 -3.9824 0.0000 22.5327 0.0000
# 6 0.0000 0.0000 0.0000 17.6529 0.0000 9.9826
#
#
#
# Elastic Compliance Matrix: (Units=1/GPa)
#
#
# Indices 1 2 3 4 5 6 
#
# 1 0.051096 -0.000710 -0.001532 0.000000 0.018647 0.000000
# 2 -0.000710 0.008787 -0.003665 0.000000 -0.001245 0.000000
# 3 -0.001532 -0.003665 0.018276 0.000000 0.002803 0.000000
# 4 0.000000 0.000000 0.000000 -0.025518 0.000000 0.045126
# 5 0.018647 -0.001245 0.002803 0.000000 0.051817 0.000000
# 6 0.000000 0.000000 0.000000 0.045126 0.000000 0.020375
#
#
# Mechanical properties :
#
#
# Convention : Reuss Voigt Hill
#
# Bulk Modulus (GPa) = 15.07264 29.95179 22.51221
# Shear Modulus (GPa) = 31.49422 16.71775 24.10599
#
# Velocity S-wave (km/s) = 3.90110 2.84224 3.41298
# Velocity P-wave (km/s) = 5.25117 5.02437 5.13902
#
# Compressibility (1/GPa) = 0.06634539
#
# Stress axis : x y z
#
# Youngs Moduli (GPa) = 19.57111 113.80951 54.71645
#
# Poissons Ratio (x) = 0.08076 0.08382
# Poissons Ratio (y) = 0.01389 0.20053
# Poissons Ratio (z) = 0.02998 0.41711
#
# Static dielectric constant tensor:
#      x y z
#    x 1.760560 0.000000 -0.007290 
#    y 0.000000 1.714120 0.000000 
#    z -0.007290 0.000000 1.731970 
# 
# From -- ./inp_files/355822.got.cif
#   From: 2010.05.17/outbox.cif.g08.bks.cpg/sg12_178_cif.got.tgz:355822.got - 2010.06.03 13:09:07.
