data_PCOD9196288
_publ_section_title
;
Structure prediction by ZEFSAII (Michael W. Deem and Ramdas Pophale) SiO2 
 PCOD9196288
Probable space group: C 2/M
;
_chemical_formula_sum "Si O2"
_cell_formula_units_Z 48
_cell_length_a 12.864685
_cell_length_b 18.754132
_cell_length_c 15.318399
_cell_angle_alpha 90.000000
_cell_angle_beta 137.874757
_cell_angle_gamma 90.000000
_cell_volume 2478.976541
_symmetry_space_group_name_H-M "C 2/M"
_symmetry_group_IT_number 12
_symmetry_cell_setting 'monoclinic'
loop_
_space_group_symop_operation_xyz
x,y,z
-x,y,-z
-x,-y,-z
x,-y,z
1/2+x,1/2+y,z
1/2-x,1/2+y,-z
1/2-x,1/2-y,-z
1/2+x,1/2-y,z
loop_
_atom_site_type_symbol
_atom_site_label
_atom_site_fract_x
_atom_site_fract_y
_atom_site_fract_z
Si Si1 0.616542 0.187998 0.638955
Si Si2 0.228902 0.918270 0.015199
Si Si3 0.013938 0.676603 0.252479
Si Si4 0.829595 0.152910 0.380077
Si Si5 0.467446 0.698258 0.882797
Si Si6 0.177001 0.418902 0.123790
O O1 0.500000 0.147242 0.500000
O O2 0.532489 0.200286 0.679208
O O3 0.648205 0.262647 0.610660
O O4 0.793872 0.165236 0.767995
O O5 0.388147 0.882686 0.147535
O O6 0.211559 0.000000 0.034883
O O7 0.241700 0.919079 0.918492
O O8 0.090181 0.865379 0.951551
O O9 0.186587 0.642883 0.356968
O O10 0.007448 0.741560 0.177218
O O11 0.764504 0.129158 0.246648
O O12 0.000000 0.120364 0.500000
O O13 0.500000 0.729787 0.000000
O O14 0.172022 0.500000 0.155517
O O15 0.000000 0.396472 0.000000
#
# Coordination Sequence:
#
# PCOD9196288 Si02
#       6
#     8   8   8   8   8   8
#     4  10  23  40  58  87 121 159 198 250 309 354
#     4  11  23  38  61  91 123 159 203 254 303 352
#     4  11  22  38  63  88 125 159 204 247 306 364
#     4  10  22  35  58  88 120 156 194 250 305 357
#     4  11  23  37  64  96 119 157 205 253 297 361
#     4  10  20  35  56  83 116 157 198 240 295 359
#
# _framework density 19.362829000000001
#
# number of rings (size 3 to 8) (size 9 to 14) (size 15 to 20)
#    0.000    1.500    3.333    1.500    4.667    8.000 
#    0.000    0.000    0.000    2.000    0.000    0.000 
#    0.000    0.000    0.000    0.000    0.000    0.000 
#
# Total GULP energy -133791.068752 kJ/mol
# GULP energy per Si atom -5574.627865 kJ/mol
# Density = 1.931876 g / cm^3
# Si number density = 19.362829 Si / 1000 Ang^3
#
#
#
# Elastic Constant Matrix: (Units=GPa)
#
#
# Indices 1 2 3 4 5 6 
#
# 1 104.0687 14.1048 42.4264 0.0000 17.3785 0.0000
# 2 14.1048 52.3502 9.6039 0.0000 18.3029 0.0000
# 3 42.4264 9.6039 100.6471 0.0000 41.6967 0.0000
# 4 0.0000 0.0000 0.0000 30.7780 0.0000 -5.0294
# 5 17.3785 18.3029 41.6967 0.0000 39.6922 0.0000
# 6 0.0000 0.0000 0.0000 -5.0294 0.0000 17.3453
#
#
#
# Elastic Compliance Matrix: (Units=1/GPa)
#
#
# Indices 1 2 3 4 5 6 
#
# 1 0.011943 -0.002876 -0.005565 0.000000 0.001944 0.000000
# 2 -0.002876 0.024344 0.005344 0.000000 -0.015580 0.000000
# 3 -0.005565 0.005344 0.020863 0.000000 -0.021944 0.000000
# 4 0.000000 0.000000 0.000000 0.034107 0.000000 0.009889
# 5 0.001944 -0.015580 -0.021944 0.000000 0.054580 0.000000
# 6 0.000000 0.000000 0.000000 0.009889 0.000000 0.060520
#
#
# Mechanical properties :
#
#
# Convention : Reuss Voigt Hill
#
# Bulk Modulus (GPa) = 19.62500 43.25955 31.44228
# Shear Modulus (GPa) = 21.78305 30.29182 26.03744
#
# Velocity S-wave (km/s) = 3.35773 3.95958 3.67101
# Velocity P-wave (km/s) = 5.01895 6.57985 5.85168
#
# Compressibility (1/GPa) = 0.05095541
#
# Stress axis : x y z
#
# Youngs Moduli (GPa) = 83.73019 41.07798 47.93203
#
# Poissons Ratio (x) = 0.11816 0.26675
# Poissons Ratio (y) = 0.24084 -0.25616
# Poissons Ratio (z) = 0.46597 -0.21953
#
# Static dielectric constant tensor:
#      x y z
#    x 1.707190 0.000000 0.026030 
#    y 0.000000 1.683320 0.000000 
#    z 0.026030 0.000000 1.803650 
# 
# From -- ./inp_files/89439.got.cif
#   From: 2010.05.17/outbox.cif.g08.bks.cpg/sg12_45_cif.got.tgz:89439.got - 2010.06.03 13:09:07.
