data_PCOD9196599
_publ_section_title
;
Structure prediction by ZEFSAII (Michael W. Deem and Ramdas Pophale) SiO2 
 PCOD9196599
Probable space group: C 2/M
;
_chemical_formula_sum "Si O2"
_cell_formula_units_Z 48
_cell_length_a 20.243660
_cell_length_b 7.639235
_cell_length_c 18.889678
_cell_angle_alpha 90.000000
_cell_angle_beta 44.626673
_cell_angle_gamma 90.000000
_cell_volume 2052.107810
_symmetry_space_group_name_H-M "C 2/M"
_symmetry_group_IT_number 12
_symmetry_cell_setting 'monoclinic'
loop_
_space_group_symop_operation_xyz
x,y,z
-x,y,-z
-x,-y,-z
x,-y,z
1/2+x,1/2+y,z
1/2-x,1/2+y,-z
1/2-x,1/2-y,-z
1/2+x,1/2-y,z
loop_
_atom_site_type_symbol
_atom_site_label
_atom_site_fract_x
_atom_site_fract_y
_atom_site_fract_z
Si Si1 0.092934 0.703173 0.466058
Si Si2 0.414865 0.198712 0.110827
Si Si3 0.108302 0.789175 0.142672
Si Si4 0.301691 0.706676 0.069827
Si Si5 0.794646 0.795282 0.330740
Si Si6 0.415718 0.713835 0.363568
O O1 0.096121 0.500000 0.439446
O O2 0.197386 0.781255 0.374512
O O3 0.083092 0.714832 0.558278
O O4 0.000000 0.781429 0.500000
O O5 0.328476 0.202836 0.121965
O O6 0.378875 0.283996 0.210019
O O7 0.441648 0.000000 0.107486
O O8 0.500000 0.279759 0.000000
O O9 0.195939 0.735328 0.124399
O O10 0.010964 0.732334 0.250581
O O11 0.107560 0.000000 0.139872
O O12 0.131922 0.727905 0.045140
O O13 0.316627 0.500000 0.068294
O O14 0.830665 0.723493 0.378165
O O15 0.775774 0.000000 0.357279
O O16 0.413698 0.500000 0.368787
#
# Coordination Sequence:
#
# PCOD9196599 Si02
#       6
#     8   8   8   8   8   8
#     4  10  23  41  61  89 123 156 200 254 303 358
#     4  11  24  39  58  87 123 158 199 248 297 352
#     4   9  19  35  55  84 118 153 198 249 299 354
#     4  10  20  35  57  83 117 160 201 244 297 355
#     4  10  22  41  63  88 122 162 204 248 299 359
#     4  10  21  38  62  88 117 156 202 250 300 356
#
# _framework density 23.390585000000002
#
# number of rings (size 3 to 8) (size 9 to 14) (size 15 to 20)
#    0.000    2.000    0.000    2.500    2.333    5.667 
#    0.000    0.000    0.000    0.000    0.000    0.000 
#    0.000    0.000    0.000    0.000    0.000    0.000 
#
# Total GULP energy -134136.495498 kJ/mol
# GULP energy per Si atom -5589.020646 kJ/mol
# Density = 2.333735 g / cm^3
# Si number density = 23.390585 Si / 1000 Ang^3
#
#
#
# Elastic Constant Matrix: (Units=GPa)
#
#
# Indices 1 2 3 4 5 6 
#
# 1 126.4396 -1.9533 42.8390 0.0000 2.0622 0.0001
# 2 -1.9533 46.8570 -2.9923 -0.0003 -7.3950 0.0007
# 3 42.8390 -2.9923 112.4257 0.0000 -14.4577 0.0000
# 4 0.0000 -0.0003 0.0000 14.4885 0.0000 7.3499
# 5 2.0622 -7.3950 -14.4577 0.0000 31.4648 0.0000
# 6 0.0001 0.0007 0.0000 7.3499 0.0000 9.6678
#
#
#
# Elastic Compliance Matrix: (Units=1/GPa)
#
#
# Indices 1 2 3 4 5 6 
#
# 1 0.009247 -0.000243 -0.003842 0.000000 -0.002429 0.000000
# 2 -0.000243 0.022361 0.001451 0.000002 0.005938 -0.000003
# 3 -0.003842 0.001451 0.011131 0.000000 0.005708 0.000000
# 4 0.000000 0.000002 0.000000 0.112350 0.000001 -0.085413
# 5 -0.002429 0.005938 0.005708 0.000001 0.035959 -0.000001
# 6 0.000000 -0.000003 0.000000 -0.085413 -0.000001 0.168372
#
#
# Mechanical properties :
#
#
# Convention : Reuss Voigt Hill
#
# Bulk Modulus (GPa) = 26.68690 40.16768 33.42729
# Shear Modulus (GPa) = 13.25634 27.64614 20.45124
#
# Velocity S-wave (km/s) = 2.38321 3.44166 2.96013
# Velocity P-wave (km/s) = 4.35969 5.74484 5.09952
#
# Compressibility (1/GPa) = 0.03747157
#
# Stress axis : x y z
#
# Youngs Moduli (GPa) = 108.14894 44.72019 89.83605
#
# Poissons Ratio (x) = 0.01088 0.34516
# Poissons Ratio (y) = 0.02630 -0.13040
# Poissons Ratio (z) = 0.41552 -0.06491
#
# Static dielectric constant tensor:
#      x y z
#    x 1.875810 0.000000 -0.044990 
#    y 0.000000 1.879490 0.000000 
#    z -0.044990 0.000000 1.893390 
# 
# From -- ./inp_files/319550.got.cif
#   From: 2010.05.17/outbox.cif.g08.bks.cpg/sg12_160_cif.got.tgz:319550.got - 2010.06.03 13:09:07.
