data_PCOD9196108
_publ_section_title
;
Structure prediction by ZEFSAII (Michael W. Deem and Ramdas Pophale) SiO2 
 PCOD9196108
Probable space group: C 2/M
;
_chemical_formula_sum "Si O2"
_cell_formula_units_Z 56
_cell_length_a 15.525369
_cell_length_b 7.957235
_cell_length_c 24.527639
_cell_angle_alpha 90.000000
_cell_angle_beta 63.730549
_cell_angle_gamma 90.000000
_cell_volume 2717.177109
_symmetry_space_group_name_H-M "C 2/M"
_symmetry_group_IT_number 12
_symmetry_cell_setting 'monoclinic'
loop_
_space_group_symop_operation_xyz
x,y,z
-x,y,-z
-x,-y,-z
x,-y,z
1/2+x,1/2+y,z
1/2-x,1/2+y,-z
1/2-x,1/2-y,-z
1/2+x,1/2-y,z
loop_
_atom_site_type_symbol
_atom_site_label
_atom_site_fract_x
_atom_site_fract_y
_atom_site_fract_z
Si Si1 0.897814 0.801416 0.004564
Si Si2 0.183333 0.810276 0.567681
Si Si3 0.068505 0.195579 0.220775
Si Si4 0.144840 0.206425 0.697711
Si Si5 0.993962 0.298285 0.564900
Si Si6 0.183757 0.303241 0.085288
Si Si7 0.663684 0.201321 0.304677
O O1 0.881347 0.777961 0.944212
O O2 0.899223 0.000000 0.016904
O O3 0.793992 0.735136 0.055797
O O4 0.000000 0.733919 0.000000
O O5 0.250000 0.750000 0.500000
O O6 0.178016 0.728942 0.628878
O O7 0.075957 0.796039 0.575082
O O8 0.215436 0.000000 0.568394
O O9 0.132745 0.282989 0.157341
O O10 0.114685 0.212603 0.267351
O O11 0.960546 0.264874 0.256448
O O12 0.062841 0.000000 0.207019
O O13 0.226529 0.250651 0.717663
O O14 0.140325 0.000000 0.695640
O O15 0.012112 0.500000 0.563034
O O16 0.894185 0.264536 0.623196
O O17 0.000000 0.250748 0.500000
O O18 0.190458 0.500000 0.069266
O O19 0.658557 0.000000 0.297489
#
# Coordination Sequence:
#
# PCOD9196108 Si02
#       7
#     8   8   8   8   8   8   8
#     4   9  19  38  63  89 120 158 197 235 280 339
#     4  11  21  36  56  80 110 143 188 237 294 354
#     4  11  22  39  59  82 117 156 196 239 289 343
#     4   9  20  38  58  78 108 150 189 232 286 351
#     4  10  20  35  56  81 110 143 184 236 298 358
#     4  10  21  37  59  89 121 154 195 240 286 335
#     4  10  20  37  59  80 107 146 192 237 287 346
#
# _framework density 20.609624
#
# number of rings (size 3 to 8) (size 9 to 14) (size 15 to 20)
#    0.000    2.000    1.429    2.143    0.000    4.571 
#    0.000   10.000    0.000    0.000    0.000    0.000 
#    0.000    0.000    0.000    0.000    0.000    0.000 
#
# Total GULP energy -156217.866915 kJ/mol
# GULP energy per Si atom -5579.209533 kJ/mol
# Density = 2.056272 g / cm^3
# Si number density = 20.609624 Si / 1000 Ang^3
#
#
#
# Elastic Constant Matrix: (Units=GPa)
#
#
# Indices 1 2 3 4 5 6 
#
# 1 144.9381 4.4446 43.1004 0.0000 -14.9570 0.0000
# 2 4.4446 12.2583 3.8808 0.0000 -6.6528 0.0001
# 3 43.1004 3.8808 104.1028 0.0000 -17.4519 0.0000
# 4 0.0000 0.0000 0.0000 23.8005 0.0000 3.9172
# 5 -14.9570 -6.6528 -17.4519 0.0000 20.3773 0.0000
# 6 0.0000 0.0001 0.0000 3.9172 0.0000 20.3716
#
#
#
# Elastic Compliance Matrix: (Units=1/GPa)
#
#
# Indices 1 2 3 4 5 6 
#
# 1 0.008086 -0.000144 -0.002750 0.000000 0.003533 0.000000
# 2 -0.000144 0.099513 0.002077 0.000000 0.034162 -0.000001
# 3 -0.002750 0.002077 0.012193 0.000000 0.009102 0.000000
# 4 0.000000 0.000000 0.000000 0.043389 0.000000 -0.008343
# 5 0.003533 0.034162 0.009102 0.000000 0.070616 0.000000
# 6 0.000000 -0.000001 0.000000 -0.008343 0.000000 0.050692
#
#
# Mechanical properties :
#
#
# Convention : Reuss Voigt Hill
#
# Bulk Modulus (GPa) = 8.46328 40.46121 24.46224
# Shear Modulus (GPa) = 15.36054 26.90144 21.13099
#
# Velocity S-wave (km/s) = 2.73300 3.61679 3.20550
# Velocity P-wave (km/s) = 3.75159 6.09232 5.05919
#
# Compressibility (1/GPa) = 0.11815750
#
# Stress axis : x y z
#
# Youngs Moduli (GPa) = 123.66529 10.04897 82.01445
#
# Poissons Ratio (x) = 0.00145 0.22556
# Poissons Ratio (y) = 0.01779 -0.17033
# Poissons Ratio (z) = 0.34011 -0.02087
#
# Static dielectric constant tensor:
#      x y z
#    x 1.734760 0.000000 -0.023750 
#    y 0.000000 1.769940 0.000000 
#    z -0.023750 0.000000 1.727620 
# 
# From -- ./inp_files/337881.got.cif
#   From: 2010.05.17/outbox.cif.g08.bks.cpg/sg12_169_cif.got.tgz:337881.got - 2010.06.03 13:09:07.
