data_PCOD9196595
_publ_section_title
;
Structure prediction by ZEFSAII (Michael W. Deem and Ramdas Pophale) SiO2 
 PCOD9196595
Probable space group: C 2/M
;
_chemical_formula_sum "Si O2"
_cell_formula_units_Z 64
_cell_length_a 15.386674
_cell_length_b 18.033452
_cell_length_c 18.226249
_cell_angle_alpha 90.000000
_cell_angle_beta 40.298937
_cell_angle_gamma 90.000000
_cell_volume 3270.954984
_symmetry_space_group_name_H-M "C 2/M"
_symmetry_group_IT_number 12
_symmetry_cell_setting 'monoclinic'
loop_
_space_group_symop_operation_xyz
x,y,z
-x,y,-z
-x,-y,-z
x,-y,z
1/2+x,1/2+y,z
1/2-x,1/2+y,-z
1/2-x,1/2-y,-z
1/2+x,1/2-y,z
loop_
_atom_site_type_symbol
_atom_site_label
_atom_site_fract_x
_atom_site_fract_y
_atom_site_fract_z
Si Si1 0.527687 0.725804 0.645571
Si Si2 0.097495 0.259617 0.832193
Si Si3 0.834159 0.174487 0.957608
Si Si4 0.902750 0.419967 0.131607
Si Si5 0.631244 0.413417 0.214238
Si Si6 0.772942 0.724969 0.595275
Si Si7 0.271292 0.172147 0.821673
Si Si8 0.656449 0.915254 0.373884
O O1 0.484082 0.640812 0.681248
O O2 0.649665 0.743392 0.621765
O O3 0.588183 0.747961 0.528067
O O4 0.401361 0.776246 0.747607
O O5 0.050962 0.344308 0.860115
O O6 0.234687 0.260481 0.696903
O O7 0.149191 0.226776 0.875830
O O8 0.987056 0.203397 0.871491
O O9 0.827989 0.121525 0.890959
O O10 0.750000 0.250000 0.000000
O O11 0.775898 0.139029 0.070280
O O12 0.906903 0.500000 0.168749
O O13 0.755278 0.408897 0.191476
O O14 0.000000 0.425850 0.000000
O O15 0.595448 0.500000 0.229564
O O16 0.773791 0.637825 0.611928
O O17 0.308508 0.117558 0.729795
O O18 0.500000 0.912090 0.500000
O O19 0.700195 0.000000 0.348487
#
# Coordination Sequence:
#
# PCOD9196595 Si02
#       8
#     8   8   8   8   8   8   8   8
#     4  11  20  40  57  87 111 151 200 241 287 351
#     4  11  20  36  58  88 111 151 195 240 288 349
#     4  12  21  36  59  88 119 156 198 242 290 355
#     4  10  20  35  57  83 116 155 194 239 291 350
#     4  11  23  39  58  87 124 159 195 246 306 353
#     4  10  22  36  63  83 111 153 199 239 287 354
#     4  11  21  35  61  84 117 151 196 244 282 351
#     4  10  21  38  59  88 119 151 191 240 298 351
#
# _framework density 19.566151000000001
#
# number of rings (size 3 to 8) (size 9 to 14) (size 15 to 20)
#    0.000    1.250    5.000    1.875    0.000    1.000 
#    0.000    0.625    0.000    6.750    0.000    0.000 
#    0.000    0.000    0.000    0.000    0.000    0.000 
#
# Total GULP energy -178454.438196 kJ/mol
# GULP energy per Si atom -5576.701194 kJ/mol
# Density = 1.952162 g / cm^3
# Si number density = 19.566151 Si / 1000 Ang^3
#
#
#
# Elastic Constant Matrix: (Units=GPa)
#
#
# Indices 1 2 3 4 5 6 
#
# 1 31.8214 -1.7815 3.7585 0.0000 -3.7681 0.0000
# 2 -1.7815 113.5860 29.5278 0.0000 8.5902 0.0000
# 3 3.7585 29.5278 105.3149 -0.0001 10.5450 0.0000
# 4 0.0000 0.0000 -0.0001 29.1613 0.0000 -0.0527
# 5 -3.7681 8.5902 10.5450 0.0000 30.0500 0.0000
# 6 0.0000 0.0000 0.0000 -0.0527 0.0000 24.5838
#
#
#
# Elastic Compliance Matrix: (Units=1/GPa)
#
#
# Indices 1 2 3 4 5 6 
#
# 1 0.032201 0.000627 -0.001774 0.000000 0.004481 0.000000
# 2 0.000627 0.009608 -0.002538 0.000000 -0.001777 0.000000
# 3 -0.001774 -0.002538 0.010592 0.000000 -0.003214 0.000000
# 4 0.000000 0.000000 0.000000 0.034292 0.000000 0.000073
# 5 0.004481 -0.001777 -0.003214 0.000000 0.035476 0.000000
# 6 0.000000 0.000000 0.000000 0.000073 0.000000 0.040677
#
#
# Mechanical properties :
#
#
# Convention : Reuss Voigt Hill
#
# Bulk Modulus (GPa) = 22.20682 34.85910 28.53296
# Shear Modulus (GPa) = 26.99410 31.37353 29.18382
#
# Velocity S-wave (km/s) = 3.71837 4.00867 3.86624
# Velocity P-wave (km/s) = 5.45979 6.26742 5.87749
#
# Compressibility (1/GPa) = 0.04503121
#
# Stress axis : x y z
#
# Youngs Moduli (GPa) = 31.05531 104.07999 94.41002
#
# Poissons Ratio (x) = -0.06528 0.16746
# Poissons Ratio (y) = -0.01948 0.23964
# Poissons Ratio (z) = 0.05508 0.26419
#
# Static dielectric constant tensor:
#      x y z
#    x 1.746690 0.000000 0.036850 
#    y 0.000000 1.714260 0.000000 
#    z 0.036850 0.000000 1.737780 
# 
# From -- ./inp_files/271674.got.cif
#   From: 2010.05.17/outbox.cif.g08.bks.cpg/sg12_136_cif.got.tgz:271674.got - 2010.06.03 13:09:07.
