data_PCOD9196271
_publ_section_title
;
Structure prediction by ZEFSAII (Michael W. Deem and Ramdas Pophale) SiO2 
 PCOD9196271
Probable space group: C 2/M
;
_chemical_formula_sum "Si O2"
_cell_formula_units_Z 56
_cell_length_a 32.148562
_cell_length_b 8.755511
_cell_length_c 13.060435
_cell_angle_alpha 90.000000
_cell_angle_beta 54.878309
_cell_angle_gamma 90.000000
_cell_volume 3006.892330
_symmetry_space_group_name_H-M "C 2/M"
_symmetry_group_IT_number 12
_symmetry_cell_setting 'monoclinic'
loop_
_space_group_symop_operation_xyz
x,y,z
-x,y,-z
-x,-y,-z
x,-y,z
1/2+x,1/2+y,z
1/2-x,1/2+y,-z
1/2-x,1/2-y,-z
1/2+x,1/2-y,z
loop_
_atom_site_type_symbol
_atom_site_label
_atom_site_fract_x
_atom_site_fract_y
_atom_site_fract_z
Si Si1 0.246015 0.316075 0.323613
Si Si2 0.229586 0.681969 0.923785
Si Si3 0.360983 0.317423 0.215315
Si Si4 0.565150 0.817014 0.490164
Si Si5 0.141154 0.316390 0.566992
Si Si6 0.545559 0.317850 0.306816
Si Si7 0.387421 0.182288 0.966016
O O1 0.244645 0.500000 0.320070
O O2 0.242036 0.250983 0.214849
O O3 0.301377 0.270703 0.287458
O O4 0.198704 0.265834 0.459479
O O5 0.235116 0.500000 0.916276
O O6 0.250000 0.750000 0.000000
O O7 0.169801 0.718045 0.992353
O O8 0.364070 0.500000 0.203541
O O9 0.377969 0.260570 0.302162
O O10 0.389800 0.242811 0.078732
O O11 0.606542 0.780740 0.517816
O O12 0.510417 0.755217 0.604012
O O13 0.575309 0.741835 0.365471
O O14 0.562856 0.000000 0.480897
O O15 0.140879 0.500000 0.581067
O O16 0.541848 0.500000 0.315192
O O17 0.573241 0.261624 0.165661
O O18 0.394148 0.000000 0.954189
#
# Coordination Sequence:
#
# PCOD9196271 Si02
#       7
#     8   8   8   8   8   8   8
#     4   9  19  35  53  78 112 150 188 225 269 322
#     4  10  21  34  51  78 111 146 184 227 272 326
#     4  10  20  35  56  83 115 148 186 232 275 322
#     4  10  21  38  59  84 113 147 187 227 275 337
#     4  10  21  36  57  82 112 149 189 229 271 327
#     4  11  22  38  60  85 113 142 181 234 287 333
#     4  10  21  38  59  79 108 150 188 223 276 338
#
# _framework density 18.62388
#
# number of rings (size 3 to 8) (size 9 to 14) (size 15 to 20)
#    0.000    2.000    0.000    4.286    2.000    4.000 
#    0.000    0.714    0.000    4.286    0.000    0.000 
#    0.000    0.000    0.000    0.000    0.000    0.000 
#
# Total GULP energy -156402.451153 kJ/mol
# GULP energy per Si atom -5585.801827 kJ/mol
# Density = 1.858149 g / cm^3
# Si number density = 18.623880 Si / 1000 Ang^3
#
#
#
# Elastic Constant Matrix: (Units=GPa)
#
#
# Indices 1 2 3 4 5 6 
#
# 1 33.6443 14.1631 20.4121 0.0000 11.1471 0.0000
# 2 14.1631 33.5210 23.5713 0.0000 -0.6756 0.0000
# 3 20.4121 23.5713 120.9699 0.0000 8.2849 0.0000
# 4 0.0000 0.0000 0.0000 34.1445 0.0000 8.3472
# 5 11.1471 -0.6756 8.2849 0.0000 19.3068 0.0000
# 6 0.0000 0.0000 0.0000 8.3472 0.0000 18.5488
#
#
#
# Elastic Compliance Matrix: (Units=1/GPa)
#
#
# Indices 1 2 3 4 5 6 
#
# 1 0.048520 -0.019269 -0.002543 0.000000 -0.027597 0.000000
# 2 -0.019269 0.042558 -0.006084 0.000000 0.015225 0.000000
# 3 -0.002543 -0.006084 0.010092 0.000000 -0.003075 0.000000
# 4 0.000000 0.000000 0.000000 0.032908 0.000000 -0.014809
# 5 -0.027597 0.015225 -0.003075 0.000000 0.069581 0.000000
# 6 0.000000 0.000000 0.000000 -0.014809 0.000000 0.060576
#
#
# Mechanical properties :
#
#
# Convention : Reuss Voigt Hill
#
# Bulk Modulus (GPa) = 22.03630 33.82534 27.93082
# Shear Modulus (GPa) = 14.91857 23.06593 18.99225
#
# Velocity S-wave (km/s) = 2.83334 3.52307 3.19686
# Velocity P-wave (km/s) = 4.74992 5.89501 5.35317
#
# Compressibility (1/GPa) = 0.04537968
#
# Stress axis : x y z
#
# Youngs Moduli (GPa) = 20.60987 23.49709 99.09192
#
# Poissons Ratio (x) = 0.45276 0.25195
# Poissons Ratio (y) = 0.39713 0.60287
# Poissons Ratio (z) = 0.05240 0.14296
#
# Static dielectric constant tensor:
#      x y z
#    x 1.642700 0.000000 -0.004930 
#    y 0.000000 1.618880 0.000000 
#    z -0.004930 0.000000 1.626020 
# 
# From -- ./inp_files/187242.got.cif
#   From: 2010.05.17/outbox.cif.g08.bks.cpg/sg12_94_cif.got.tgz:187242.got - 2010.06.03 13:09:07.
