data_PCOD9196146
_publ_section_title
;
Structure prediction by ZEFSAII (Michael W. Deem and Ramdas Pophale) SiO2 
 PCOD9196146
Probable space group: C 2/M
;
_chemical_formula_sum "Si O2"
_cell_formula_units_Z 48
_cell_length_a 24.613768
_cell_length_b 13.798217
_cell_length_c 13.047336
_cell_angle_alpha 90.000000
_cell_angle_beta 148.812811
_cell_angle_gamma 90.000000
_cell_volume 2294.642024
_symmetry_space_group_name_H-M "C 2/M"
_symmetry_group_IT_number 12
_symmetry_cell_setting 'monoclinic'
loop_
_space_group_symop_operation_xyz
x,y,z
-x,y,-z
-x,-y,-z
x,-y,z
1/2+x,1/2+y,z
1/2-x,1/2+y,-z
1/2-x,1/2-y,-z
1/2+x,1/2-y,z
loop_
_atom_site_type_symbol
_atom_site_label
_atom_site_fract_x
_atom_site_fract_y
_atom_site_fract_z
Si Si1 0.754472 0.714072 0.227257
Si Si2 0.392679 0.793132 0.646093
Si Si3 0.587615 0.392931 0.071575
Si Si4 0.117089 0.613554 0.976249
Si Si5 0.718789 0.392574 0.484003
Si Si6 0.382456 0.887881 0.268968
O O1 0.838939 0.681929 0.449585
O O2 0.645214 0.657668 0.071545
O O3 0.803889 0.684268 0.199497
O O4 0.716968 0.825337 0.177240
O O5 0.508716 0.835695 0.836198
O O6 0.368426 0.677943 0.608557
O O7 0.327689 0.836143 0.638735
O O8 0.546426 0.500000 0.976331
O O9 0.677708 0.404160 0.301657
O O10 0.500000 0.340616 0.000000
O O11 0.117319 0.500000 0.003986
O O12 0.119672 0.621183 0.856726
O O13 0.729875 0.500000 0.546138
O O14 0.500000 0.870466 0.500000
O O15 0.355257 0.000000 0.251754
#
# Coordination Sequence:
#
# PCOD9196146 Si02
#       6
#     8   8   8   8   8   8
#     4  11  21  35  58  85 114 149 190 237 285 337
#     4  10  20  35  56  81 115 157 194 232 286 343
#     4   9  17  30  51  79 110 142 185 235 278 328
#     4  11  23  38  58  85 117 151 190 236 288 345
#     4   9  18  32  52  78 111 151 195 237 279 332
#     4  10  20  37  62  87 111 143 191 242 287 338
#
# _framework density 20.918295000000001
#
# number of rings (size 3 to 8) (size 9 to 14) (size 15 to 20)
#    0.000    2.000    1.667    2.500    0.000    2.000 
#    0.000    0.833    0.000   12.000    0.000    0.000 
#    0.000    0.000    0.000    0.000    0.000    0.000 
#
# Total GULP energy -133743.864643 kJ/mol
# GULP energy per Si atom -5572.661027 kJ/mol
# Density = 2.087068 g / cm^3
# Si number density = 20.918295 Si / 1000 Ang^3
#
#
#
# Elastic Constant Matrix: (Units=GPa)
#
#
# Indices 1 2 3 4 5 6 
#
# 1 83.4041 49.7062 9.9269 0.0000 24.1062 0.0000
# 2 49.7062 123.1466 10.3560 0.0000 32.1403 0.0000
# 3 9.9269 10.3560 57.4288 0.0000 13.1478 0.0000
# 4 0.0000 0.0000 0.0000 24.7834 0.0000 2.5075
# 5 24.1062 32.1403 13.1478 0.0000 27.8060 0.0000
# 6 0.0000 0.0000 0.0000 2.5075 0.0000 27.0699
#
#
#
# Elastic Compliance Matrix: (Units=1/GPa)
#
#
# Indices 1 2 3 4 5 6 
#
# 1 0.017557 -0.004455 0.000083 0.000000 -0.010111 0.000000
# 2 -0.004455 0.012821 0.001084 0.000000 -0.011470 0.000000
# 3 0.000083 0.001084 0.019632 0.000000 -0.010608 0.000000
# 4 0.000000 0.000000 0.000000 0.040731 0.000000 -0.003773
# 5 -0.010111 -0.011470 -0.010608 0.000000 0.063003 0.000000
# 6 0.000000 0.000000 0.000000 -0.003773 0.000000 0.037291
#
#
# Mechanical properties :
#
#
# Convention : Reuss Voigt Hill
#
# Bulk Modulus (GPa) = 23.02290 44.88420 33.95355
# Shear Modulus (GPa) = 23.57510 28.86454 26.21982
#
# Velocity S-wave (km/s) = 3.36074 3.71869 3.54424
# Velocity P-wave (km/s) = 5.10778 6.31995 5.74592
#
# Compressibility (1/GPa) = 0.04343501
#
# Stress axis : x y z
#
# Youngs Moduli (GPa) = 56.95642 77.99769 50.93843
#
# Poissons Ratio (x) = 0.34746 -0.00425
# Poissons Ratio (y) = 0.25373 -0.05522
# Poissons Ratio (z) = -0.00475 -0.08455
#
# Static dielectric constant tensor:
#      x y z
#    x 1.730000 0.000000 -0.025950 
#    y 0.000000 1.829920 0.000000 
#    z -0.025950 0.000000 1.834880 
# 
# From -- ./inp_files/167620.got.cif
#   From: 2010.05.17/outbox.cif.g08.bks.cpg/sg12_84_cif.got.tgz:167620.got - 2010.06.03 13:09:07.
