data_PCOD9196326
_publ_section_title
;
Structure prediction by ZEFSAII (Michael W. Deem and Ramdas Pophale) SiO2 
 PCOD9196326
Probable space group: C 2/M
;
_chemical_formula_sum "Si O2"
_cell_formula_units_Z 64
_cell_length_a 31.768372
_cell_length_b 7.708654
_cell_length_c 25.159405
_cell_angle_alpha 90.000000
_cell_angle_beta 152.952170
_cell_angle_gamma 90.000000
_cell_volume 2801.763318
_symmetry_space_group_name_H-M "C 2/M"
_symmetry_group_IT_number 12
_symmetry_cell_setting 'monoclinic'
loop_
_space_group_symop_operation_xyz
x,y,z
-x,y,-z
-x,-y,-z
x,-y,z
1/2+x,1/2+y,z
1/2-x,1/2+y,-z
1/2-x,1/2-y,-z
1/2+x,1/2-y,z
loop_
_atom_site_type_symbol
_atom_site_label
_atom_site_fract_x
_atom_site_fract_y
_atom_site_fract_z
Si Si1 0.648228 0.291114 0.408510
Si Si2 0.815330 0.791724 0.746775
Si Si3 0.554906 0.711629 0.200037
Si Si4 0.104722 0.199139 0.056582
Si Si5 0.849267 0.292593 0.085273
Si Si6 0.581764 0.203172 0.729853
Si Si7 0.227983 0.703151 0.108974
Si Si8 0.617547 0.705337 0.493407
O O1 0.641444 0.500000 0.403033
O O2 0.750000 0.250000 0.500000
O O3 0.572846 0.227156 0.280227
O O4 0.634280 0.222030 0.452400
O O5 0.856707 0.738291 0.736580
O O6 0.876862 0.723010 0.864881
O O7 0.708474 0.743657 0.629530
O O8 0.821360 0.000000 0.755644
O O9 0.549659 0.500000 0.196768
O O10 0.469262 0.775459 0.068035
O O11 0.201049 0.204246 0.132848
O O12 0.074813 0.000000 0.031313
O O13 0.859731 0.500000 0.091599
O O14 0.917582 0.226824 0.208099
O O15 0.750000 0.250000 0.000000
O O16 0.837849 0.223678 0.012759
O O17 0.666468 0.280930 0.792015
O O18 0.479217 0.226923 0.593020
O O19 0.603169 0.000000 0.757321
O O20 0.209095 0.500000 0.094995
O O21 0.608161 0.500000 0.478805
#
# Coordination Sequence:
#
# PCOD9196326 Si02
#       8
#     8   8   8   8   8   8   8   8
#     4  10  20  35  56  84 117 151 187 230 283 338
#     4  10  20  38  61  82 110 151 196 238 280 335
#     4   9  18  35  59  85 113 146 187 236 283 329
#     4  10  21  36  59  87 111 146 196 241 281 333
#     4   8  16  30  49  74 104 140 178 217 269 326
#     4  10  20  36  58  82 111 151 194 235 277 335
#     4  10  20  36  55  81 117 151 185 233 288 339
#     4  11  23  36  55  86 119 152 189 233 287 344
#
# _framework density 22.842758
#
# number of rings (size 3 to 8) (size 9 to 14) (size 15 to 20)
#    0.000    2.250    1.250    1.500    1.750    3.500 
#    0.000    1.875    0.000    5.250    0.000    0.000 
#    0.000    0.000    0.000    0.000    0.000    0.000 
#
# Total GULP energy -178644.593170 kJ/mol
# GULP energy per Si atom -5582.643537 kJ/mol
# Density = 2.279077 g / cm^3
# Si number density = 22.842758 Si / 1000 Ang^3
#
#
#
# Elastic Constant Matrix: (Units=GPa)
#
#
# Indices 1 2 3 4 5 6 
#
# 1 47.3807 -0.1894 5.8074 0.0000 -2.8656 0.0000
# 2 -0.1894 52.6521 -1.9571 0.0000 -3.6763 0.0000
# 3 5.8074 -1.9571 113.3415 0.0000 0.8802 0.0000
# 4 0.0000 0.0000 0.0000 17.5355 0.0000 3.5058
# 5 -2.8656 -3.6763 0.8802 0.0000 35.5897 0.0000
# 6 0.0000 0.0000 0.0000 3.5058 0.0000 14.1520
#
#
#
# Elastic Compliance Matrix: (Units=1/GPa)
#
#
# Indices 1 2 3 4 5 6 
#
# 1 0.021348 0.000159 -0.001105 0.000000 0.001763 0.000000
# 2 0.000159 0.019143 0.000307 0.000000 0.001983 0.000000
# 3 -0.001105 0.000307 0.008887 0.000000 -0.000277 0.000000
# 4 0.000000 0.000000 0.000000 0.059999 0.000000 -0.014863
# 5 0.001763 0.001983 -0.000277 0.000000 0.028452 0.000000
# 6 0.000000 0.000000 0.000000 -0.014863 0.000000 0.074343
#
#
# Mechanical properties :
#
#
# Convention : Reuss Voigt Hill
#
# Bulk Modulus (GPa) = 20.78988 24.52177 22.65583
# Shear Modulus (GPa) = 21.78807 27.43634 24.61221
#
# Velocity S-wave (km/s) = 3.09176 3.46944 3.28603
# Velocity P-wave (km/s) = 4.67615 5.17762 4.93326
#
# Compressibility (1/GPa) = 0.04810033
#
# Stress axis : x y z
#
# Youngs Moduli (GPa) = 46.84217 52.23835 112.52453
#
# Poissons Ratio (x) = -0.00830 0.12432
# Poissons Ratio (y) = -0.00744 -0.03455
# Poissons Ratio (z) = 0.05175 -0.01604
#
# Static dielectric constant tensor:
#      x y z
#    x 1.859310 0.000000 -0.016550 
#    y 0.000000 1.843310 0.000000 
#    z -0.016550 0.000000 1.888010 
# 
# From -- ./inp_files/353475.got.cif
#   From: 2010.05.17/outbox.cif.g08.bks.cpg/sg12_177_cif.got.tgz:353475.got - 2010.06.03 13:09:07.
