data_PCOD9196282
_publ_section_title
;
Structure prediction by ZEFSAII (Michael W. Deem and Ramdas Pophale) SiO2 
 PCOD9196282
Probable space group: C 2/M
;
_chemical_formula_sum "Si O2"
_cell_formula_units_Z 48
_cell_length_a 20.644109
_cell_length_b 8.896923
_cell_length_c 12.341403
_cell_angle_alpha 90.000000
_cell_angle_beta 64.755848
_cell_angle_gamma 90.000000
_cell_volume 2050.257676
_symmetry_space_group_name_H-M "C 2/M"
_symmetry_group_IT_number 12
_symmetry_cell_setting 'monoclinic'
loop_
_space_group_symop_operation_xyz
x,y,z
-x,y,-z
-x,-y,-z
x,-y,z
1/2+x,1/2+y,z
1/2-x,1/2+y,-z
1/2-x,1/2-y,-z
1/2+x,1/2-y,z
loop_
_atom_site_type_symbol
_atom_site_label
_atom_site_fract_x
_atom_site_fract_y
_atom_site_fract_z
Si Si1 0.336901 0.682445 0.866530
Si Si2 0.108529 0.673342 0.738809
Si Si3 0.470793 0.680735 0.902873
Si Si4 0.282338 0.671071 0.191264
Si Si5 0.432457 0.328866 0.600226
Si Si6 0.334130 0.167018 0.535193
O O1 0.327029 0.500000 0.869862
O O2 0.388581 0.721994 0.931052
O O3 0.263397 0.758390 0.875735
O O4 0.392044 0.732964 0.732028
O O5 0.091503 0.500000 0.769014
O O6 0.032892 0.758598 0.777775
O O7 0.150207 0.739738 0.811632
O O8 0.162167 0.680426 0.596887
O O9 0.472712 0.500000 0.896917
O O10 0.500000 0.728690 0.000000
O O11 0.301283 0.500000 0.149040
O O12 0.232664 0.664657 0.335364
O O13 0.500000 0.248597 0.500000
O O14 0.451309 0.500000 0.614748
O O15 0.375499 0.314034 0.545636
O O16 0.368056 0.000000 0.530970
#
# Coordination Sequence:
#
# PCOD9196282 Si02
#       6
#     8   8   8   8   8   8
#     4   9  18  34  55  79 109 142 178 225 278 329
#     4  11  22  36  56  83 115 149 186 228 275 325
#     4  10  22  41  63  84 107 140 185 235 284 332
#     4  10  20  35  56  83 116 151 186 222 266 325
#     4   9  16  26  44  72 105 142 180 216 261 320
#     4   9  19  32  48  76 112 148 182 218 262 317
#
# _framework density 23.411693
#
# number of rings (size 3 to 8) (size 9 to 14) (size 15 to 20)
#    0.000    2.333    0.000    2.500    0.000    4.667 
#    0.000    4.167    0.000    0.000    0.000    0.000 
#    0.000    0.000    0.000    0.000    0.000    0.000 
#
# Total GULP energy -133642.936568 kJ/mol
# GULP energy per Si atom -5568.455690 kJ/mol
# Density = 2.335841 g / cm^3
# Si number density = 23.411693 Si / 1000 Ang^3
#
#
#
# Elastic Constant Matrix: (Units=GPa)
#
#
# Indices 1 2 3 4 5 6 
#
# 1 113.1588 30.1271 27.4129 0.0000 19.6294 0.0000
# 2 30.1271 30.7186 21.4975 0.0000 11.4806 0.0000
# 3 27.4129 21.4975 104.3570 0.0000 12.7205 0.0000
# 4 0.0000 0.0000 0.0000-2222.6987 0.0000 40.1592
# 5 19.6294 11.4806 12.7205 0.0000 34.9406 0.0000
# 6 0.0000 0.0000 0.0000 40.1592 0.0000 29.5502
#
#
#
# Elastic Compliance Matrix: (Units=1/GPa)
#
#
# Indices 1 2 3 4 5 6 
#
# 1 0.012340 -0.010391 -0.000703 0.000000 -0.003262 0.000000
# 2 -0.010391 0.050522 -0.006662 0.000000 -0.008338 0.000000
# 3 -0.000703 -0.006662 0.011327 0.000000 -0.001540 0.000000
# 4 0.000000 0.000000 0.000000 -0.000439 0.000000 0.000597
# 5 -0.003262 -0.008338 -0.001540 0.000000 0.033753 0.000000
# 6 0.000000 0.000000 0.000000 0.000597 0.000000 0.033030
#
#
# Mechanical properties :
#
#
# Convention : Reuss Voigt Hill
#
# Bulk Modulus (GPa) = 25.85472 45.14548 35.50010
# Shear Modulus (GPa) = 26.46380 -420.36179 -196.94899
#
# Velocity S-wave (km/s) = 3.36574 -13.41424 -9.18187
# Velocity P-wave (km/s) = 5.11583 14.85252 9.85965
#
# Compressibility (1/GPa) = 0.03867766
#
# Stress axis : x y z
#
# Youngs Moduli (GPa) = 81.03837 19.79319 88.28256
#
# Poissons Ratio (x) = 0.20567 0.06209
# Poissons Ratio (y) = 0.84205 0.58812
# Poissons Ratio (z) = 0.05700 0.13186
#
# Static dielectric constant tensor:
#      x y z
#    x 1.942270 0.000000 -0.050150 
#    y 0.000000 1.839610 0.000000 
#    z -0.050150 0.000000 1.987960 
# 
# From -- ./inp_files/172313.got.cif
#   From: 2010.05.17/outbox.cif.g08.bks.cpg/sg12_87_cif.got.tgz:172313.got - 2010.06.03 13:09:07.
