data_PCOD9196934
_publ_section_title
;
Structure prediction by ZEFSAII (Michael W. Deem and Ramdas Pophale) SiO2 
 PCOD9196934
Probable space group: C 2/M
;
_chemical_formula_sum "Si O2"
_cell_formula_units_Z 58
_cell_length_a 18.637864
_cell_length_b 7.534812
_cell_length_c 17.713622
_cell_angle_alpha 90.000000
_cell_angle_beta 95.042826
_cell_angle_gamma 90.000000
_cell_volume 2477.944845
_symmetry_space_group_name_H-M "C 2/M"
_symmetry_group_IT_number 12
_symmetry_cell_setting 'monoclinic'
loop_
_space_group_symop_operation_xyz
x,y,z
-x,y,-z
-x,-y,-z
x,-y,z
1/2+x,1/2+y,z
1/2-x,1/2+y,-z
1/2-x,1/2-y,-z
1/2+x,1/2-y,z
loop_
_atom_site_type_symbol
_atom_site_label
_atom_site_fract_x
_atom_site_fract_y
_atom_site_fract_z
Si Si1 0.093805 0.792128 0.455752
Si Si2 0.152173 0.790068 0.621958
Si Si3 0.691183 0.784956 0.320774
Si Si4 0.419923 0.786385 0.813336
Si Si5 0.928440 0.286066 0.238633
Si Si6 0.310582 0.204069 0.113482
Si Si7 0.656650 0.709568 0.046962
Si Si8 0.000000 0.500000 0.500000
O O1 0.132515 0.724006 0.536702
O O2 0.146626 0.769444 0.390463
O O3 0.028175 0.657115 0.444475
O O4 0.074285 0.000000 0.460729
O O5 0.227370 0.718741 0.661849
O O6 0.090942 0.758714 0.677754
O O7 0.161393 0.000000 0.613043
O O8 0.647258 0.722119 0.243612
O O9 0.693028 0.000000 0.317612
O O10 0.494744 0.721325 0.784655
O O11 0.406000 0.737776 0.898661
O O12 0.420625 0.000000 0.809281
O O13 0.929458 0.500000 0.231674
O O14 0.862625 0.215699 0.180964
O O15 0.231434 0.282359 0.090347
O O16 0.298068 0.000000 0.134450
O O17 0.350839 0.208906 0.036445
O O18 0.666149 0.500000 0.035382
#
# Coordination Sequence:
#
# PCOD9196934 Si02
#       8
#     8   8   8   8   8   8   8   2
#     4  11  25  42  67  98 127 171 216 258 319 377
#     4  10  23  40  62  92 125 161 209 259 310 373
#     4  10  21  41  64  90 126 167 207 258 314 371
#     4  10  22  37  58  85 118 159 198 242 308 374
#     4  10  22  37  58  86 117 158 202 247 307 370
#     4   9  19  37  58  82 113 150 197 246 295 364
#     4  10  20  35  58  84 111 149 196 248 304 359
#     4  12  26  44  68  94 136 168 202 280 308 386
#
# _framework density 23.406493999999999
#
# number of rings (size 3 to 8) (size 9 to 14) (size 15 to 20)
#    0.000    1.931    0.690    1.862    2.897    3.310 
#    0.000    2.759    0.000    0.000    0.000    0.000 
#    0.000    0.000    0.000    0.000    0.000    0.000 
#
# Total GULP energy -161923.393096 kJ/mol
# GULP energy per Si atom -5583.565279 kJ/mol
# Density = 2.335322 g / cm^3
# Si number density = 23.406494 Si / 1000 Ang^3
#
#
#
# Elastic Constant Matrix: (Units=GPa)
#
#
# Indices 1 2 3 4 5 6 
#
# 1 32.0798 -1.3590 8.4750 0.0000 -15.2273 0.0000
# 2 -1.3590 83.5997 -14.9388 0.0000 9.9309 0.0000
# 3 8.4750 -14.9388 93.4082 0.0000 -9.6228 0.0000
# 4 0.0000 0.0000 0.0000 14.0486 0.0000 -15.6603
# 5 -15.2273 9.9309 -9.6228 0.0000 49.3844 0.0000
# 6 0.0000 0.0000 0.0000 -15.6603 0.0000 -4.7351
#
#
#
# Elastic Compliance Matrix: (Units=1/GPa)
#
#
# Indices 1 2 3 4 5 6 
#
# 1 0.037071 -0.001155 -0.002395 0.000000 0.011196 0.000000
# 2 -0.001155 0.012574 0.001856 0.000000 -0.002523 0.000000
# 3 -0.002395 0.001856 0.011333 0.000000 0.001097 0.000000
# 4 0.000000 0.000000 0.000000 0.015188 0.000000 -0.050231
# 5 0.011196 -0.002523 0.001097 0.000000 0.024423 0.000000
# 6 0.000000 0.000000 0.000000 -0.050231 0.000000 -0.045061
#
#
# Mechanical properties :
#
#
# Convention : Reuss Voigt Hill
#
# Bulk Modulus (GPa) = 17.36436 21.49356 19.42896
# Shear Modulus (GPa) = 64.01085 26.20028 45.10557
#
# Velocity S-wave (km/s) = 5.23515 3.34931 4.39458
# Velocity P-wave (km/s) = 6.63153 4.91527 5.83682
#
# Compressibility (1/GPa) = 0.05758922
#
# Stress axis : x y z
#
# Youngs Moduli (GPa) = 26.97562 79.52691 88.23967
#
# Poissons Ratio (x) = 0.09188 0.21132
# Poissons Ratio (y) = 0.03117 -0.16376
# Poissons Ratio (z) = 0.06460 -0.14759
#
# Static dielectric constant tensor:
#      x y z
#    x 1.933040 0.000000 0.049230 
#    y 0.000000 1.880700 0.000000 
#    z 0.049230 0.000000 1.866770 
# 
# From -- ./inp_files/275415.got.cif
#   From: 2010.05.17/outbox.cif.g08.bks.cpg/sg12_138_cif.got.tgz:275415.got - 2010.06.03 13:09:07.
