data_PCOD9196505
_publ_section_title
;
Structure prediction by ZEFSAII (Michael W. Deem and Ramdas Pophale) SiO2 
 PCOD9196505
Probable space group: C 2/M
;
_chemical_formula_sum "Si O2"
_cell_formula_units_Z 48
_cell_length_a 23.988153
_cell_length_b 9.060828
_cell_length_c 12.795716
_cell_angle_alpha 90.000000
_cell_angle_beta 89.650074
_cell_angle_gamma 90.000000
_cell_volume 2781.129356
_symmetry_space_group_name_H-M "C 2/M"
_symmetry_group_IT_number 12
_symmetry_cell_setting 'monoclinic'
loop_
_space_group_symop_operation_xyz
x,y,z
-x,y,-z
-x,-y,-z
x,-y,z
1/2+x,1/2+y,z
1/2-x,1/2+y,-z
1/2-x,1/2-y,-z
1/2+x,1/2-y,z
loop_
_atom_site_type_symbol
_atom_site_label
_atom_site_fract_x
_atom_site_fract_y
_atom_site_fract_z
Si Si1 0.315810 0.175797 0.613950
Si Si2 0.884975 0.824048 0.789455
Si Si3 0.004688 0.676540 0.123183
Si Si4 0.620370 0.823272 0.823056
Si Si5 0.302143 0.823987 0.372386
Si Si6 0.310387 0.676250 0.992210
O O1 0.362366 0.251155 0.684194
O O2 0.321399 0.209361 0.490312
O O3 0.255256 0.238304 0.647112
O O4 0.317272 0.000000 0.627435
O O5 0.840525 0.790059 0.882029
O O6 0.944073 0.759825 0.825026
O O7 0.888051 0.000000 0.778490
O O8 0.014066 0.500000 0.130572
O O9 0.945104 0.712015 0.175380
O O10 0.000000 0.713126 0.000000
O O11 0.651705 0.789196 0.714691
O O12 0.625248 0.000000 0.841608
O O13 0.651107 0.739430 0.916129
O O14 0.290570 0.000000 0.367241
O O15 0.305175 0.500000 0.001329
O O16 0.250000 0.750000 0.000000
#
# Coordination Sequence:
#
# PCOD9196505 Si02
#       6
#     8   8   8   8   8   8
#     4  10  20  35  57  82 109 143 182 222 266 320
#     4  11  23  37  54  78 110 145 181 222 268 318
#     4  10  20  36  58  81 105 141 184 223 265 319
#     4  10  20  36  57  80 108 139 176 221 270 321
#     4   9  19  36  57  82 111 142 176 220 274 323
#     4  11  23  35  51  78 110 141 175 218 269 321
#
# _framework density 17.259174999999999
#
# number of rings (size 3 to 8) (size 9 to 14) (size 15 to 20)
#    0.000    1.833    1.667    2.500    0.000    8.333 
#    0.000    0.833    0.000    5.000    0.000    0.000 
#    0.000    0.000    0.000    0.000    0.000    0.000 
#
# Total GULP energy -134054.940955 kJ/mol
# GULP energy per Si atom -5585.622540 kJ/mol
# Density = 1.721989 g / cm^3
# Si number density = 17.259175 Si / 1000 Ang^3
#
#
#
# Elastic Constant Matrix: (Units=GPa)
#
#
# Indices 1 2 3 4 5 6 
#
# 1 85.4352 39.1863 36.6116 0.0000 25.2624 0.0000
# 2 39.1863 35.5218 36.1006 0.0000 13.1501 0.0000
# 3 36.6116 36.1006 73.3776 0.0000 16.9901 0.0000
# 4 0.0000 0.0000 0.0000 27.4377 0.0000 5.3054
# 5 25.2624 13.1501 16.9901 0.0000 31.4820 0.0000
# 6 0.0000 0.0000 0.0000 5.3054 0.0000 32.4430
#
#
#
# Elastic Compliance Matrix: (Units=1/GPa)
#
#
# Indices 1 2 3 4 5 6 
#
# 1 0.026842 -0.028947 0.003470 0.000000 -0.011321 0.000000
# 2 -0.028947 0.090291 -0.030427 0.000000 0.001934 0.000000
# 3 0.003470 -0.030427 0.028077 0.000000 -0.005227 0.000000
# 4 0.000000 0.000000 0.000000 0.037636 0.000000 -0.006155
# 5 -0.011321 0.001934 -0.005227 0.000000 0.042862 0.000000
# 6 0.000000 0.000000 0.000000 -0.006155 0.000000 0.031830
#
#
# Mechanical properties :
#
#
# Convention : Reuss Voigt Hill
#
# Bulk Modulus (GPa) = 29.93759 46.45906 38.19833
# Shear Modulus (GPa) = 13.14131 23.76828 18.45479
#
# Velocity S-wave (km/s) = 2.76236 3.71501 3.27352
# Velocity P-wave (km/s) = 5.24955 6.73637 6.03889
#
# Compressibility (1/GPa) = 0.03340282
#
# Stress axis : x y z
#
# Youngs Moduli (GPa) = 37.25480 11.07527 35.61656
#
# Poissons Ratio (x) = 0.32059 -0.12358
# Poissons Ratio (y) = 1.07840 1.08370
# Poissons Ratio (z) = -0.12926 0.33698
#
# Static dielectric constant tensor:
#      x y z
#    x 1.555040 0.000000 -0.012600 
#    y 0.000000 1.576090 0.000000 
#    z -0.012600 0.000000 1.574900 
# 
# From -- ./inp_files/172024.got.cif
#   From: 2010.05.17/outbox.cif.g08.bks.cpg/sg12_87_cif.got.tgz:172024.got - 2010.06.03 13:09:07.
