data_PCOD9196368
_publ_section_title
;
Structure prediction by ZEFSAII (Michael W. Deem and Ramdas Pophale) SiO2 
 PCOD9196368
Probable space group: C 2/M
;
_chemical_formula_sum "Si O2"
_cell_formula_units_Z 56
_cell_length_a 21.093602
_cell_length_b 8.374245
_cell_length_c 28.617389
_cell_angle_alpha 90.000000
_cell_angle_beta 145.157151
_cell_angle_gamma 90.000000
_cell_volume 2888.095520
_symmetry_space_group_name_H-M "C 2/M"
_symmetry_group_IT_number 12
_symmetry_cell_setting 'monoclinic'
loop_
_space_group_symop_operation_xyz
x,y,z
-x,y,-z
-x,-y,-z
x,-y,z
1/2+x,1/2+y,z
1/2-x,1/2+y,-z
1/2-x,1/2-y,-z
1/2+x,1/2-y,z
loop_
_atom_site_type_symbol
_atom_site_label
_atom_site_fract_x
_atom_site_fract_y
_atom_site_fract_z
Si Si1 0.962583 0.804729 0.244023
Si Si2 0.309592 0.306662 0.664947
Si Si3 0.743438 0.690787 0.943039
Si Si4 0.673692 0.808303 0.218530
Si Si5 0.094251 0.807459 0.685887
Si Si6 0.530992 0.308851 0.966559
Si Si7 0.563848 0.192895 0.491378
O O1 0.867609 0.751875 0.150434
O O2 0.933026 0.751122 0.278392
O O3 0.083821 0.753592 0.300153
O O4 0.962192 0.000000 0.243983
O O5 0.309336 0.500000 0.665764
O O6 0.320258 0.247648 0.724409
O O7 0.191592 0.254517 0.572458
O O8 0.739821 0.500000 0.941722
O O9 0.750000 0.750000 0.000000
O O10 0.851650 0.743298 0.979915
O O11 0.785354 0.752423 0.259514
O O12 0.565488 0.742759 0.127242
O O13 0.670491 0.000000 0.215261
O O14 0.001517 0.755494 0.592875
O O15 0.097244 0.000000 0.688679
O O16 0.537358 0.500000 0.971065
O O17 0.500000 0.252050 0.000000
O O18 0.500000 0.243890 0.500000
O O19 0.561619 0.000000 0.488802
#
# Coordination Sequence:
#
# PCOD9196368 Si02
#       7
#     8   8   8   8   8   8   8
#     4   9  20  38  58  82 112 151 190 233 289 342
#     4  10  20  37  60  82 113 152 191 233 281 345
#     4  11  22  39  63  88 120 157 200 248 299 356
#     4  11  22  36  58  86 113 146 191 242 293 344
#     4  10  21  37  58  83 114 149 190 237 288 343
#     4  11  24  40  59  85 117 154 197 244 298 359
#     4  10  20  35  56  85 117 150 189 231 285 344
#
# _framework density 19.389939999999999
#
# number of rings (size 3 to 8) (size 9 to 14) (size 15 to 20)
#    0.000    1.714    1.429    3.000    0.000    5.429 
#    0.000    2.857    0.000    0.000    0.000    0.000 
#    0.000    0.000    0.000    0.000    0.000    0.000 
#
# Total GULP energy -156496.893903 kJ/mol
# GULP energy per Si atom -5589.174782 kJ/mol
# Density = 1.934581 g / cm^3
# Si number density = 19.389940 Si / 1000 Ang^3
#
#
#
# Elastic Constant Matrix: (Units=GPa)
#
#
# Indices 1 2 3 4 5 6 
#
# 1 139.2726 10.8624 50.1726 0.0000 14.5714 0.0000
# 2 10.8624 15.8131 8.8639 0.0000 3.9780 0.0002
# 3 50.1726 8.8639 134.4266 0.0000 16.3427 -0.0001
# 4 0.0000 0.0000 0.0000 27.8079 0.0000 -5.8171
# 5 14.5714 3.9780 16.3427 0.0000 37.7403 0.0000
# 6 0.0000 0.0002 -0.0001 -5.8171 0.0000 15.7313
#
#
#
# Elastic Compliance Matrix: (Units=1/GPa)
#
#
# Indices 1 2 3 4 5 6 
#
# 1 0.008666 -0.003969 -0.002762 0.000000 -0.001731 0.000000
# 2 -0.003969 0.068514 -0.002475 0.000000 -0.004618 -0.000001
# 3 -0.002762 -0.002475 0.008943 0.000000 -0.002545 0.000000
# 4 0.000000 0.000000 0.000000 0.038976 0.000000 0.014413
# 5 -0.001731 -0.004618 -0.002545 0.000000 0.028754 0.000000
# 6 0.000000 -0.000001 0.000000 0.014413 0.000000 0.068897
#
#
# Mechanical properties :
#
#
# Convention : Reuss Voigt Hill
#
# Bulk Modulus (GPa) = 14.76880 47.70112 31.23496
# Shear Modulus (GPa) = 18.95862 30.89680 24.92771
#
# Velocity S-wave (km/s) = 3.13030 3.99613 3.58942
# Velocity P-wave (km/s) = 4.54954 6.77838 5.77255
#
# Compressibility (1/GPa) = 0.06771031
#
# Stress axis : x y z
#
# Youngs Moduli (GPa) = 115.39412 14.59552 111.82471
#
# Poissons Ratio (x) = 0.05793 0.30889
# Poissons Ratio (y) = 0.45799 0.27677
# Poissons Ratio (z) = 0.31874 0.03612
#
# Static dielectric constant tensor:
#      x y z
#    x 1.653560 0.000000 0.017090 
#    y 0.000000 1.674480 0.000000 
#    z 0.017090 0.000000 1.643440 
# 
# From -- ./inp_files/230939.got.cif
#   From: 2010.05.17/outbox.cif.g08.bks.cpg/sg12_116_cif.got.tgz:230939.got - 2010.06.03 13:09:07.
