data_PCOD9196866
_publ_section_title
;
Structure prediction by ZEFSAII (Michael W. Deem and Ramdas Pophale) SiO2 
 PCOD9196866
Probable space group: C 2/M
;
_chemical_formula_sum "Si O2"
_cell_formula_units_Z 48
_cell_length_a 20.273336
_cell_length_b 24.742357
_cell_length_c 7.764254
_cell_angle_alpha 90.000000
_cell_angle_beta 31.631905
_cell_angle_gamma 90.000000
_cell_volume 2042.577203
_symmetry_space_group_name_H-M "C 2/M"
_symmetry_group_IT_number 12
_symmetry_cell_setting 'monoclinic'
loop_
_space_group_symop_operation_xyz
x,y,z
-x,y,-z
-x,-y,-z
x,-y,z
1/2+x,1/2+y,z
1/2-x,1/2+y,-z
1/2-x,1/2-y,-z
1/2+x,1/2-y,z
loop_
_atom_site_type_symbol
_atom_site_label
_atom_site_fract_x
_atom_site_fract_y
_atom_site_fract_z
Si Si1 0.271594 0.757259 0.195493
Si Si2 0.480613 0.697809 0.366666
Si Si3 0.275108 0.062839 0.354986
Si Si4 0.419136 0.407775 0.936027
Si Si5 0.143742 0.672175 0.682902
Si Si6 0.318443 0.561594 0.805640
O O1 0.210222 0.698514 0.369793
O O2 0.278066 0.797787 0.342145
O O3 0.163788 0.785069 0.321441
O O4 0.418953 0.746061 0.838548
O O5 0.500000 0.665965 0.500000
O O6 0.533305 0.652911 0.120472
O O7 0.353054 0.109009 0.282069
O O8 0.262647 0.080438 0.180983
O O9 0.316691 0.000000 0.267400
O O10 0.145506 0.066681 0.752920
O O11 0.542464 0.437280 0.589120
O O12 0.322958 0.411384 0.984928
O O13 0.000000 0.691491 0.000000
O O14 0.281242 0.500000 0.921579
#
# Coordination Sequence:
#
# PCOD9196866 Si02
#       6
#     8   8   8   8   8   8
#     4  11  24  42  65  97 130 176 231 276 334 411
#     4  12  23  41  64  96 135 176 224 273 341 405
#     4  11  23  39  65  95 127 174 229 276 334 405
#     4  11  20  36  60  93 129 169 213 274 340 396
#     4  11  23  42  66  91 130 177 228 281 339 396
#     4  10  20  35  57  90 130 168 213 273 333 397
#
# _framework density 23.499722999999999
#
# number of rings (size 3 to 8) (size 9 to 14) (size 15 to 20)
#    0.000    1.000    5.000    4.000    0.000    1.667 
#    0.000    0.000    0.000    0.000    0.000    3.500 
#    0.000    0.000    0.000    0.000    0.000    0.000 
#
# Total GULP energy -133617.763648 kJ/mol
# GULP energy per Si atom -5567.406819 kJ/mol
# Density = 2.344624 g / cm^3
# Si number density = 23.499723 Si / 1000 Ang^3
#
#
#
# Elastic Constant Matrix: (Units=GPa)
#
#
# Indices 1 2 3 4 5 6 
#
# 1 113.3984 31.4140 8.3499 -0.0002 1.1287 0.0001
# 2 31.4140 105.1431 3.7480 -0.0001 -7.8389 0.0000
# 3 8.3499 3.7480 56.0919 0.0003 -13.1925 -0.0002
# 4 -0.0002 -0.0001 0.0003 26.9789 -0.0002 -1.7979
# 5 1.1287 -7.8389 -13.1925 -0.0002 32.4305 0.0001
# 6 0.0001 0.0000 -0.0002 -1.7979 0.0001 25.3275
#
#
#
# Elastic Compliance Matrix: (Units=1/GPa)
#
#
# Indices 1 2 3 4 5 6 
#
# 1 0.009788 -0.002995 -0.001667 0.000000 -0.001743 0.000000
# 2 -0.002995 0.010602 0.000403 0.000000 0.002831 0.000000
# 3 -0.001667 0.000403 0.019999 0.000000 0.008291 0.000000
# 4 0.000000 0.000000 0.000000 0.037242 0.000000 0.002644
# 5 -0.001743 0.002831 0.008291 0.000000 0.034953 0.000000
# 6 0.000000 0.000000 0.000000 0.002644 0.000000 0.039670
#
#
# Mechanical properties :
#
#
# Convention : Reuss Voigt Hill
#
# Bulk Modulus (GPa) = 31.37500 40.18413 35.77956
# Shear Modulus (GPa) = 29.17214 32.35548 30.76381
#
# Velocity S-wave (km/s) = 3.52715 3.71461 3.62209
# Velocity P-wave (km/s) = 5.47429 5.96110 5.72288
#
# Compressibility (1/GPa) = 0.03187251
#
# Stress axis : x y z
#
# Youngs Moduli (GPa) = 102.16366 94.31866 50.00240
#
# Poissons Ratio (x) = 0.28248 0.08335
# Poissons Ratio (y) = 0.30598 -0.02016
# Poissons Ratio (z) = 0.17029 -0.03803
#
# Static dielectric constant tensor:
#      x y z
#    x 2.006470 0.000000 0.049780 
#    y 0.000000 1.946620 0.000000 
#    z 0.049780 0.000000 1.942880 
# 
# From -- ./inp_files/91187.got.cif
#   From: 2010.05.17/outbox.cif.g08.bks.cpg/sg12_46_cif.got.tgz:91187.got - 2010.06.03 13:09:07.
