data_PCOD9196769
_publ_section_title
;
Structure prediction by ZEFSAII (Michael W. Deem and Ramdas Pophale) SiO2 
 PCOD9196769
Probable space group: C 2/M
;
_chemical_formula_sum "Si O2"
_cell_formula_units_Z 56
_cell_length_a 14.937685
_cell_length_b 22.628011
_cell_length_c 24.471736
_cell_angle_alpha 90.000000
_cell_angle_beta 159.412407
_cell_angle_gamma 90.000000
_cell_volume 2908.649716
_symmetry_space_group_name_H-M "C 2/M"
_symmetry_group_IT_number 12
_symmetry_cell_setting 'monoclinic'
loop_
_space_group_symop_operation_xyz
x,y,z
-x,y,-z
-x,-y,-z
x,-y,z
1/2+x,1/2+y,z
1/2-x,1/2+y,-z
1/2-x,1/2-y,-z
1/2+x,1/2-y,z
loop_
_atom_site_type_symbol
_atom_site_label
_atom_site_fract_x
_atom_site_fract_y
_atom_site_fract_z
Si Si1 0.442866 0.732667 0.766364
Si Si2 0.941171 0.347747 0.618973
Si Si3 0.958063 0.220650 0.302353
Si Si4 0.690841 0.890797 0.655420
Si Si5 0.288328 0.931404 0.146812
Si Si6 0.754504 0.434664 0.997154
Si Si7 0.003237 0.683951 0.104788
O O1 0.422421 0.734793 0.688865
O O2 0.279327 0.675942 0.690823
O O3 0.386838 0.786964 0.775723
O O4 0.742726 0.718968 0.944446
O O5 0.659909 0.321144 0.449216
O O6 0.095547 0.286321 0.705676
O O7 0.034510 0.387261 0.622015
O O8 0.013281 0.385853 0.713151
O O9 0.692339 0.189332 0.161931
O O10 0.500000 0.913207 0.500000
O O11 0.955368 0.925144 0.813494
O O12 0.289803 0.929154 0.082446
O O13 0.333092 0.000000 0.189341
O O14 0.000000 0.915257 0.000000
O O15 0.831568 0.500000 0.023706
O O16 0.918789 0.383005 0.065062
#
# Coordination Sequence:
#
# PCOD9196769 Si02
#       7
#     8   8   8   8   8   8   8
#     4  10  20  35  57  86 116 157 196 243 286 357
#     4  11  22  35  57  89 121 156 192 243 296 358
#     4  11  22  36  56  86 124 159 193 239 302 356
#     4  11  20  36  58  86 125 150 191 242 299 354
#     4  10  20  37  62  88 115 149 198 253 295 340
#     4  10  22  40  62  87 115 153 204 253 291 342
#     4  10  21  37  58  86 118 158 199 239 297 351
#
# _framework density 19.25292
#
# number of rings (size 3 to 8) (size 9 to 14) (size 15 to 20)
#    0.000    1.571    4.286    1.286    0.000    1.429 
#    0.000    2.857    0.000    8.571    0.000    0.000 
#    0.000    0.000    0.000    0.000    0.000    0.000 
#
# Total GULP energy -156060.713076 kJ/mol
# GULP energy per Si atom -5573.596896 kJ/mol
# Density = 1.920910 g / cm^3
# Si number density = 19.252920 Si / 1000 Ang^3
#
#
#
# Elastic Constant Matrix: (Units=GPa)
#
#
# Indices 1 2 3 4 5 6 
#
# 1 42.5460 6.7633 19.6222 -0.0033 -9.8147 -0.0322
# 2 6.7633 72.0079 40.2107 0.0092 -3.3408 -0.0162
# 3 19.6222 40.2107 79.9488 -0.0223 -22.0558 -0.0379
# 4 -0.0033 0.0092 -0.0223 4.4896 -0.0847 -11.8313
# 5 -9.8147 -3.3408 -22.0558 -0.0847 22.6129 -0.0219
# 6 -0.0322 -0.0162 -0.0379 -11.8313 -0.0219 10.7635
#
#
#
# Elastic Compliance Matrix: (Units=1/GPa)
#
#
# Indices 1 2 3 4 5 6 
#
# 1 0.027370 0.000592 -0.005082 -0.000176 0.007010 -0.000115
# 2 0.000592 0.020782 -0.013243 0.000198 -0.009588 0.000185
# 3 -0.005082 -0.013243 0.026359 -0.000437 0.021546 -0.000379
# 4 -0.000176 0.000198 -0.000437 -0.117417 -0.001038 -0.129069
# 5 0.007010 -0.009588 0.021546 -0.001038 0.066859 -0.000923
# 6 -0.000115 0.000185 -0.000379 -0.129069 -0.000923 -0.048971
#
#
# Mechanical properties :
#
#
# Convention : Reuss Voigt Hill
#
# Bulk Modulus (GPa) = 25.61002 36.41055 31.01028
# Shear Modulus (GPa) = 213.09365 16.10030 114.59697
#
# Velocity S-wave (km/s) = 10.53193 2.89494 7.72341
# Velocity P-wave (km/s) = 12.69748 5.48881 9.78144
#
# Compressibility (1/GPa) = 0.03904722
#
# Stress axis : x y z
#
# Youngs Moduli (GPa) = 36.53572 48.11873 37.93702
#
# Poissons Ratio (x) = -0.02850 0.19279
# Poissons Ratio (y) = -0.02164 0.50239
# Poissons Ratio (z) = 0.18567 0.63722
#
# Static dielectric constant tensor:
#      x y z
#    x 1.707340 0.000000 -0.054580 
#    y 0.000000 1.664050 -0.000020 
#    z -0.054580 -0.000020 1.705580 
# 
# From -- ./inp_files/160236.got.cif
#   From: 2010.05.17/outbox.cif.g08.bks.cpg/sg12_81_cif.got.tgz:160236.got - 2010.06.03 13:09:07.
