data_PCOD9196834
_publ_section_title
;
Structure prediction by ZEFSAII (Michael W. Deem and Ramdas Pophale) SiO2 
 PCOD9196834
Probable space group: C 2/M
;
_chemical_formula_sum "Si O2"
_cell_formula_units_Z 48
_cell_length_a 24.459961
_cell_length_b 7.916950
_cell_length_c 19.662827
_cell_angle_alpha 90.000000
_cell_angle_beta 145.690568
_cell_angle_gamma 90.000000
_cell_volume 2146.240587
_symmetry_space_group_name_H-M "C 2/M"
_symmetry_group_IT_number 12
_symmetry_cell_setting 'monoclinic'
loop_
_space_group_symop_operation_xyz
x,y,z
-x,y,-z
-x,-y,-z
x,-y,z
1/2+x,1/2+y,z
1/2-x,1/2+y,-z
1/2-x,1/2-y,-z
1/2+x,1/2-y,z
loop_
_atom_site_type_symbol
_atom_site_label
_atom_site_fract_x
_atom_site_fract_y
_atom_site_fract_z
Si Si1 0.905963 0.804289 0.365924
Si Si2 0.806624 0.299350 0.861361
Si Si3 0.294243 0.203055 0.472721
Si Si4 0.442501 0.698260 0.115747
Si Si5 0.618354 0.295538 0.200792
Si Si6 0.984525 0.698153 0.308142
O O1 0.799399 0.729119 0.267976
O O2 0.926064 0.793148 0.306326
O O3 0.000000 0.727236 0.500000
O O4 0.900988 0.000000 0.383286
O O5 0.798848 0.500000 0.862656
O O6 0.879784 0.262104 0.874875
O O7 0.847196 0.223627 0.972649
O O8 0.250000 0.250000 0.500000
O O9 0.218864 0.263293 0.338519
O O10 0.404280 0.263582 0.578249
O O11 0.297391 0.000000 0.472260
O O12 0.458902 0.500000 0.144129
O O13 0.531059 0.763729 0.159480
O O14 0.443147 0.782247 0.189929
O O15 0.614859 0.500000 0.196835
O O16 0.984953 0.500000 0.326481
#
# Coordination Sequence:
#
# PCOD9196834 Si02
#       6
#     8   8   8   8   8   8
#     4  10  23  44  66  88 118 158 201 245 301 364
#     4  11  24  40  61  89 119 156 203 253 299 352
#     4  10  20  35  57  88 122 154 193 240 293 350
#     4  11  23  40  62  87 122 165 201 242 300 363
#     4  10  21  38  60  88 122 161 201 241 296 362
#     4  11  23  38  62  94 124 156 200 253 299 347
#
# _framework density 22.364687
#
# number of rings (size 3 to 8) (size 9 to 14) (size 15 to 20)
#    0.000    1.500    1.667    3.000    0.000    7.000 
#    0.000    0.000    0.000    0.000    0.000    0.000 
#    0.000    0.000    0.000    0.000    0.000    0.000 
#
# Total GULP energy -134212.560992 kJ/mol
# GULP energy per Si atom -5592.190041 kJ/mol
# Density = 2.231378 g / cm^3
# Si number density = 22.364687 Si / 1000 Ang^3
#
#
#
# Elastic Constant Matrix: (Units=GPa)
#
#
# Indices 1 2 3 4 5 6 
#
# 1 84.6869 -11.9778 20.7342 0.0000 -2.9550 0.0000
# 2 -11.9778 29.8064 -4.3835 0.0000 3.5245 0.0000
# 3 20.7342 -4.3835 111.7064 0.0000 -7.4939 0.0000
# 4 0.0000 0.0000 0.0000 18.8487 0.0000 -8.0130
# 5 -2.9550 3.5245 -7.4939 0.0000 35.1283 0.0000
# 6 0.0000 0.0000 0.0000 -8.0130 0.0000 21.5982
#
#
#
# Elastic Compliance Matrix: (Units=1/GPa)
#
#
# Indices 1 2 3 4 5 6 
#
# 1 0.013050 0.004902 -0.002221 0.000000 0.000132 0.000000
# 2 0.004902 0.035933 0.000290 0.000000 -0.003131 0.000000
# 3 -0.002221 0.000290 0.009497 0.000000 0.001810 0.000000
# 4 0.000000 0.000000 0.000000 0.062989 0.000000 0.023369
# 5 0.000132 -0.003131 0.001810 0.000000 0.029178 0.000000
# 6 0.000000 0.000000 0.000000 0.023369 0.000000 0.054970
#
#
# Mechanical properties :
#
#
# Convention : Reuss Voigt Hill
#
# Bulk Modulus (GPa) = 15.52277 26.10507 20.81392
# Shear Modulus (GPa) = 22.60922 29.90350 26.25636
#
# Velocity S-wave (km/s) = 3.18297 3.66058 3.43010
# Velocity P-wave (km/s) = 4.52374 5.43731 5.00142
#
# Compressibility (1/GPa) = 0.06442150
#
# Stress axis : x y z
#
# Youngs Moduli (GPa) = 76.62902 27.82994 105.29524
#
# Poissons Ratio (x) = -0.13642 0.23386
# Poissons Ratio (y) = -0.37563 -0.03055
# Poissons Ratio (z) = 0.17019 -0.00807
#
# Static dielectric constant tensor:
#      x y z
#    x 1.791230 0.000000 0.035050 
#    y 0.000000 1.807520 0.000000 
#    z 0.035050 0.000000 1.856330 
# 
# From -- ./inp_files/327309.got.cif
#   From: 2010.05.17/outbox.cif.g08.bks.cpg/sg12_164_cif.got.tgz:327309.got - 2010.06.03 13:09:07.
