data_PCOD9196292
_publ_section_title
;
Structure prediction by ZEFSAII (Michael W. Deem and Ramdas Pophale) SiO2 
 PCOD9196292
Probable space group: C 2/M
;
_chemical_formula_sum "Si O2"
_cell_formula_units_Z 64
_cell_length_a 14.251246
_cell_length_b 10.642650
_cell_length_c 22.357121
_cell_angle_alpha 90.000000
_cell_angle_beta 89.208475
_cell_angle_gamma 90.000000
_cell_volume 3390.603851
_symmetry_space_group_name_H-M "C 2/M"
_symmetry_group_IT_number 12
_symmetry_cell_setting 'monoclinic'
loop_
_space_group_symop_operation_xyz
x,y,z
-x,y,-z
-x,-y,-z
x,-y,z
1/2+x,1/2+y,z
1/2-x,1/2+y,-z
1/2-x,1/2-y,-z
1/2+x,1/2-y,z
loop_
_atom_site_type_symbol
_atom_site_label
_atom_site_fract_x
_atom_site_fract_y
_atom_site_fract_z
Si Si1 0.150074 0.855217 0.760580
Si Si2 0.414526 0.859323 0.635597
Si Si3 0.854838 0.645784 0.774718
Si Si4 0.437230 0.352801 0.363869
Si Si5 0.862223 0.859982 0.955933
Si Si6 0.493108 0.272788 0.141579
Si Si7 0.145332 0.643313 0.945656
Si Si8 0.760602 0.140249 0.452254
O O1 0.249859 0.797721 0.778361
O O2 0.104788 0.806516 0.699621
O O3 0.076861 0.848802 0.815023
O O4 0.172143 0.000000 0.745470
O O5 0.385364 0.848528 0.705279
O O6 0.481737 0.743909 0.620099
O O7 0.322941 0.852842 0.595213
O O8 0.456437 0.000000 0.626951
O O9 0.851240 0.500000 0.793647
O O10 0.930603 0.710434 0.815784
O O11 0.467214 0.500000 0.357226
O O12 0.356313 0.348737 0.414033
O O13 0.756796 0.847045 0.929541
O O14 0.944969 0.847244 0.907261
O O15 0.866188 0.000000 0.983690
O O16 0.872043 0.747755 0.003307
O O17 0.425657 0.175919 0.107019
O O18 0.129421 0.500000 0.966683
O O19 0.750000 0.250000 0.500000
O O20 0.757600 0.000000 0.479851
#
# Coordination Sequence:
#
# PCOD9196292 Si02
#       8
#     8   8   8   8   8   8   8   8
#     4  10  20  35  56  83 117 156 194 231 286 357
#     4  10  20  38  61  87 118 157 199 243 290 347
#     4  10  20  35  56  83 117 156 194 231 286 357
#     4  10  20  38  61  87 118 157 199 243 290 347
#     4  10  23  42  61  84 117 154 195 245 297 351
#     4  12  21  34  60  90 117 148 192 244 298 348
#     4  10  23  42  61  84 117 154 195 245 297 351
#     4  10  22  40  64  88 122 162 203 250 295 346
#
# _framework density 18.875693999999999
#
# number of rings (size 3 to 8) (size 9 to 14) (size 15 to 20)
#    0.000    1.750    2.500    1.875    0.000    4.500 
#    0.000    5.000    0.000    1.500    0.000    0.000 
#    0.000    0.000    0.000    0.000    0.000    0.000 
#
# Total GULP energy -178526.386334 kJ/mol
# GULP energy per Si atom -5578.949573 kJ/mol
# Density = 1.883273 g / cm^3
# Si number density = 18.875694 Si / 1000 Ang^3
#
#
#
# Elastic Constant Matrix: (Units=GPa)
#
#
# Indices 1 2 3 4 5 6 
#
# 1 35.2076 -4.1719 -41.4392 0.0000 -48.6512 0.0000
# 2 -4.1719 64.6308 -13.2060 0.0000 -38.6259 0.0000
# 3 -41.4392 -13.2060 1.8551 0.0000 -44.9532 0.0000
# 4 0.0000 0.0000 0.0000 24.7993 0.0000 -1.3224
# 5 -48.6512 -38.6259 -44.9532 0.0000 -9.2537 0.0000
# 6 0.0000 0.0000 0.0000 -1.3224 0.0000 20.6335
#
#
#
# Elastic Compliance Matrix: (Units=1/GPa)
#
#
# Indices 1 2 3 4 5 6 
#
# 1 0.010428 -0.005295 -0.005035 0.000000 -0.008265 0.000000
# 2 -0.005295 0.014091 -0.006475 0.000000 0.000475 0.000000
# 3 -0.005035 -0.006475 0.014125 0.000000 -0.015119 0.000000
# 4 0.000000 0.000000 0.000000 0.040462 0.000000 0.002593
# 5 -0.008265 0.000475 -0.015119 0.000000 0.006856 0.000000
# 6 0.000000 0.000000 0.000000 0.002593 0.000000 0.048631
#
#
# Mechanical properties :
#
#
# Convention : Reuss Voigt Hill
#
# Bulk Modulus (GPa) = 198.62203 -1.77121 98.42541
# Shear Modulus (GPa) = 29.43239 17.93653 23.68446
#
# Velocity S-wave (km/s) = 3.95305 3.08595 3.54610
# Velocity P-wave (km/s) = 11.23789 3.42886 8.30805
#
# Compressibility (1/GPa) = 0.00503469
#
# Stress axis : x y z
#
# Youngs Moduli (GPa) = 95.89285 70.96576 70.79817
#
# Poissons Ratio (x) = 0.37578 0.35645
# Poissons Ratio (y) = 0.50778 0.45840
# Poissons Ratio (z) = 0.48280 0.45948
#
# Static dielectric constant tensor:
#      x y z
#    x 1.679910 0.000000 0.006420 
#    y 0.000000 1.648680 0.000000 
#    z 0.006420 0.000000 1.640870 
# 
# From -- ./inp_files/338926.got.cif
#   From: 2010.05.17/outbox.cif.g08.bks.cpg/sg12_170_cif.got.tgz:338926.got - 2010.06.03 13:09:07.
