data_PCOD9196534
_publ_section_title
;
Structure prediction by ZEFSAII (Michael W. Deem and Ramdas Pophale) SiO2 
 PCOD9196534
Probable space group: C 2/M
;
_chemical_formula_sum "Si O2"
_cell_formula_units_Z 56
_cell_length_a 21.653981
_cell_length_b 8.736539
_cell_length_c 30.231992
_cell_angle_alpha 90.000000
_cell_angle_beta 30.588934
_cell_angle_gamma 90.000000
_cell_volume 2910.416814
_symmetry_space_group_name_H-M "C 2/M"
_symmetry_group_IT_number 12
_symmetry_cell_setting 'monoclinic'
loop_
_space_group_symop_operation_xyz
x,y,z
-x,y,-z
-x,-y,-z
x,-y,z
1/2+x,1/2+y,z
1/2-x,1/2+y,-z
1/2-x,1/2-y,-z
1/2+x,1/2-y,z
loop_
_atom_site_type_symbol
_atom_site_label
_atom_site_fract_x
_atom_site_fract_y
_atom_site_fract_z
Si Si1 0.504197 0.186875 0.548304
Si Si2 0.914894 0.684465 0.093299
Si Si3 0.510231 0.179273 0.706446
Si Si4 0.741975 0.818213 0.455737
Si Si5 0.653035 0.184309 0.274453
Si Si6 0.920070 0.319398 0.925986
Si Si7 0.142702 0.822987 0.125690
O O1 0.500000 0.238791 0.500000
O O2 0.627448 0.235609 0.497409
O O3 0.391336 0.232916 0.649311
O O4 0.504322 0.000000 0.547546
O O5 0.908258 0.500000 0.094216
O O6 0.779200 0.748133 0.179487
O O7 0.982233 0.723930 0.097545
O O8 0.000000 0.737085 0.000000
O O9 0.630410 0.271826 0.644447
O O10 0.454394 0.225146 0.693530
O O11 0.407660 0.214468 0.805464
O O12 0.539440 0.000000 0.686749
O O13 0.750000 0.750000 0.500000
O O14 0.731247 0.000000 0.466321
O O15 0.663177 0.000000 0.267748
O O16 0.934079 0.500000 0.906344
O O17 0.921255 0.220596 0.880971
O O18 0.786182 0.302041 0.029643
O O19 0.121150 0.000000 0.150621
#
# Coordination Sequence:
#
# PCOD9196534 Si02
#       7
#     8   8   8   8   8   8   8
#     4   9  19  38  61  85 117 154 192 238 293 349
#     4  10  21  37  57  82 115 153 191 235 291 350
#     4  11  22  37  57  85 118 148 189 242 294 346
#     4  11  21  37  61  87 115 151 193 238 291 348
#     4  10  21  37  57  84 115 151 194 240 290 346
#     4   9  19  36  55  78 115 153 187 236 292 342
#     4  10  20  35  57  83 109 148 196 237 286 347
#
# _framework density 19.241230999999999
#
# number of rings (size 3 to 8) (size 9 to 14) (size 15 to 20)
#    0.000    2.000    1.429    2.143    0.000    4.857 
#    0.000    1.429    0.000    3.000    0.000    0.000 
#    0.000    0.000    0.000    0.000    0.000    0.000 
#
# Total GULP energy -156300.344232 kJ/mol
# GULP energy per Si atom -5582.155151 kJ/mol
# Density = 1.919744 g / cm^3
# Si number density = 19.241231 Si / 1000 Ang^3
#
#
#
# Elastic Constant Matrix: (Units=GPa)
#
#
# Indices 1 2 3 4 5 6 
#
# 1 99.4158 20.8644 48.5638 -0.0001 -4.6566 0.0014
# 2 20.8644 12.0990 15.1710 -0.0003 -4.2333 0.0023
# 3 48.5638 15.1710 85.5822 -0.0001 2.2856 0.0003
# 4 -0.0001 -0.0003 -0.0001 28.8815 -0.0001 -0.1038
# 5 -4.6566 -4.2333 2.2856 -0.0001 29.4675 -0.0001
# 6 0.0014 0.0023 0.0003 -0.1038 -0.0001 20.6669
#
#
#
# Elastic Compliance Matrix: (Units=1/GPa)
#
#
# Indices 1 2 3 4 5 6 
#
# 1 0.017890 -0.023330 -0.006015 0.000000 -0.000058 0.000001
# 2 -0.023330 0.145658 -0.013069 0.000001 0.018252 -0.000014
# 3 -0.006015 -0.013069 0.017526 0.000000 -0.004187 0.000002
# 4 0.000000 0.000001 0.000000 0.034625 0.000000 0.000174
# 5 -0.000058 0.018252 -0.004187 0.000000 0.036873 -0.000002
# 6 0.000001 -0.000014 0.000002 0.000174 -0.000002 0.048387
#
#
# Mechanical properties :
#
#
# Convention : Reuss Voigt Hill
#
# Bulk Modulus (GPa) = 10.39000 40.69949 25.54475
# Shear Modulus (GPa) = 11.96543 23.30305 17.63424
#
# Velocity S-wave (km/s) = 2.49643 3.48386 3.03063
# Velocity P-wave (km/s) = 3.70420 6.11402 5.05481
#
# Compressibility (1/GPa) = 0.09624638
#
# Stress axis : x y z
#
# Youngs Moduli (GPa) = 55.89572 6.86541 57.05686
#
# Poissons Ratio (x) = 0.16017 0.34318
# Poissons Ratio (y) = 1.30404 0.74570
# Poissons Ratio (z) = 0.33620 0.08973
#
# Static dielectric constant tensor:
#      x y z
#    x 1.666380 0.000000 0.009780 
#    y 0.000000 1.653250 0.000000 
#    z 0.009780 0.000000 1.685940 
# 
# From -- ./inp_files/329472.got.cif
#   From: 2010.05.17/outbox.cif.g08.bks.cpg/sg12_165_cif.got.tgz:329472.got - 2010.06.03 13:09:07.
