data_PCOD9196832
_publ_section_title
;
Structure prediction by ZEFSAII (Michael W. Deem and Ramdas Pophale) SiO2 
 PCOD9196832
Probable space group: C 2/M
;
_chemical_formula_sum "Si O2"
_cell_formula_units_Z 56
_cell_length_a 9.332058
_cell_length_b 19.653131
_cell_length_c 18.748267
_cell_angle_alpha 90.000000
_cell_angle_beta 125.608549
_cell_angle_gamma 90.000000
_cell_volume 2795.556512
_symmetry_space_group_name_H-M "C 2/M"
_symmetry_group_IT_number 12
_symmetry_cell_setting 'monoclinic'
loop_
_space_group_symop_operation_xyz
x,y,z
-x,y,-z
-x,-y,-z
x,-y,z
1/2+x,1/2+y,z
1/2-x,1/2+y,-z
1/2-x,1/2-y,-z
1/2+x,1/2-y,z
loop_
_atom_site_type_symbol
_atom_site_label
_atom_site_fract_x
_atom_site_fract_y
_atom_site_fract_z
Si Si1 0.995969 0.919820 0.649039
Si Si2 0.925856 0.325491 0.301913
Si Si3 0.021116 0.299669 0.921732
Si Si4 0.382563 0.645185 0.035312
Si Si5 0.097882 0.079389 0.213166
Si Si6 0.776742 0.691352 0.725819
Si Si7 0.373791 0.077624 0.532622
O O1 0.946655 0.904064 0.717343
O O2 0.823168 0.907322 0.551209
O O3 0.157545 0.873182 0.672740
O O4 0.037513 0.000000 0.657131
O O5 0.048093 0.304440 0.271198
O O6 0.049312 0.368319 0.390516
O O7 0.760511 0.373846 0.235278
O O8 0.841812 0.258668 0.313150
O O9 0.847248 0.314946 0.827134
O O10 0.074202 0.221240 0.922553
O O11 0.000000 0.303978 0.000000
O O12 0.181661 0.349946 0.951448
O O13 0.434992 0.594636 0.113561
O O14 0.500000 0.632004 0.000000
O O15 0.146122 0.000000 0.224707
O O16 0.500000 0.078464 0.500000
O O17 0.378626 0.000000 0.562690
#
# Coordination Sequence:
#
# PCOD9196832 Si02
#       7
#     8   8   8   8   8   8   8
#     4  10  23  43  67  93 125 170 214 256 319 387
#     4  12  25  41  63  96 130 167 216 263 324 373
#     4  10  21  36  62  86 123 166 211 257 313 381
#     4  10  20  35  57  88 121 162 213 256 313 376
#     4  11  21  39  66  93 128 169 214 265 316 380
#     4  12  26  42  65  96 132 168 212 274 315 379
#     4  10  21  43  71  95 125 169 215 256 313 390
#
# _framework density 20.031790999999998
#
# number of rings (size 3 to 8) (size 9 to 14) (size 15 to 20)
#    0.000    1.286    2.857    3.000    4.000    2.571 
#    0.000    2.143    0.000    2.571    0.000    0.000 
#    0.000    0.000    0.000    0.000    0.000    0.000 
#
# Total GULP energy -156514.308630 kJ/mol
# GULP energy per Si atom -5589.796737 kJ/mol
# Density = 1.998620 g / cm^3
# Si number density = 20.031791 Si / 1000 Ang^3
#
#
#
# Elastic Constant Matrix: (Units=GPa)
#
#
# Indices 1 2 3 4 5 6 
#
# 1 60.9685 32.4886 -7.9214 0.0000 2.4432 0.0000
# 2 32.4886 62.6549 30.9918 0.0000 7.2774 0.0000
# 3 -7.9214 30.9918 86.2904 0.0000 10.4826 0.0000
# 4 0.0000 0.0000 0.0000 35.8566 0.0000 7.4995
# 5 2.4432 7.2774 10.4826 0.0000 29.0627 0.0000
# 6 0.0000 0.0000 0.0000 7.4995 0.0000 30.1498
#
#
#
# Elastic Compliance Matrix: (Units=1/GPa)
#
#
# Indices 1 2 3 4 5 6 
#
# 1 0.027797 -0.018994 0.009496 0.000000 -0.001006 0.000000
# 2 -0.018994 0.032556 -0.013219 0.000000 -0.001787 0.000000
# 3 0.009496 -0.013219 0.017678 0.000000 -0.003864 0.000000
# 4 0.000000 0.000000 0.000000 0.029419 0.000000 -0.007318
# 5 -0.001006 -0.001787 -0.003864 0.000000 0.036334 0.000000
# 6 0.000000 0.000000 0.000000 -0.007318 0.000000 0.034988
#
#
# Mechanical properties :
#
#
# Convention : Reuss Voigt Hill
#
# Bulk Modulus (GPa) = 30.67856 35.67021 33.17438
# Shear Modulus (GPa) = 21.27001 29.30414 25.28707
#
# Velocity S-wave (km/s) = 3.26208 3.82891 3.55681
# Velocity P-wave (km/s) = 5.43474 6.11497 5.78486
#
# Compressibility (1/GPa) = 0.03259605
#
# Stress axis : x y z
#
# Youngs Moduli (GPa) = 35.97450 30.71645 56.56861
#
# Poissons Ratio (x) = 0.58343 -0.53716
# Poissons Ratio (y) = 0.68330 0.74779
# Poissons Ratio (z) = -0.34161 0.40605
#
# Static dielectric constant tensor:
#      x y z
#    x 1.743460 0.000000 -0.001400 
#    y 0.000000 1.696550 0.000000 
#    z -0.001400 0.000000 1.700210 
# 
# From -- ./inp_files/258227.got.cif
#   From: 2010.05.17/outbox.cif.g08.bks.cpg/sg12_130_cif.got.tgz:258227.got - 2010.06.03 13:09:07.
