data_PCOD9196594
_publ_section_title
;
Structure prediction by ZEFSAII (Michael W. Deem and Ramdas Pophale) SiO2 
 PCOD9196594
Probable space group: C 2/M
;
_chemical_formula_sum "Si O2"
_cell_formula_units_Z 64
_cell_length_a 25.271652
_cell_length_b 8.896200
_cell_length_c 14.600486
_cell_angle_alpha 90.000000
_cell_angle_beta 89.645143
_cell_angle_gamma 90.000000
_cell_volume 3282.442697
_symmetry_space_group_name_H-M "C 2/M"
_symmetry_group_IT_number 12
_symmetry_cell_setting 'monoclinic'
loop_
_space_group_symop_operation_xyz
x,y,z
-x,y,-z
-x,-y,-z
x,-y,z
1/2+x,1/2+y,z
1/2-x,1/2+y,-z
1/2-x,1/2-y,-z
1/2+x,1/2-y,z
loop_
_atom_site_type_symbol
_atom_site_label
_atom_site_fract_x
_atom_site_fract_y
_atom_site_fract_z
Si Si1 0.414172 0.677880 0.487408
Si Si2 0.694784 0.826321 0.524051
Si Si3 0.056638 0.679347 0.329051
Si Si4 0.440276 0.820314 0.290315
Si Si5 0.856399 0.679750 0.137436
Si Si6 0.735170 0.171217 0.720553
Si Si7 0.664060 0.178659 0.226135
Si Si8 0.306421 0.679233 0.969072
O O1 0.418769 0.500000 0.484508
O O2 0.354356 0.731028 0.509510
O O3 0.447235 0.743217 0.571819
O O4 0.426877 0.745274 0.387691
O O5 0.750000 0.750000 0.500000
O O6 0.696248 0.824461 0.634527
O O7 0.691262 0.000000 0.493881
O O8 0.060857 0.500000 0.344658
O O9 0.109352 0.727354 0.274333
O O10 0.002621 0.707266 0.274377
O O11 0.403219 0.772705 0.206089
O O12 0.432182 0.000000 0.301289
O O13 0.861365 0.500000 0.120865
O O14 0.801322 0.704248 0.192310
O O15 0.849640 0.767756 0.043328
O O16 0.784963 0.280140 0.712741
O O17 0.755486 0.000000 0.726814
O O18 0.676069 0.259894 0.130108
O O19 0.661715 0.000000 0.211808
O O20 0.301107 0.500000 0.967592
O O21 0.250000 0.750000 0.000000
#
# Coordination Sequence:
#
# PCOD9196594 Si02
#       8
#     8   8   8   8   8   8   8   8
#     4  12  24  37  58  89 124 162 205 251 300 357
#     4  11  22  37  55  82 120 161 202 246 300 360
#     4  10  23  42  64  88 117 159 209 253 300 355
#     4  10  21  42  67  88 117 160 206 255 302 350
#     4  10  20  38  63  90 117 149 194 245 295 351
#     4  10  20  35  57  83 116 155 192 237 296 354
#     4  11  23  39  61  90 121 155 197 246 297 358
#     4  12  24  39  62  91 122 157 194 239 296 359
#
# _framework density 19.497674
#
# number of rings (size 3 to 8) (size 9 to 14) (size 15 to 20)
#    0.000    1.250    2.500    4.125    0.000    6.500 
#    0.000    0.625    0.000    3.750    0.000    0.000 
#    0.000    0.000    0.000    0.000    0.000    0.000 
#
# Total GULP energy -178844.736323 kJ/mol
# GULP energy per Si atom -5588.898010 kJ/mol
# Density = 1.945330 g / cm^3
# Si number density = 19.497674 Si / 1000 Ang^3
#
#
#
# Elastic Constant Matrix: (Units=GPa)
#
#
# Indices 1 2 3 4 5 6 
#
# 1 106.6656 44.5246 40.5874 0.0000 17.0835 0.0000
# 2 44.5246 60.9545 35.1872 0.0000 4.5657 0.0000
# 3 40.5874 35.1872 92.4065 0.0000 15.2448 0.0000
# 4 0.0000 0.0000 0.0000 29.8432 0.0000 1.7454
# 5 17.0835 4.5657 15.2448 0.0000 30.3192 0.0000
# 6 0.0000 0.0000 0.0000 1.7454 0.0000 21.7967
#
#
#
# Elastic Compliance Matrix: (Units=1/GPa)
#
#
# Indices 1 2 3 4 5 6 
#
# 1 0.015016 -0.009336 -0.002046 0.000000 -0.006026 0.000000
# 2 -0.009336 0.026857 -0.006899 0.000000 0.004685 0.000000
# 3 -0.002046 -0.006899 0.015251 0.000000 -0.005477 0.000000
# 4 0.000000 0.000000 0.000000 0.033666 0.000000 -0.002696
# 5 -0.006026 0.004685 -0.005477 0.000000 0.038426 0.000000
# 6 0.000000 0.000000 0.000000 -0.002696 0.000000 0.046094
#
#
# Mechanical properties :
#
#
# Convention : Reuss Voigt Hill
#
# Bulk Modulus (GPa) = 48.63474 55.62498 52.12986
# Shear Modulus (GPa) = 22.85964 25.70700 24.28332
#
# Velocity S-wave (km/s) = 3.42779 3.63501 3.53292
# Velocity P-wave (km/s) = 6.37686 6.79770 6.59064
#
# Compressibility (1/GPa) = 0.02056144
#
# Stress axis : x y z
#
# Youngs Moduli (GPa) = 66.59651 37.23452 65.56907
#
# Poissons Ratio (x) = 0.34761 0.13417
# Poissons Ratio (y) = 0.62173 0.45237
# Poissons Ratio (z) = 0.13627 0.25688
#
# Static dielectric constant tensor:
#      x y z
#    x 1.726020 0.000000 0.028860 
#    y 0.000000 1.654070 0.000000 
#    z 0.028860 0.000000 1.718350 
# 
# From -- ./inp_files/238764.got.cif
#   From: 2010.05.17/outbox.cif.g08.bks.cpg/sg12_120_cif.got.tgz:238764.got - 2010.06.03 13:09:07.
