data_PCOD9196820
_publ_section_title
;
Structure prediction by ZEFSAII (Michael W. Deem and Ramdas Pophale) SiO2 
 PCOD9196820
Probable space group: C 2/M
;
_chemical_formula_sum "Si O2"
_cell_formula_units_Z 48
_cell_length_a 11.947013
_cell_length_b 14.433127
_cell_length_c 12.107326
_cell_angle_alpha 90.000000
_cell_angle_beta 111.297122
_cell_angle_gamma 90.000000
_cell_volume 1945.129483
_symmetry_space_group_name_H-M "C 2/M"
_symmetry_group_IT_number 12
_symmetry_cell_setting 'monoclinic'
loop_
_space_group_symop_operation_xyz
x,y,z
-x,y,-z
-x,-y,-z
x,-y,z
1/2+x,1/2+y,z
1/2-x,1/2+y,-z
1/2-x,1/2-y,-z
1/2+x,1/2-y,z
loop_
_atom_site_type_symbol
_atom_site_label
_atom_site_fract_x
_atom_site_fract_y
_atom_site_fract_z
Si Si1 0.841468 0.611703 0.709860
Si Si2 0.366857 0.390112 0.737669
Si Si3 0.331450 0.641914 0.974797
Si Si4 0.431614 0.157049 0.079228
Si Si5 0.610943 0.396274 0.755924
Si Si6 0.365048 0.888366 0.463757
O O1 0.857650 0.500000 0.734068
O O2 0.727432 0.645735 0.739922
O O3 0.822615 0.625370 0.573867
O O4 0.962934 0.660353 0.794178
O O5 0.366533 0.500000 0.714696
O O6 0.386063 0.381757 0.875811
O O7 0.479030 0.352360 0.706802
O O8 0.238423 0.352014 0.654216
O O9 0.189814 0.617237 0.912652
O O10 0.375629 0.747582 0.011015
O O11 0.363286 0.597830 0.103886
O O12 0.500000 0.110558 0.000000
O O13 0.603129 0.500000 0.705586
O O14 0.500000 0.850958 0.500000
O O15 0.373543 0.000000 0.447395
#
# Coordination Sequence:
#
# PCOD9196820 Si02
#       6
#     8   8   8   8   8   8
#     4  10  21  37  59  90 121 152 198 246 295 351
#     4  10  20  35  58  88 120 156 197 241 294 352
#     4  11  22  36  57  84 117 157 198 239 293 355
#     4  11  22  37  56  83 115 157 195 244 297 345
#     4  10  20  35  57  87 122 155 191 245 299 351
#     4   9  18  34  57  86 119 153 193 244 297 349
#
# _framework density 24.677021
#
# number of rings (size 3 to 8) (size 9 to 14) (size 15 to 20)
#    0.000    1.833    1.667    3.000    0.000    5.000 
#    0.000    3.333    0.000    4.000    8.667    0.000 
#    0.000    0.000    0.000    0.000    0.000    0.333 
#
# Total GULP energy -134025.235546 kJ/mol
# GULP energy per Si atom -5584.384814 kJ/mol
# Density = 2.462086 g / cm^3
# Si number density = 24.677021 Si / 1000 Ang^3
#
#
#
# Elastic Constant Matrix: (Units=GPa)
#
#
# Indices 1 2 3 4 5 6 
#
# 1 210.8141 20.8081 43.4783 0.0000 9.7489 0.0000
# 2 20.8081 67.2465 10.7080 0.0000 -1.4941 0.0000
# 3 43.4783 10.7080 80.4753 0.0000 15.2918 0.0000
# 4 0.0000 0.0000 0.0000 79.0850 0.0000 0.0700
# 5 9.7489 -1.4941 15.2918 0.0000 32.9512 0.0000
# 6 0.0000 0.0000 0.0000 0.0700 0.0000 1.2074
#
#
#
# Elastic Compliance Matrix: (Units=1/GPa)
#
#
# Indices 1 2 3 4 5 6 
#
# 1 0.005443 -0.001265 -0.002693 0.000000 -0.000418 0.000000
# 2 -0.001265 0.015583 -0.001750 0.000000 0.001893 0.000000
# 3 -0.002693 -0.001750 0.015329 0.000000 -0.006397 0.000000
# 4 0.000000 0.000000 0.000000 0.012645 0.000000 -0.000733
# 5 -0.000418 0.001893 -0.006397 0.000000 0.033526 0.000000
# 6 0.000000 0.000000 0.000000 -0.000733 0.000000 0.828279
#
#
# Mechanical properties :
#
#
# Convention : Reuss Voigt Hill
#
# Bulk Modulus (GPa) = 40.09605 56.50274 48.29940
# Shear Modulus (GPa) = 5.37326 41.55147 23.46237
#
# Velocity S-wave (km/s) = 1.47721 4.10788 3.08681
# Velocity P-wave (km/s) = 4.38100 6.74138 5.68504
#
# Compressibility (1/GPa) = 0.02494011
#
# Stress axis : x y z
#
# Youngs Moduli (GPa) = 183.71937 64.17372 65.23403
#
# Poissons Ratio (x) = 0.08116 0.17568
# Poissons Ratio (y) = 0.23235 0.11415
# Poissons Ratio (z) = 0.49476 0.11229
#
# Static dielectric constant tensor:
#      x y z
#    x 2.010160 0.000000 0.044350 
#    y 0.000000 2.030200 0.000000 
#    z 0.044350 0.000000 1.900180 
# 
# From -- ./inp_files/131740.got.cif
#   From: 2010.05.17/outbox.cif.g08.bks.cpg/sg12_66_cif.got.tgz:131740.got - 2010.06.03 13:09:07.
