data_PCOD9196385
_publ_section_title
;
Structure prediction by ZEFSAII (Michael W. Deem and Ramdas Pophale) SiO2 
 PCOD9196385
Probable space group: C 2/M
;
_chemical_formula_sum "Si O2"
_cell_formula_units_Z 64
_cell_length_a 29.370880
_cell_length_b 8.820220
_cell_length_c 19.487103
_cell_angle_alpha 90.000000
_cell_angle_beta 40.906779
_cell_angle_gamma 90.000000
_cell_volume 3305.768090
_symmetry_space_group_name_H-M "C 2/M"
_symmetry_group_IT_number 12
_symmetry_cell_setting 'monoclinic'
loop_
_space_group_symop_operation_xyz
x,y,z
-x,y,-z
-x,-y,-z
x,-y,z
1/2+x,1/2+y,z
1/2-x,1/2+y,-z
1/2-x,1/2-y,-z
1/2+x,1/2-y,z
loop_
_atom_site_type_symbol
_atom_site_label
_atom_site_fract_x
_atom_site_fract_y
_atom_site_fract_z
Si Si1 0.549743 0.819861 0.611264
Si Si2 0.799024 0.681726 0.177784
Si Si3 0.078523 0.180332 0.327021
Si Si4 0.143719 0.183454 0.393948
Si Si5 0.817111 0.325365 0.890294
Si Si6 0.573676 0.316805 0.881808
Si Si7 0.032824 0.821582 0.779881
Si Si8 0.390052 0.173260 0.949874
O O1 0.483634 0.758754 0.643316
O O2 0.616224 0.756010 0.494905
O O3 0.547849 0.762612 0.691707
O O4 0.548386 0.000000 0.612127
O O5 0.798808 0.500000 0.186025
O O6 0.721625 0.733633 0.285057
O O7 0.860234 0.750261 0.154303
O O8 0.823325 0.713092 0.072007
O O9 0.090813 0.223662 0.392174
O O10 0.149492 0.226881 0.207709
O O11 0.067987 0.000000 0.335741
O O12 0.142957 0.000000 0.400113
O O13 0.804841 0.500000 0.883538
O O14 0.871639 0.326401 0.891068
O O15 0.750000 0.250000 0.000000
O O16 0.575438 0.500000 0.883705
O O17 0.574437 0.273586 0.800504
O O18 0.500000 0.268060 0.000000
O O19 0.952774 0.786947 0.890360
O O20 0.042498 0.000000 0.757939
O O21 0.411008 0.000000 0.944380
#
# Coordination Sequence:
#
# PCOD9196385 Si02
#       8
#     8   8   8   8   8   8   8   8
#     4  12  25  41  62  90 122 157 205 257 299 355
#     4  10  21  38  62  90 122 159 199 246 301 360
#     4  11  22  39  63  88 119 159 204 251 300 357
#     4  10  23  43  63  87 120 161 206 250 300 360
#     4  11  22  35  53  82 122 163 203 248 298 356
#     4  10  21  38  60  91 125 155 196 246 297 361
#     4  11  22  38  62  88 118 157 197 242 298 357
#     4  10  20  35  56  85 121 156 194 243 295 352
#
# _framework density 19.360099000000002
#
# number of rings (size 3 to 8) (size 9 to 14) (size 15 to 20)
#    0.000    1.375    2.500    3.375    0.000    6.750 
#    0.000    1.875    0.000    0.000    0.000    0.000 
#    0.000    0.000    0.000    0.000    0.000    0.000 
#
# Total GULP energy -178780.471731 kJ/mol
# GULP energy per Si atom -5586.889742 kJ/mol
# Density = 1.931603 g / cm^3
# Si number density = 19.360099 Si / 1000 Ang^3
#
#
#
# Elastic Constant Matrix: (Units=GPa)
#
#
# Indices 1 2 3 4 5 6 
#
# 1 78.3351 24.6471 38.6833 0.0061 12.7280 -0.0033
# 2 24.6471 37.0071 25.4251 0.0155 10.6069 -0.0078
# 3 38.6833 25.4251 128.8733 0.0041 13.6365 -0.0053
# 4 0.0061 0.0155 0.0041 30.9794 -0.0036 -3.8785
# 5 12.7280 10.6069 13.6365 -0.0036 26.6323 0.0029
# 6 -0.0033 -0.0078 -0.0053 -3.8785 0.0029 23.4966
#
#
#
# Elastic Compliance Matrix: (Units=1/GPa)
#
#
# Indices 1 2 3 4 5 6 
#
# 1 0.017596 -0.008530 -0.003244 0.000001 -0.003351 -0.000001
# 2 -0.008530 0.038030 -0.003987 -0.000017 -0.009028 0.000009
# 3 -0.003244 -0.003987 0.009714 0.000001 -0.001835 0.000001
# 4 0.000001 -0.000017 0.000001 0.032961 0.000009 0.005441
# 5 -0.003351 -0.009028 -0.001835 0.000009 0.043685 -0.000008
# 6 -0.000001 0.000009 0.000001 0.005441 -0.000008 0.043457
#
#
# Mechanical properties :
#
#
# Convention : Reuss Voigt Hill
#
# Bulk Modulus (GPa) = 29.57043 46.85851 38.21447
# Shear Modulus (GPa) = 21.90694 26.58567 24.24631
#
# Velocity S-wave (km/s) = 3.36750 3.70972 3.54275
# Velocity P-wave (km/s) = 5.51608 6.52729 6.04288
#
# Compressibility (1/GPa) = 0.03381756
#
# Stress axis : x y z
#
# Youngs Moduli (GPa) = 56.83110 26.29528 102.94179
#
# Poissons Ratio (x) = 0.22429 0.33398
# Poissons Ratio (y) = 0.48475 0.41045
# Poissons Ratio (z) = 0.18438 0.10484
#
# Static dielectric constant tensor:
#      x y z
#    x 1.677050 0.000000 0.002360 
#    y 0.000000 1.654530 0.000010 
#    z 0.002360 0.000010 1.696060 
# 
# From -- ./inp_files/295650.got.cif
#   From: 2010.05.17/outbox.cif.g08.bks.cpg/sg12_148_cif.got.tgz:295650.got - 2010.06.03 13:09:07.
