data_PCOD9196988
_publ_section_title
;
Structure prediction by ZEFSAII (Michael W. Deem and Ramdas Pophale) SiO2 
 PCOD9196988
Probable space group: C 2/M
;
_chemical_formula_sum "Si O2"
_cell_formula_units_Z 48
_cell_length_a 14.816361
_cell_length_b 10.828348
_cell_length_c 20.603156
_cell_angle_alpha 90.000000
_cell_angle_beta 44.018445
_cell_angle_gamma 90.000000
_cell_volume 2296.960418
_symmetry_space_group_name_H-M "C 2/M"
_symmetry_group_IT_number 12
_symmetry_cell_setting 'monoclinic'
loop_
_space_group_symop_operation_xyz
x,y,z
-x,y,-z
-x,-y,-z
x,-y,z
1/2+x,1/2+y,z
1/2-x,1/2+y,-z
1/2-x,1/2-y,-z
1/2+x,1/2-y,z
loop_
_atom_site_type_symbol
_atom_site_label
_atom_site_fract_x
_atom_site_fract_y
_atom_site_fract_z
Si Si1 0.789211 0.000000 0.812451
Si Si2 0.411962 0.750002 0.338044
Si Si3 0.057664 0.000000 0.601358
Si Si4 0.684966 0.633357 1.000000
Si Si5 0.585872 0.000000 0.812459
Si Si6 0.760395 0.500000 0.398639
Si Si7 0.423805 0.271116 0.183054
Si Si8 0.789909 0.728883 0.816944
O O1 0.798285 0.131140 0.841763
O O2 0.651771 0.000000 0.848227
O O3 0.905102 0.000000 0.698832
O O4 0.393369 0.628707 0.391785
O O5 0.396760 0.699985 0.271936
O O6 0.559376 0.800022 0.271937
O O7 0.323070 0.871293 0.391790
O O8 0.112492 0.000000 0.499995
O O9 0.730577 0.500000 0.999999
O O10 0.532020 0.646231 0.093626
O O11 0.750000 0.750000 0.000000
O O12 0.719269 0.646233 0.906374
O O13 0.518178 0.868859 0.841772
O O14 0.697209 0.000000 0.698840
O O15 0.295118 0.267858 0.204885
#
# Coordination Sequence:
#
# PCOD9196988 Si02
#       8
#     4   8   4   8   4   4   8   8
#     4   8  18  36  60  87 113 152 196 241 296 346
#     4  10  21  37  60  84 116 154 192 241 297 346
#     4  10  20  35  58  85 114 149 191 240 299 357
#     4  12  27  39  60  87 121 157 199 246 290 337
#     4   8  18  36  60  87 113 152 196 241 296 346
#     4  10  20  35  58  85 114 149 191 240 299 357
#     4  10  21  38  60  86 119 157 201 242 288 345
#     4  10  21  38  60  86 119 157 201 242 288 345
#
# _framework density 20.897181
#
# number of rings (size 3 to 8) (size 9 to 14) (size 15 to 20)
#    0.000    2.000    1.667    1.000    4.667    1.667 
#    0.000    2.500    0.000    4.000    0.000    0.000 
#    0.000    0.000    0.000    0.000    0.000    0.000 
#
# Total GULP energy -133772.827039 kJ/mol
# GULP energy per Si atom -5573.867793 kJ/mol
# Density = 2.084962 g / cm^3
# Si number density = 20.897181 Si / 1000 Ang^3
#
#
#
# Elastic Constant Matrix: (Units=GPa)
#
#
# Indices 1 2 3 4 5 6 
#
# 1 83.9507 6.8495 25.9604 0.0000 -1.8091 0.0000
# 2 6.8495 111.1595 28.1984 0.0000 0.8257 0.0000
# 3 25.9604 28.1984 98.1843 0.0000 2.3496 0.0000
# 4 0.0000 0.0000 0.0000 22.0702 0.0000 0.0954
# 5 -1.8091 0.8257 2.3496 0.0000 5.9564 0.0000
# 6 0.0000 0.0000 0.0000 0.0954 0.0000 19.5735
#
#
#
# Elastic Compliance Matrix: (Units=1/GPa)
#
#
# Indices 1 2 3 4 5 6 
#
# 1 0.013144 0.000069 -0.003625 0.000000 0.005412 0.000000
# 2 0.000069 0.009704 -0.002800 0.000000 -0.000220 0.000000
# 3 -0.003625 -0.002800 0.012079 0.000000 -0.005477 0.000000
# 4 0.000000 0.000000 0.000000 0.045311 0.000000 -0.000221
# 5 0.005412 -0.000220 -0.005477 0.000000 0.171722 0.000000
# 6 0.000000 0.000000 0.000000 -0.000221 0.000000 0.051091
#
#
# Mechanical properties :
#
#
# Convention : Reuss Voigt Hill
#
# Bulk Modulus (GPa) = 45.01397 46.14566 45.57981
# Shear Modulus (GPa) = 15.47197 25.00576 20.23887
#
# Velocity S-wave (km/s) = 2.72395 3.46296 3.11545
# Velocity P-wave (km/s) = 5.61077 6.17411 5.89916
#
# Compressibility (1/GPa) = 0.02221533
#
# Stress axis : x y z
#
# Youngs Moduli (GPa) = 76.08270 103.05321 82.79143
#
# Poissons Ratio (x) = -0.00715 0.30009
# Poissons Ratio (y) = -0.00528 0.23182
# Poissons Ratio (z) = 0.27578 0.28855
#
# Static dielectric constant tensor:
#      x y z
#    x 1.736410 0.000000 0.000080 
#    y 0.000000 1.793970 0.000000 
#    z 0.000080 0.000000 1.738560 
# 
# From -- ./inp_files/310249.got.cif
#   From: 2010.05.17/outbox.cif.g08.bks.cpg/sg12_156_cif.got.tgz:310249.got - 2010.06.03 13:09:07.
