data_PCOD9196821
_publ_section_title
;
Structure prediction by ZEFSAII (Michael W. Deem and Ramdas Pophale) SiO2 
 PCOD9196821
Probable space group: C 2/M
;
_chemical_formula_sum "Si O2"
_cell_formula_units_Z 64
_cell_length_a 16.290542
_cell_length_b 9.192704
_cell_length_c 20.476979
_cell_angle_alpha 90.000000
_cell_angle_beta 97.539518
_cell_angle_gamma 90.000000
_cell_volume 3040.000960
_symmetry_space_group_name_H-M "C 2/M"
_symmetry_group_IT_number 12
_symmetry_cell_setting 'monoclinic'
loop_
_space_group_symop_operation_xyz
x,y,z
-x,y,-z
-x,-y,-z
x,-y,z
1/2+x,1/2+y,z
1/2-x,1/2+y,-z
1/2-x,1/2-y,-z
1/2+x,1/2-y,z
loop_
_atom_site_type_symbol
_atom_site_label
_atom_site_fract_x
_atom_site_fract_y
_atom_site_fract_z
Si Si1 0.503452 0.824209 0.708661
Si Si2 0.954774 0.834662 0.923265
Si Si3 0.764091 0.675248 0.431363
Si Si4 0.682483 0.174811 0.299790
Si Si5 0.831518 0.174247 0.216246
Si Si6 0.043960 0.675559 0.569287
Si Si7 0.319066 0.840043 0.970321
Si Si8 0.902507 0.661890 0.115443
O O1 0.412778 0.791359 0.728300
O O2 0.583728 0.744071 0.746131
O O3 0.501866 0.779329 0.632190
O O4 0.515336 0.000000 0.712124
O O5 0.870033 0.746825 0.922112
O O6 0.014463 0.755651 0.878453
O O7 0.939578 0.000000 0.902830
O O8 0.000000 0.839819 0.000000
O O9 0.754675 0.500000 0.434811
O O10 0.750000 0.750000 0.500000
O O11 0.706942 0.742704 0.368896
O O12 0.858868 0.708948 0.420726
O O13 0.751870 0.209610 0.252378
O O14 0.686468 0.000000 0.311641
O O15 0.831079 0.249983 0.145251
O O16 0.838329 0.000000 0.212264
O O17 0.037537 0.500000 0.566242
O O18 0.000000 0.734630 0.500000
O O19 0.291785 0.000000 0.945672
O O20 0.250000 0.750000 0.000000
O O21 0.382066 0.857296 0.037491
O O22 0.912519 0.500000 0.144337
#
# Coordination Sequence:
#
# PCOD9196821 Si02
#       8
#     8   8   8   8   8   8   8   8
#     4  10  20  39  63  84 113 157 201 243 297 368
#     4   9  17  32  56  83 112 146 184 232 287 340
#     4  11  21  34  56  85 117 154 193 243 302 362
#     4  10  22  40  62  86 117 154 197 247 303 362
#     4  11  23  40  61  88 122 157 198 254 306 353
#     4   9  17  31  54  82 110 146 193 237 287 354
#     4  10  20  35  57  87 122 159 198 244 293 348
#     4  10  21  38  60  85 115 157 203 240 286 353
#
# _framework density 21.052624000000002
#
# number of rings (size 3 to 8) (size 9 to 14) (size 15 to 20)
#    0.000    2.000    1.250    2.625    0.000    6.000 
#    2.250    0.000    0.000    1.875    0.000    0.000 
#    0.000    0.000    0.000    0.000    0.000    0.000 
#
# Total GULP energy -178582.088165 kJ/mol
# GULP energy per Si atom -5580.690255 kJ/mol
# Density = 2.100471 g / cm^3
# Si number density = 21.052624 Si / 1000 Ang^3
#
#
#
# Elastic Constant Matrix: (Units=GPa)
#
#
# Indices 1 2 3 4 5 6 
#
# 1 120.3180 56.0238 25.7356 0.0000 -31.8696 0.0000
# 2 56.0238 115.8297 14.9792 0.0000 -28.5613 0.0000
# 3 25.7356 14.9792 59.1331 0.0000 -13.7112 0.0000
# 4 0.0000 0.0000 0.0000 27.0104 0.0000 -2.8638
# 5 -31.8696 -28.5613 -13.7112 0.0000 41.9180 0.0000
# 6 0.0000 0.0000 0.0000 -2.8638 0.0000 28.1545
#
#
#
# Elastic Compliance Matrix: (Units=1/GPa)
#
#
# Indices 1 2 3 4 5 6 
#
# 1 0.012405 -0.004239 -0.003038 0.000000 0.005549 0.000000
# 2 -0.004239 0.011888 -0.000039 0.000000 0.004865 0.000000
# 3 -0.003038 -0.000039 0.019154 0.000000 0.003929 0.000000
# 4 0.000000 0.000000 0.000000 0.037426 0.000000 0.003807
# 5 0.005549 0.004865 0.003929 0.000000 0.032675 0.000000
# 6 0.000000 0.000000 0.000000 0.003807 0.000000 0.035906
#
#
# Mechanical properties :
#
#
# Convention : Reuss Voigt Hill
#
# Bulk Modulus (GPa) = 34.70326 54.30642 44.50484
# Shear Modulus (GPa) = 28.78690 32.65272 30.71981
#
# Velocity S-wave (km/s) = 3.70182 3.94255 3.82408
# Velocity P-wave (km/s) = 5.89840 6.82470 6.37839
#
# Compressibility (1/GPa) = 0.02881573
#
# Stress axis : x y z
#
# Youngs Moduli (GPa) = 80.61473 84.11815 52.20810
#
# Poissons Ratio (x) = 0.35654 0.15862
# Poissons Ratio (y) = 0.34169 0.00202
# Poissons Ratio (z) = 0.24493 0.00325
#
# Static dielectric constant tensor:
#      x y z
#    x 1.761020 0.000000 0.052910 
#    y 0.000000 1.833180 0.000000 
#    z 0.052910 0.000000 1.824300 
# 
# From -- ./inp_files/314006.got.cif
#   From: 2010.05.17/outbox.cif.g08.bks.cpg/sg12_158_cif.got.tgz:314006.got - 2010.06.03 13:09:07.
