data_PCOD9196165
_publ_section_title
;
Structure prediction by ZEFSAII (Michael W. Deem and Ramdas Pophale) SiO2 
 PCOD9196165
Probable space group: C 2/M
;
_chemical_formula_sum "Si O2"
_cell_formula_units_Z 56
_cell_length_a 29.833861
_cell_length_b 9.676584
_cell_length_c 11.071349
_cell_angle_alpha 90.000000
_cell_angle_beta 66.335118
_cell_angle_gamma 90.000000
_cell_volume 2927.415033
_symmetry_space_group_name_H-M "C 2/M"
_symmetry_group_IT_number 12
_symmetry_cell_setting 'monoclinic'
loop_
_space_group_symop_operation_xyz
x,y,z
-x,y,-z
-x,-y,-z
x,-y,z
1/2+x,1/2+y,z
1/2-x,1/2+y,-z
1/2-x,1/2-y,-z
1/2+x,1/2-y,z
loop_
_atom_site_type_symbol
_atom_site_label
_atom_site_fract_x
_atom_site_fract_y
_atom_site_fract_z
Si Si1 0.425619 0.838471 0.414109
Si Si2 0.122063 0.840421 0.347604
Si Si3 0.048336 0.158354 0.010273
Si Si4 0.020035 0.154634 0.318718
Si Si5 0.118398 0.341972 0.801443
Si Si6 0.266877 0.836003 0.363838
Si Si7 0.273640 0.665460 0.862534
O O1 0.382988 0.762375 0.534948
O O2 0.477268 0.764440 0.384060
O O3 0.412688 0.823413 0.287307
O O4 0.427592 0.000000 0.442245
O O5 0.069849 0.827380 0.338476
O O6 0.167829 0.810685 0.211239
O O7 0.127964 0.000000 0.381519
O O8 0.096245 0.240941 0.923802
O O9 0.053489 0.000000 0.961711
O O10 0.036995 0.159178 0.162668
O O11 0.000000 0.219828 0.000000
O O12 0.999804 0.000000 0.363990
O O13 0.112984 0.500000 0.848092
O O14 0.174834 0.318329 0.711081
O O15 0.250000 0.750000 0.500000
O O16 0.245427 0.798748 0.253409
O O17 0.256158 0.000000 0.393877
O O18 0.264938 0.500000 0.888981
O O19 0.250000 0.750000 0.000000
#
# Coordination Sequence:
#
# PCOD9196165 Si02
#       7
#     8   8   8   8   8   8   8
#     4  11  22  36  56  85 116 148 188 231 279 339
#     4  10  22  39  59  81 112 151 189 232 283 338
#     4  10  20  35  56  82 110 146 192 233 273 333
#     4  10  21  37  56  81 114 149 187 231 279 334
#     4  10  22  37  56  83 117 150 183 231 289 340
#     4  10  22  41  63  90 120 154 199 248 298 353
#     4  10  23  42  63  89 120 155 199 248 299 354
#
# _framework density 19.129505000000002
#
# number of rings (size 3 to 8) (size 9 to 14) (size 15 to 20)
#    0.000    1.857    1.429    1.714    2.000    5.429 
#    0.000    0.000    0.000    0.000    0.000    0.000 
#    0.000    0.000    0.000    0.000    0.000    0.000 
#
# Total GULP energy -156255.523937 kJ/mol
# GULP energy per Si atom -5580.554426 kJ/mol
# Density = 1.908597 g / cm^3
# Si number density = 19.129505 Si / 1000 Ang^3
#
#
#
# Elastic Constant Matrix: (Units=GPa)
#
#
# Indices 1 2 3 4 5 6 
#
# 1 70.7429 39.9291 31.0106 0.0000 -6.7659 0.0000
# 2 39.9291 86.1236 81.8908 0.0000 -13.3411 0.0000
# 3 31.0106 81.8908 130.7673 0.0000 -7.5957 0.0000
# 4 0.0000 0.0000 0.0000 38.0473 0.0000 -7.8886
# 5 -6.7659 -13.3411 -7.5957 0.0000 28.8192 0.0000
# 6 0.0000 0.0000 0.0000 -7.8886 0.0000 21.0670
#
#
#
# Elastic Compliance Matrix: (Units=1/GPa)
#
#
# Indices 1 2 3 4 5 6 
#
# 1 0.019487 -0.011487 0.002569 0.000000 -0.000066 0.000000
# 2 -0.011487 0.037785 -0.020391 0.000000 0.009420 0.000000
# 3 0.002569 -0.020391 0.019594 0.000000 -0.003672 0.000000
# 4 0.000000 0.000000 0.000000 0.028495 0.000000 0.010670
# 5 -0.000066 0.009420 -0.003672 0.000000 0.038077 0.000000
# 6 0.000000 0.000000 0.000000 0.010670 0.000000 0.051463
#
#
# Mechanical properties :
#
#
# Convention : Reuss Voigt Hill
#
# Bulk Modulus (GPa) = 54.80282 65.92165 60.36224
# Shear Modulus (GPa) = 19.26013 26.57357 22.91685
#
# Velocity S-wave (km/s) = 3.17650 3.73116 3.46495
# Velocity P-wave (km/s) = 6.49338 7.28681 6.90151
#
# Compressibility (1/GPa) = 0.01824724
#
# Stress axis : x y z
#
# Youngs Moduli (GPa) = 51.31575 26.46540 51.03548
#
# Poissons Ratio (x) = 0.30402 -0.13110
# Poissons Ratio (y) = 0.58949 1.04066
# Poissons Ratio (z) = -0.13182 0.53966
#
# Static dielectric constant tensor:
#      x y z
#    x 1.686650 0.000000 0.020340 
#    y 0.000000 1.662420 0.000000 
#    z 0.020340 0.000000 1.657650 
# 
# From -- ./inp_files/180746.got.cif
#   From: 2010.05.17/outbox.cif.g08.bks.cpg/sg12_91_cif.got.tgz:180746.got - 2010.06.03 13:09:07.
