data_PCOD9196936
_publ_section_title
;
Structure prediction by ZEFSAII (Michael W. Deem and Ramdas Pophale) SiO2 
 PCOD9196936
Probable space group: C 2/M
;
_chemical_formula_sum "Si O2"
_cell_formula_units_Z 56
_cell_length_a 19.349361
_cell_length_b 9.220616
_cell_length_c 19.958705
_cell_angle_alpha 90.000000
_cell_angle_beta 124.624802
_cell_angle_gamma 90.000000
_cell_volume 2930.224957
_symmetry_space_group_name_H-M "C 2/M"
_symmetry_group_IT_number 12
_symmetry_cell_setting 'monoclinic'
loop_
_space_group_symop_operation_xyz
x,y,z
-x,y,-z
-x,-y,-z
x,-y,z
1/2+x,1/2+y,z
1/2-x,1/2+y,-z
1/2-x,1/2-y,-z
1/2+x,1/2-y,z
loop_
_atom_site_type_symbol
_atom_site_label
_atom_site_fract_x
_atom_site_fract_y
_atom_site_fract_z
Si Si1 0.054931 0.330154 0.322125
Si Si2 0.669773 0.327971 0.486159
Si Si3 0.198942 0.673263 0.129434
Si Si4 0.407819 0.671759 0.417644
Si Si5 0.063247 0.834267 0.971047
Si Si6 0.631865 0.170421 0.742455
Si Si7 0.075419 0.672948 0.184445
O O1 0.072953 0.500000 0.346671
O O2 0.091305 0.232059 0.400846
O O3 0.094861 0.292841 0.272274
O O4 0.954561 0.314038 0.263896
O O5 0.675890 0.500000 0.481714
O O6 0.750000 0.250000 0.500000
O O7 0.656319 0.297907 0.557175
O O8 0.202272 0.500000 0.123950
O O9 0.290475 0.742465 0.184355
O O10 0.149284 0.705532 0.172092
O O11 0.143395 0.744360 0.040106
O O12 0.500000 0.698088 0.500000
O O13 0.403263 0.500000 0.397928
O O14 0.388284 0.766450 0.342266
O O15 0.008241 0.756347 0.884257
O O16 0.084637 0.000000 0.965786
O O17 0.000000 0.836892 0.000000
O O18 0.652349 0.000000 0.749801
O O19 0.059870 0.500000 0.171953
#
# Coordination Sequence:
#
# PCOD9196936 Si02
#       7
#     8   8   8   8   8   8   8
#     4  10  22  40  58  81 115 151 186 230 283 334
#     4  11  24  40  60  84 113 147 186 234 281 334
#     4  10  20  35  58  84 112 147 188 229 274 336
#     4  10  21  40  61  80 108 149 192 228 274 336
#     4   9  17  32  55  84 115 143 179 229 280 327
#     4  11  23  37  57  84 115 147 187 237 281 327
#     4   9  19  36  58  82 110 147 186 225 276 335
#
# _framework density 19.111160000000002
#
# number of rings (size 3 to 8) (size 9 to 14) (size 15 to 20)
#    0.000    2.000    1.429    1.714    2.000    4.857 
#    0.000    0.714    0.000    0.000    0.000    0.000 
#    0.000    0.000    0.000    0.000    0.000    0.000 
#
# Total GULP energy -156365.329905 kJ/mol
# GULP energy per Si atom -5584.476068 kJ/mol
# Density = 1.906766 g / cm^3
# Si number density = 19.111160 Si / 1000 Ang^3
#
#
#
# Elastic Constant Matrix: (Units=GPa)
#
#
# Indices 1 2 3 4 5 6 
#
# 1 41.5320 16.4111 -8.6269 0.0000 8.4902 0.0000
# 2 16.4111 43.5700 6.6865 0.0000 7.2084 0.0000
# 3 -8.6269 6.6865 20.7476 0.0000 9.5912 0.0000
# 4 0.0000 0.0000 0.0000 36.9550 0.0000 9.0083
# 5 8.4902 7.2084 9.5912 0.0000 30.7486 0.0000
# 6 0.0000 0.0000 0.0000 9.0083 0.0000 24.7426
#
#
#
# Elastic Compliance Matrix: (Units=1/GPa)
#
#
# Indices 1 2 3 4 5 6 
#
# 1 0.040423 -0.017092 0.029941 0.000000 -0.016494 0.000000
# 2 -0.017092 0.031754 -0.018790 0.000000 0.003136 0.000000
# 3 0.029941 -0.018790 0.080029 0.000000 -0.028825 0.000000
# 4 0.000000 0.000000 0.000000 0.029695 0.000000 -0.010811
# 5 -0.016494 0.003136 -0.028825 0.000000 0.045332 0.000000
# 6 0.000000 0.000000 0.000000 -0.010811 0.000000 0.044352
#
#
# Mechanical properties :
#
#
# Convention : Reuss Voigt Hill
#
# Bulk Modulus (GPa) = 7.12641 14.97678 11.05160
# Shear Modulus (GPa) = 15.14042 24.58116 19.86079
#
# Velocity S-wave (km/s) = 2.81771 3.59028 3.22720
# Velocity P-wave (km/s) = 3.78457 5.00405 4.43641
#
# Compressibility (1/GPa) = 0.14032310
#
# Stress axis : x y z
#
# Youngs Moduli (GPa) = 24.73869 31.49195 12.49550
#
# Poissons Ratio (x) = 0.53825 -0.37413
# Poissons Ratio (y) = 0.42283 0.23479
# Poissons Ratio (z) = -0.74070 0.59174
#
# Static dielectric constant tensor:
#      x y z
#    x 1.674920 0.000000 0.009100 
#    y 0.000000 1.634400 0.000000 
#    z 0.009100 0.000000 1.646370 
# 
# From -- ./inp_files/320246.got.cif
#   From: 2010.05.17/outbox.cif.g08.bks.cpg/sg12_161_cif.got.tgz:320246.got - 2010.06.03 13:09:07.
