data_PCOD9196075
_publ_section_title
;
Structure prediction by ZEFSAII (Michael W. Deem and Ramdas Pophale) SiO2 
 PCOD9196075
Probable space group: C 2/M
;
_chemical_formula_sum "Si O2"
_cell_formula_units_Z 64
_cell_length_a 29.625125
_cell_length_b 9.305554
_cell_length_c 12.919523
_cell_angle_alpha 90.000000
_cell_angle_beta 101.305445
_cell_angle_gamma 90.000000
_cell_volume 3492.521083
_symmetry_space_group_name_H-M "C 2/M"
_symmetry_group_IT_number 12
_symmetry_cell_setting 'monoclinic'
loop_
_space_group_symop_operation_xyz
x,y,z
-x,y,-z
-x,-y,-z
x,-y,z
1/2+x,1/2+y,z
1/2-x,1/2+y,-z
1/2-x,1/2-y,-z
1/2+x,1/2-y,z
loop_
_atom_site_type_symbol
_atom_site_label
_atom_site_fract_x
_atom_site_fract_y
_atom_site_fract_z
Si Si1 0.940692 0.827942 0.823201
Si Si2 0.429077 0.833689 0.402498
Si Si3 0.393360 0.827960 0.994106
Si Si4 0.177723 0.336441 0.710434
Si Si5 0.896025 0.828718 0.582188
Si Si6 0.707037 0.329034 0.531706
Si Si7 0.297336 0.830169 0.039936
Si Si8 0.467886 0.172118 0.203611
O O1 0.916315 0.756972 0.910685
O O2 0.912741 0.795586 0.705016
O O3 0.990560 0.757799 0.828958
O O4 0.943810 0.000000 0.836420
O O5 0.376765 0.828998 0.335544
O O6 0.426935 0.746584 0.507992
O O7 0.459677 0.782951 0.319310
O O8 0.440593 0.000000 0.429310
O O9 0.394584 0.000000 0.974483
O O10 0.340664 0.783131 0.989941
O O11 0.422799 0.805267 0.112364
O O12 0.192411 0.500000 0.690447
O O13 0.202491 0.223834 0.647583
O O14 0.187866 0.311250 0.834400
O O15 0.842393 0.787796 0.541320
O O16 0.899021 0.000000 0.568052
O O17 0.712192 0.500000 0.526648
O O18 0.750000 0.250000 0.500000
O O19 0.290961 0.000000 0.019574
O O20 0.250000 0.750000 0.000000
O O21 0.476884 0.000000 0.207520
#
# Coordination Sequence:
#
# PCOD9196075 Si02
#       8
#     8   8   8   8   8   8   8   8
#     4  11  24  39  55  81 117 154 190 231 281 338
#     4   9  17  33  60  85 105 138 186 231 273 328
#     4  10  21  40  61  81 112 152 191 233 282 335
#     4   9  17  34  56  78 107 142 179 227 279 328
#     4   9  21  39  54  75 114 152 181 224 285 337
#     4  10  20  35  56  81 107 143 187 229 277 334
#     4  10  21  37  58  85 115 147 185 231 286 339
#     4  10  20  37  61  86 111 145 189 235 284 335
#
# _framework density 18.324871000000002
#
# number of rings (size 3 to 8) (size 9 to 14) (size 15 to 20)
#    0.000    2.250    1.250    1.125    0.000    6.500 
#    0.000    6.250    0.000    0.000    0.000    0.000 
#    0.000    0.000    0.000    0.000    0.000    0.000 
#
# Total GULP energy -178597.741535 kJ/mol
# GULP energy per Si atom -5581.179423 kJ/mol
# Density = 1.828316 g / cm^3
# Si number density = 18.324871 Si / 1000 Ang^3
#
#
#
# Elastic Constant Matrix: (Units=GPa)
#
#
# Indices 1 2 3 4 5 6 
#
# 1 110.8012 45.8750 39.4288 0.0000 -25.5313 0.0000
# 2 45.8750 40.9142 39.1568 0.0000 -11.9868 0.0000
# 3 39.4288 39.1568 71.8303 0.0000 -18.0247 0.0000
# 4 0.0000 0.0000 0.0000 32.5145 0.0000 0.0380
# 5 -25.5313 -11.9868 -18.0247 0.0000 31.3334 0.0000
# 6 0.0000 0.0000 0.0000 0.0380 0.0000 24.2673
#
#
#
# Elastic Compliance Matrix: (Units=1/GPa)
#
#
# Indices 1 2 3 4 5 6 
#
# 1 0.019057 -0.022718 0.004253 0.000000 0.009284 0.000000
# 2 -0.022718 0.078644 -0.032135 0.000000 -0.006911 0.000000
# 3 0.004253 -0.032135 0.031426 0.000000 0.009250 0.000000
# 4 0.000000 0.000000 0.000000 0.030756 0.000000 -0.000048
# 5 0.009284 -0.006911 0.009250 0.000000 0.042157 0.000000
# 6 0.000000 0.000000 0.000000 -0.000048 0.000000 0.041208
#
#
# Mechanical properties :
#
#
# Convention : Reuss Voigt Hill
#
# Bulk Modulus (GPa) = 35.80770 52.49632 44.15201
# Shear Modulus (GPa) = 14.13403 24.22871 19.18137
#
# Velocity S-wave (km/s) = 2.78025 3.64012 3.23885
# Velocity P-wave (km/s) = 5.46711 6.81007 6.17521
#
# Compressibility (1/GPa) = 0.02792695
#
# Stress axis : x y z
#
# Youngs Moduli (GPa) = 52.47457 12.71548 31.82087
#
# Poissons Ratio (x) = 0.28887 -0.13535
# Poissons Ratio (y) = 1.19213 1.02257
# Poissons Ratio (z) = -0.22320 0.40861
#
# Static dielectric constant tensor:
#      x y z
#    x 1.627560 0.000000 0.011930 
#    y 0.000000 1.613070 0.000000 
#    z 0.011930 0.000000 1.620340 
# 
# From -- ./inp_files/187586.got.cif
#   From: 2010.05.17/outbox.cif.g08.bks.cpg/sg12_94_cif.got.tgz:187586.got - 2010.06.03 13:09:07.
