data_PCOD9196392
_publ_section_title
;
Structure prediction by ZEFSAII (Michael W. Deem and Ramdas Pophale) SiO2 
 PCOD9196392
Probable space group: C 2/M
;
_chemical_formula_sum "Si O2"
_cell_formula_units_Z 64
_cell_length_a 15.241715
_cell_length_b 16.205276
_cell_length_c 17.202549
_cell_angle_alpha 90.000000
_cell_angle_beta 50.164647
_cell_angle_gamma 90.000000
_cell_volume 3262.730379
_symmetry_space_group_name_H-M "C 2/M"
_symmetry_group_IT_number 12
_symmetry_cell_setting 'monoclinic'
loop_
_space_group_symop_operation_xyz
x,y,z
-x,y,-z
-x,-y,-z
x,-y,z
1/2+x,1/2+y,z
1/2-x,1/2+y,-z
1/2-x,1/2-y,-z
1/2+x,1/2-y,z
loop_
_atom_site_type_symbol
_atom_site_label
_atom_site_fract_x
_atom_site_fract_y
_atom_site_fract_z
Si Si1 0.243934 0.664157 0.048788
Si Si2 0.817289 0.825233 0.300745
Si Si3 0.295115 0.263555 0.776421
Si Si4 0.379674 0.905055 0.104421
Si Si5 0.552711 0.773414 0.648171
Si Si6 0.010538 0.097106 0.083661
Si Si7 0.387022 0.091442 0.511267
Si Si8 0.493636 0.091251 0.809244
O O1 0.232325 0.689944 0.146431
O O2 0.131699 0.614385 0.087713
O O3 0.250000 0.750000 0.000000
O O4 0.358860 0.614478 0.968520
O O5 0.753414 0.760759 0.280332
O O6 0.861984 0.788132 0.356585
O O7 0.925297 0.856393 0.189673
O O8 0.724748 0.895020 0.372736
O O9 0.226277 0.343789 0.845415
O O10 0.432398 0.270265 0.695165
O O11 0.412633 0.907899 0.176657
O O12 0.360559 0.000000 0.088966
O O13 0.500000 0.874171 0.000000
O O14 0.602145 0.829437 0.551075
O O15 0.522192 0.840081 0.731216
O O16 0.984750 0.000000 0.100134
O O17 0.000000 0.126144 0.000000
O O18 0.500000 0.092657 0.500000
O O19 0.381291 0.000000 0.476885
O O20 0.487451 0.000000 0.778302
#
# Coordination Sequence:
#
# PCOD9196392 Si02
#       8
#     8   8   8   8   8   8   8   8
#     4  11  22  35  55  85 121 167 211 252 301 360
#     4  12  23  42  64  94 126 163 206 257 313 380
#     4  11  22  37  60  89 127 161 210 256 304 366
#     4  10  21  36  57  86 125 172 211 251 301 355
#     4  11  23  42  65  94 118 162 205 257 316 378
#     4  11  23  38  57  87 128 170 206 250 311 372
#     4  11  24  44  69  96 126 157 201 264 330 382
#     4  10  20  35  56  86 117 153 205 255 302 357
#
# _framework density 19.615473000000001
#
# number of rings (size 3 to 8) (size 9 to 14) (size 15 to 20)
#    0.000    1.125    3.750    3.750    1.750    0.000 
#    0.000    4.375    0.000    0.000    0.000    1.750 
#    0.000    0.000    0.000    0.000    0.000    0.000 
#
# Total GULP energy -178705.603576 kJ/mol
# GULP energy per Si atom -5584.550112 kJ/mol
# Density = 1.957083 g / cm^3
# Si number density = 19.615473 Si / 1000 Ang^3
#
#
#
# Elastic Constant Matrix: (Units=GPa)
#
#
# Indices 1 2 3 4 5 6 
#
# 1 78.4062 25.9181 20.6388 0.0000 -11.6128 0.0000
# 2 25.9181 69.5895 16.2517 0.0000 -12.2779 0.0000
# 3 20.6388 16.2517 72.9820 0.0000 -13.1414 0.0000
# 4 0.0000 0.0000 0.0000 -82.7523 0.0000 55.6666
# 5 -11.6128 -12.2779 -13.1414 0.0000 28.5909 0.0000
# 6 0.0000 0.0000 0.0000 55.6666 0.0000 0.7883
#
#
#
# Elastic Compliance Matrix: (Units=1/GPa)
#
#
# Indices 1 2 3 4 5 6 
#
# 1 0.015450 -0.004565 -0.002808 0.000000 0.003024 0.000000
# 2 -0.004565 0.017314 -0.001700 0.000000 0.004800 0.000000
# 3 -0.002808 -0.001700 0.015850 0.000000 0.005414 0.000000
# 4 0.000000 0.000000 0.000000 -0.000249 0.000000 0.017594
# 5 0.003024 0.004800 0.005414 0.000000 0.040754 0.000000
# 6 0.000000 0.000000 0.000000 0.017594 0.000000 0.026154
#
#
# Mechanical properties :
#
#
# Convention : Reuss Voigt Hill
#
# Bulk Modulus (GPa) = 32.82221 38.51054 35.66637
# Shear Modulus (GPa) = 34.82481 -0.13001 17.34740
#
# Velocity S-wave (km/s) = 4.21809 -0.25773 2.97707
# Velocity P-wave (km/s) = 6.36335 4.42570 5.48083
#
# Compressibility (1/GPa) = 0.03046718
#
# Stress axis : x y z
#
# Youngs Moduli (GPa) = 64.72409 57.75652 63.09276
#
# Poissons Ratio (x) = 0.26365 0.17717
# Poissons Ratio (y) = 0.29546 0.10728
# Poissons Ratio (z) = 0.18175 0.09821
#
# Static dielectric constant tensor:
#      x y z
#    x 1.709430 0.000000 0.017500 
#    y 0.000000 1.687000 0.000000 
#    z 0.017500 0.000000 1.718930 
# 
# From -- ./inp_files/270649.got.cif
#   From: 2010.05.17/outbox.cif.g08.bks.cpg/sg12_136_cif.got.tgz:270649.got - 2010.06.03 13:09:07.
