data_PCOD9196963
_publ_section_title
;
Structure prediction by ZEFSAII (Michael W. Deem and Ramdas Pophale) SiO2 
 PCOD9196963
Probable space group: C 2/M
;
_chemical_formula_sum "Si O2"
_cell_formula_units_Z 40
_cell_length_a 16.464228
_cell_length_b 19.649725
_cell_length_c 7.800630
_cell_angle_alpha 90.000000
_cell_angle_beta 135.524205
_cell_angle_gamma 90.000000
_cell_volume 1768.082589
_symmetry_space_group_name_H-M "C 2/M"
_symmetry_group_IT_number 12
_symmetry_cell_setting 'monoclinic'
loop_
_space_group_symop_operation_xyz
x,y,z
-x,y,-z
-x,-y,-z
x,-y,z
1/2+x,1/2+y,z
1/2-x,1/2+y,-z
1/2-x,1/2-y,-z
1/2+x,1/2-y,z
loop_
_atom_site_type_symbol
_atom_site_label
_atom_site_fract_x
_atom_site_fract_y
_atom_site_fract_z
Si Si1 0.383317 0.818812 0.418469
Si Si2 0.821283 0.920264 0.990262
Si Si3 0.127376 0.925256 0.309700
Si Si4 0.669057 0.663675 0.670328
Si Si5 0.627266 0.877333 0.235309
O O1 0.500000 0.838918 0.500000
O O2 0.286767 0.871652 0.213040
O O3 0.354896 0.741450 0.326477
O O4 0.390579 0.824299 0.635928
O O5 0.895847 0.916151 0.927157
O O6 0.793724 0.000000 0.973725
O O7 0.866803 0.887344 0.233305
O O8 0.104935 0.862316 0.401330
O O9 0.270519 0.926391 0.541784
O O10 0.089194 0.000000 0.313370
O O11 0.805802 0.654958 0.827025
O O12 0.500000 0.905251 0.000000
#
# Coordination Sequence:
#
# PCOD9196963 Si02
#       5
#     8   8   8   8   8
#     4  11  22  37  54  84 118 148 187 228 273 327
#     4  10  20  35  58  85 111 144 183 229 284 334
#     4   8  18  33  54  83 114 146 180 225 277 332
#     4  10  20  36  58  79 113 154 184 224 275 332
#     4   9  19  33  53  82 112 143 182 227 273 333
#
# _framework density 22.623377000000001
#
# number of rings (size 3 to 8) (size 9 to 14) (size 15 to 20)
#    1.200    1.200    0.000    3.000    0.000    0.800 
#    0.000    2.000    0.000    2.400    0.000    2.800 
#    0.000    0.000    0.000    0.000    0.000    0.000 
#
# Total GULP energy -111511.257373 kJ/mol
# GULP energy per Si atom -5575.562869 kJ/mol
# Density = 2.257189 g / cm^3
# Si number density = 22.623377 Si / 1000 Ang^3
#
#
#
# Elastic Constant Matrix: (Units=GPa)
#
#
# Indices 1 2 3 4 5 6 
#
# 1 96.8146 25.8276 9.8946 0.0000 -7.0206 0.0000
# 2 25.8276 156.1383 30.4544 0.0000 -17.9247 0.0000
# 3 9.8946 30.4544 76.8761 0.0000 -10.9359 0.0000
# 4 0.0000 0.0000 0.0000 32.0909 0.0000 -4.7277
# 5 -7.0206 -17.9247 -10.9359 0.0000 38.3542 0.0000
# 6 0.0000 0.0000 0.0000 -4.7277 0.0000 24.6175
#
#
#
# Elastic Compliance Matrix: (Units=1/GPa)
#
#
# Indices 1 2 3 4 5 6 
#
# 1 0.010887 -0.001553 -0.000631 0.000000 0.001087 0.000000
# 2 -0.001553 0.007413 -0.002381 0.000000 0.002501 0.000000
# 3 -0.000631 -0.002381 0.014444 0.000000 0.002890 0.000000
# 4 0.000000 0.000000 0.000000 0.032069 0.000000 0.006159
# 5 0.001087 0.002501 0.002890 0.000000 0.028265 0.000000
# 6 0.000000 0.000000 0.000000 0.006159 0.000000 0.041804
#
#
# Mechanical properties :
#
#
# Convention : Reuss Voigt Hill
#
# Bulk Modulus (GPa) = 42.35009 51.35358 46.85183
# Shear Modulus (GPa) = 32.92024 36.58936 34.75480
#
# Velocity S-wave (km/s) = 3.81877 4.02596 3.92373
# Velocity P-wave (km/s) = 6.18096 6.66031 6.42511
#
# Compressibility (1/GPa) = 0.02361270
#
# Stress axis : x y z
#
# Youngs Moduli (GPa) = 91.85572 134.89830 69.23509
#
# Poissons Ratio (x) = 0.20948 0.04372
# Poissons Ratio (y) = 0.14264 0.16485
# Poissons Ratio (z) = 0.05800 0.32119
#
# Static dielectric constant tensor:
#      x y z
#    x 1.896900 0.000000 0.032360 
#    y 0.000000 1.750190 0.000000 
#    z 0.032360 0.000000 1.950090 
# 
# From -- ./inp_files/62915.got.cif
#   From: 2010.05.17/outbox.cif.g08.bks.cpg/sg12_32_cif.got.tgz:62915.got - 2010.06.03 13:09:07.
