data_PCOD9196838
_publ_section_title
;
Structure prediction by ZEFSAII (Michael W. Deem and Ramdas Pophale) SiO2 
 PCOD9196838
Probable space group: C 2/M
;
_chemical_formula_sum "Si O2"
_cell_formula_units_Z 60
_cell_length_a 14.134063
_cell_length_b 9.617757
_cell_length_c 23.452840
_cell_angle_alpha 90.000000
_cell_angle_beta 51.298969
_cell_angle_gamma 90.000000
_cell_volume 2488.079109
_symmetry_space_group_name_H-M "C 2/M"
_symmetry_group_IT_number 12
_symmetry_cell_setting 'monoclinic'
loop_
_space_group_symop_operation_xyz
x,y,z
-x,y,-z
-x,-y,-z
x,-y,z
1/2+x,1/2+y,z
1/2-x,1/2+y,-z
1/2-x,1/2-y,-z
1/2+x,1/2-y,z
loop_
_atom_site_type_symbol
_atom_site_label
_atom_site_fract_x
_atom_site_fract_y
_atom_site_fract_z
Si Si1 0.565388 0.337450 0.053626
Si Si2 0.322234 0.291076 0.548047
Si Si3 0.630555 0.654361 0.735137
Si Si4 0.743802 0.340166 0.087109
Si Si5 0.040760 0.341752 0.674679
Si Si6 0.195627 0.500000 0.415806
Si Si7 0.967462 0.147334 0.608095
Si Si8 0.165412 0.336733 0.829916
O O1 0.538771 0.500000 0.051387
O O2 0.623245 0.329313 0.095091
O O3 0.452497 0.233951 0.096748
O O4 0.665638 0.273841 0.973555
O O5 0.182135 0.335063 0.601336
O O6 0.354993 0.127493 0.527486
O O7 0.395593 0.356466 0.467596
O O8 0.385960 0.341689 0.582611
O O9 0.586412 0.500000 0.770078
O O10 0.540475 0.747227 0.731471
O O11 0.736780 0.617035 0.650229
O O12 0.680366 0.746292 0.767698
O O13 0.790166 0.500000 0.060413
O O14 0.734797 0.323304 0.158221
O O15 0.005844 0.500000 0.698693
O O16 0.962219 0.271304 0.654771
O O17 0.941720 0.000000 0.647772
O O18 0.148128 0.500000 0.823443
#
# Coordination Sequence:
#
# PCOD9196838 Si02
#       8
#     8   8   8   8   8   4   8   8
#     4  10  20  35  57  88 125 160 193 240 294 345
#     4  10  21  38  60  83 122 150 190 232 298 357
#     4   9  20  40  59  81 111 152 194 251 290 342
#     4   9  20  37  56  85 125 160 194 236 292 354
#     4  11  22  38  60  85 115 155 195 237 294 351
#     4   8  20  37  62  80 109 151 190 245 302 334
#     4  11  23  36  59  91 122 151 189 236 294 366
#     4  11  21  36  61  86 114 155 204 242 293 348
#
# _framework density 24.114988
#
# number of rings (size 3 to 8) (size 9 to 14) (size 15 to 20)
#    0.400    1.600    0.000    4.000    2.800    3.733 
#    0.000    2.667    2.933    3.200    0.000    0.000 
#    0.000    0.000    0.000    0.000    0.000    0.000 
#
# Total GULP energy -167199.229160 kJ/mol
# GULP energy per Si atom -5573.307639 kJ/mol
# Density = 2.406010 g / cm^3
# Si number density = 24.114988 Si / 1000 Ang^3
#
#
#
# Elastic Constant Matrix: (Units=GPa)
#
#
# Indices 1 2 3 4 5 6 
#
# 1 90.8934 47.8662 38.8506 0.0000 22.2033 0.0000
# 2 47.8662 220.7049 38.8937 0.0000 28.8614 0.0000
# 3 38.8506 38.8937 54.1751 0.0000 25.0590 0.0000
# 4 0.0000 0.0000 0.0000 35.5082 0.0000 -1.8101
# 5 22.2033 28.8614 25.0590 0.0000 48.7161 0.0000
# 6 0.0000 0.0000 0.0000 -1.8101 0.0000 9.4598
#
#
#
# Elastic Compliance Matrix: (Units=1/GPa)
#
#
# Indices 1 2 3 4 5 6 
#
# 1 0.016475 -0.001628 -0.009997 0.000000 -0.001402 0.000000
# 2 -0.001628 0.005435 -0.002084 0.000000 -0.001406 0.000000
# 3 -0.009997 -0.002084 0.032078 0.000000 -0.010709 0.000000
# 4 0.000000 0.000000 0.000000 0.028440 0.000000 0.005442
# 5 -0.001402 -0.001406 -0.010709 0.000000 0.027508 0.000000
# 6 0.000000 0.000000 0.000000 0.005442 0.000000 0.106752
#
#
# Mechanical properties :
#
#
# Convention : Reuss Voigt Hill
#
# Bulk Modulus (GPa) = 37.63829 68.55491 53.09660
# Shear Modulus (GPa) = 19.76575 34.74769 27.25672
#
# Velocity S-wave (km/s) = 2.86605 3.80006 3.36561
# Velocity P-wave (km/s) = 5.15694 6.90970 6.09664
#
# Compressibility (1/GPa) = 0.02656869
#
# Stress axis : x y z
#
# Youngs Moduli (GPa) = 60.69868 183.98740 31.17389
#
# Poissons Ratio (x) = 0.29952 0.31166
# Poissons Ratio (y) = 0.09881 0.06498
# Poissons Ratio (z) = 0.60683 0.38348
#
# Static dielectric constant tensor:
#      x y z
#    x 1.946880 0.000000 -0.021720 
#    y 0.000000 1.947330 0.000000 
#    z -0.021720 0.000000 1.982120 
# 
# From -- ./inp_files/338624.got.cif
#   From: 2010.05.17/outbox.cif.g08.bks.cpg/sg12_170_cif.got.tgz:338624.got - 2010.06.03 13:09:07.
