data_PCOD9196873
_publ_section_title
;
Structure prediction by ZEFSAII (Michael W. Deem and Ramdas Pophale) SiO2 
 PCOD9196873
Probable space group: C 2/M
;
_chemical_formula_sum "Si O2"
_cell_formula_units_Z 40
_cell_length_a 11.247813
_cell_length_b 21.306415
_cell_length_c 8.080732
_cell_angle_alpha 90.000000
_cell_angle_beta 94.966302
_cell_angle_gamma 90.000000
_cell_volume 1929.281811
_symmetry_space_group_name_H-M "C 2/M"
_symmetry_group_IT_number 12
_symmetry_cell_setting 'monoclinic'
loop_
_space_group_symop_operation_xyz
x,y,z
-x,y,-z
-x,-y,-z
x,-y,z
1/2+x,1/2+y,z
1/2-x,1/2+y,-z
1/2-x,1/2-y,-z
1/2+x,1/2-y,z
loop_
_atom_site_type_symbol
_atom_site_label
_atom_site_fract_x
_atom_site_fract_y
_atom_site_fract_z
Si Si1 0.000000 0.795563 0.500000
Si Si2 0.649097 0.635485 0.761817
Si Si3 0.104536 0.000000 0.775472
Si Si4 0.666061 0.758738 0.286105
Si Si5 0.242630 0.366153 0.872449
Si Si6 0.000000 0.679891 0.000000
Si Si7 0.166828 0.000000 0.175825
O O1 0.030675 0.837598 0.662817
O O2 0.108758 0.753080 0.456401
O O3 0.657618 0.563511 0.710220
O O4 0.752203 0.680212 0.709128
O O5 0.663877 0.637976 0.961574
O O6 0.960866 0.000000 0.748090
O O7 0.137011 0.000000 0.974933
O O8 0.732607 0.696217 0.230742
O O9 0.559962 0.776359 0.145809
O O10 0.109160 0.359783 0.933152
O O11 0.265416 0.433609 0.789511
#
# Coordination Sequence:
#
# PCOD9196873 Si02
#       7
#     4   8   4   8   8   4   4
#     4  12  22  33  54  79 110 144 178 224 268 311
#     4  10  21  35  55  80 108 141 179 221 266 318
#     4   9  18  35  54  77 107 141 175 220 270 309
#     4  11  21  36  56  81 109 141 181 222 266 317
#     4  10  20  36  56  81 109 141 180 219 265 318
#     4  10  20  35  58  79 106 142 178 224 266 313
#     4   9  18  31  54  82 109 136 173 220 266 318
#
# _framework density 20.733103
#
# number of rings (size 3 to 8) (size 9 to 14) (size 15 to 20)
#    0.000    1.800    0.000    6.600    0.000    4.000 
#    0.000    2.000    0.000    0.600    0.000    0.000 
#    0.000    0.000    0.000    0.000    0.000    0.000 
#
# Total GULP energy -111639.755010 kJ/mol
# GULP energy per Si atom -5581.987750 kJ/mol
# Density = 2.068591 g / cm^3
# Si number density = 20.733103 Si / 1000 Ang^3
#
#
#
# Elastic Constant Matrix: (Units=GPa)
#
#
# Indices 1 2 3 4 5 6 
#
# 1 78.8077 70.0293 22.4253 0.0000 -4.4453 0.0000
# 2 70.0293 212.5675 36.2350 0.0000 -20.8432 0.0000
# 3 22.4253 36.2350 40.9638 0.0000 0.3352 0.0000
# 4 0.0000 0.0000 0.0000 -18.2121 0.0000 4.5756
# 5 -4.4453 -20.8432 0.3352 0.0000 31.6552 0.0000
# 6 0.0000 0.0000 0.0000 4.5756 0.0000 27.8296
#
#
#
# Elastic Compliance Matrix: (Units=1/GPa)
#
#
# Indices 1 2 3 4 5 6 
#
# 1 0.019040 -0.005390 -0.005649 0.000000 -0.000815 0.000000
# 2 -0.005390 0.007535 -0.003750 0.000000 0.004244 0.000000
# 3 -0.005649 -0.003750 0.030851 0.000000 -0.003589 0.000000
# 4 0.000000 0.000000 0.000000 -0.052730 0.000000 0.008670
# 5 -0.000815 0.004244 -0.003589 0.000000 0.034309 0.000000
# 6 0.000000 0.000000 0.000000 0.008670 0.000000 0.034508
#
#
# Mechanical properties :
#
#
# Convention : Reuss Voigt Hill
#
# Bulk Modulus (GPa) = 35.90802 65.52422 50.71612
# Shear Modulus (GPa) = 44.49539 21.83118 33.16329
#
# Velocity S-wave (km/s) = 4.63763 3.24846 4.00376
# Velocity P-wave (km/s) = 6.78481 6.76330 6.77406
#
# Compressibility (1/GPa) = 0.02784893
#
# Stress axis : x y z
#
# Youngs Moduli (GPa) = 52.52154 132.70840 32.41431
#
# Poissons Ratio (x) = 0.71524 0.18311
# Poissons Ratio (y) = 0.28307 0.12154
# Poissons Ratio (z) = 0.29670 0.49762
#
# Static dielectric constant tensor:
#      x y z
#    x 1.794800 0.000000 0.051270 
#    y 0.000000 1.735220 0.000000 
#    z 0.051270 0.000000 1.803380 
# 
# From -- ./inp_files/48668.got.cif
#   From: 2010.05.17/outbox.cif.g08.bks.cpg/sg12_25_cif.got.tgz:48668.got - 2010.06.03 13:09:07.
