data_PCOD9196399
_publ_section_title
;
Structure prediction by ZEFSAII (Michael W. Deem and Ramdas Pophale) SiO2 
 PCOD9196399
Probable space group: C 2/M
;
_chemical_formula_sum "Si O2"
_cell_formula_units_Z 58
_cell_length_a 12.972169
_cell_length_b 16.219635
_cell_length_c 29.328533
_cell_angle_alpha 90.000000
_cell_angle_beta 26.299491
_cell_angle_gamma 90.000000
_cell_volume 2734.070576
_symmetry_space_group_name_H-M "C 2/M"
_symmetry_group_IT_number 12
_symmetry_cell_setting 'monoclinic'
loop_
_space_group_symop_operation_xyz
x,y,z
-x,y,-z
-x,-y,-z
x,-y,z
1/2+x,1/2+y,z
1/2-x,1/2+y,-z
1/2-x,1/2-y,-z
1/2+x,1/2-y,z
loop_
_atom_site_type_symbol
_atom_site_label
_atom_site_fract_x
_atom_site_fract_y
_atom_site_fract_z
Si Si1 0.052870 0.597856 0.664342
Si Si2 0.070890 0.852537 0.557686
Si Si3 0.857465 0.095516 0.244523
Si Si4 0.780637 0.858341 0.028558
Si Si5 0.000000 0.000000 0.000000
Si Si6 0.320686 0.828727 0.032525
Si Si7 0.503881 0.827468 0.551829
Si Si8 0.065241 0.593547 0.759562
O O1 0.092814 0.500000 0.654011
O O2 0.274662 0.630755 0.548660
O O3 0.020222 0.632344 0.727855
O O4 0.825363 0.609206 0.724138
O O5 0.250068 0.863096 0.528133
O O6 0.984943 0.758524 0.586935
O O7 0.843024 0.907156 0.652813
O O8 0.704993 0.114391 0.349566
O O9 0.068995 0.157377 0.154758
O O10 0.933222 0.000000 0.213546
O O11 0.953918 0.926912 0.979305
O O12 0.877263 0.765992 0.996854
O O13 0.555838 0.862701 0.150598
O O14 0.702564 0.872899 0.007450
O O15 0.500000 0.857887 0.000000
O O16 0.500000 0.812682 0.500000
O O17 0.961147 0.500000 0.801848
#
# Coordination Sequence:
#
# PCOD9196399 Si02
#       8
#     8   8   8   8   2   8   8   8
#     4   9  19  34  58  91 127 163 205 255 319 392
#     4  10  20  35  56  86 122 156 198 255 320 380
#     4  10  23  40  61  87 121 171 218 259 323 396
#     4  11  26  43  71 101 133 174 222 274 344 400
#     4  12  24  48  74 100 136 172 224 286 328 420
#     4  11  26  47  68  98 136 173 222 285 338 396
#     4  10  21  38  58  82 114 160 207 253 310 384
#     4  11  21  34  60  95 124 158 203 262 320 380
#
# _framework density 21.213789999999999
#
# number of rings (size 3 to 8) (size 9 to 14) (size 15 to 20)
#    0.000    1.655    1.379    2.483    2.897    3.310 
#    0.000    2.759    0.000    0.000    0.000    0.000 
#    0.000    0.000    0.000    0.000    0.000    0.000 
#
# Total GULP energy -161790.751207 kJ/mol
# GULP energy per Si atom -5578.991421 kJ/mol
# Density = 2.116551 g / cm^3
# Si number density = 21.213790 Si / 1000 Ang^3
#
#
#
# Elastic Constant Matrix: (Units=GPa)
#
#
# Indices 1 2 3 4 5 6 
#
# 1 123.0294 17.9052 30.4504 -0.0103 19.7538 0.0062
# 2 17.9052 62.6666 -1.3189 0.0101 -7.2454 -0.0007
# 3 30.4504 -1.3189 48.4119 0.0518 2.4825 0.0001
# 4 -0.0103 0.0101 0.0518 26.7164 0.0008 -1.3050
# 5 19.7538 -7.2454 2.4825 0.0008 21.3530 -0.0055
# 6 0.0062 -0.0007 0.0001 -1.3050 -0.0055 27.6132
#
#
#
# Elastic Compliance Matrix: (Units=1/GPa)
#
#
# Indices 1 2 3 4 5 6 
#
# 1 0.012821 -0.005300 -0.007553 0.000022 -0.012781 -0.000005
# 2 -0.005300 0.018801 0.003287 -0.000016 0.010900 0.000003
# 3 -0.007553 0.003287 0.025232 -0.000053 0.005170 0.000000
# 4 0.000022 -0.000016 -0.000053 0.037517 -0.000020 0.001773
# 5 -0.012781 0.010900 0.005170 -0.000020 0.061753 0.000014
# 6 -0.000005 0.000003 0.000000 0.001773 0.000014 0.036298
#
#
# Mechanical properties :
#
#
# Convention : Reuss Voigt Hill
#
# Bulk Modulus (GPa) = 26.51038 36.46459 31.48748
# Shear Modulus (GPa) = 22.30856 27.60792 24.95824
#
# Velocity S-wave (km/s) = 3.24637 3.61143 3.43375
# Velocity P-wave (km/s) = 5.15517 5.88356 5.53137
#
# Compressibility (1/GPa) = 0.03772107
#
# Stress axis : x y z
#
# Youngs Moduli (GPa) = 77.99630 53.18792 39.63293
#
# Poissons Ratio (x) = 0.28189 0.29936
# Poissons Ratio (y) = 0.41338 -0.13027
# Poissons Ratio (z) = 0.58913 -0.17482
#
# Static dielectric constant tensor:
#      x y z
#    x 1.891290 -0.000010 -0.223030 
#    y -0.000010 1.793340 0.000020 
#    z -0.223030 0.000020 2.122540 
# 
# From -- ./inp_files/358776.got.cif
#   From: 2010.05.17/outbox.cif.g08.bks.cpg/sg12_180_cif.got.tgz:358776.got - 2010.06.03 13:09:07.
