data_PCOD9196525
_publ_section_title
;
Structure prediction by ZEFSAII (Michael W. Deem and Ramdas Pophale) SiO2 
 PCOD9196525
Probable space group: C 2/M
;
_chemical_formula_sum "Si O2"
_cell_formula_units_Z 48
_cell_length_a 20.734969
_cell_length_b 16.987257
_cell_length_c 9.852682
_cell_angle_alpha 90.000000
_cell_angle_beta 40.828959
_cell_angle_gamma 90.000000
_cell_volume 2268.966626
_symmetry_space_group_name_H-M "C 2/M"
_symmetry_group_IT_number 12
_symmetry_cell_setting 'monoclinic'
loop_
_space_group_symop_operation_xyz
x,y,z
-x,y,-z
-x,-y,-z
x,-y,z
1/2+x,1/2+y,z
1/2-x,1/2+y,-z
1/2-x,1/2-y,-z
1/2+x,1/2-y,z
loop_
_atom_site_type_symbol
_atom_site_label
_atom_site_fract_x
_atom_site_fract_y
_atom_site_fract_z
Si Si1 0.413343 0.411762 0.549422
Si Si2 0.693669 0.636113 0.038116
Si Si3 0.397327 0.632068 0.094443
Si Si4 0.598149 0.192228 0.252129
Si Si5 0.410318 0.821551 0.047360
Si Si6 0.717823 0.593839 0.466774
O O1 0.500000 0.375057 0.500000
O O2 0.446084 0.500000 0.463432
O O3 0.375396 0.373333 0.472993
O O4 0.322843 0.412224 0.798186
O O5 0.631061 0.603774 0.011062
O O6 0.809966 0.645452 0.826733
O O7 0.646932 0.721677 0.148749
O O8 0.401268 0.726903 0.077565
O O9 0.309536 0.608777 0.335071
O O10 0.500000 0.604326 0.000000
O O11 0.500000 0.192681 0.500000
O O12 0.576274 0.161787 0.134121
O O13 0.312470 0.861897 0.260773
O O14 0.500000 0.847482 0.000000
O O15 0.725512 0.500000 0.430211
#
# Coordination Sequence:
#
# PCOD9196525 Si02
#       6
#     8   8   8   8   8   8
#     4  10  20  35  57  82 113 155 193 236 291 351
#     4  10  20  36  57  85 117 148 184 246 289 348
#     4  10  22  38  59  92 118 154 197 245 301 350
#     4  10  21  36  59  89 114 148 192 240 299 343
#     4  10  22  40  61  87 119 157 198 246 292 351
#     4  11  23  39  60  86 122 159 199 244 291 356
#
# _framework density 21.155004000000002
#
# number of rings (size 3 to 8) (size 9 to 14) (size 15 to 20)
#    0.000    1.833    1.667    2.000    2.333    4.000 
#    0.000    0.000    0.000    1.000    0.000    0.000 
#    0.000    0.000    0.000    0.000    0.000    0.000 
#
# Total GULP energy -133912.964346 kJ/mol
# GULP energy per Si atom -5579.706848 kJ/mol
# Density = 2.110685 g / cm^3
# Si number density = 21.155004 Si / 1000 Ang^3
#
#
#
# Elastic Constant Matrix: (Units=GPa)
#
#
# Indices 1 2 3 4 5 6 
#
# 1 112.5372 12.5240 31.2952 0.0000 -2.6130 0.0000
# 2 12.5240 15.1257 4.0917 0.0000 -1.7088 0.0000
# 3 31.2952 4.0917 127.4143 0.0000 -4.5679 0.0000
# 4 0.0000 0.0000 0.0000 5.6070 0.0000 -6.7490
# 5 -2.6130 -1.7088 -4.5679 0.0000 42.7088 0.0000
# 6 0.0000 0.0000 0.0000 -6.7490 0.0000 -0.2415
#
#
#
# Elastic Compliance Matrix: (Units=1/GPa)
#
#
# Indices 1 2 3 4 5 6 
#
# 1 0.010417 -0.007995 -0.002299 0.000000 0.000072 0.000000
# 2 -0.007995 0.073084 -0.000297 0.000000 0.002403 0.000000
# 3 -0.002299 -0.000297 0.008450 0.000000 0.000751 0.000000
# 4 0.000000 0.000000 0.000000 0.005148 0.000000 -0.143893
# 5 0.000072 0.002403 0.000751 0.000000 0.023595 0.000000
# 6 0.000000 0.000000 0.000000 -0.143893 0.000000 -0.119546
#
#
# Mechanical properties :
#
#
# Convention : Reuss Voigt Hill
#
# Bulk Modulus (GPa) = 14.13070 38.98880 26.55975
# Shear Modulus (GPa) = 108.88580 23.42596 66.15588
#
# Velocity S-wave (km/s) = 7.18208 3.33129 5.59820
# Velocity P-wave (km/s) = 8.68737 5.76774 7.37351
#
# Compressibility (1/GPa) = 0.07076788
#
# Stress axis : x y z
#
# Youngs Moduli (GPa) = 95.99933 13.68287 118.34862
#
# Poissons Ratio (x) = 0.10939 0.27211
# Poissons Ratio (y) = 0.76751 0.03516
# Poissons Ratio (z) = 0.22072 0.00407
#
# Static dielectric constant tensor:
#      x y z
#    x 1.801360 0.000000 -0.020980 
#    y 0.000000 1.758270 0.000000 
#    z -0.020980 0.000000 1.766310 
# 
# From -- ./inp_files/63334.got.cif
#   From: 2010.05.17/outbox.cif.g08.bks.cpg/sg12_32_cif.got.tgz:63334.got - 2010.06.03 13:09:07.
