data_PCOD9196317
_publ_section_title
;
Structure prediction by ZEFSAII (Michael W. Deem and Ramdas Pophale) SiO2 
 PCOD9196317
Probable space group: C 2/M
;
_chemical_formula_sum "Si O2"
_cell_formula_units_Z 40
_cell_length_a 10.692318
_cell_length_b 14.952543
_cell_length_c 12.352947
_cell_angle_alpha 90.000000
_cell_angle_beta 69.671110
_cell_angle_gamma 90.000000
_cell_volume 1851.943999
_symmetry_space_group_name_H-M "C 2/M"
_symmetry_group_IT_number 12
_symmetry_cell_setting 'monoclinic'
loop_
_space_group_symop_operation_xyz
x,y,z
-x,y,-z
-x,-y,-z
x,-y,z
1/2+x,1/2+y,z
1/2-x,1/2+y,-z
1/2-x,1/2-y,-z
1/2+x,1/2-y,z
loop_
_atom_site_type_symbol
_atom_site_label
_atom_site_fract_x
_atom_site_fract_y
_atom_site_fract_z
Si Si1 0.844038 0.226524 0.074843
Si Si2 0.376942 0.140906 0.745732
Si Si3 0.708584 0.101969 0.463464
Si Si4 0.582848 0.093272 0.862632
Si Si5 0.441807 0.270180 0.399047
O O1 0.768649 0.146970 0.158477
O O2 0.842118 0.313256 0.153849
O O3 0.750000 0.250000 0.000000
O O4 0.000000 0.209904 0.000000
O O5 0.370426 0.102792 0.626684
O O6 0.476749 0.094990 0.798197
O O7 0.438384 0.240867 0.713932
O O8 0.644572 0.177710 0.561010
O O9 0.851056 0.147022 0.393589
O O10 0.714016 0.000000 0.502581
O O11 0.661327 0.000000 0.833484
O O12 0.500000 0.093130 0.000000
O O13 0.500000 0.289524 0.500000
#
# Coordination Sequence:
#
# PCOD9196317 Si02
#       5
#     8   8   8   8   8
#     4  11  21  38  61  87 116 165 209 253 298 360
#     4  11  20  37  62  85 122 161 208 250 307 360
#     4  10  21  37  61  93 123 156 204 255 309 369
#     4  10  20  35  56  84 115 155 204 251 296 358
#     4   9  21  39  59  88 122 161 197 253 308 378
#
# _framework density 21.598927
#
# number of rings (size 3 to 8) (size 9 to 14) (size 15 to 20)
#    0.000    1.800    4.000    1.800    0.000    4.800 
#    0.000    1.000    0.000    3.000    0.000    0.000 
#    0.000    0.000    0.000    0.000    0.000    0.000 
#
# Total GULP energy -111533.404219 kJ/mol
# GULP energy per Si atom -5576.670211 kJ/mol
# Density = 2.154977 g / cm^3
# Si number density = 21.598927 Si / 1000 Ang^3
#
#
#
# Elastic Constant Matrix: (Units=GPa)
#
#
# Indices 1 2 3 4 5 6 
#
# 1 98.5770 29.0106 22.1331 0.0000 -0.3384 0.0000
# 2 29.0106 94.8591 3.2467 0.0000 9.1265 0.0000
# 3 22.1331 3.2467 67.3681 0.0000 7.7173 0.0000
# 4 0.0000 0.0000 0.0000 -20.0585 0.0000 3.0058
# 5 -0.3384 9.1265 7.7173 0.0000 40.9612 0.0000
# 6 0.0000 0.0000 0.0000 3.0058 0.0000 12.1352
#
#
#
# Elastic Compliance Matrix: (Units=1/GPa)
#
#
# Indices 1 2 3 4 5 6 
#
# 1 0.012150 -0.003741 -0.004005 0.000000 0.001689 0.000000
# 2 -0.003741 0.011929 0.000984 0.000000 -0.002874 0.000000
# 3 -0.004005 0.000984 0.016497 0.000000 -0.003360 0.000000
# 4 0.000000 0.000000 0.000000 -0.048070 0.000000 0.011907
# 5 0.001689 -0.002874 -0.003360 0.000000 0.025701 0.000000
# 6 0.000000 0.000000 0.000000 0.011907 0.000000 0.079456
#
#
# Mechanical properties :
#
#
# Convention : Reuss Voigt Hill
#
# Bulk Modulus (GPa) = 36.96731 41.06502 39.01616
# Shear Modulus (GPa) = 41.59528 20.36850 30.98189
#
# Velocity S-wave (km/s) = 4.39316 3.07422 3.79148
# Velocity P-wave (km/s) = 6.54871 5.62627 6.10494
#
# Compressibility (1/GPa) = 0.02705093
#
# Stress axis : x y z
#
# Youngs Moduli (GPa) = 82.30155 83.82928 60.61642
#
# Poissons Ratio (x) = 0.31363 0.24277
# Poissons Ratio (y) = 0.30792 -0.05962
# Poissons Ratio (z) = 0.32962 -0.08245
#
# Static dielectric constant tensor:
#      x y z
#    x 1.833930 0.000000 -0.035660 
#    y 0.000000 1.814150 0.000000 
#    z -0.035660 0.000000 1.843230 
# 
# From -- ./inp_files/129150.got.cif
#   From: 2010.05.17/outbox.cif.g08.bks.cpg/sg12_65_cif.got.tgz:129150.got - 2010.06.03 13:09:07.
