data_PCOD9196308
_publ_section_title
;
Structure prediction by ZEFSAII (Michael W. Deem and Ramdas Pophale) SiO2 
 PCOD9196308
Probable space group: C 2/M
;
_chemical_formula_sum "Si O2"
_cell_formula_units_Z 56
_cell_length_a 19.054427
_cell_length_b 13.523541
_cell_length_c 19.258072
_cell_angle_alpha 90.000000
_cell_angle_beta 143.488783
_cell_angle_gamma 90.000000
_cell_volume 2952.579484
_symmetry_space_group_name_H-M "C 2/M"
_symmetry_group_IT_number 12
_symmetry_cell_setting 'monoclinic'
loop_
_space_group_symop_operation_xyz
x,y,z
-x,y,-z
-x,-y,-z
x,-y,z
1/2+x,1/2+y,z
1/2-x,1/2+y,-z
1/2-x,1/2-y,-z
1/2+x,1/2-y,z
loop_
_atom_site_type_symbol
_atom_site_label
_atom_site_fract_x
_atom_site_fract_y
_atom_site_fract_z
Si Si1 0.377518 0.111567 0.227307
Si Si2 0.091770 0.617449 0.292293
Si Si3 0.954276 0.714733 0.540199
Si Si4 0.994136 0.885014 0.682967
Si Si5 0.260448 0.293566 0.084741
Si Si6 0.750909 0.618620 0.451561
Si Si7 0.486439 0.880986 0.068444
O O1 0.466860 0.129002 0.233255
O O2 0.462117 0.130457 0.359786
O O3 0.280943 0.196934 0.148893
O O4 0.333435 0.000000 0.189030
O O5 0.113088 0.500000 0.302257
O O6 0.189616 0.649631 0.426682
O O7 0.074305 0.656391 0.199955
O O8 0.822189 0.675315 0.448529
O O9 0.000000 0.733040 0.500000
O O10 0.972519 0.812493 0.601145
O O11 0.122221 0.859330 0.814467
O O12 0.888604 0.864705 0.653448
O O13 0.985930 0.000000 0.656861
O O14 0.144971 0.353240 0.012797
O O15 0.250000 0.250000 0.000000
O O16 0.770277 0.500000 0.459814
O O17 0.498901 0.000000 0.077039
O O18 0.500000 0.844962 0.000000
#
# Coordination Sequence:
#
# PCOD9196308 Si02
#       7
#     8   8   8   8   8   8   8
#     4   9  18  33  55  80 108 145 192 238 277 329
#     4   8  14  29  53  79 104 143 191 225 269 327
#     4  10  20  35  56  87 117 152 194 232 279 336
#     4  10  22  39  57  84 120 154 187 230 290 350
#     4  11  21  36  59  83 111 148 193 238 285 344
#     4   9  18  35  59  84 115 152 192 237 283 339
#     4  10  20  35  56  84 114 146 190 241 287 338
#
# _framework density 18.966467000000002
#
# number of rings (size 3 to 8) (size 9 to 14) (size 15 to 20)
#    0.000    2.429    1.429    2.143    0.000    2.000 
#    5.143    0.000    0.000    0.429    0.000    0.000 
#    0.000    0.000    0.000    0.000    0.000    0.000 
#
# Total GULP energy -156105.915092 kJ/mol
# GULP energy per Si atom -5575.211253 kJ/mol
# Density = 1.892330 g / cm^3
# Si number density = 18.966467 Si / 1000 Ang^3
#
#
#
# Elastic Constant Matrix: (Units=GPa)
#
#
# Indices 1 2 3 4 5 6 
#
# 1 110.0076 9.7817 41.4200 0.0000 -9.1121 0.0000
# 2 9.7817 51.2138 2.6706 0.0000 0.5350 0.0000
# 3 41.4200 2.6706 51.1740 0.0000 9.4071 0.0000
# 4 0.0000 0.0000 0.0000 14.6459 0.0000 5.4078
# 5 -9.1121 0.5350 9.4071 0.0000 22.1476 0.0000
# 6 0.0000 0.0000 0.0000 5.4078 0.0000 22.2603
#
#
#
# Elastic Compliance Matrix: (Units=1/GPa)
#
#
# Indices 1 2 3 4 5 6 
#
# 1 0.016225 -0.002432 -0.015450 0.000000 0.013296 0.000000
# 2 -0.002432 0.019944 0.001302 0.000000 -0.002036 0.000000
# 3 -0.015450 0.001302 0.035960 0.000000 -0.021662 0.000000
# 4 0.000000 0.000000 0.000000 0.075007 0.000000 -0.018222
# 5 0.013296 -0.002036 -0.021662 0.000000 0.059872 0.000000
# 6 0.000000 0.000000 0.000000 -0.018222 0.000000 0.049350
#
#
# Mechanical properties :
#
#
# Convention : Reuss Voigt Hill
#
# Bulk Modulus (GPa) = 25.66126 35.57111 30.61619
# Shear Modulus (GPa) = 16.52848 22.37895 19.45372
#
# Velocity S-wave (km/s) = 2.95525 3.43873 3.20611
# Velocity P-wave (km/s) = 5.02034 5.87894 5.46652
#
# Compressibility (1/GPa) = 0.03896924
#
# Stress axis : x y z
#
# Youngs Moduli (GPa) = 61.63297 50.14063 27.80840
#
# Poissons Ratio (x) = 0.12195 0.42964
# Poissons Ratio (y) = 0.14991 -0.03621
# Poissons Ratio (z) = 0.95222 -0.06528
#
# Static dielectric constant tensor:
#      x y z
#    x 1.657820 0.000000 -0.006980 
#    y 0.000000 1.701450 0.000000 
#    z -0.006980 0.000000 1.713110 
# 
# From -- ./inp_files/277863.got.cif
#   From: 2010.05.17/outbox.cif.g08.bks.cpg/sg12_139_cif.got.tgz:277863.got - 2010.06.03 13:09:07.
