data_PCOD9196887
_publ_section_title
;
Structure prediction by ZEFSAII (Michael W. Deem and Ramdas Pophale) SiO2 
 PCOD9196887
Probable space group: C 2/M
;
_chemical_formula_sum "Si O2"
_cell_formula_units_Z 58
_cell_length_a 18.808247
_cell_length_b 8.361626
_cell_length_c 16.529962
_cell_angle_alpha 90.000000
_cell_angle_beta 109.888747
_cell_angle_gamma 90.000000
_cell_volume 2444.571436
_symmetry_space_group_name_H-M "C 2/M"
_symmetry_group_IT_number 12
_symmetry_cell_setting 'monoclinic'
loop_
_space_group_symop_operation_xyz
x,y,z
-x,y,-z
-x,-y,-z
x,-y,z
1/2+x,1/2+y,z
1/2-x,1/2+y,-z
1/2-x,1/2-y,-z
1/2+x,1/2-y,z
loop_
_atom_site_type_symbol
_atom_site_label
_atom_site_fract_x
_atom_site_fract_y
_atom_site_fract_z
Si Si1 0.246459 0.811996 0.882688
Si Si2 0.053249 0.827220 0.180842
Si Si3 0.990825 0.193879 0.591934
Si Si4 0.418393 0.811672 0.219603
Si Si5 0.678015 0.320689 0.428512
Si Si6 0.596714 0.683664 0.009631
Si Si7 0.500000 0.000000 0.000000
Si Si8 0.193389 0.671104 0.276080
O O1 0.165236 0.730963 0.843571
O O2 0.313334 0.722078 0.956710
O O3 0.272803 0.806720 0.798554
O O4 0.242646 0.000000 0.903393
O O5 0.070492 0.837882 0.093217
O O6 0.103666 0.679453 0.228288
O O7 0.971202 0.790698 0.180910
O O8 0.075817 0.000000 0.225101
O O9 0.906540 0.248955 0.589095
O O10 0.000000 0.235820 0.500000
O O11 0.054447 0.260939 0.678765
O O12 0.995668 0.000000 0.599739
O O13 0.430343 0.000000 0.217454
O O14 0.669857 0.500000 0.453465
O O15 0.750000 0.250000 0.500000
O O16 0.703898 0.305944 0.345626
O O17 0.584647 0.500000 0.971297
O O18 0.554690 0.856341 0.980263
O O19 0.217716 0.500000 0.318832
#
# Coordination Sequence:
#
# PCOD9196887 Si02
#       8
#     8   8   8   8   8   8   2   8
#     4  10  21  39  61  90 126 164 205 261 315 363
#     4  10  20  37  61  90 122 158 207 256 301 361
#     4  10  23  42  58  77 113 161 213 259 321 392
#     4  12  24  36  60  91 122 164 210 266 322 374
#     4  11  23  37  55  77 109 153 197 255 316 372
#     4  10  22  40  67 103 134 170 214 255 302 370
#     4  12  22  40  72 102 140 176 202 250 312 366
#     4  10  20  35  58  82 113 148 198 256 313 368
#
# _framework density 23.726040000000001
#
# number of rings (size 3 to 8) (size 9 to 14) (size 15 to 20)
#    0.000    1.517    2.069    3.103    3.862    2.483 
#    0.000    0.000    0.000    0.828    0.000    0.000 
#    0.000    0.000    0.000    0.000    0.000    0.000 
#
# Total GULP energy -161480.917243 kJ/mol
# GULP energy per Si atom -5568.307491 kJ/mol
# Density = 2.367204 g / cm^3
# Si number density = 23.726040 Si / 1000 Ang^3
#
#
#
# Elastic Constant Matrix: (Units=GPa)
#
#
# Indices 1 2 3 4 5 6 
#
# 1 57.5076 0.3003 13.3577 0.0000 1.6409 0.0000
# 2 0.3003 121.8582 49.5575 0.0000 -7.5927 0.0000
# 3 13.3577 49.5575 91.5894 0.0000 3.7315 0.0000
# 4 0.0000 0.0000 0.0000 39.4238 0.0000 5.4352
# 5 1.6409 -7.5927 3.7315 0.0000 33.5916 0.0000
# 6 0.0000 0.0000 0.0000 5.4352 0.0000 30.2121
#
#
#
# Elastic Compliance Matrix: (Units=1/GPa)
#
#
# Indices 1 2 3 4 5 6 
#
# 1 0.018165 0.001302 -0.003345 0.000000 -0.000222 0.000000
# 2 0.001302 0.010930 -0.006230 0.000000 0.003099 0.000000
# 3 -0.003345 -0.006230 0.014895 0.000000 -0.002899 0.000000
# 4 0.000000 0.000000 0.000000 0.026010 0.000000 -0.004679
# 5 -0.000222 0.003099 -0.002899 0.000000 0.030803 0.000000
# 6 0.000000 0.000000 0.000000 -0.004679 0.000000 0.033941
#
#
# Mechanical properties :
#
#
# Convention : Reuss Voigt Hill
#
# Bulk Modulus (GPa) = 36.43732 44.15403 40.29567
# Shear Modulus (GPa) = 31.16458 34.49483 32.82971
#
# Velocity S-wave (km/s) = 3.62818 3.81712 3.72385
# Velocity P-wave (km/s) = 5.73955 6.17070 5.95903
#
# Compressibility (1/GPa) = 0.02744439
#
# Stress axis : x y z
#
# Youngs Moduli (GPa) = 55.04978 91.49331 67.13597
#
# Poissons Ratio (x) = -0.11909 0.22454
# Poissons Ratio (y) = -0.07165 0.41826
# Poissons Ratio (z) = 0.18412 0.57000
#
# Static dielectric constant tensor:
#      x y z
#    x 1.214640 0.000000 -1.849800 
#    y 0.000000 1.873910 0.000000 
#    z -1.849800 0.000000 -2.806170 
# 
# From -- ./inp_files/314839.got.cif
#   From: 2010.05.17/outbox.cif.g08.bks.cpg/sg12_158_cif.got.tgz:314839.got - 2010.06.03 13:09:07.
