data_PCOD9196057
_publ_section_title
;
Structure prediction by ZEFSAII (Michael W. Deem and Ramdas Pophale) SiO2 
 PCOD9196057
Probable space group: C 2/M
;
_chemical_formula_sum "Si O2"
_cell_formula_units_Z 56
_cell_length_a 28.950791
_cell_length_b 8.822552
_cell_length_c 19.495837
_cell_angle_alpha 90.000000
_cell_angle_beta 137.948418
_cell_angle_gamma 90.000000
_cell_volume 3335.348979
_symmetry_space_group_name_H-M "C 2/M"
_symmetry_group_IT_number 12
_symmetry_cell_setting 'monoclinic'
loop_
_space_group_symop_operation_xyz
x,y,z
-x,y,-z
-x,-y,-z
x,-y,z
1/2+x,1/2+y,z
1/2-x,1/2+y,-z
1/2-x,1/2-y,-z
1/2+x,1/2-y,z
loop_
_atom_site_type_symbol
_atom_site_label
_atom_site_fract_x
_atom_site_fract_y
_atom_site_fract_z
Si Si1 0.250876 0.819200 0.110983
Si Si2 0.761277 0.180352 0.621997
Si Si3 0.944726 0.320418 0.499906
Si Si4 0.860136 0.680800 0.111159
Si Si5 0.991442 0.818956 0.695866
Si Si6 0.795477 0.181044 0.303968
Si Si7 0.860723 0.680352 0.622008
O O1 0.315273 0.790968 0.130615
O O2 0.265817 0.743322 0.200041
O O3 0.243492 0.000000 0.110311
O O4 0.184456 0.749979 0.999903
O O5 0.748947 0.258556 0.681022
O O6 0.824327 0.249977 0.648649
O O7 0.693023 0.206925 0.499993
O O8 0.769428 0.000000 0.638680
O O9 0.934005 0.500000 0.499894
O O10 0.972971 0.246135 0.600421
O O11 0.872473 0.246148 0.399326
O O12 0.000000 0.302247 0.500000
O O13 0.866879 0.500000 0.110542
O O14 0.934246 0.756709 0.200275
O O15 0.932090 0.758515 0.681036
O O16 0.991279 0.000000 0.693847
O O17 0.797342 0.000000 0.305974
O O18 0.869237 0.500000 0.638687
#
# Coordination Sequence:
#
# PCOD9196057 Si02
#       7
#     8   8   8   8   8   8   8
#     4  10  21  38  59  82 110 146 189 234 278 326
#     4  10  20  35  56  80 111 146 184 228 276 329
#     4  11  23  37  52  75 110 149 185 225 277 331
#     4  10  21  38  59  82 110 146 189 234 278 326
#     4  12  23  35  55  82 113 147 185 227 276 332
#     4  12  23  35  55  82 113 147 185 227 276 332
#     4  10  20  35  56  80 111 146 184 228 276 329
#
# _framework density 16.789847999999999
#
# number of rings (size 3 to 8) (size 9 to 14) (size 15 to 20)
#    0.000    1.286    1.429    5.571    0.000    7.429 
#    0.000    0.000    0.000    0.857    0.000    6.000 
#    0.000    0.000    0.000    0.000    0.000    0.000 
#
# Total GULP energy -156549.644179 kJ/mol
# GULP energy per Si atom -5591.058721 kJ/mol
# Density = 1.675163 g / cm^3
# Si number density = 16.789848 Si / 1000 Ang^3
#
#
#
# Elastic Constant Matrix: (Units=GPa)
#
#
# Indices 1 2 3 4 5 6 
#
# 1 137.4004 102.2992 103.7683 0.0000 -0.4230 0.0000
# 2 102.2992 146.8904 92.1935 0.0000 -0.3179 0.0000
# 3 103.7683 92.1935 141.2894 0.0000 -0.7738 0.0000
# 4 0.0000 0.0000 0.0000 32.2734 0.0000 -0.0063
# 5 -0.4230 -0.3179 -0.7738 0.0000 12.0296 0.0000
# 6 0.0000 0.0000 0.0000 -0.0063 0.0000 31.4380
#
#
#
# Elastic Compliance Matrix: (Units=1/GPa)
#
#
# Indices 1 2 3 4 5 6 
#
# 1 0.021099 -0.008414 -0.010007 0.000000 -0.000124 0.000000
# 2 -0.008414 0.014885 -0.003534 0.000000 -0.000130 0.000000
# 3 -0.010007 -0.003534 0.016736 0.000000 0.000631 0.000000
# 4 0.000000 0.000000 0.000000 0.030985 0.000000 0.000006
# 5 -0.000124 -0.000130 0.000631 0.000000 0.083161 0.000000
# 6 0.000000 0.000000 0.000000 0.000006 0.000000 0.031809
#
#
# Mechanical properties :
#
#
# Convention : Reuss Voigt Hill
#
# Bulk Modulus (GPa) = 113.48447 113.56689 113.52568
# Shear Modulus (GPa) = 20.36470 23.63616 22.00043
#
# Velocity S-wave (km/s) = 3.48647 3.75609 3.62379
# Velocity P-wave (km/s) = 9.16216 9.30580 9.23426
#
# Compressibility (1/GPa) = 0.00881178
#
# Stress axis : x y z
#
# Youngs Moduli (GPa) = 47.39466 67.17949 59.75020
#
# Poissons Ratio (x) = 0.56526 0.59789
# Poissons Ratio (y) = 0.39879 0.21116
# Poissons Ratio (z) = 0.47426 0.23742
#
# Static dielectric constant tensor:
#      x y z
#    x 1.552760 0.000000 0.000260 
#    y 0.000000 1.553500 0.000000 
#    z 0.000260 0.000000 1.531490 
# 
# From -- ./inp_files/288383.got.cif
#   From: 2010.05.17/outbox.cif.g08.bks.cpg/sg12_145_cif.got.tgz:288383.got - 2010.06.03 13:09:07.
