data_PCOD9196232
_publ_section_title
;
Structure prediction by ZEFSAII (Michael W. Deem and Ramdas Pophale) SiO2 
 PCOD9196232
Probable space group: C 2/M
;
_chemical_formula_sum "Si O2"
_cell_formula_units_Z 64
_cell_length_a 30.452141
_cell_length_b 7.388525
_cell_length_c 17.098011
_cell_angle_alpha 90.000000
_cell_angle_beta 139.206621
_cell_angle_gamma 90.000000
_cell_volume 2513.366649
_symmetry_space_group_name_H-M "C 2/M"
_symmetry_group_IT_number 12
_symmetry_cell_setting 'monoclinic'
loop_
_space_group_symop_operation_xyz
x,y,z
-x,y,-z
-x,-y,-z
x,-y,z
1/2+x,1/2+y,z
1/2-x,1/2+y,-z
1/2-x,1/2-y,-z
1/2+x,1/2-y,z
loop_
_atom_site_type_symbol
_atom_site_label
_atom_site_fract_x
_atom_site_fract_y
_atom_site_fract_z
Si Si1 0.162542 0.289452 0.707697
Si Si2 0.217283 0.284794 0.540857
Si Si3 0.295184 0.203631 0.802570
Si Si4 0.828658 0.283321 0.109327
Si Si5 0.032666 0.280795 0.460730
Si Si6 0.454975 0.220456 0.199647
Si Si7 0.422481 0.778583 0.893882
Si Si8 0.916905 0.720609 0.713075
O O1 0.145376 0.500000 0.691951
O O2 0.239412 0.281255 0.784920
O O3 0.150682 0.210458 0.777429
O O4 0.109978 0.219294 0.572863
O O5 0.216745 0.500000 0.555506
O O6 0.250000 0.250000 0.500000
O O7 0.258459 0.201855 0.668000
O O8 0.140019 0.223429 0.425111
O O9 0.368698 0.284995 0.885435
O O10 0.306155 0.000000 0.845779
O O11 0.836896 0.500000 0.121517
O O12 0.878150 0.218302 0.107435
O O13 0.750000 0.250000 0.000000
O O14 0.030094 0.500000 0.450517
O O15 0.000000 0.232768 0.500000
O O16 0.991901 0.222690 0.330058
O O17 0.507407 0.279916 0.204375
O O18 0.453939 0.000000 0.191823
O O19 0.397212 0.724732 0.773766
O O20 0.422000 0.000000 0.897920
O O21 0.500000 0.723093 0.000000
O O22 0.916502 0.500000 0.711583
#
# Coordination Sequence:
#
# PCOD9196232 Si02
#       8
#     8   8   8   8   8   8   8   8
#     4  10  20  35  56  83 111 142 179 226 279 327
#     4  11  20  34  57  85 115 148 180 221 276 333
#     4  11  22  36  55  83 114 145 183 227 278 333
#     4  10  21  36  55  80 110 143 182 226 271 321
#     4   9  14  26  51  80 105 130 170 225 272 312
#     4   9  16  28  50  79 105 132 174 225 269 313
#     4   9  18  33  51  74 105 138 179 233 275 306
#     4   9  17  30  51  80 107 134 176 225 270 315
#
# _framework density 25.463854000000001
#
# number of rings (size 3 to 8) (size 9 to 14) (size 15 to 20)
#    0.000    2.250    2.500    1.500    0.000    3.500 
#    0.000    2.500    0.000    5.625    0.000    0.000 
#    0.000    0.000    0.000    0.000    0.000    0.000 
#
# Total GULP energy -178799.989727 kJ/mol
# GULP energy per Si atom -5587.499679 kJ/mol
# Density = 2.540590 g / cm^3
# Si number density = 25.463854 Si / 1000 Ang^3
#
#
#
# Elastic Constant Matrix: (Units=GPa)
#
#
# Indices 1 2 3 4 5 6 
#
# 1 131.7525 -7.0681 13.9574 0.0000 38.6702 0.0000
# 2 -7.0681 85.4479 -7.1714 0.0000 1.9324 0.0000
# 3 13.9574 -7.1714 62.1622 0.0000 36.1851 0.0000
# 4 0.0000 0.0000 0.0000 5.9386 0.0000 8.3731
# 5 38.6702 1.9324 36.1851 0.0000 50.0165 0.0000
# 6 0.0000 0.0000 0.0000 8.3731 0.0000 0.5429
#
#
#
# Elastic Compliance Matrix: (Units=1/GPa)
#
#
# Indices 1 2 3 4 5 6 
#
# 1 0.010560 0.001508 0.004473 0.000000 -0.011459 0.000000
# 2 0.001508 0.012216 0.003497 0.000000 -0.004168 0.000000
# 3 0.004473 0.003497 0.030366 0.000000 -0.025562 0.000000
# 4 0.000000 0.000000 0.000000 -0.008117 0.000000 0.125188
# 5 -0.011459 -0.004168 -0.025562 0.000000 0.047508 0.000000
# 6 0.000000 0.000000 0.000000 0.125188 0.000000 -0.088790
#
#
# Mechanical properties :
#
#
# Convention : Reuss Voigt Hill
#
# Bulk Modulus (GPa) = 13.86994 30.97761 22.42377
# Shear Modulus (GPa) = 566.97695 29.94259 298.45977
#
# Velocity S-wave (km/s) = 14.93797 3.43284 10.83806
# Velocity P-wave (km/s) = 17.40640 5.28245 12.86248
#
# Compressibility (1/GPa) = 0.07209838
#
# Stress axis : x y z
#
# Youngs Moduli (GPa) = 94.69336 81.86318 32.93157
#
# Poissons Ratio (x) = -0.12346 -0.14732
# Poissons Ratio (y) = -0.14281 -0.11515
# Poissons Ratio (z) = -0.42361 -0.28625
#
# Static dielectric constant tensor:
#      x y z
#    x 1.997650 0.000000 0.029960 
#    y 0.000000 2.023090 0.000000 
#    z 0.029960 0.000000 2.037090 
# 
# From -- ./inp_files/295780.got.cif
#   From: 2010.05.17/outbox.cif.g08.bks.cpg/sg12_148_cif.got.tgz:295780.got - 2010.06.03 13:09:07.
