data_PCOD9196912
_publ_section_title
;
Structure prediction by ZEFSAII (Michael W. Deem and Ramdas Pophale) SiO2 
 PCOD9196912
Probable space group: C 2/M
;
_chemical_formula_sum "Si O2"
_cell_formula_units_Z 48
_cell_length_a 16.582308
_cell_length_b 9.423812
_cell_length_c 14.611999
_cell_angle_alpha 90.000000
_cell_angle_beta 78.886442
_cell_angle_gamma 90.000000
_cell_volume 2240.575600
_symmetry_space_group_name_H-M "C 2/M"
_symmetry_group_IT_number 12
_symmetry_cell_setting 'monoclinic'
loop_
_space_group_symop_operation_xyz
x,y,z
-x,y,-z
-x,-y,-z
x,-y,z
1/2+x,1/2+y,z
1/2-x,1/2+y,-z
1/2-x,1/2-y,-z
1/2+x,1/2-y,z
loop_
_atom_site_type_symbol
_atom_site_label
_atom_site_fract_x
_atom_site_fract_y
_atom_site_fract_z
Si Si1 0.556933 0.165508 0.297562
Si Si2 0.200646 0.338448 0.128817
Si Si3 0.181869 0.834470 0.624575
Si Si4 0.437611 0.334241 0.190681
Si Si5 0.869239 0.330305 0.533485
Si Si6 0.362107 0.165603 0.053696
O O1 0.647351 0.168969 0.231627
O O2 0.501696 0.262116 0.245296
O O3 0.567691 0.211287 0.400467
O O4 0.529789 0.000000 0.300892
O O5 0.234816 0.500000 0.112935
O O6 0.272662 0.225413 0.102599
O O7 0.139150 0.318734 0.055760
O O8 0.148200 0.819380 0.734206
O O9 0.128328 0.743484 0.565174
O O10 0.277127 0.796510 0.590652
O O11 0.173239 0.000000 0.601742
O O12 0.455134 0.500000 0.174275
O O13 0.427217 0.254245 0.097470
O O14 0.875758 0.500000 0.521741
O O15 0.370977 0.000000 0.073501
#
# Coordination Sequence:
#
# PCOD9196912 Si02
#       6
#     8   8   8   8   8   8
#     4  10  21  37  55  77 109 145 179 216 264 320
#     4   9  19  37  59  81 108 141 175 217 268 318
#     4   9  19  36  56  77 103 137 175 217 267 317
#     4  11  23  37  53  76 110 147 180 218 266 316
#     4   9  18  34  57  80 101 132 175 221 265 312
#     4  10  20  35  58  84 107 137 179 222 264 314
#
# _framework density 21.423065999999999
#
# number of rings (size 3 to 8) (size 9 to 14) (size 15 to 20)
#    0.000    2.333    0.000    2.000    0.000    7.333 
#    0.000   10.000    0.000    0.000    0.000    0.000 
#    0.000    0.000    0.000    0.000    0.000    0.000 
#
# Total GULP energy -134105.912947 kJ/mol
# GULP energy per Si atom -5587.746373 kJ/mol
# Density = 2.137431 g / cm^3
# Si number density = 21.423066 Si / 1000 Ang^3
#
#
#
# Elastic Constant Matrix: (Units=GPa)
#
#
# Indices 1 2 3 4 5 6 
#
# 1 51.9750 28.5525 18.5559 0.0000 21.6458 0.0000
# 2 28.5525 78.4363 52.0910 0.0000 31.1436 0.0000
# 3 18.5559 52.0910 105.7033 0.0000 33.1381 0.0000
# 4 0.0000 0.0000 0.0000 29.0186 0.0000 9.1822
# 5 21.6458 31.1436 33.1381 0.0000 43.9603 0.0000
# 6 0.0000 0.0000 0.0000 9.1822 0.0000 28.7120
#
#
#
# Elastic Compliance Matrix: (Units=1/GPa)
#
#
# Indices 1 2 3 4 5 6 
#
# 1 0.026374 -0.007088 0.001781 0.000000 -0.009308 0.000000
# 2 -0.007088 0.023536 -0.008146 0.000000 -0.007043 0.000000
# 3 0.001781 -0.008146 0.015226 0.000000 -0.006584 0.000000
# 4 0.000000 0.000000 0.000000 0.038341 0.000000 -0.012261
# 5 -0.009308 -0.007043 -0.006584 0.000000 0.037283 0.000000
# 6 0.000000 0.000000 0.000000 -0.012261 0.000000 0.038750
#
#
# Mechanical properties :
#
#
# Convention : Reuss Voigt Hill
#
# Bulk Modulus (GPa) = 26.15747 48.27927 37.21837
# Shear Modulus (GPa) = 22.81436 29.46586 26.14011
#
# Velocity S-wave (km/s) = 3.26689 3.71270 3.49690
# Velocity P-wave (km/s) = 5.14456 6.40030 5.80648
#
# Compressibility (1/GPa) = 0.03822999
#
# Stress axis : x y z
#
# Youngs Moduli (GPa) = 37.91580 42.48811 65.67587
#
# Poissons Ratio (x) = 0.30115 -0.11697
# Poissons Ratio (y) = 0.26874 0.53502
# Poissons Ratio (z) = -0.06753 0.34612
#
# Static dielectric constant tensor:
#      x y z
#    x 1.823340 0.000000 -0.011870 
#    y 0.000000 1.716920 0.000000 
#    z -0.011870 0.000000 1.770520 
# 
# From -- ./inp_files/221626.got.cif
#   From: 2010.05.17/outbox.cif.g08.bks.cpg/sg12_111_cif.got.tgz:221626.got - 2010.06.03 13:09:07.
