data_PCOD9196381
_publ_section_title
;
Structure prediction by ZEFSAII (Michael W. Deem and Ramdas Pophale) SiO2 
 PCOD9196381
Probable space group: C 2/M
;
_chemical_formula_sum "Si O2"
_cell_formula_units_Z 56
_cell_length_a 9.415619
_cell_length_b 17.684654
_cell_length_c 17.475356
_cell_angle_alpha 90.000000
_cell_angle_beta 77.738802
_cell_angle_gamma 90.000000
_cell_volume 2843.480933
_symmetry_space_group_name_H-M "C 2/M"
_symmetry_group_IT_number 12
_symmetry_cell_setting 'monoclinic'
loop_
_space_group_symop_operation_xyz
x,y,z
-x,y,-z
-x,-y,-z
x,-y,z
1/2+x,1/2+y,z
1/2-x,1/2+y,-z
1/2-x,1/2-y,-z
1/2+x,1/2-y,z
loop_
_atom_site_type_symbol
_atom_site_label
_atom_site_fract_x
_atom_site_fract_y
_atom_site_fract_z
Si Si1 0.120704 0.252883 0.925195
Si Si2 0.392009 0.795526 0.822165
Si Si3 0.848840 0.418526 0.065220
Si Si4 0.091852 0.415336 0.758683
Si Si5 0.151924 0.192229 0.315536
Si Si6 0.335290 0.193701 0.546960
Si Si7 0.925978 0.911604 0.424698
O O1 0.246703 0.195789 0.888096
O O2 0.200615 0.331675 0.941950
O O3 0.025359 0.272684 0.861401
O O4 0.000000 0.229592 0.000000
O O5 0.439210 0.871843 0.774427
O O6 0.367972 0.728828 0.764933
O O7 0.775709 0.500000 0.053429
O O8 0.870597 0.421379 0.154706
O O9 0.000000 0.419149 0.000000
O O10 0.090334 0.500000 0.727485
O O11 0.208092 0.362136 0.703323
O O12 0.165603 0.261488 0.372882
O O13 0.017209 0.140910 0.356892
O O14 0.500000 0.182813 0.500000
O O15 0.250000 0.250000 0.500000
O O16 0.238693 0.118284 0.557677
O O17 0.000000 0.900266 0.500000
O O18 0.936752 0.000000 0.404790
#
# Coordination Sequence:
#
# PCOD9196381 Si02
#       7
#     8   8   8   8   8   8   8
#     4  10  20  35  56  85 120 158 204 253 297 352
#     4  11  21  36  59  90 117 157 203 249 300 358
#     4   8  14  28  50  77 109 145 190 237 277 331
#     4  10  21  36  57  86 118 157 198 241 296 352
#     4  12  21  39  65  88 123 156 202 247 297 363
#     4  12  23  42  67  90 119 162 203 244 302 367
#     4  11  24  42  65  94 124 158 201 251 302 360
#
# _framework density 19.69417
#
# number of rings (size 3 to 8) (size 9 to 14) (size 15 to 20)
#    0.000    1.429    5.714    1.714    0.000    0.286 
#    0.000    0.714    0.000    1.286    0.000    0.000 
#    0.000    0.000    0.000    0.000    0.000    0.000 
#
# Total GULP energy -156139.668076 kJ/mol
# GULP energy per Si atom -5576.416717 kJ/mol
# Density = 1.964935 g / cm^3
# Si number density = 19.694170 Si / 1000 Ang^3
#
#
#
# Elastic Constant Matrix: (Units=GPa)
#
#
# Indices 1 2 3 4 5 6 
#
# 1 92.4873 44.4056 32.6779 0.0000 -22.3321 0.0000
# 2 44.4056 94.0592 33.0847 0.0000 -16.1610 0.0000
# 3 32.6779 33.0847 75.1967 0.0000 -14.9369 0.0000
# 4 0.0000 0.0000 0.0000 4.3452 0.0000 -2.1401
# 5 -22.3321 -16.1610 -14.9369 0.0000 30.6985 0.0000
# 6 0.0000 0.0000 0.0000 -2.1401 0.0000 26.0131
#
#
#
# Elastic Compliance Matrix: (Units=1/GPa)
#
#
# Indices 1 2 3 4 5 6 
#
# 1 0.016306 -0.005255 -0.003285 0.000000 0.007498 0.000000
# 2 -0.005255 0.014819 -0.003815 0.000000 0.002123 0.000000
# 3 -0.003285 -0.003815 0.017192 0.000000 0.003967 0.000000
# 4 0.000000 0.000000 0.000000 0.239860 0.000000 0.019733
# 5 0.007498 0.002123 0.003967 0.000000 0.041077 0.000000
# 6 0.000000 0.000000 0.000000 0.019733 0.000000 0.040066
#
#
# Mechanical properties :
#
#
# Convention : Reuss Voigt Hill
#
# Bulk Modulus (GPa) = 42.35696 53.56441 47.96068
# Shear Modulus (GPa) = 12.44097 22.31635 17.37866
#
# Velocity S-wave (km/s) = 2.51611 3.36987 2.97379
# Velocity P-wave (km/s) = 5.47678 6.51142 6.01638
#
# Compressibility (1/GPa) = 0.02360887
#
# Stress axis : x y z
#
# Youngs Moduli (GPa) = 61.32654 67.48176 58.16499
#
# Poissons Ratio (x) = 0.35458 0.19107
# Poissons Ratio (y) = 0.32224 0.22189
# Poissons Ratio (z) = 0.20145 0.25743
#
# Static dielectric constant tensor:
#      x y z
#    x 1.695850 0.000000 0.005900 
#    y 0.000000 1.728660 0.000000 
#    z 0.005900 0.000000 1.753480 
# 
# From -- ./inp_files/257051.got.cif
#   From: 2010.05.17/outbox.cif.g08.bks.cpg/sg12_129_cif.got.tgz:257051.got - 2010.06.03 13:09:07.
