data_PCOD9196456
_publ_section_title
;
Structure prediction by ZEFSAII (Michael W. Deem and Ramdas Pophale) SiO2 
 PCOD9196456
Probable space group: C 2/M
;
_chemical_formula_sum "Si O2"
_cell_formula_units_Z 40
_cell_length_a 12.506680
_cell_length_b 13.482679
_cell_length_c 11.266793
_cell_angle_alpha 90.000000
_cell_angle_beta 84.744576
_cell_angle_gamma 90.000000
_cell_volume 1891.860193
_symmetry_space_group_name_H-M "C 2/M"
_symmetry_group_IT_number 12
_symmetry_cell_setting 'monoclinic'
loop_
_space_group_symop_operation_xyz
x,y,z
-x,y,-z
-x,-y,-z
x,-y,z
1/2+x,1/2+y,z
1/2-x,1/2+y,-z
1/2-x,1/2-y,-z
1/2+x,1/2-y,z
loop_
_atom_site_type_symbol
_atom_site_label
_atom_site_fract_x
_atom_site_fract_y
_atom_site_fract_z
Si Si1 0.246115 0.386745 0.606208
Si Si2 0.080480 0.835805 0.212603
Si Si3 0.654579 0.605685 0.965628
Si Si4 0.592172 0.293140 0.588579
Si Si5 0.886227 0.319657 0.978857
O O1 0.210511 0.500000 0.608868
O O2 0.324790 0.367717 0.709356
O O3 0.318720 0.361793 0.482942
O O4 0.150415 0.308175 0.618122
O O5 0.083584 0.898381 0.092426
O O6 0.103721 0.726680 0.155057
O O7 0.970775 0.841017 0.295816
O O8 0.645551 0.500000 0.901655
O O9 0.629131 0.721222 0.934142
O O10 0.779348 0.616619 0.993540
O O11 0.500000 0.273221 0.500000
O O12 0.000000 0.366294 0.000000
#
# Coordination Sequence:
#
# PCOD9196456 Si02
#       5
#     8   8   8   8   8
#     4  10  20  35  57  81 106 138 175 217 262 316
#     4   9  19  33  53  78 107 139 177 213 261 309
#     4   9  19  34  52  77 105 138 180 218 258 310
#     4   9  20  36  55  79 110 137 170 220 265 312
#     4   9  20  35  53  75 108 144 170 227 256 305
#
# _framework density 21.143211000000001
#
# number of rings (size 3 to 8) (size 9 to 14) (size 15 to 20)
#    1.200    1.600    0.000    0.600    2.800    5.600 
#    0.000    1.000    0.000    7.200    0.000    0.000 
#    0.000    0.000    0.000    0.000    0.000    0.000 
#
# Total GULP energy -111353.888435 kJ/mol
# GULP energy per Si atom -5567.694422 kJ/mol
# Density = 2.109509 g / cm^3
# Si number density = 21.143211 Si / 1000 Ang^3
#
#
#
# Elastic Constant Matrix: (Units=GPa)
#
#
# Indices 1 2 3 4 5 6 
#
# 1 90.8531 11.6424 -1.6511 0.0000 -6.5704 0.0000
# 2 11.6424 73.3843 3.7792 0.0000 5.4846 0.0000
# 3 -1.6511 3.7792 46.6147 0.0000 -6.0659 0.0000
# 4 0.0000 0.0000 0.0000 4.1809 0.0000 10.3475
# 5 -6.5704 5.4846 -6.0659 0.0000 22.2752 0.0000
# 6 0.0000 0.0000 0.0000 10.3475 0.0000 -7.4719
#
#
#
# Elastic Compliance Matrix: (Units=1/GPa)
#
#
# Indices 1 2 3 4 5 6 
#
# 1 0.011623 -0.002224 0.001150 0.000000 0.004289 0.000000
# 2 -0.002224 0.014428 -0.001862 0.000000 -0.004715 0.000000
# 3 0.001150 -0.001862 0.022547 0.000000 0.006938 0.000000
# 4 0.000000 0.000000 0.000000 0.054022 0.000000 0.074814
# 5 0.004289 -0.004715 0.006938 0.000000 0.049208 0.000000
# 6 0.000000 0.000000 0.000000 0.074814 0.000000 -0.030229
#
#
# Mechanical properties :
#
#
# Convention : Reuss Voigt Hill
#
# Bulk Modulus (GPa) = 23.40481 26.48814 24.94648
# Shear Modulus (GPa) = 35.28245 16.93562 26.10904
#
# Velocity S-wave (km/s) = 4.08945 2.83326 3.51788
# Velocity P-wave (km/s) = 5.77857 4.82269 5.32213
#
# Compressibility (1/GPa) = 0.04272626
#
# Stress axis : x y z
#
# Youngs Moduli (GPa) = 86.03765 69.30965 44.35184
#
# Poissons Ratio (x) = 0.15413 -0.05101
# Poissons Ratio (y) = 0.19133 0.08259
# Poissons Ratio (z) = -0.09895 0.12906
#
# Static dielectric constant tensor:
#      x y z
#    x 1.780810 0.000000 0.008010 
#    y 0.000000 1.773440 0.000000 
#    z 0.008010 0.000000 1.789660 
# 
# From -- ./inp_files/141417.got.cif
#   From: 2010.05.17/outbox.cif.g08.bks.cpg/sg12_71_cif.got.tgz:141417.got - 2010.06.03 13:09:07.
