data_PCOD9196145
_publ_section_title
;
Structure prediction by ZEFSAII (Michael W. Deem and Ramdas Pophale) SiO2 
 PCOD9196145
Probable space group: C 2/M
;
_chemical_formula_sum "Si O2"
_cell_formula_units_Z 56
_cell_length_a 24.032396
_cell_length_b 13.175207
_cell_length_c 11.926130
_cell_angle_alpha 90.000000
_cell_angle_beta 41.346827
_cell_angle_gamma 90.000000
_cell_volume 2494.610700
_symmetry_space_group_name_H-M "C 2/M"
_symmetry_group_IT_number 12
_symmetry_cell_setting 'monoclinic'
loop_
_space_group_symop_operation_xyz
x,y,z
-x,y,-z
-x,-y,-z
x,-y,z
1/2+x,1/2+y,z
1/2-x,1/2+y,-z
1/2-x,1/2-y,-z
1/2+x,1/2-y,z
loop_
_atom_site_type_symbol
_atom_site_label
_atom_site_fract_x
_atom_site_fract_y
_atom_site_fract_z
Si Si1 0.760703 0.612795 0.892153
Si Si2 0.186521 0.327229 0.938429
Si Si3 0.426595 0.179419 0.523608
Si Si4 0.147622 0.884568 0.441907
Si Si5 0.929085 0.112744 0.009687
Si Si6 0.000780 0.691133 0.178955
Si Si7 0.656617 0.288727 0.667712
O O1 0.725479 0.500000 0.934350
O O2 0.792662 0.624664 0.971884
O O3 0.842330 0.625393 0.690437
O O4 0.701294 0.707112 0.947242
O O5 0.094250 0.356607 0.030279
O O6 0.257202 0.362803 0.743994
O O7 0.500000 0.162206 0.500000
O O8 0.405610 0.299227 0.542655
O O9 0.459115 0.147967 0.353121
O O10 0.140608 0.861916 0.585218
O O11 0.124405 0.000000 0.452719
O O12 0.851127 0.156278 0.200852
O O13 0.917757 0.000000 0.985482
O O14 0.000000 0.108883 0.000000
O O15 0.966792 0.191829 0.864893
O O16 0.919802 0.704433 0.218590
O O17 0.750000 0.250000 0.500000
#
# Coordination Sequence:
#
# PCOD9196145 Si02
#       7
#     8   8   8   8   8   8   8
#     4  10  21  37  59  82 115 163 202 237 285 342
#     4  10  20  37  56  82 120 152 197 245 286 342
#     4  10  20  37  56  84 122 157 194 243 288 348
#     4  10  21  36  58  85 117 158 196 238 299 358
#     4   9  18  33  55  82 109 142 190 242 291 346
#     4  10  20  35  56  81 114 150 191 239 294 344
#     4  10  20  36  60  84 112 152 191 244 303 352
#
# _framework density 22.448391999999998
#
# number of rings (size 3 to 8) (size 9 to 14) (size 15 to 20)
#    0.000    2.143    1.429    1.714    0.000    4.571 
#    0.000    0.000    0.000    7.714    0.000    0.000 
#    0.000    0.000    0.000    0.000    0.000    0.000 
#
# Total GULP energy -156084.685993 kJ/mol
# GULP energy per Si atom -5574.453071 kJ/mol
# Density = 2.239730 g / cm^3
# Si number density = 22.448392 Si / 1000 Ang^3
#
#
#
# Elastic Constant Matrix: (Units=GPa)
#
#
# Indices 1 2 3 4 5 6 
#
# 1 66.5157 -4.5591 10.8582 0.0000 -8.6425 0.0000
# 2 -4.5591 62.2032 -10.9863 0.0000 8.0087 0.0000
# 3 10.8582 -10.9863 118.7121 0.0000 -4.8416 0.0000
# 4 0.0000 0.0000 0.0000 0.1463 0.0000 3.0373
# 5 -8.6425 8.0087 -4.8416 0.0000 49.1880 0.0000
# 6 0.0000 0.0000 0.0000 3.0373 0.0000 -2.0368
#
#
#
# Elastic Compliance Matrix: (Units=1/GPa)
#
#
# Indices 1 2 3 4 5 6 
#
# 1 0.015610 0.000595 -0.001270 0.000000 0.002521 0.000000
# 2 0.000595 0.016684 0.001389 0.000000 -0.002475 0.000000
# 3 -0.001270 0.001389 0.008685 0.000000 0.000406 0.000000
# 4 0.000000 0.000000 0.000000 0.213867 0.000000 0.318933
# 5 0.002521 -0.002475 0.000406 0.000000 0.021216 0.000000
# 6 0.000000 0.000000 0.000000 0.318933 0.000000 -0.015362
#
#
# Mechanical properties :
#
#
# Convention : Reuss Voigt Hill
#
# Bulk Modulus (GPa) = 23.58127 26.45074 25.01601
# Shear Modulus (GPa) = 18.28774 26.26740 22.27757
#
# Velocity S-wave (km/s) = 2.85732 3.42442 3.15364
# Velocity P-wave (km/s) = 4.62743 5.23870 4.94253
#
# Compressibility (1/GPa) = 0.04240654
#
# Stress axis : x y z
#
# Youngs Moduli (GPa) = 64.06291 59.93801 115.14182
#
# Poissons Ratio (x) = -0.03568 0.14621
# Poissons Ratio (y) = -0.03813 -0.15989
# Poissons Ratio (z) = 0.08135 -0.08323
#
# Static dielectric constant tensor:
#      x y z
#    x 1.893530 0.000000 -0.028730 
#    y 0.000000 1.861110 0.000000 
#    z -0.028730 0.000000 1.840030 
# 
# From -- ./inp_files/251023.got.cif
#   From: 2010.05.17/outbox.cif.g08.bks.cpg/sg12_126_cif.got.tgz:251023.got - 2010.06.03 13:09:07.
