data_PCOD9196708
_publ_section_title
;
Structure prediction by ZEFSAII (Michael W. Deem and Ramdas Pophale) SiO2 
 PCOD9196708
Probable space group: C 2/M
;
_chemical_formula_sum "Si O2"
_cell_formula_units_Z 56
_cell_length_a 28.203650
_cell_length_b 8.072267
_cell_length_c 14.054452
_cell_angle_alpha 90.000000
_cell_angle_beta 59.949777
_cell_angle_gamma 90.000000
_cell_volume 2769.653073
_symmetry_space_group_name_H-M "C 2/M"
_symmetry_group_IT_number 12
_symmetry_cell_setting 'monoclinic'
loop_
_space_group_symop_operation_xyz
x,y,z
-x,y,-z
-x,-y,-z
x,-y,z
1/2+x,1/2+y,z
1/2-x,1/2+y,-z
1/2-x,1/2-y,-z
1/2+x,1/2-y,z
loop_
_atom_site_type_symbol
_atom_site_label
_atom_site_fract_x
_atom_site_fract_y
_atom_site_fract_z
Si Si1 0.236528 0.801583 0.120805
Si Si2 0.191326 0.804175 0.599344
Si Si3 0.832356 0.302086 0.163084
Si Si4 0.117441 0.300706 0.312673
Si Si5 0.523101 0.202710 0.263334
Si Si6 0.402950 0.799439 0.452055
Si Si7 0.548255 0.202867 0.022449
O O1 0.283700 0.737082 0.144784
O O2 0.177058 0.741330 0.213022
O O3 0.236385 0.000000 0.125684
O O4 0.250000 0.750000 0.000000
O O5 0.250000 0.750000 0.500000
O O6 0.180014 0.729829 0.714474
O O7 0.143993 0.753419 0.573514
O O8 0.191449 0.000000 0.609424
O O9 0.833986 0.500000 0.147399
O O10 0.892251 0.239130 0.072539
O O11 0.112792 0.500000 0.320396
O O12 0.069782 0.240834 0.289783
O O13 0.109318 0.239661 0.428647
O O14 0.462817 0.255690 0.356881
O O15 0.523370 0.000000 0.263601
O O16 0.536330 0.254488 0.142494
O O17 0.403513 0.000000 0.453160
O O18 0.548453 0.000000 0.021147
O O19 0.500000 0.256016 0.000000
#
# Coordination Sequence:
#
# PCOD9196708 Si02
#       7
#     8   8   8   8   8   8   8
#     4  11  23  38  58  83 114 152 191 235 286 340
#     4  12  25  40  59  83 113 149 189 235 287 342
#     4  10  21  38  59  84 114 149 191 236 282 334
#     4  10  20  35  57  85 115 149 192 238 282 332
#     4   9  17  32  56  86 117 149 188 232 277 329
#     4  10  20  36  60  87 115 148 188 235 284 335
#     4   9  16  28  52  83 111 142 182 229 277 326
#
# _framework density 20.219138999999998
#
# number of rings (size 3 to 8) (size 9 to 14) (size 15 to 20)
#    0.000    1.857    0.000    4.714    0.000   10.286 
#    0.000    0.714    0.000    5.571    0.000    0.000 
#    0.000    0.000    0.000    0.000    0.000    0.000 
#
# Total GULP energy -156511.755717 kJ/mol
# GULP energy per Si atom -5589.705561 kJ/mol
# Density = 2.017312 g / cm^3
# Si number density = 20.219139 Si / 1000 Ang^3
#
#
#
# Elastic Constant Matrix: (Units=GPa)
#
#
# Indices 1 2 3 4 5 6 
#
# 1 226.0358 -6.6016 108.7808 0.0000 -1.4409 0.0000
# 2 -6.6016 0.6675 -26.2812 0.0000 -1.6231 0.0001
# 3 108.7808 -26.2812 170.7422 0.0000 -4.0428 0.0000
# 4 0.0000 0.0000 0.0000 19.3094 0.0000 -4.3232
# 5 -1.4409 -1.6231 -4.0428 0.0000 46.6149 0.0000
# 6 0.0000 0.0001 0.0000 -4.3232 0.0000 22.3589
#
#
#
# Elastic Compliance Matrix: (Units=1/GPa)
#
#
# Indices 1 2 3 4 5 6 
#
# 1 0.005361 0.015681 -0.000987 0.000000 0.000626 0.000000
# 2 0.015681 -0.240981 -0.047368 0.000000 -0.012014 0.000001
# 3 -0.000987 -0.047368 -0.000847 0.000000 -0.001753 0.000000
# 4 0.000000 0.000000 0.000000 0.054132 0.000000 0.010467
# 5 0.000626 -0.012014 -0.001753 0.000000 0.020901 0.000000
# 6 0.000000 0.000001 0.000000 0.010467 0.000000 0.046749
#
#
# Mechanical properties :
#
#
# Convention : Reuss Voigt Hill
#
# Bulk Modulus (GPa) = -3.31330 61.02683 28.85677
# Shear Modulus (GPa) = -33.34591 39.09315 2.87362
#
# Velocity S-wave (km/s) = -4.06547 4.40190 1.19345
# Velocity P-wave (km/s) = 4.86617 7.48891 4.02518
#
# Compressibility (1/GPa) = -0.30181426
#
# Stress axis : x y z
#
# Youngs Moduli (GPa) = 186.52978 -4.14970 -1180.80609
#
# Poissons Ratio (x) = 0.06507 -1.16550
# Poissons Ratio (y) = -2.92501 -55.93209
# Poissons Ratio (z) = 0.18411 -0.19656
#
# Static dielectric constant tensor:
#      x y z
#    x 1.679510 0.000000 0.030640 
#    y 0.000000 1.742340 0.000000 
#    z 0.030640 0.000000 1.622030 
# 
# From -- ./inp_files/180710.got.cif
#   From: 2010.05.17/outbox.cif.g08.bks.cpg/sg12_91_cif.got.tgz:180710.got - 2010.06.03 13:09:07.
