data_PCOD9196182
_publ_section_title
;
Structure prediction by ZEFSAII (Michael W. Deem and Ramdas Pophale) SiO2 
 PCOD9196182
Probable space group: C 2/M
;
_chemical_formula_sum "Si O2"
_cell_formula_units_Z 64
_cell_length_a 25.772848
_cell_length_b 7.672345
_cell_length_c 29.415193
_cell_angle_alpha 90.000000
_cell_angle_beta 149.980093
_cell_angle_gamma 90.000000
_cell_volume 2910.003364
_symmetry_space_group_name_H-M "C 2/M"
_symmetry_group_IT_number 12
_symmetry_cell_setting 'monoclinic'
loop_
_space_group_symop_operation_xyz
x,y,z
-x,y,-z
-x,-y,-z
x,-y,z
1/2+x,1/2+y,z
1/2-x,1/2+y,-z
1/2-x,1/2-y,-z
1/2+x,1/2-y,z
loop_
_atom_site_type_symbol
_atom_site_label
_atom_site_fract_x
_atom_site_fract_y
_atom_site_fract_z
Si Si1 0.075651 0.198218 0.519697
Si Si2 0.397278 0.285577 0.708169
Si Si3 0.953041 0.790029 0.852529
Si Si4 0.827177 0.300764 0.496645
Si Si5 0.995876 0.797748 0.693162
Si Si6 0.230043 0.294610 0.707759
Si Si7 0.909244 0.295387 0.963557
Si Si8 0.178747 0.788920 0.767796
O O1 0.095630 0.291864 0.487912
O O2 0.182209 0.198003 0.628606
O O3 0.000000 0.279404 0.500000
O O4 0.041106 0.000000 0.483842
O O5 0.393442 0.500000 0.706206
O O6 0.432564 0.231677 0.785248
O O7 0.282125 0.228993 0.604723
O O8 0.474941 0.225752 0.727397
O O9 0.849736 0.740802 0.802620
O O10 0.960305 0.000000 0.857504
O O11 0.050654 0.722261 0.954497
O O12 0.810672 0.500000 0.497849
O O13 0.887524 0.210617 0.583373
O O14 0.087244 0.722266 0.731052
O O15 0.022197 0.000000 0.719754
O O16 0.227794 0.500000 0.695577
O O17 0.168175 0.259877 0.706904
O O18 0.901815 0.500000 0.946633
O O19 0.793417 0.224255 0.868964
O O20 0.000000 0.218520 0.000000
O O21 0.176463 0.000000 0.767806
#
# Coordination Sequence:
#
# PCOD9196182 Si02
#       8
#     8   8   8   8   8   8   8   8
#     4  11  23  36  51  76 112 151 188 223 269 332
#     4   9  19  38  59  80 110 147 187 228 273 326
#     4  10  20  36  57  82 109 140 181 225 275 331
#     4  11  21  36  57  82 113 144 185 235 276 321
#     4  10  21  38  59  80 108 149 190 227 272 329
#     4  11  21  34  55  81 111 144 179 225 279 327
#     4  10  20  35  56  82 112 144 180 226 275 325
#     4  10  21  37  56  81 113 147 184 225 276 335
#
# _framework density 21.993102
#
# number of rings (size 3 to 8) (size 9 to 14) (size 15 to 20)
#    0.000    1.750    2.500    2.250    0.000    5.750 
#    0.000    1.875    0.000    0.000    0.000    0.000 
#    0.000    0.000    0.000    0.000    0.000    0.000 
#
# Total GULP energy -178759.631828 kJ/mol
# GULP energy per Si atom -5586.238495 kJ/mol
# Density = 2.194304 g / cm^3
# Si number density = 21.993102 Si / 1000 Ang^3
#
#
#
# Elastic Constant Matrix: (Units=GPa)
#
#
# Indices 1 2 3 4 5 6 
#
# 1 148.7848 2.2712 35.5181 0.0000 -4.8280 0.0004
# 2 2.2712 46.3931 -2.9477 0.0020 6.3649 0.0004
# 3 35.5181 -2.9477 84.5312 -0.0003 -8.3795 0.0002
# 4 0.0000 0.0020 -0.0003 19.4007 -0.0003 -3.6623
# 5 -4.8280 6.3649 -8.3795 -0.0003 22.9126 0.0000
# 6 0.0004 0.0004 0.0002 -3.6623 0.0000 8.1476
#
#
#
# Elastic Compliance Matrix: (Units=1/GPa)
#
#
# Indices 1 2 3 4 5 6 
#
# 1 0.007494 -0.000650 -0.003110 0.000000 0.000622 0.000000
# 2 -0.000650 0.022468 0.000440 -0.000003 -0.006217 -0.000002
# 3 -0.003110 0.000440 0.013567 0.000000 0.004184 0.000000
# 4 0.000000 -0.000003 0.000000 0.056324 0.000002 0.025318
# 5 0.000622 -0.006217 0.004184 0.000002 0.047033 0.000001
# 6 0.000000 -0.000002 0.000000 0.025318 0.000001 0.134116
#
#
# Mechanical properties :
#
#
# Convention : Reuss Voigt Hill
#
# Bulk Modulus (GPa) = 27.10798 38.82136 32.96467
# Shear Modulus (GPa) = 16.67027 26.41667 21.54347
#
# Velocity S-wave (km/s) = 2.75613 3.46950 3.13318
# Velocity P-wave (km/s) = 4.74139 5.80860 5.30191
#
# Compressibility (1/GPa) = 0.03688950
#
# Stress axis : x y z
#
# Youngs Moduli (GPa) = 133.44803 44.50834 73.71019
#
# Poissons Ratio (x) = 0.02892 0.22921
# Poissons Ratio (y) = 0.08671 -0.03245
# Poissons Ratio (z) = 0.41497 -0.01959
#
# Static dielectric constant tensor:
#      x y z
#    x 1.813660 0.000000 0.036010 
#    y 0.000000 1.804590 0.000000 
#    z 0.036010 0.000000 1.827490 
# 
# From -- ./inp_files/243939.got.cif
#   From: 2010.05.17/outbox.cif.g08.bks.cpg/sg12_122_cif.got.tgz:243939.got - 2010.06.03 13:09:07.
