data_PCOD9196611
_publ_section_title
;
Structure prediction by ZEFSAII (Michael W. Deem and Ramdas Pophale) SiO2 
 PCOD9196611
Probable space group: C 2/M
;
_chemical_formula_sum "Si O2"
_cell_formula_units_Z 56
_cell_length_a 15.342389
_cell_length_b 7.678042
_cell_length_c 25.438926
_cell_angle_alpha 90.000000
_cell_angle_beta 118.763351
_cell_angle_gamma 90.000000
_cell_volume 2626.944944
_symmetry_space_group_name_H-M "C 2/M"
_symmetry_group_IT_number 12
_symmetry_cell_setting 'monoclinic'
loop_
_space_group_symop_operation_xyz
x,y,z
-x,y,-z
-x,-y,-z
x,-y,z
1/2+x,1/2+y,z
1/2-x,1/2+y,-z
1/2-x,1/2-y,-z
1/2+x,1/2-y,z
loop_
_atom_site_type_symbol
_atom_site_label
_atom_site_fract_x
_atom_site_fract_y
_atom_site_fract_z
Si Si1 0.503560 0.204467 0.155504
Si Si2 0.174168 0.709495 0.629465
Si Si3 0.686969 0.701161 0.416664
Si Si4 0.117189 0.704835 0.288396
Si Si5 0.279142 0.707702 0.068412
Si Si6 0.081209 0.286507 0.066935
Si Si7 0.536294 0.294266 0.454953
O O1 0.547468 0.277057 0.222491
O O2 0.385665 0.218970 0.115057
O O3 0.551394 0.276736 0.115951
O O4 0.530149 0.000000 0.164589
O O5 0.173253 0.500000 0.628375
O O6 0.214277 0.775284 0.583192
O O7 0.265823 0.769133 0.692368
O O8 0.064670 0.775529 0.608545
O O9 0.706675 0.500000 0.434317
O O10 0.612587 0.709418 0.344680
O O11 0.630170 0.780270 0.449941
O O12 0.098632 0.500000 0.290870
O O13 0.285626 0.500000 0.074680
O O14 0.189418 0.769453 0.079219
O O15 0.250000 0.750000 0.000000
O O16 0.079346 0.500000 0.066824
O O17 0.000000 0.232710 0.000000
O O18 0.500000 0.215313 0.500000
O O19 0.554096 0.500000 0.467443
#
# Coordination Sequence:
#
# PCOD9196611 Si02
#       7
#     8   8   8   8   8   8   8
#     4  10  20  37  57  77 104 136 180 224 262 317
#     4   9  19  36  55  77 109 142 176 219 268 314
#     4   8  18  36  54  76 109 141 172 216 269 316
#     4   9  18  35  58  78 103 142 183 222 267 317
#     4  11  21  34  55  79 106 139 176 217 269 320
#     4   9  17  33  55  75 102 140 173 208 262 324
#     4  10  20  35  57  84 110 140 180 221 263 318
#
# _framework density 21.317539
#
# number of rings (size 3 to 8) (size 9 to 14) (size 15 to 20)
#    0.857    1.714    1.429    0.857    0.000    2.571 
#    2.571    2.143    0.000    0.000    0.000    0.000 
#    0.000    0.000    0.000    0.000    0.000    0.000 
#
# Total GULP energy -156011.077269 kJ/mol
# GULP energy per Si atom -5571.824188 kJ/mol
# Density = 2.126902 g / cm^3
# Si number density = 21.317539 Si / 1000 Ang^3
#
#
#
# Elastic Constant Matrix: (Units=GPa)
#
#
# Indices 1 2 3 4 5 6 
#
# 1 114.5760 2.5461 15.6065 0.0000 5.7036 0.0000
# 2 2.5461 50.9884 0.9677 0.0000 -4.5509 0.0000
# 3 15.6065 0.9677 105.4149 0.0000 -0.9169 0.0000
# 4 0.0000 0.0000 0.0000 17.7670 0.0000 8.8390
# 5 5.7036 -4.5509 -0.9169 0.0000 23.6023 0.0000
# 6 0.0000 0.0000 0.0000 8.8390 0.0000 12.3842
#
#
#
# Elastic Compliance Matrix: (Units=1/GPa)
#
#
# Indices 1 2 3 4 5 6 
#
# 1 0.009044 -0.000637 -0.001354 0.000000 -0.002361 0.000000
# 2 -0.000637 0.020003 -0.000054 0.000000 0.004009 0.000000
# 3 -0.001354 -0.000054 0.009693 0.000000 0.000693 0.000000
# 4 0.000000 0.000000 0.000000 0.087273 0.000000 -0.062290
# 5 -0.002361 0.004009 0.000693 0.000000 0.043739 0.000000
# 6 0.000000 0.000000 0.000000 -0.062290 0.000000 0.125207
#
#
# Mechanical properties :
#
#
# Convention : Reuss Voigt Hill
#
# Bulk Modulus (GPa) = 28.85958 34.35777 31.60868
# Shear Modulus (GPa) = 16.09793 27.54131 21.81962
#
# Velocity S-wave (km/s) = 2.75098 3.59828 3.20277
# Velocity P-wave (km/s) = 4.86393 5.78062 5.34198
#
# Compressibility (1/GPa) = 0.03465054
#
# Stress axis : x y z
#
# Youngs Moduli (GPa) = 110.57200 49.99273 103.16451
#
# Poissons Ratio (x) = 0.03183 0.13965
# Poissons Ratio (y) = 0.07039 0.00562
# Poissons Ratio (z) = 0.14967 0.00272
#
# Static dielectric constant tensor:
#      x y z
#    x 1.785320 0.000000 -0.022500 
#    y 0.000000 1.790680 0.000000 
#    z -0.022500 0.000000 1.813460 
# 
# From -- ./inp_files/375150.got.cif
#   From: 2010.05.17/outbox.cif.g08.bks.cpg/sg12_188_cif.got.tgz:375150.got - 2010.06.03 13:09:07.
