data_PCOD9196454
_publ_section_title
;
Structure prediction by ZEFSAII (Michael W. Deem and Ramdas Pophale) SiO2 
 PCOD9196454
Probable space group: C 2/M
;
_chemical_formula_sum "Si O2"
_cell_formula_units_Z 56
_cell_length_a 26.694679
_cell_length_b 7.569253
_cell_length_c 18.713619
_cell_angle_alpha 90.000000
_cell_angle_beta 43.257723
_cell_angle_gamma 90.000000
_cell_volume 2591.220086
_symmetry_space_group_name_H-M "C 2/M"
_symmetry_group_IT_number 12
_symmetry_cell_setting 'monoclinic'
loop_
_space_group_symop_operation_xyz
x,y,z
-x,y,-z
-x,-y,-z
x,-y,z
1/2+x,1/2+y,z
1/2-x,1/2+y,-z
1/2-x,1/2-y,-z
1/2+x,1/2-y,z
loop_
_atom_site_type_symbol
_atom_site_label
_atom_site_fract_x
_atom_site_fract_y
_atom_site_fract_z
Si Si1 0.079044 0.786711 0.887403
Si Si2 0.426979 0.286328 0.536057
Si Si3 0.177540 0.212933 0.225531
Si Si4 0.167533 0.794061 0.495541
Si Si5 0.831362 0.292757 0.344382
Si Si6 0.655758 0.297708 0.945567
Si Si7 0.662901 0.288479 0.089386
O O1 0.108856 0.728233 0.779701
O O2 0.131866 0.719079 0.895506
O O3 0.080005 0.000000 0.881960
O O4 0.000000 0.734266 0.000000
O O5 0.500000 0.219185 0.500000
O O6 0.437837 0.500000 0.517727
O O7 0.364461 0.249708 0.658941
O O8 0.394278 0.221224 0.494221
O O9 0.257003 0.296829 0.143978
O O10 0.136603 0.269526 0.194865
O O11 0.187057 0.000000 0.211046
O O12 0.147733 0.783473 0.599923
O O13 0.251008 0.720409 0.403896
O O14 0.173937 0.000000 0.468508
O O15 0.820898 0.500000 0.368420
O O16 0.628232 0.500000 0.973579
O O17 0.632507 0.216106 0.046057
O O18 0.653777 0.500000 0.095046
O O19 0.750000 0.250000 0.000000
#
# Coordination Sequence:
#
# PCOD9196454 Si02
#       7
#     8   8   8   8   8   8   8
#     4  10  21  36  51  74 107 138 172 213 261 317
#     4   9  17  30  48  76 106 132 168 210 253 304
#     4   9  16  28  48  72  98 127 165 206 243 288
#     4   9  18  34  56  81 107 137 177 223 266 310
#     4  10  20  35  57  81 105 135 178 225 267 312
#     4   9  17  30  48  70  97 128 166 205 245 295
#     4   8  14  25  42  66  92 119 152 192 234 279
#
# _framework density 21.611440999999999
#
# number of rings (size 3 to 8) (size 9 to 14) (size 15 to 20)
#    0.000    2.857    0.000    1.286    0.000    2.571 
#    2.571    0.714    0.000    1.714    0.000    0.000 
#    0.000    0.000    0.000    0.000    0.000    0.000 
#
# Total GULP energy -155903.892878 kJ/mol
# GULP energy per Si atom -5567.996174 kJ/mol
# Density = 2.156225 g / cm^3
# Si number density = 21.611441 Si / 1000 Ang^3
#
#
#
# Elastic Constant Matrix: (Units=GPa)
#
#
# Indices 1 2 3 4 5 6 
#
# 1 133.1106 6.5448 60.4242 -0.0088 27.3647 -0.0049
# 2 6.5448 46.2265 -0.2915 -0.0084 0.1445 -0.0045
# 3 60.4242 -0.2915 76.6339 -0.0066 24.3548 0.0043
# 4 -0.0088 -0.0084 -0.0066 20.5242 0.0011 2.7506
# 5 27.3647 0.1445 24.3548 0.0011 25.5827 -0.0014
# 6 -0.0049 -0.0045 0.0043 2.7506 -0.0014 8.0018
#
#
#
# Elastic Compliance Matrix: (Units=1/GPa)
#
#
# Indices 1 2 3 4 5 6 
#
# 1 0.012380 -0.001785 -0.007976 0.000001 -0.005639 0.000010
# 2 -0.001785 0.021892 0.001324 0.000008 0.000526 0.000008
# 3 -0.007976 0.001324 0.023850 0.000008 -0.014181 -0.000022
# 4 0.000001 0.000008 0.000008 0.051076 -0.000012 -0.017557
# 5 -0.005639 0.000526 -0.014181 -0.000012 0.058618 0.000019
# 6 0.000010 0.000008 -0.000022 -0.017557 0.000019 0.131006
#
#
# Mechanical properties :
#
#
# Convention : Reuss Voigt Hill
#
# Bulk Modulus (GPa) = 24.24424 43.25846 33.75135
# Shear Modulus (GPa) = 15.17693 23.44131 19.30912
#
# Velocity S-wave (km/s) = 2.65290 3.29701 2.99234
# Velocity P-wave (km/s) = 4.54163 5.87823 5.25262
#
# Compressibility (1/GPa) = 0.04124691
#
# Stress axis : x y z
#
# Youngs Moduli (GPa) = 80.77283 45.67856 41.92876
#
# Poissons Ratio (x) = 0.08156 0.33444
# Poissons Ratio (y) = 0.14422 -0.05551
# Poissons Ratio (z) = 0.64427 -0.06048
#
# Static dielectric constant tensor:
#      x y z
#    x 1.884450 0.000040 -0.014410 
#    y 0.000040 1.837590 -0.000030 
#    z -0.014410 -0.000030 1.812420 
# 
# From -- ./inp_files/291861.got.cif
#   From: 2010.05.17/outbox.cif.g08.bks.cpg/sg12_146_cif.got.tgz:291861.got - 2010.06.03 13:09:07.
