data_PCOD9196263
_publ_section_title
;
Structure prediction by ZEFSAII (Michael W. Deem and Ramdas Pophale) SiO2 
 PCOD9196263
Probable space group: C 2/M
;
_chemical_formula_sum "Si O2"
_cell_formula_units_Z 48
_cell_length_a 19.012118
_cell_length_b 8.569747
_cell_length_c 15.904817
_cell_angle_alpha 90.000000
_cell_angle_beta 89.805532
_cell_angle_gamma 90.000000
_cell_volume 2591.341658
_symmetry_space_group_name_H-M "C 2/M"
_symmetry_group_IT_number 12
_symmetry_cell_setting 'monoclinic'
loop_
_space_group_symop_operation_xyz
x,y,z
-x,y,-z
-x,-y,-z
x,-y,z
1/2+x,1/2+y,z
1/2-x,1/2+y,-z
1/2-x,1/2-y,-z
1/2+x,1/2-y,z
loop_
_atom_site_type_symbol
_atom_site_label
_atom_site_fract_x
_atom_site_fract_y
_atom_site_fract_z
Si Si1 0.291495 0.687004 0.919897
Si Si2 0.707216 0.812463 0.580218
Si Si3 0.043991 0.311441 0.581840
Si Si4 0.206215 0.686194 0.262706
Si Si5 0.044664 0.810769 0.077921
Si Si6 0.047417 0.187618 0.265094
O O1 0.285864 0.500000 0.915244
O O2 0.269925 0.757493 0.829945
O O3 0.373507 0.728997 0.931412
O O4 0.250000 0.750000 0.000000
O O5 0.750000 0.750000 0.500000
O O6 0.625448 0.762743 0.576395
O O7 0.743977 0.751640 0.664643
O O8 0.709287 0.000000 0.579272
O O9 0.042446 0.500000 0.584996
O O10 0.000000 0.261692 0.500000
O O11 0.004762 0.246963 0.663615
O O12 0.205446 0.500000 0.265804
O O13 0.126579 0.748326 0.276819
O O14 0.022667 0.761802 0.171757
O O15 0.039931 0.000000 0.076623
O O16 0.000000 0.749615 0.000000
O O17 0.051248 0.000000 0.266701
#
# Coordination Sequence:
#
# PCOD9196263 Si02
#       6
#     8   8   8   8   8   8
#     4  10  20  35  56  83 114 148 188 235 287 341
#     4  11  23  39  60  87 118 149 186 233 283 340
#     4  10  22  39  58  82 113 147 181 224 282 343
#     4  11  22  38  59  81 112 154 196 238 285 334
#     4   8  16  32  53  78 108 141 178 222 272 328
#     4  10  20  35  58  85 112 145 187 234 282 336
#
# _framework density 18.523222000000001
#
# number of rings (size 3 to 8) (size 9 to 14) (size 15 to 20)
#    0.000    2.000    0.000    5.000    0.000    4.333 
#    0.000    1.667    0.000   17.000    0.000    0.000 
#    0.000    0.000    0.000    0.000    0.000    0.000 
#
# Total GULP energy -134029.375455 kJ/mol
# GULP energy per Si atom -5584.557311 kJ/mol
# Density = 1.848106 g / cm^3
# Si number density = 18.523222 Si / 1000 Ang^3
#
#
#
# Elastic Constant Matrix: (Units=GPa)
#
#
# Indices 1 2 3 4 5 6 
#
# 1 129.2189 42.6940 128.4782 0.0000 0.5903 0.0000
# 2 42.6940 53.9132 50.6830 0.0000 -1.4986 0.0000
# 3 128.4782 50.6830 220.5953 0.0000 0.4400 0.0000
# 4 0.0000 0.0000 0.0000 29.2805 0.0000 -11.4602
# 5 0.5903 -1.4986 0.4400 0.0000 43.9322 0.0000
# 6 0.0000 0.0000 0.0000 -11.4602 0.0000 20.1324
#
#
#
# Elastic Compliance Matrix: (Units=1/GPa)
#
#
# Indices 1 2 3 4 5 6 
#
# 1 0.019893 -0.006215 -0.010157 0.000000 -0.000378 0.000000
# 2 -0.006215 0.025633 -0.002271 0.000000 0.000981 0.000000
# 3 -0.010157 -0.002271 0.010971 0.000000 -0.000051 0.000000
# 4 0.000000 0.000000 0.000000 0.043943 0.000000 0.025014
# 5 -0.000378 0.000981 -0.000051 0.000000 0.022801 0.000000
# 6 0.000000 0.000000 0.000000 0.025014 0.000000 0.063910
#
#
# Mechanical properties :
#
#
# Convention : Reuss Voigt Hill
#
# Bulk Modulus (GPa) = 52.05899 94.15976 73.10937
# Shear Modulus (GPa) = 21.65980 30.79384 26.22682
#
# Velocity S-wave (km/s) = 3.42326 4.08173 3.76691
# Velocity P-wave (km/s) = 6.61745 8.55323 7.64684
#
# Compressibility (1/GPa) = 0.01920898
#
# Stress axis : x y z
#
# Youngs Moduli (GPa) = 50.26853 39.01264 91.14967
#
# Poissons Ratio (x) = 0.24247 0.92584
# Poissons Ratio (y) = 0.31243 0.20704
# Poissons Ratio (z) = 0.51060 0.08861
#
# Static dielectric constant tensor:
#      x y z
#    x 1.614860 0.000000 0.011980 
#    y 0.000000 1.628480 0.000000 
#    z 0.011980 0.000000 1.627280 
# 
# From -- ./inp_files/221573.got.cif
#   From: 2010.05.17/outbox.cif.g08.bks.cpg/sg12_111_cif.got.tgz:221573.got - 2010.06.03 13:09:07.
