data_PCOD9196591
_publ_section_title
;
Structure prediction by ZEFSAII (Michael W. Deem and Ramdas Pophale) SiO2 
 PCOD9196591
Probable space group: C 2/M
;
_chemical_formula_sum "Si O2"
_cell_formula_units_Z 64
_cell_length_a 15.506241
_cell_length_b 7.808968
_cell_length_c 26.537253
_cell_angle_alpha 90.000000
_cell_angle_beta 106.895003
_cell_angle_gamma 90.000000
_cell_volume 3074.644978
_symmetry_space_group_name_H-M "C 2/M"
_symmetry_group_IT_number 12
_symmetry_cell_setting 'monoclinic'
loop_
_space_group_symop_operation_xyz
x,y,z
-x,y,-z
-x,-y,-z
x,-y,z
1/2+x,1/2+y,z
1/2-x,1/2+y,-z
1/2-x,1/2-y,-z
1/2+x,1/2-y,z
loop_
_atom_site_type_symbol
_atom_site_label
_atom_site_fract_x
_atom_site_fract_y
_atom_site_fract_z
Si Si1 0.247077 0.793530 0.440495
Si Si2 0.011267 0.793741 0.753971
Si Si3 0.762322 0.312326 0.058824
Si Si4 0.071002 0.700948 0.055007
Si Si5 0.441704 0.206912 0.441980
Si Si6 0.701986 0.206898 0.829510
Si Si7 0.402962 0.707185 0.833357
Si Si8 0.558208 0.294553 0.365317
O O1 0.250000 0.750000 0.500000
O O2 0.339334 0.731620 0.430726
O O3 0.155911 0.727396 0.399303
O O4 0.246070 0.000000 0.436623
O O5 0.115271 0.751050 0.782182
O O6 0.950101 0.731768 0.790315
O O7 0.976091 0.728280 0.694255
O O8 0.004106 0.000000 0.752226
O O9 0.803420 0.500000 0.060665
O O10 0.660031 0.311482 0.061693
O O11 0.810153 0.223921 0.114891
O O12 0.750000 0.250000 0.000000
O O13 0.093725 0.500000 0.052505
O O14 0.043234 0.731653 0.107860
O O15 0.000000 0.745988 0.000000
O O16 0.500000 0.267180 0.500000
O O17 0.488585 0.258579 0.398277
O O18 0.440942 0.000000 0.443761
O O19 0.798457 0.264388 0.823087
O O20 0.707195 0.000000 0.834320
O O21 0.403222 0.500000 0.833147
O O22 0.566207 0.500000 0.362179
#
# Coordination Sequence:
#
# PCOD9196591 Si02
#       8
#     8   8   8   8   8   8   8   8
#     4  10  20  35  57  83 115 152 185 228 281 330
#     4  10  22  39  59  83 112 149 195 235 277 337
#     4  10  21  36  55  81 113 145 183 231 287 350
#     4  10  21  35  53  81 114 145 182 233 285 340
#     4  10  20  35  57  86 117 149 188 233 279 332
#     4   9  20  38  58  81 110 146 188 233 285 339
#     4   9  20  39  59  80 109 149 191 235 285 345
#     4  10  22  38  56  84 117 151 191 232 278 337
#
# _framework density 20.81541
#
# number of rings (size 3 to 8) (size 9 to 14) (size 15 to 20)
#    0.000    2.250    1.250    1.500    1.750    6.250 
#    0.000    2.500    0.000    0.000    0.000    0.000 
#    0.000    0.000    0.000    0.000    0.000    0.000 
#
# Total GULP energy -178552.422143 kJ/mol
# GULP energy per Si atom -5579.763192 kJ/mol
# Density = 2.076803 g / cm^3
# Si number density = 20.815410 Si / 1000 Ang^3
#
#
#
# Elastic Constant Matrix: (Units=GPa)
#
#
# Indices 1 2 3 4 5 6 
#
# 1 133.8735 3.8046 98.2311 0.0000 3.5050 0.0000
# 2 3.8046 24.8791 6.5055 0.0000 1.7220 0.0000
# 3 98.2311 6.5055 216.6080 0.0000 4.4388 0.0000
# 4 0.0000 0.0000 0.0000 20.7260 0.0000 2.7872
# 5 3.5050 1.7220 4.4388 0.0000 36.3281 0.0000
# 6 0.0000 0.0000 0.0000 2.7872 0.0000 18.9247
#
#
#
# Elastic Compliance Matrix: (Units=1/GPa)
#
#
# Indices 1 2 3 4 5 6 
#
# 1 0.011206 -0.000359 -0.005062 0.000000 -0.000446 0.000000
# 2 -0.000359 0.040639 -0.001021 0.000000 -0.001767 0.000000
# 3 -0.005062 -0.001021 0.006949 0.000000 -0.000312 0.000000
# 4 0.000000 0.000000 0.000000 0.049224 0.000000 -0.007250
# 5 -0.000446 -0.001767 -0.000312 0.000000 0.027692 0.000000
# 6 0.000000 0.000000 0.000000 -0.007250 0.000000 0.053909
#
#
# Mechanical properties :
#
#
# Convention : Reuss Voigt Hill
#
# Bulk Modulus (GPa) = 21.78237 65.82700 43.80468
# Shear Modulus (GPa) = 22.95624 32.98373 27.96998
#
# Velocity S-wave (km/s) = 3.32452 3.98500 3.66965
# Velocity P-wave (km/s) = 5.02233 7.27093 6.24861
#
# Compressibility (1/GPa) = 0.04590869
#
# Stress axis : x y z
#
# Youngs Moduli (GPa) = 89.23929 24.60715 143.90014
#
# Poissons Ratio (x) = 0.00884 0.72841
# Poissons Ratio (y) = 0.03205 0.14698
# Poissons Ratio (z) = 0.45172 0.02513
#
# Static dielectric constant tensor:
#      x y z
#    x 1.734610 0.000000 -0.001870 
#    y 0.000000 1.776820 0.000000 
#    z -0.001870 0.000000 1.760900 
# 
# From -- ./inp_files/359971.got.cif
#   From: 2010.05.17/outbox.cif.g08.bks.cpg/sg12_180_cif.got.tgz:359971.got - 2010.06.03 13:09:07.
