data_PCOD9196490
_publ_section_title
;
Structure prediction by ZEFSAII (Michael W. Deem and Ramdas Pophale) SiO2 
 PCOD9196490
Probable space group: C 2/M
;
_chemical_formula_sum "Si O2"
_cell_formula_units_Z 48
_cell_length_a 8.100849
_cell_length_b 12.725095
_cell_length_c 22.264690
_cell_angle_alpha 90.000000
_cell_angle_beta 103.113113
_cell_angle_gamma 90.000000
_cell_volume 2235.287152
_symmetry_space_group_name_H-M "C 2/M"
_symmetry_group_IT_number 12
_symmetry_cell_setting 'monoclinic'
loop_
_space_group_symop_operation_xyz
x,y,z
-x,y,-z
-x,-y,-z
x,-y,z
1/2+x,1/2+y,z
1/2-x,1/2+y,-z
1/2-x,1/2-y,-z
1/2+x,1/2-y,z
loop_
_atom_site_type_symbol
_atom_site_label
_atom_site_fract_x
_atom_site_fract_y
_atom_site_fract_z
Si Si1 0.054647 0.385236 0.298789
Si Si2 0.098297 0.804374 0.858291
Si Si3 0.709741 0.306706 0.235166
Si Si4 0.690984 0.661786 0.579547
Si Si5 0.555862 0.117350 0.073628
Si Si6 0.309053 0.614893 0.561788
O O1 0.089277 0.500000 0.273772
O O2 0.135472 0.288281 0.268867
O O3 0.151914 0.380353 0.369806
O O4 0.852185 0.369378 0.283203
O O5 0.192471 0.745580 0.812054
O O6 0.241068 0.870898 0.903465
O O7 0.946000 0.863740 0.811181
O O8 0.026136 0.712773 0.895646
O O9 0.509661 0.629596 0.591973
O O10 0.700043 0.623561 0.511554
O O11 0.704742 0.787912 0.578445
O O12 0.506441 0.000000 0.091348
O O13 0.500000 0.126447 0.000000
O O14 0.252138 0.500000 0.576517
#
# Coordination Sequence:
#
# PCOD9196490 Si02
#       6
#     8   8   8   8   8   8
#     4  11  21  37  57  78 109 141 179 232 274 313
#     4   9  19  37  56  79 116 145 177 227 264 312
#     4   9  21  36  54  81 105 143 190 216 263 330
#     4  10  20  35  57  82 107 140 183 224 273 340
#     4  10  20  35  59  86 111 145 183 220 270 320
#     4  10  20  37  56  78 110 143 176 222 281 334
#
# _framework density 21.473752000000001
#
# number of rings (size 3 to 8) (size 9 to 14) (size 15 to 20)
#    0.000    2.167    0.000    3.500    0.000    6.667 
#    0.000   15.833    0.000    9.000    0.000    0.000 
#    0.000    0.000    0.000    0.000    0.000    0.000 
#
# Total GULP energy -133960.157656 kJ/mol
# GULP energy per Si atom -5581.673236 kJ/mol
# Density = 2.142488 g / cm^3
# Si number density = 21.473752 Si / 1000 Ang^3
#
#
#
# Elastic Constant Matrix: (Units=GPa)
#
#
# Indices 1 2 3 4 5 6 
#
# 1 62.4123 10.6011 41.9622 0.0000 31.2509 0.0000
# 2 10.6011 127.3641 16.1584 0.0000 6.4232 0.0000
# 3 41.9622 16.1584 97.2720 0.0000 46.2318 0.0000
# 4 0.0000 0.0000 0.0000 -28.6087 0.0000 -6.9024
# 5 31.2509 6.4232 46.2318 0.0000 43.0944 0.0000
# 6 0.0000 0.0000 0.0000 -6.9024 0.0000 19.6336
#
#
#
# Elastic Compliance Matrix: (Units=1/GPa)
#
#
# Indices 1 2 3 4 5 6 
#
# 1 0.026241 -0.000906 -0.004467 0.000000 -0.014102 0.000000
# 2 -0.000906 0.008057 -0.001406 0.000000 0.000964 0.000000
# 3 -0.004467 -0.001406 0.022039 0.000000 -0.020195 0.000000
# 4 0.000000 0.000000 0.000000 -0.032221 0.000000 -0.011328
# 5 -0.014102 0.000964 -0.020195 0.000000 0.054952 0.000000
# 6 0.000000 0.000000 0.000000 -0.011328 0.000000 0.046951
#
#
# Mechanical properties :
#
#
# Convention : Reuss Voigt Hill
#
# Bulk Modulus (GPa) = 23.37630 47.16574 35.27102
# Shear Modulus (GPa) = 32.50203 21.37897 26.94050
#
# Velocity S-wave (km/s) = 3.89468 3.15871 3.54584
# Velocity P-wave (km/s) = 5.57982 5.94267 5.76410
#
# Compressibility (1/GPa) = 0.04277837
#
# Stress axis : x y z
#
# Youngs Moduli (GPa) = 38.10856 124.12111 45.37322
#
# Poissons Ratio (x) = 0.11248 0.20269
# Poissons Ratio (y) = 0.03453 0.06379
# Poissons Ratio (z) = 0.17024 0.17449
#
# Static dielectric constant tensor:
#      x y z
#    x 1.799300 0.000000 0.046300 
#    y 0.000000 1.741930 0.000000 
#    z 0.046300 0.000000 1.793360 
# 
# From -- ./inp_files/332267.got.cif
#   From: 2010.05.17/outbox.cif.g08.bks.cpg/sg12_167_cif.got.tgz:332267.got - 2010.06.03 13:09:07.
