data_PCOD9196833
_publ_section_title
;
Structure prediction by ZEFSAII (Michael W. Deem and Ramdas Pophale) SiO2 
 PCOD9196833
Probable space group: C 2/M
;
_chemical_formula_sum "Si O2"
_cell_formula_units_Z 40
_cell_length_a 13.306142
_cell_length_b 24.384711
_cell_length_c 7.952981
_cell_angle_alpha 90.000000
_cell_angle_beta 129.454761
_cell_angle_gamma 90.000000
_cell_volume 1992.453568
_symmetry_space_group_name_H-M "C 2/M"
_symmetry_group_IT_number 12
_symmetry_cell_setting 'monoclinic'
loop_
_space_group_symop_operation_xyz
x,y,z
-x,y,-z
-x,-y,-z
x,-y,z
1/2+x,1/2+y,z
1/2-x,1/2+y,-z
1/2-x,1/2-y,-z
1/2+x,1/2-y,z
loop_
_atom_site_type_symbol
_atom_site_label
_atom_site_fract_x
_atom_site_fract_y
_atom_site_fract_z
Si Si1 0.349802 0.108696 0.326713
Si Si2 0.109031 0.645790 0.999968
Si Si3 0.419736 0.216950 0.585199
Si Si4 0.373353 0.663304 0.485602
Si Si5 0.115665 0.939404 0.256670
O O1 0.500000 0.091776 0.500000
O O2 0.337126 0.164306 0.429406
O O3 0.248731 0.066654 0.293856
O O4 0.335452 0.119248 0.112576
O O5 0.235501 0.660867 0.241446
O O6 0.000000 0.614916 0.000000
O O7 0.019816 0.695284 0.831964
O O8 0.500000 0.226838 0.500000
O O9 0.369841 0.277457 0.574610
O O10 0.500000 0.661490 0.500000
O O11 0.387178 0.610187 0.616222
O O12 0.106943 0.000000 0.325466
O O13 0.000000 0.933226 0.000000
#
# Coordination Sequence:
#
# PCOD9196833 Si02
#       5
#     8   8   8   8   8
#     4   9  19  39  62  84 117 155 190 234 290 348
#     4  10  20  35  57  88 122 147 186 241 285 334
#     4   8  19  35  57  89 123 152 183 229 290 352
#     4  11  22  37  61  89 117 154 194 235 286 340
#     4  11  25  42  59  82 115 156 198 237 284 345
#
# _framework density 20.075751
#
# number of rings (size 3 to 8) (size 9 to 14) (size 15 to 20)
#    0.000    2.600    0.000    3.600    0.000   13.600 
#    0.000    1.000    0.000    9.600    0.000    0.000 
#    0.000    0.000    0.000    0.000    0.000    0.000 
#
# Total GULP energy -111358.373184 kJ/mol
# GULP energy per Si atom -5567.918659 kJ/mol
# Density = 2.003006 g / cm^3
# Si number density = 20.075751 Si / 1000 Ang^3
#
#
#
# Elastic Constant Matrix: (Units=GPa)
#
#
# Indices 1 2 3 4 5 6 
#
# 1 97.9859 37.0993 17.9937 0.0000 11.0442 0.0000
# 2 37.0993 116.0826 45.7761 0.0000 -4.7978 0.0000
# 3 17.9937 45.7761 81.6857 0.0000 -1.7340 0.0000
# 4 0.0000 0.0000 0.0000 -8.7592 0.0000 -21.4205
# 5 11.0442 -4.7978 -1.7340 0.0000 30.8704 0.0000
# 6 0.0000 0.0000 0.0000 -21.4205 0.0000 35.8847
#
#
#
# Elastic Compliance Matrix: (Units=1/GPa)
#
#
# Indices 1 2 3 4 5 6 
#
# 1 0.012376 -0.003912 -0.000642 0.000000 -0.005072 0.000000
# 2 -0.003912 0.012353 -0.005998 0.000000 0.002983 0.000000
# 3 -0.000642 -0.005998 0.015748 0.000000 0.000182 0.000000
# 4 0.000000 0.000000 0.000000 -0.046413 0.000000 -0.027705
# 5 -0.005072 0.002983 0.000182 0.000000 0.034682 0.000000
# 6 0.000000 0.000000 0.000000 -0.027705 0.000000 0.011329
#
#
# Mechanical properties :
#
#
# Convention : Reuss Voigt Hill
#
# Bulk Modulus (GPa) = 51.61232 55.27692 53.44462
# Shear Modulus (GPa) = 73.92489 24.59151 49.25820
#
# Velocity S-wave (km/s) = 6.07478 3.50371 4.95877
# Velocity P-wave (km/s) = 8.65843 6.63038 7.71137
#
# Compressibility (1/GPa) = 0.01937522
#
# Stress axis : x y z
#
# Youngs Moduli (GPa) = 80.80051 80.95099 63.49902
#
# Poissons Ratio (x) = 0.31667 0.04074
# Poissons Ratio (y) = 0.31609 0.38084
# Poissons Ratio (z) = 0.05185 0.48551
#
# Static dielectric constant tensor:
#      x y z
#    x 1.788440 0.000000 -0.016140 
#    y 0.000000 1.730010 0.000000 
#    z -0.016140 0.000000 1.704370 
# 
# From -- ./inp_files/66654.got.cif
#   From: 2010.05.17/outbox.cif.g08.bks.cpg/sg12_34_cif.got.tgz:66654.got - 2010.06.03 13:09:07.
