data_PCOD9196612
_publ_section_title
;
Structure prediction by ZEFSAII (Michael W. Deem and Ramdas Pophale) SiO2 
 PCOD9196612
Probable space group: C 2/M
;
_chemical_formula_sum "Si O2"
_cell_formula_units_Z 48
_cell_length_a 30.285614
_cell_length_b 8.708002
_cell_length_c 16.898692
_cell_angle_alpha 90.000000
_cell_angle_beta 37.470967
_cell_angle_gamma 90.000000
_cell_volume 2711.241320
_symmetry_space_group_name_H-M "C 2/M"
_symmetry_group_IT_number 12
_symmetry_cell_setting 'monoclinic'
loop_
_space_group_symop_operation_xyz
x,y,z
-x,y,-z
-x,-y,-z
x,-y,z
1/2+x,1/2+y,z
1/2-x,1/2+y,-z
1/2-x,1/2-y,-z
1/2+x,1/2-y,z
loop_
_atom_site_type_symbol
_atom_site_label
_atom_site_fract_x
_atom_site_fract_y
_atom_site_fract_z
Si Si1 0.027052 0.315564 0.373684
Si Si2 0.669588 0.184610 0.608570
Si Si3 0.449091 0.315578 0.333127
Si Si4 0.096675 0.816153 0.035661
Si Si5 0.328782 0.315352 0.907538
Si Si6 0.083008 0.684719 0.888492
O O1 0.029339 0.500000 0.364263
O O2 0.106695 0.249766 0.239361
O O3 0.000000 0.274241 0.500000
O O4 0.972549 0.249834 0.384731
O O5 0.750000 0.250000 0.500000
O O6 0.624332 0.249059 0.598803
O O7 0.627368 0.233382 0.748449
O O8 0.670708 0.000000 0.603282
O O9 0.446303 0.500000 0.340950
O O10 0.515526 0.271445 0.179639
O O11 0.148719 0.773328 0.034437
O O12 0.098066 0.000000 0.025868
O O13 0.114385 0.742416 0.926762
O O14 0.329044 0.500000 0.901337
O O15 0.250000 0.250000 0.000000
O O16 0.081935 0.500000 0.891130
O O17 0.000000 0.740598 0.000000
#
# Coordination Sequence:
#
# PCOD9196612 Si02
#       6
#     8   8   8   8   8   8
#     4  10  21  38  61  87 114 149 191 235 284 342
#     4  11  23  39  57  81 115 151 187 232 284 336
#     4  10  20  36  59  85 113 148 189 232 281 338
#     4   9  19  34  56  85 112 143 185 229 276 331
#     4  10  21  38  59  86 117 151 189 235 287 339
#     4  10  20  35  57  84 110 141 186 231 272 328
#
# _framework density 17.704067999999999
#
# number of rings (size 3 to 8) (size 9 to 14) (size 15 to 20)
#    0.000    2.000    1.667    3.000    0.000    6.333 
#    3.000    0.000    0.000    0.000    0.000    0.000 
#    0.000    0.000    0.000    0.000    0.000    0.000 
#
# Total GULP energy -133980.663090 kJ/mol
# GULP energy per Si atom -5582.527629 kJ/mol
# Density = 1.766377 g / cm^3
# Si number density = 17.704068 Si / 1000 Ang^3
#
#
#
# Elastic Constant Matrix: (Units=GPa)
#
#
# Indices 1 2 3 4 5 6 
#
# 1 158.0697 49.6471 96.5782 0.0006 -10.4633 -0.0004
# 2 49.6471 49.4334 45.0865 0.0008 -0.9511 -0.0022
# 3 96.5782 45.0865 124.7106 0.0006 1.5988 -0.0006
# 4 0.0006 0.0008 0.0006 27.4607 0.0004 -1.7140
# 5 -10.4633 -0.9511 1.5988 0.0004 36.3592 -0.0003
# 6 -0.0004 -0.0022 -0.0006 -1.7140 -0.0003 34.4056
#
#
#
# Elastic Compliance Matrix: (Units=1/GPa)
#
#
# Indices 1 2 3 4 5 6 
#
# 1 0.013628 -0.005868 -0.008485 0.000000 0.004141 0.000000
# 2 -0.005868 0.032766 -0.007295 -0.000001 -0.000511 0.000002
# 3 -0.008485 -0.007295 0.017271 0.000000 -0.003392 0.000000
# 4 0.000000 -0.000001 0.000000 0.036529 0.000000 0.001820
# 5 0.004141 -0.000511 -0.003392 0.000000 0.028831 0.000000
# 6 0.000000 0.000002 0.000000 0.001820 0.000000 0.029156
#
#
# Mechanical properties :
#
#
# Convention : Reuss Voigt Hill
#
# Bulk Modulus (GPa) = 49.09666 79.42638 64.26152
# Shear Modulus (GPa) = 24.00760 29.03857 26.52309
#
# Velocity S-wave (km/s) = 3.68645 4.05436 3.87477
# Velocity P-wave (km/s) = 6.77584 8.17789 7.50965
#
# Compressibility (1/GPa) = 0.02036798
#
# Stress axis : x y z
#
# Youngs Moduli (GPa) = 73.37876 30.51907 57.90144
#
# Poissons Ratio (x) = 0.17908 0.49132
# Poissons Ratio (y) = 0.43058 0.42240
# Poissons Ratio (z) = 0.62265 0.22264
#
# Static dielectric constant tensor:
#      x y z
#    x 1.592750 0.000000 0.004400 
#    y 0.000000 1.595990 0.000000 
#    z 0.004400 0.000000 1.587760 
# 
# From -- ./inp_files/244741.got.cif
#   From: 2010.05.17/outbox.cif.g08.bks.cpg/sg12_123_cif.got.tgz:244741.got - 2010.06.03 13:09:07.
