data_PCOD9196085
_publ_section_title
;
Structure prediction by ZEFSAII (Michael W. Deem and Ramdas Pophale) SiO2 
 PCOD9196085
Probable space group: C 2/M
;
_chemical_formula_sum "Si O2"
_cell_formula_units_Z 56
_cell_length_a 9.213551
_cell_length_b 25.350293
_cell_length_c 15.738234
_cell_angle_alpha 90.000000
_cell_angle_beta 56.696788
_cell_angle_gamma 90.000000
_cell_volume 3072.247672
_symmetry_space_group_name_H-M "C 2/M"
_symmetry_group_IT_number 12
_symmetry_cell_setting 'monoclinic'
loop_
_space_group_symop_operation_xyz
x,y,z
-x,y,-z
-x,-y,-z
x,-y,z
1/2+x,1/2+y,z
1/2-x,1/2+y,-z
1/2-x,1/2-y,-z
1/2+x,1/2-y,z
loop_
_atom_site_type_symbol
_atom_site_label
_atom_site_fract_x
_atom_site_fract_y
_atom_site_fract_z
Si Si1 0.331702 0.817627 0.734822
Si Si2 0.660786 0.780168 0.884820
Si Si3 0.006178 0.629223 0.170867
Si Si4 0.202783 0.939834 0.190130
Si Si5 0.184211 0.939570 0.989645
Si Si6 0.006931 0.157744 0.248599
Si Si7 0.447401 0.733288 0.427354
O O1 0.246284 0.773989 0.825775
O O2 0.461784 0.856787 0.741312
O O3 0.432528 0.783999 0.631372
O O4 0.165126 0.846094 0.750661
O O5 0.569610 0.815891 0.841590
O O6 0.828207 0.816628 0.855716
O O7 0.500000 0.771526 0.000000
O O8 0.190879 0.607487 0.079904
O O9 0.876378 0.585135 0.174997
O O10 0.057280 0.899317 0.266235
O O11 0.183930 0.000000 0.221569
O O12 0.189267 0.937704 0.091119
O O13 0.244357 0.000000 0.948756
O O14 0.000000 0.933570 0.000000
O O15 0.975396 0.196024 0.337908
O O16 0.500000 0.708364 0.500000
O O17 0.250000 0.750000 0.500000
#
# Coordination Sequence:
#
# PCOD9196085 Si02
#       7
#     8   8   8   8   8   8   8
#     4  11  23  36  53  86 117 149 192 234 281 348
#     4  10  21  34  50  75 117 159 188 225 276 339
#     4  11  21  33  53  76 112 150 193 234 281 335
#     4  10  21  37  57  80 112 149 193 241 285 335
#     4  10  20  35  56  81 108 149 200 245 286 333
#     4  10  21  37  56  85 114 147 194 233 284 344
#     4  11  22  39  65  90 117 148 187 240 291 342
#
# _framework density 18.227696000000002
#
# number of rings (size 3 to 8) (size 9 to 14) (size 15 to 20)
#    0.000    1.571    1.429    5.143    4.000    5.143 
#    0.000    0.714    0.000    0.429    0.000    1.000 
#    0.000    0.000    0.000    0.000    0.000    0.000 
#
# Total GULP energy -156014.295986 kJ/mol
# GULP energy per Si atom -5571.939142 kJ/mol
# Density = 1.818621 g / cm^3
# Si number density = 18.227696 Si / 1000 Ang^3
#
#
#
# Elastic Constant Matrix: (Units=GPa)
#
#
# Indices 1 2 3 4 5 6 
#
# 1 125.7605 37.0896 15.2873 0.0000 2.2976 0.0000
# 2 37.0896 74.1931 14.6001 0.0000 -6.9712 0.0000
# 3 15.2873 14.6001 49.4936 0.0000 -9.3498 0.0000
# 4 0.0000 0.0000 0.0000 8.2008 0.0000 6.4050
# 5 2.2976 -6.9712 -9.3498 0.0000 19.9089 0.0000
# 6 0.0000 0.0000 0.0000 6.4050 0.0000 21.4195
#
#
#
# Elastic Compliance Matrix: (Units=1/GPa)
#
#
# Indices 1 2 3 4 5 6 
#
# 1 0.009709 -0.004760 -0.002328 0.000000 -0.003881 0.000000
# 2 -0.004760 0.016846 -0.002503 0.000000 0.005273 0.000000
# 3 -0.002328 -0.002503 0.023645 0.000000 0.010497 0.000000
# 4 0.000000 0.000000 0.000000 0.159094 0.000000 -0.047573
# 5 -0.003881 0.005273 0.010497 0.000000 0.057452 0.000000
# 6 0.000000 0.000000 0.000000 -0.047573 0.000000 0.060912
#
#
# Mechanical properties :
#
#
# Convention : Reuss Voigt Hill
#
# Bulk Modulus (GPa) = 32.23936 42.60014 37.41975
# Shear Modulus (GPa) = 13.99851 22.07053 18.03452
#
# Velocity S-wave (km/s) = 2.77425 3.48346 3.14889
# Velocity P-wave (km/s) = 5.29031 6.29295 5.81329
#
# Compressibility (1/GPa) = 0.03101798
#
# Stress axis : x y z
#
# Youngs Moduli (GPa) = 102.99280 59.36114 42.29242
#
# Poissons Ratio (x) = 0.28258 0.09845
# Poissons Ratio (y) = 0.49028 0.10586
# Poissons Ratio (z) = 0.23975 0.14858
#
# Static dielectric constant tensor:
#      x y z
#    x 1.789760 0.000000 0.004610 
#    y 0.000000 1.633760 0.000000 
#    z 0.004610 0.000000 1.631950 
# 
# From -- ./inp_files/198790.got.cif
#   From: 2010.05.17/outbox.cif.g08.bks.cpg/sg12_100_cif.got.tgz:198790.got - 2010.06.03 13:09:07.
