data_PCOD9196515
_publ_section_title
;
Structure prediction by ZEFSAII (Michael W. Deem and Ramdas Pophale) SiO2 
 PCOD9196515
Probable space group: C 2/M
;
_chemical_formula_sum "Si O2"
_cell_formula_units_Z 50
_cell_length_a 8.556347
_cell_length_b 11.776239
_cell_length_c 28.874314
_cell_angle_alpha 90.000000
_cell_angle_beta 63.849122
_cell_angle_gamma 90.000000
_cell_volume 2611.603297
_symmetry_space_group_name_H-M "C 2/M"
_symmetry_group_IT_number 12
_symmetry_cell_setting 'monoclinic'
loop_
_space_group_symop_operation_xyz
x,y,z
-x,y,-z
-x,-y,-z
x,-y,z
1/2+x,1/2+y,z
1/2-x,1/2+y,-z
1/2-x,1/2-y,-z
1/2+x,1/2-y,z
loop_
_atom_site_type_symbol
_atom_site_label
_atom_site_fract_x
_atom_site_fract_y
_atom_site_fract_z
Si Si1 0.280809 0.309090 0.946620
Si Si2 0.351585 0.629773 0.480316
Si Si3 0.749015 0.129010 0.231268
Si Si4 0.522129 0.624661 0.641519
Si Si5 0.500000 0.000000 0.000000
Si Si6 0.678151 0.370343 0.884760
Si Si7 0.363478 0.204505 0.296400
O O1 0.471944 0.363024 0.920781
O O2 0.268285 0.215472 0.908174
O O3 0.130129 0.401491 0.961736
O O4 0.250000 0.250000 0.000000
O O5 0.500000 0.629775 0.500000
O O6 0.267518 0.500000 0.494500
O O7 0.250000 0.750000 0.500000
O O8 0.431678 0.635940 0.418379
O O9 0.785724 0.160214 0.173269
O O10 0.541735 0.136281 0.266984
O O11 0.840060 0.213081 0.255321
O O12 0.809952 0.000000 0.230336
O O13 0.580470 0.500000 0.649681
O O14 0.613050 0.719418 0.660775
O O15 0.314926 0.635882 0.675624
O O16 0.737842 0.500000 0.884721
#
# Coordination Sequence:
#
# PCOD9196515 Si02
#       7
#     8   8   8   8   2   8   8
#     4  12  24  40  60  85 113 146 186 227 272 332
#     4  10  21  37  56  83 119 154 195 240 289 342
#     4  10  21  38  57  83 111 144 180 229 278 331
#     4  10  20  35  57  82 110 150 189 233 282 334
#     4  12  24  40  60  84 116 144 186 230 272 320
#     4  11  24  39  61  84 114 147 183 226 281 332
#     4  10  20  36  58  81 112 142 188 230 278 333
#
# _framework density 19.145327000000002
#
# number of rings (size 3 to 8) (size 9 to 14) (size 15 to 20)
#    0.000    1.440    2.400    2.880    1.120    0.960 
#    0.000    4.000    1.760    0.000    0.000    0.000 
#    0.000    0.000    0.000    0.000    0.000    0.000 
#
# Total GULP energy -139261.754241 kJ/mol
# GULP energy per Si atom -5570.470170 kJ/mol
# Density = 1.910175 g / cm^3
# Si number density = 19.145327 Si / 1000 Ang^3
#
#
#
# Elastic Constant Matrix: (Units=GPa)
#
#
# Indices 1 2 3 4 5 6 
#
# 1 24.1312 18.4158 -8.4240 0.0000 9.2187 0.0000
# 2 18.4158 107.6316 43.8096 0.0000 20.5577 0.0000
# 3 -8.4240 43.8096 86.5777 0.0000 19.6950 0.0000
# 4 0.0000 0.0000 0.0000 19.5333 0.0000 6.1774
# 5 9.2187 20.5577 19.6950 0.0000 30.1742 0.0000
# 6 0.0000 0.0000 0.0000 6.1774 0.0000 5.5038
#
#
#
# Elastic Compliance Matrix: (Units=1/GPa)
#
#
# Indices 1 2 3 4 5 6 
#
# 1 0.069197 -0.015434 0.019917 0.000000 -0.023626 0.000000
# 2 -0.015434 0.015773 -0.009526 0.000000 0.000186 0.000000
# 3 0.019917 -0.009526 0.021393 0.000000 -0.013558 0.000000
# 4 0.000000 0.000000 0.000000 0.079366 0.000000 -0.089080
# 5 -0.023626 0.000186 -0.013558 0.000000 0.049082 0.000000
# 6 0.000000 0.000000 0.000000 -0.089080 0.000000 0.281677
#
#
# Mechanical properties :
#
#
# Convention : Reuss Voigt Hill
#
# Bulk Modulus (GPa) = 10.38658 36.21594 23.30126
# Shear Modulus (GPa) = 8.94990 22.01152 15.48071
#
# Velocity S-wave (km/s) = 2.16445 3.39441 2.84666
# Velocity P-wave (km/s) = 3.41810 5.85834 4.79601
#
# Compressibility (1/GPa) = 0.09627810
#
# Stress axis : x y z
#
# Youngs Moduli (GPa) = 14.45147 63.39792 46.74480
#
# Poissons Ratio (x) = 0.97849 -0.93103
# Poissons Ratio (y) = 0.22304 0.44528
# Poissons Ratio (z) = -0.28783 0.60391
#
# Static dielectric constant tensor:
#      x y z
#    x 1.640860 0.000000 -0.006420 
#    y 0.000000 1.675600 0.000000 
#    z -0.006420 0.000000 1.626280 
# 
# From -- ./inp_files/355483.got.cif
#   From: 2010.05.17/outbox.cif.g08.bks.cpg/sg12_178_cif.got.tgz:355483.got - 2010.06.03 13:09:07.
