data_PCOD9196007
_publ_section_title
;
Structure prediction by ZEFSAII (Michael W. Deem and Ramdas Pophale) SiO2 
 PCOD9196007
Probable space group: C 2/M
;
_chemical_formula_sum "Si O2"
_cell_formula_units_Z 48
_cell_length_a 33.154215
_cell_length_b 7.858060
_cell_length_c 21.150172
_cell_angle_alpha 90.000000
_cell_angle_beta 154.812381
_cell_angle_gamma 90.000000
_cell_volume 2345.055033
_symmetry_space_group_name_H-M "C 2/M"
_symmetry_group_IT_number 12
_symmetry_cell_setting 'monoclinic'
loop_
_space_group_symop_operation_xyz
x,y,z
-x,y,-z
-x,-y,-z
x,-y,z
1/2+x,1/2+y,z
1/2-x,1/2+y,-z
1/2-x,1/2-y,-z
1/2+x,1/2-y,z
loop_
_atom_site_type_symbol
_atom_site_label
_atom_site_fract_x
_atom_site_fract_y
_atom_site_fract_z
Si Si1 0.355032 0.794596 0.626397
Si Si2 0.227648 0.699810 0.213971
Si Si3 0.981621 0.708246 0.046103
Si Si4 0.604028 0.798566 0.456355
Si Si5 0.901738 0.294771 0.212449
Si Si6 0.258330 0.203769 0.114104
O O1 0.250000 0.750000 0.500000
O O2 0.434975 0.733938 0.788900
O O3 0.375205 0.729120 0.584196
O O4 0.360663 0.000000 0.633077
O O5 0.226339 0.500000 0.226243
O O6 0.306748 0.777178 0.371543
O O7 0.253236 0.725681 0.177153
O O8 0.121826 0.766136 0.077662
O O9 0.982121 0.500000 0.048168
O O10 0.000000 0.760086 0.000000
O O11 0.507433 0.728945 0.350317
O O12 0.587598 0.000000 0.424958
O O13 0.904762 0.500000 0.221943
O O14 0.846928 0.232920 0.197396
O O15 0.835041 0.250960 0.058395
O O16 0.263860 0.000000 0.126347
#
# Coordination Sequence:
#
# PCOD9196007 Si02
#       6
#     8   8   8   8   8   8
#     4  10  20  35  56  80 107 139 175 219 270 322
#     4  11  22  36  56  80 108 143 183 225 270 322
#     4   9  18  34  56  79 104 138 179 219 262 317
#     4  10  21  37  55  77 109 146 184 225 268 316
#     4   9  19  37  59  80 106 144 184 220 265 322
#     4  10  20  35  57  83 110 140 178 225 272 320
#
# _framework density 20.468602000000001
#
# number of rings (size 3 to 8) (size 9 to 14) (size 15 to 20)
#    0.000    2.167    0.000    3.000    0.000    6.667 
#    0.000    6.667    0.000    4.500    0.000    0.000 
#    0.000    0.000    0.000    0.000    0.000    0.000 
#
# Total GULP energy -134056.657058 kJ/mol
# GULP energy per Si atom -5585.694044 kJ/mol
# Density = 2.042201 g / cm^3
# Si number density = 20.468602 Si / 1000 Ang^3
#
#
#
# Elastic Constant Matrix: (Units=GPa)
#
#
# Indices 1 2 3 4 5 6 
#
# 1 -342.7111 125.8746 -408.9402 0.0000 103.2790 0.0000
# 2 125.8746 -15.9662 122.7227 0.0000 -17.2957 0.0000
# 3 -408.9402 122.7227 -370.1509 0.0000 119.3426 0.0000
# 4 0.0000 0.0000 0.0000 24.5976 0.0000 3.2493
# 5 103.2790 -17.2957 119.3426 0.0000 20.5391 0.0000
# 6 0.0000 0.0000 0.0000 3.2493 0.0000 17.6880
#
#
#
# Elastic Compliance Matrix: (Units=1/GPa)
#
#
# Indices 1 2 3 4 5 6 
#
# 1 0.010506 -0.000691 -0.010112 0.000000 0.005347 0.000000
# 2 -0.000691 0.061331 0.013527 0.000000 -0.023480 0.000000
# 3 -0.010112 0.013527 0.011493 0.000000 -0.004537 0.000000
# 4 0.000000 0.000000 0.000000 0.041666 0.000000 -0.007654
# 5 0.005347 -0.023480 -0.004537 0.000000 0.028393 0.000000
# 6 0.000000 0.000000 0.000000 -0.007654 0.000000 0.057942
#
#
# Mechanical properties :
#
#
# Convention : Reuss Voigt Hill
#
# Bulk Modulus (GPa) = 11.26418 -116.61266 -52.67424
# Shear Modulus (GPa) = 21.23374 -25.33410 -2.05018
#
# Velocity S-wave (km/s) = 3.22433 -3.52192 -1.00190
# Velocity P-wave (km/s) = 4.40192 8.58101 5.20850
#
# Compressibility (1/GPa) = 0.08877696
#
# Stress axis : x y z
#
# Youngs Moduli (GPa) = 95.18204 16.30509 87.01303
#
# Poissons Ratio (x) = 0.01127 0.87991
# Poissons Ratio (y) = 0.06577 -1.17704
# Poissons Ratio (z) = 0.96252 -0.22056
#
# Static dielectric constant tensor:
#      x y z
#    x 1.727060 0.000000 0.020440 
#    y 0.000000 1.752520 0.000000 
#    z 0.020440 0.000000 1.680100 
# 
# From -- ./inp_files/295912.got.cif
#   From: 2010.05.17/outbox.cif.g08.bks.cpg/sg12_148_cif.got.tgz:295912.got - 2010.06.03 13:09:07.
