data_PCOD9196184
_publ_section_title
;
Structure prediction by ZEFSAII (Michael W. Deem and Ramdas Pophale) SiO2 
 PCOD9196184
Probable space group: C 2/M
;
_chemical_formula_sum "Si O2"
_cell_formula_units_Z 48
_cell_length_a 12.734233
_cell_length_b 13.130585
_cell_length_c 19.400372
_cell_angle_alpha 90.000000
_cell_angle_beta 123.396191
_cell_angle_gamma 90.000000
_cell_volume 2708.278368
_symmetry_space_group_name_H-M "C 2/M"
_symmetry_group_IT_number 12
_symmetry_cell_setting 'monoclinic'
loop_
_space_group_symop_operation_xyz
x,y,z
-x,y,-z
-x,-y,-z
x,-y,z
1/2+x,1/2+y,z
1/2-x,1/2+y,-z
1/2-x,1/2-y,-z
1/2+x,1/2-y,z
loop_
_atom_site_type_symbol
_atom_site_label
_atom_site_fract_x
_atom_site_fract_y
_atom_site_fract_z
Si Si1 0.434374 0.170117 0.546707
Si Si2 0.849603 0.620099 0.269486
Si Si3 0.354653 0.613829 0.556694
Si Si4 0.135720 0.747696 0.864050
Si Si5 0.399471 0.380753 0.735938
Si Si6 0.372813 0.121800 0.998365
O O1 0.500000 0.135025 0.500000
O O2 0.523513 0.142718 0.642553
O O3 0.414758 0.292135 0.538211
O O4 0.296119 0.123069 0.504297
O O5 0.843247 0.500000 0.252786
O O6 0.842229 0.682299 0.196584
O O7 0.732614 0.647406 0.276601
O O8 0.394815 0.500000 0.550998
O O9 0.387215 0.629849 0.649154
O O10 0.254009 0.821949 0.920510
O O11 0.011308 0.814021 0.806426
O O12 0.116947 0.673861 0.922843
O O13 0.422967 0.500000 0.758827
O O14 0.352929 0.000000 0.996412
O O15 0.500000 0.138679 0.000000
#
# Coordination Sequence:
#
# PCOD9196184 Si02
#       6
#     8   8   8   8   8   8
#     4  11  21  36  57  79 112 154 190 229 274 320
#     4  11  22  35  55  85 114 145 189 232 272 322
#     4  10  21  36  54  79 111 148 190 232 274 321
#     4  11  21  38  60  84 113 145 181 227 280 327
#     4  10  20  35  56  82 112 144 185 231 275 325
#     4  10  22  40  61  84 112 145 181 222 276 342
#
# _framework density 17.723436
#
# number of rings (size 3 to 8) (size 9 to 14) (size 15 to 20)
#    0.000    1.500    3.333    2.500    0.000    1.000 
#    0.000    0.000    0.000    9.000    0.000    0.000 
#    0.000    0.000    0.000    0.000    0.000    0.000 
#
# Total GULP energy -134039.566194 kJ/mol
# GULP energy per Si atom -5584.981925 kJ/mol
# Density = 1.768310 g / cm^3
# Si number density = 17.723436 Si / 1000 Ang^3
#
#
#
# Elastic Constant Matrix: (Units=GPa)
#
#
# Indices 1 2 3 4 5 6 
#
# 1 56.5814 29.7027 25.7828 0.0000 7.7578 0.0000
# 2 29.7027 88.8579 38.2966 0.0000 7.5850 0.0000
# 3 25.7828 38.2966 96.1568 0.0000 17.7972 0.0000
# 4 0.0000 0.0000 0.0000********** 0.0000 9304.8142
# 5 7.7578 7.5850 17.7972 0.0000 28.0114 0.0000
# 6 0.0000 0.0000 0.0000 9304.8142 0.0000-4793.4709
#
#
#
# Elastic Compliance Matrix: (Units=1/GPa)
#
#
# Indices 1 2 3 4 5 6 
#
# 1 0.022621 -0.005955 -0.003210 0.000000 -0.002613 0.000000
# 2 -0.005955 0.015155 -0.004516 0.000000 0.000415 0.000000
# 3 -0.003210 -0.004516 0.014356 0.000000 -0.007009 0.000000
# 4 0.000000 0.000000 0.000000 0.009868 0.000000 0.019156
# 5 -0.002613 0.000415 -0.007009 0.000000 0.040765 0.000000
# 6 0.000000 0.000000 0.000000 0.019156 0.000000 0.036975
#
#
# Mechanical properties :
#
#
# Convention : Reuss Voigt Hill
#
# Bulk Modulus (GPa) = 40.37071 47.68447 44.02759
# Shear Modulus (GPa) = 28.51292 -4535.36610 -2253.42659
#
# Velocity S-wave (km/s) = 4.01530 -50.64110 -35.69593
# Velocity P-wave (km/s) = 6.65766 58.24429 40.91499
#
# Compressibility (1/GPa) = 0.02477043
#
# Stress axis : x y z
#
# Youngs Moduli (GPa) = 44.20726 65.98292 69.65553
#
# Poissons Ratio (x) = 0.39292 0.22360
# Poissons Ratio (y) = 0.26325 0.31457
# Poissons Ratio (z) = 0.14191 0.29798
#
# Static dielectric constant tensor:
#      x y z
#    x 1.577470 0.000000 0.002700 
#    y 0.000000 1.597470 0.000000 
#    z 0.002700 0.000000 1.570170 
# 
# From -- ./inp_files/204463.got.cif
#   From: 2010.05.17/outbox.cif.g08.bks.cpg/sg12_103_cif.got.tgz:204463.got - 2010.06.03 13:09:07.
