data_PCOD9196981
_publ_section_title
;
Structure prediction by ZEFSAII (Michael W. Deem and Ramdas Pophale) SiO2 
 PCOD9196981
Probable space group: C 2/M
;
_chemical_formula_sum "Si O2"
_cell_formula_units_Z 48
_cell_length_a 8.405166
_cell_length_b 11.826179
_cell_length_c 22.943440
_cell_angle_alpha 90.000000
_cell_angle_beta 68.485760
_cell_angle_gamma 90.000000
_cell_volume 2121.703272
_symmetry_space_group_name_H-M "C 2/M"
_symmetry_group_IT_number 12
_symmetry_cell_setting 'monoclinic'
loop_
_space_group_symop_operation_xyz
x,y,z
-x,y,-z
-x,-y,-z
x,-y,z
1/2+x,1/2+y,z
1/2-x,1/2+y,-z
1/2-x,1/2-y,-z
1/2+x,1/2-y,z
loop_
_atom_site_type_symbol
_atom_site_label
_atom_site_fract_x
_atom_site_fract_y
_atom_site_fract_z
Si Si1 0.083614 0.876839 0.551990
Si Si2 0.898519 0.625811 0.432316
Si Si3 0.429801 0.126984 0.073340
Si Si4 0.659695 0.120006 0.687881
Si Si5 0.059417 0.810629 0.149073
Si Si6 0.287532 0.189084 0.758144
O O1 0.030089 0.753983 0.583541
O O2 0.285738 0.869640 0.506635
O O3 0.000000 0.885320 0.500000
O O4 0.060772 0.000000 0.585718
O O5 0.985135 0.500000 0.421537
O O6 0.789642 0.620952 0.386610
O O7 0.223070 0.127419 0.100407
O O8 0.499880 0.214833 0.111327
O O9 0.488130 0.000000 0.080374
O O10 0.500000 0.156281 0.000000
O O11 0.452487 0.122976 0.713789
O O12 0.728359 0.222633 0.716659
O O13 0.712023 0.000000 0.708049
O O14 0.137006 0.755066 0.196605
O O15 0.884667 0.869589 0.194476
#
# Coordination Sequence:
#
# PCOD9196981 Si02
#       6
#     8   8   8   8   8   8
#     4   9  18  33  54  78 104 140 183 227 287 356
#     4   9  19  34  52  77 108 143 180 234 294 348
#     4  10  20  35  58  85 113 149 188 230 283 335
#     4  10  21  38  58  81 113 146 188 241 286 336
#     4   9  19  36  56  82 115 149 186 233 277 334
#     4   9  20  36  56  81 108 148 192 226 281 336
#
# _framework density 22.623332999999999
#
# number of rings (size 3 to 8) (size 9 to 14) (size 15 to 20)
#    0.000    2.667    0.000    0.500    2.333    7.000 
#    0.000    5.833    0.000    9.000    0.000    0.000 
#    0.000    0.000    0.000    0.000    0.000    0.000 
#
# Total GULP energy -133607.810770 kJ/mol
# GULP energy per Si atom -5566.992115 kJ/mol
# Density = 2.257184 g / cm^3
# Si number density = 22.623333 Si / 1000 Ang^3
#
#
#
# Elastic Constant Matrix: (Units=GPa)
#
#
# Indices 1 2 3 4 5 6 
#
# 1 82.6657 29.4186 34.6771 0.0000 -14.7173 0.0000
# 2 29.4186 187.6735 37.0020 0.0000 15.4131 0.0000
# 3 34.6771 37.0020 110.4580 0.0000 -20.0412 0.0000
# 4 0.0000 0.0000 0.0000 258.3746 0.0000 96.6260
# 5 -14.7173 15.4131 -20.0412 0.0000 41.0385 0.0000
# 6 0.0000 0.0000 0.0000 96.6260 0.0000 44.7595
#
#
#
# Elastic Compliance Matrix: (Units=1/GPa)
#
#
# Indices 1 2 3 4 5 6 
#
# 1 0.014997 -0.002107 -0.003163 0.000000 0.004625 0.000000
# 2 -0.002107 0.006462 -0.002283 0.000000 -0.004297 0.000000
# 3 -0.003163 -0.002283 0.011807 0.000000 0.005489 0.000000
# 4 0.000000 0.000000 0.000000 0.020088 0.000000 -0.043366
# 5 0.004625 -0.004297 0.005489 0.000000 0.030320 0.000000
# 6 0.000000 0.000000 0.000000 -0.043366 0.000000 0.115960
#
#
# Mechanical properties :
#
#
# Convention : Reuss Voigt Hill
#
# Bulk Modulus (GPa) = 55.06742 64.77694 59.92218
# Shear Modulus (GPa) = 22.64560 87.48116 55.06338
#
# Velocity S-wave (km/s) = 3.16727 6.22515 4.93883
# Velocity P-wave (km/s) = 6.14567 8.96465 7.68551
#
# Compressibility (1/GPa) = 0.01815956
#
# Stress axis : x y z
#
# Youngs Moduli (GPa) = 66.67982 154.75832 84.69645
#
# Poissons Ratio (x) = 0.32608 0.26791
# Poissons Ratio (y) = 0.14049 0.19334
# Poissons Ratio (z) = 0.21092 0.35328
#
# Static dielectric constant tensor:
#      x y z
#    x 1.934570 0.000000 -0.115910 
#    y 0.000000 1.862340 0.000000 
#    z -0.115910 0.000000 1.847070 
# 
# From -- ./inp_files/332221.got.cif
#   From: 2010.05.17/outbox.cif.g08.bks.cpg/sg12_167_cif.got.tgz:332221.got - 2010.06.03 13:09:07.
