data_PCOD9196082
_publ_section_title
;
Structure prediction by ZEFSAII (Michael W. Deem and Ramdas Pophale) SiO2 
 PCOD9196082
Probable space group: C 2/M
;
_chemical_formula_sum "Si O2"
_cell_formula_units_Z 40
_cell_length_a 24.640608
_cell_length_b 7.648545
_cell_length_c 14.112252
_cell_angle_alpha 90.000000
_cell_angle_beta 35.835778
_cell_angle_gamma 90.000000
_cell_volume 1557.136851
_symmetry_space_group_name_H-M "C 2/M"
_symmetry_group_IT_number 12
_symmetry_cell_setting 'monoclinic'
loop_
_space_group_symop_operation_xyz
x,y,z
-x,y,-z
-x,-y,-z
x,-y,z
1/2+x,1/2+y,z
1/2-x,1/2+y,-z
1/2-x,1/2-y,-z
1/2+x,1/2-y,z
loop_
_atom_site_type_symbol
_atom_site_label
_atom_site_fract_x
_atom_site_fract_y
_atom_site_fract_z
Si Si1 0.054374 0.788777 0.828549
Si Si2 0.233940 0.785230 0.670085
Si Si3 0.710700 0.700770 0.908838
Si Si4 0.442768 0.203689 0.383065
Si Si5 0.880039 0.795906 0.771171
O O1 0.161077 0.729694 0.693646
O O2 0.017726 0.726578 0.779434
O O3 0.051476 0.000000 0.830374
O O4 0.000000 0.734027 0.000000
O O5 0.193731 0.728143 0.829008
O O6 0.339247 0.721073 0.520359
O O7 0.235729 0.000000 0.666274
O O8 0.678650 0.500000 0.952248
O O9 0.821732 0.705278 0.771128
O O10 0.663825 0.779270 0.068492
O O11 0.510860 0.280658 0.365609
O O12 0.435861 0.000000 0.413897
O O13 0.857381 0.000000 0.793855
#
# Coordination Sequence:
#
# PCOD9196082 Si02
#       5
#     8   8   8   8   8
#     4  10  20  37  60  81 104 138 179 221 265 315
#     4   9  19  35  55  79 107 141 178 216 266 321
#     4   9  18  36  59  79 103 139 182 223 262 311
#     4  11  22  35  53  79 111 143 176 217 264 317
#     4  10  20  35  56  81 108 140 179 222 266 312
#
# _framework density 25.688174
#
# number of rings (size 3 to 8) (size 9 to 14) (size 15 to 20)
#    0.000    2.200    0.000    3.000    0.000    5.200 
#    0.000    8.000    0.000    0.000    0.000    0.000 
#    0.000    0.000    0.000    0.000    0.000    0.000 
#
# Total GULP energy -111835.294015 kJ/mol
# GULP energy per Si atom -5591.764701 kJ/mol
# Density = 2.562971 g / cm^3
# Si number density = 25.688174 Si / 1000 Ang^3
#
#
#
# Elastic Constant Matrix: (Units=GPa)
#
#
# Indices 1 2 3 4 5 6 
#
# 1 142.7132 -6.7500 0.8180 -0.0039 -16.4492 0.0025
# 2 -6.7500 64.9222 -4.8728 -0.0064 -3.1204 0.0090
# 3 0.8180 -4.8728 57.2516 -0.0050 -14.8539 0.0047
# 4 -0.0039 -0.0064 -0.0050 10.3760 0.0042 -4.0264
# 5 -16.4492 -3.1204 -14.8539 0.0042 47.2027 -0.0032
# 6 0.0025 0.0090 0.0047 -4.0264 -0.0032 22.8405
#
#
#
# Elastic Compliance Matrix: (Units=1/GPa)
#
#
# Indices 1 2 3 4 5 6 
#
# 1 0.007378 0.000958 0.000718 0.000002 0.002860 -0.000001
# 2 0.000958 0.015734 0.001831 0.000008 0.001950 -0.000005
# 3 0.000718 0.001831 0.019283 0.000007 0.006439 -0.000003
# 4 0.000002 0.000008 0.000007 0.103453 -0.000004 0.018237
# 5 0.002860 0.001950 0.006439 -0.000004 0.024337 0.000000
# 6 -0.000001 -0.000005 -0.000003 0.018237 0.000000 0.046997
#
#
# Mechanical properties :
#
#
# Convention : Reuss Voigt Hill
#
# Bulk Modulus (GPa) = 20.23817 27.03083 23.63450
# Shear Modulus (GPa) = 22.06183 34.46331 28.26257
#
# Velocity S-wave (km/s) = 2.93376 3.66676 3.32055
# Velocity P-wave (km/s) = 4.40130 5.33595 4.89100
#
# Compressibility (1/GPa) = 0.04941159
#
# Stress axis : x y z
#
# Youngs Moduli (GPa) = 135.53851 63.55695 51.85891
#
# Poissons Ratio (x) = -0.06092 -0.03725
# Poissons Ratio (y) = -0.12991 -0.09498
# Poissons Ratio (z) = -0.09736 -0.11640
#
# Static dielectric constant tensor:
#      x y z
#    x 1.958200 0.000000 -0.046230 
#    y 0.000000 1.972110 0.000000 
#    z -0.046230 0.000000 2.157950 
# 
# From -- ./inp_files/220562.got.cif
#   From: 2010.05.17/outbox.cif.g08.bks.cpg/sg12_111_cif.got.tgz:220562.got - 2010.06.03 13:09:07.
