data_PCOD9196420
_publ_section_title
;
Structure prediction by ZEFSAII (Michael W. Deem and Ramdas Pophale) SiO2 
 PCOD9196420
Probable space group: C 2/M
;
_chemical_formula_sum "Si O2"
_cell_formula_units_Z 56
_cell_length_a 16.776187
_cell_length_b 15.333374
_cell_length_c 20.547732
_cell_angle_alpha 90.000000
_cell_angle_beta 31.498792
_cell_angle_gamma 90.000000
_cell_volume 2761.627122
_symmetry_space_group_name_H-M "C 2/M"
_symmetry_group_IT_number 12
_symmetry_cell_setting 'monoclinic'
loop_
_space_group_symop_operation_xyz
x,y,z
-x,y,-z
-x,-y,-z
x,-y,z
1/2+x,1/2+y,z
1/2-x,1/2+y,-z
1/2-x,1/2-y,-z
1/2+x,1/2-y,z
loop_
_atom_site_type_symbol
_atom_site_label
_atom_site_fract_x
_atom_site_fract_y
_atom_site_fract_z
Si Si1 0.601122 0.357539 0.653298
Si Si2 0.618092 0.401471 0.785681
Si Si3 0.880806 0.653593 0.382427
Si Si4 0.447213 0.103239 0.607731
Si Si5 0.402324 0.277924 0.005226
Si Si6 0.754522 0.401958 0.084366
Si Si7 0.834945 0.594044 0.875995
O O1 0.660353 0.396816 0.680165
O O2 0.713781 0.383607 0.515940
O O3 0.622523 0.253168 0.639024
O O4 0.422493 0.382282 0.774663
O O5 0.555996 0.500000 0.840550
O O6 0.764432 0.389830 0.729695
O O7 0.502239 0.322052 0.878411
O O8 0.972379 0.648678 0.387544
O O9 0.984315 0.603292 0.258509
O O10 0.500000 0.135618 0.500000
O O11 0.483815 0.000000 0.587001
O O12 0.500000 0.300140 0.000000
O O13 0.362433 0.176299 0.032422
O O14 0.243814 0.328663 0.108415
O O15 0.791859 0.500000 0.080997
O O16 0.779066 0.401331 0.989057
O O17 0.790550 0.500000 0.879040
#
# Coordination Sequence:
#
# PCOD9196420 Si02
#       7
#     8   8   8   8   8   8   8
#     4  11  22  38  60  86 120 160 204 244 291 351
#     4  11  22  37  61  92 125 163 195 237 306 373
#     4  11  22  36  58  89 126 158 197 246 293 355
#     4  10  20  35  56  87 129 163 193 237 301 375
#     4  12  24  39  61  88 122 156 201 253 298 354
#     4  11  24  44  65  83 116 165 209 250 298 352
#     4  11  22  38  63  92 122 154 191 246 306 359
#
# _framework density 20.277901
#
# number of rings (size 3 to 8) (size 9 to 14) (size 15 to 20)
#    0.000    1.000    4.286    3.429    0.000    4.286 
#    0.000    0.000    0.000    0.000    0.000    0.000 
#    0.000    8.857    0.000    0.000    0.000    0.000 
#
# Total GULP energy -156270.259819 kJ/mol
# GULP energy per Si atom -5581.080708 kJ/mol
# Density = 2.023175 g / cm^3
# Si number density = 20.277901 Si / 1000 Ang^3
#
#
#
# Elastic Constant Matrix: (Units=GPa)
#
#
# Indices 1 2 3 4 5 6 
#
# 1 20.6722 -2.4717 2.5717 -0.0013 -1.4188 0.0011
# 2 -2.4717 94.6904 34.8007 -0.0025 -5.3074 0.0034
# 3 2.5717 34.8007 152.1472 -0.0024 -6.3851 0.0037
# 4 -0.0013 -0.0025 -0.0024 46.9823 0.0014 29.4593
# 5 -1.4188 -5.3074 -6.3851 0.0014 19.3384 -0.0017
# 6 0.0011 0.0034 0.0037 29.4593 -0.0017 37.3841
#
#
#
# Elastic Compliance Matrix: (Units=1/GPa)
#
#
# Indices 1 2 3 4 5 6 
#
# 1 0.048995 0.001895 -0.001104 0.000004 0.003750 -0.000005
# 2 0.001895 0.011707 -0.002605 0.000002 0.002492 -0.000002
# 3 -0.001104 -0.002605 0.007254 0.000001 0.001599 -0.000001
# 4 0.000004 0.000002 0.000001 0.042074 -0.000005 -0.033155
# 5 0.003750 0.002492 0.001599 -0.000005 0.053198 0.000006
# 6 -0.000005 -0.000002 -0.000001 -0.033155 0.000006 0.052876
#
#
# Mechanical properties :
#
#
# Convention : Reuss Voigt Hill
#
# Bulk Modulus (GPa) = 15.54534 37.47901 26.51218
# Shear Modulus (GPa) = 20.73178 36.24824 28.49001
#
# Velocity S-wave (km/s) = 3.20094 4.23256 3.75237
# Velocity P-wave (km/s) = 4.61997 6.51221 5.64593
#
# Compressibility (1/GPa) = 0.06432795
#
# Stress axis : x y z
#
# Youngs Moduli (GPa) = 20.41009 85.41631 137.84997
#
# Poissons Ratio (x) = -0.16186 0.15221
# Poissons Ratio (y) = -0.03868 0.35914
# Poissons Ratio (z) = 0.02254 0.22253
#
# Static dielectric constant tensor:
#      x y z
#    x 1.684050 0.000000 -0.010460 
#    y 0.000000 1.721250 0.000000 
#    z -0.010460 0.000000 1.837150 
# 
# From -- ./inp_files/316717.got.cif
#   From: 2010.05.17/outbox.cif.g08.bks.cpg/sg12_159_cif.got.tgz:316717.got - 2010.06.03 13:09:07.
