data_PCOD9196411
_publ_section_title
;
Structure prediction by ZEFSAII (Michael W. Deem and Ramdas Pophale) SiO2 
 PCOD9196411
Probable space group: C 2/M
;
_chemical_formula_sum "Si O2"
_cell_formula_units_Z 64
_cell_length_a 12.722537
_cell_length_b 20.002433
_cell_length_c 15.013547
_cell_angle_alpha 90.000000
_cell_angle_beta 114.041249
_cell_angle_gamma 90.000000
_cell_volume 3489.238665
_symmetry_space_group_name_H-M "C 2/M"
_symmetry_group_IT_number 12
_symmetry_cell_setting 'monoclinic'
loop_
_space_group_symop_operation_xyz
x,y,z
-x,y,-z
-x,-y,-z
x,-y,z
1/2+x,1/2+y,z
1/2-x,1/2+y,-z
1/2-x,1/2-y,-z
1/2+x,1/2-y,z
loop_
_atom_site_type_symbol
_atom_site_label
_atom_site_fract_x
_atom_site_fract_y
_atom_site_fract_z
Si Si1 0.797881 0.922352 0.554714
Si Si2 0.687815 0.656576 0.788824
Si Si3 0.447687 0.176989 0.886527
Si Si4 0.635749 0.683623 0.567311
Si Si5 0.141158 0.689993 0.809785
Si Si6 0.478867 0.576073 0.768375
Si Si7 0.877140 0.332482 0.408368
Si Si8 0.601535 0.333833 0.103318
O O1 0.805099 0.869858 0.476656
O O2 0.700391 0.894025 0.586955
O O3 0.916815 0.918939 0.651228
O O4 0.778928 0.000000 0.522918
O O5 0.823294 0.643640 0.836543
O O6 0.653156 0.661673 0.674155
O O7 0.656124 0.729205 0.819772
O O8 0.608666 0.601798 0.807298
O O9 0.538468 0.166712 0.838454
O O10 0.420837 0.256516 0.879811
O O11 0.500000 0.159210 0.000000
O O12 0.500000 0.684783 0.500000
O O13 0.676441 0.761126 0.577477
O O14 0.116776 0.672709 0.697262
O O15 0.266038 0.661670 0.882267
O O16 0.472097 0.500000 0.795697
O O17 0.411631 0.622885 0.813089
O O18 0.000000 0.338044 0.500000
O O19 0.500000 0.353155 0.000000
#
# Coordination Sequence:
#
# PCOD9196411 Si02
#       8
#     8   8   8   8   8   8   8   8
#     4  11  23  38  57  82 120 157 196 245 292 346
#     4  10  21  35  58  85 118 155 190 237 293 353
#     4  10  22  35  60  92 119 149 187 248 308 349
#     4  10  20  35  56  87 114 147 191 243 288 345
#     4  10  20  37  57  90 123 145 190 249 298 347
#     4  11  22  38  58  82 118 155 198 241 284 347
#     4  10  22  36  59  86 115 157 196 239 292 352
#     4  10  21  35  60  87 116 148 190 244 298 350
#
# _framework density 18.342110000000002
#
# number of rings (size 3 to 8) (size 9 to 14) (size 15 to 20)
#    0.000    1.750    3.750    0.375    3.500    2.750 
#    0.000    0.000    0.000    1.125    0.000    0.000 
#    0.000    0.000    0.000    0.000    0.000    0.000 
#
# Total GULP energy -178519.149705 kJ/mol
# GULP energy per Si atom -5578.723428 kJ/mol
# Density = 1.830036 g / cm^3
# Si number density = 18.342110 Si / 1000 Ang^3
#
#
#
# Elastic Constant Matrix: (Units=GPa)
#
#
# Indices 1 2 3 4 5 6 
#
# 1 104.1199 13.0937 21.1456 0.0000 6.7344 0.0000
# 2 13.0937 39.8587 18.7412 0.0000 -2.1699 0.0000
# 3 21.1456 18.7412 52.8021 0.0000 10.8990 0.0000
# 4 0.0000 0.0000 0.0000 -8.6551 0.0000 6.9393
# 5 6.7344 -2.1699 10.8990 0.0000 29.8886 0.0000
# 6 0.0000 0.0000 0.0000 6.9393 0.0000 2.6546
#
#
#
# Elastic Compliance Matrix: (Units=1/GPa)
#
#
# Indices 1 2 3 4 5 6 
#
# 1 0.010607 -0.002031 -0.003247 0.000000 -0.001353 0.000000
# 2 -0.002031 0.031749 -0.011923 0.000000 0.007110 0.000000
# 3 -0.003247 -0.011923 0.026493 0.000000 -0.009795 0.000000
# 4 0.000000 0.000000 0.000000 -0.037320 0.000000 0.097559
# 5 -0.001353 0.007110 -0.009795 0.000000 0.037850 0.000000
# 6 0.000000 0.000000 0.000000 0.097559 0.000000 0.121682
#
#
# Mechanical properties :
#
#
# Convention : Reuss Voigt Hill
#
# Bulk Modulus (GPa) = 29.03150 33.63796 31.33473
# Shear Modulus (GPa) = 21.10190 14.36429 17.73310
#
# Velocity S-wave (km/s) = 3.39553 2.80149 3.11271
# Velocity P-wave (km/s) = 5.58882 5.37061 5.48080
#
# Compressibility (1/GPa) = 0.03444534
#
# Stress axis : x y z
#
# Youngs Moduli (GPa) = 94.27938 31.49707 37.74617
#
# Poissons Ratio (x) = 0.06397 0.12258
# Poissons Ratio (y) = 0.19149 0.45005
# Poissons Ratio (z) = 0.30617 0.37554
#
# Static dielectric constant tensor:
#      x y z
#    x 1.706530 0.000000 0.031610 
#    y 0.000000 1.612410 0.000000 
#    z 0.031610 0.000000 1.648410 
# 
# From -- ./inp_files/207709.got.cif
#   From: 2010.05.17/outbox.cif.g08.bks.cpg/sg12_104_cif.got.tgz:207709.got - 2010.06.03 13:09:07.
