data_PCOD9196768
_publ_section_title
;
Structure prediction by ZEFSAII (Michael W. Deem and Ramdas Pophale) SiO2 
 PCOD9196768
Probable space group: C 2/M
;
_chemical_formula_sum "Si O2"
_cell_formula_units_Z 56
_cell_length_a 20.784351
_cell_length_b 7.880191
_cell_length_c 16.633092
_cell_angle_alpha 90.000000
_cell_angle_beta 91.077952
_cell_angle_gamma 90.000000
_cell_volume 2723.763124
_symmetry_space_group_name_H-M "C 2/M"
_symmetry_group_IT_number 12
_symmetry_cell_setting 'monoclinic'
loop_
_space_group_symop_operation_xyz
x,y,z
-x,y,-z
-x,-y,-z
x,-y,z
1/2+x,1/2+y,z
1/2-x,1/2+y,-z
1/2-x,1/2-y,-z
1/2+x,1/2-y,z
loop_
_atom_site_type_symbol
_atom_site_label
_atom_site_fract_x
_atom_site_fract_y
_atom_site_fract_z
Si Si1 0.013095 0.798105 0.228451
Si Si2 0.928364 0.297154 0.479085
Si Si3 0.381719 0.794223 0.304227
Si Si4 0.442946 0.198783 0.944894
Si Si5 0.799658 0.702803 0.931639
Si Si6 0.122367 0.204929 0.353857
Si Si7 0.258784 0.703426 0.750895
O O1 0.939615 0.758907 0.247493
O O2 0.036454 0.713591 0.147123
O O3 0.058919 0.739830 0.302800
O O4 0.021580 0.000000 0.219667
O O5 0.934255 0.500000 0.470586
O O6 0.900082 0.232909 0.394289
O O7 0.883971 0.261683 0.554715
O O8 0.000000 0.228491 0.500000
O O9 0.311983 0.732253 0.274033
O O10 0.380112 0.000000 0.304985
O O11 0.371303 0.272231 0.951677
O O12 0.438083 0.000000 0.967475
O O13 0.500000 0.275564 0.000000
O O14 0.803966 0.500000 0.928025
O O15 0.776760 0.761479 0.843410
O O16 0.750000 0.750000 0.000000
O O17 0.184980 0.267077 0.307073
O O18 0.123105 0.000000 0.353492
O O19 0.257422 0.500000 0.741290
#
# Coordination Sequence:
#
# PCOD9196768 Si02
#       7
#     8   8   8   8   8   8   8
#     4  11  22  37  60  89 119 152 194 244 292 340
#     4  10  20  35  57  86 116 151 198 244 287 342
#     4  10  22  39  60  85 117 158 199 241 290 348
#     4  10  23  42  63  88 117 154 197 236 286 350
#     4  11  24  41  63  89 120 156 194 239 290 347
#     4  10  21  37  59  85 116 155 192 237 296 346
#     4  10  22  42  62  83 118 159 197 237 292 354
#
# _framework density 20.559791000000001
#
# number of rings (size 3 to 8) (size 9 to 14) (size 15 to 20)
#    0.000    1.714    2.857    0.857    2.000    4.000 
#    0.000    0.000    0.000    0.000    0.000    0.000 
#    0.000    0.000    0.000    0.000    0.000    0.000 
#
# Total GULP energy -156447.187201 kJ/mol
# GULP energy per Si atom -5587.399543 kJ/mol
# Density = 2.051300 g / cm^3
# Si number density = 20.559791 Si / 1000 Ang^3
#
#
#
# Elastic Constant Matrix: (Units=GPa)
#
#
# Indices 1 2 3 4 5 6 
#
# 1 194.2618 2.7755 70.1196 0.0000 -0.9363 0.0000
# 2 2.7755 17.3845 -16.6147 0.0000 9.1527 0.0000
# 3 70.1196 -16.6147 94.7797 0.0000 -7.9292 0.0000
# 4 0.0000 0.0000 0.0000 28.8141 0.0000 -4.9915
# 5 -0.9363 9.1527 -7.9292 0.0000 39.7426 0.0000
# 6 0.0000 0.0000 0.0000 -4.9915 0.0000 19.4891
#
#
#
# Elastic Compliance Matrix: (Units=1/GPa)
#
#
# Indices 1 2 3 4 5 6 
#
# 1 0.007911 -0.008619 -0.007303 0.000000 0.000714 0.000000
# 2 -0.008619 0.086731 0.020230 0.000000 -0.016141 0.000000
# 3 -0.007303 0.020230 0.019420 0.000000 -0.000956 0.000000
# 4 0.000000 0.000000 0.000000 0.036317 0.000000 0.009301
# 5 0.000714 -0.016141 -0.000956 0.000000 0.028705 0.000000
# 6 0.000000 0.000000 0.000000 0.009301 0.000000 0.053693
#
#
# Mechanical properties :
#
#
# Convention : Reuss Voigt Hill
#
# Bulk Modulus (GPa) = 8.15154 46.55410 27.35282
# Shear Modulus (GPa) = 18.86412 34.28552 26.57482
#
# Velocity S-wave (km/s) = 3.03235 4.08806 3.59912
# Velocity P-wave (km/s) = 4.02910 6.70637 5.53213
#
# Compressibility (1/GPa) = 0.12267627
#
# Stress axis : x y z
#
# Youngs Moduli (GPa) = 126.41418 11.52994 51.49256
#
# Poissons Ratio (x) = 0.09938 0.37607
# Poissons Ratio (y) = 1.08957 -1.04169
# Poissons Ratio (z) = 0.92326 -0.23325
#
# Static dielectric constant tensor:
#      x y z
#    x 1.734460 0.000000 0.026790 
#    y 0.000000 1.758220 0.000000 
#    z 0.026790 0.000000 1.681170 
# 
# From -- ./inp_files/230978.got.cif
#   From: 2010.05.17/outbox.cif.g08.bks.cpg/sg12_116_cif.got.tgz:230978.got - 2010.06.03 13:09:07.
