data_PCOD9196562
_publ_section_title
;
Structure prediction by ZEFSAII (Michael W. Deem and Ramdas Pophale) SiO2 
 PCOD9196562
Probable space group: C 2/M
;
_chemical_formula_sum "Si O2"
_cell_formula_units_Z 48
_cell_length_a 15.530582
_cell_length_b 7.872516
_cell_length_c 19.264684
_cell_angle_alpha 90.000000
_cell_angle_beta 90.728258
_cell_angle_gamma 90.000000
_cell_volume 2355.201613
_symmetry_space_group_name_H-M "C 2/M"
_symmetry_group_IT_number 12
_symmetry_cell_setting 'monoclinic'
loop_
_space_group_symop_operation_xyz
x,y,z
-x,y,-z
-x,-y,-z
x,-y,z
1/2+x,1/2+y,z
1/2-x,1/2+y,-z
1/2-x,1/2-y,-z
1/2+x,1/2-y,z
loop_
_atom_site_type_symbol
_atom_site_label
_atom_site_fract_x
_atom_site_fract_y
_atom_site_fract_z
Si Si1 0.626588 0.794242 0.181419
Si Si2 0.682607 0.704114 0.337231
Si Si3 0.726822 0.298223 0.921714
Si Si4 0.525613 0.704119 0.424531
Si Si5 0.125657 0.705734 0.682853
Si Si6 0.933463 0.703540 0.166124
O O1 0.645879 0.743587 0.260551
O O2 0.701579 0.729136 0.131453
O O3 0.531232 0.734035 0.159128
O O4 0.626968 0.000000 0.178598
O O5 0.685919 0.500000 0.344244
O O6 0.615485 0.770296 0.393718
O O7 0.780668 0.767802 0.340842
O O8 0.729619 0.500000 0.916760
O O9 0.632567 0.243487 0.895669
O O10 0.750000 0.250000 0.000000
O O11 0.500000 0.771120 0.500000
O O12 0.533748 0.500000 0.430117
O O13 0.450216 0.741635 0.369140
O O14 0.127951 0.500000 0.684730
O O15 0.105336 0.766538 0.760867
O O16 0.938341 0.500000 0.171544
#
# Coordination Sequence:
#
# PCOD9196562 Si02
#       6
#     8   8   8   8   8   8
#     4  10  21  37  59  85 112 146 188 230 277 333
#     4  10  20  35  57  83 112 147 188 233 279 330
#     4  11  24  40  59  85 117 150 185 229 281 334
#     4  10  22  38  55  81 118 153 186 231 284 334
#     4  10  20  35  58  85 111 146 190 234 279 331
#     4  10  20  37  60  85 114 146 186 234 280 331
#
# _framework density 20.380420999999998
#
# number of rings (size 3 to 8) (size 9 to 14) (size 15 to 20)
#    0.000    1.833    3.333    0.500    0.000    4.333 
#    0.000    3.333    0.000    0.000    0.000    0.000 
#    0.000    0.000    0.000    0.000    0.000    0.000 
#
# Total GULP energy -134058.443167 kJ/mol
# GULP energy per Si atom -5585.768465 kJ/mol
# Density = 2.033403 g / cm^3
# Si number density = 20.380421 Si / 1000 Ang^3
#
#
#
# Elastic Constant Matrix: (Units=GPa)
#
#
# Indices 1 2 3 4 5 6 
#
# 1 77.7530 4.9219 -32.9210 0.0000 -6.0930 0.0000
# 2 4.9219 16.4080 -8.7410 0.0000 -6.0784 0.0000
# 3 -32.9210 -8.7410 29.1834 0.0000 -2.4634 0.0000
# 4 0.0000 0.0000 0.0000 23.4736 0.0000 9.5503
# 5 -6.0930 -6.0784 -2.4634 0.0000 30.2171 0.0000
# 6 0.0000 0.0000 0.0000 9.5503 0.0000 21.5683
#
#
#
# Elastic Compliance Matrix: (Units=1/GPa)
#
#
# Indices 1 2 3 4 5 6 
#
# 1 0.029375 0.016686 0.039187 0.000000 0.012474 0.000000
# 2 0.016686 0.091166 0.048293 0.000000 0.025640 0.000000
# 3 0.039187 0.048293 0.095078 0.000000 0.025368 0.000000
# 4 0.000000 0.000000 0.000000 0.051962 0.000000 -0.023008
# 5 0.012474 0.025640 0.025368 0.000000 0.042835 0.000000
# 6 0.000000 0.000000 0.000000 -0.023008 0.000000 0.056552
#
#
# Mechanical properties :
#
#
# Convention : Reuss Voigt Hill
#
# Bulk Modulus (GPa) = 2.35875 5.54048 3.94961
# Shear Modulus (GPa) = 16.66927 25.72411 21.19669
#
# Velocity S-wave (km/s) = 2.86301 3.55660 3.22848
# Velocity P-wave (km/s) = 3.47692 4.42609 3.97990
#
# Compressibility (1/GPa) = 0.42395324
#
# Stress axis : x y z
#
# Youngs Moduli (GPa) = 34.04292 10.96894 10.51763
#
# Poissons Ratio (x) = -0.18303 -0.41216
# Poissons Ratio (y) = -0.56804 -0.50793
# Poissons Ratio (z) = -1.33406 -0.52973
#
# Static dielectric constant tensor:
#      x y z
#    x 1.723260 0.000000 -0.054450 
#    y 0.000000 1.739820 0.000000 
#    z -0.054450 0.000000 1.665640 
# 
# From -- ./inp_files/267620.got.cif
#   From: 2010.05.17/outbox.cif.g08.bks.cpg/sg12_134_cif.got.tgz:267620.got - 2010.06.03 13:09:07.
