data_PCOD9196837
_publ_section_title
;
Structure prediction by ZEFSAII (Michael W. Deem and Ramdas Pophale) SiO2 
 PCOD9196837
Probable space group: C 2/M
;
_chemical_formula_sum "Si O2"
_cell_formula_units_Z 50
_cell_length_a 28.647748
_cell_length_b 7.936937
_cell_length_c 11.120119
_cell_angle_alpha 90.000000
_cell_angle_beta 65.299920
_cell_angle_gamma 90.000000
_cell_volume 2297.108017
_symmetry_space_group_name_H-M "C 2/M"
_symmetry_group_IT_number 12
_symmetry_cell_setting 'monoclinic'
loop_
_space_group_symop_operation_xyz
x,y,z
-x,y,-z
-x,-y,-z
x,-y,z
1/2+x,1/2+y,z
1/2-x,1/2+y,-z
1/2-x,1/2-y,-z
1/2+x,1/2-y,z
loop_
_atom_site_type_symbol
_atom_site_label
_atom_site_fract_x
_atom_site_fract_y
_atom_site_fract_z
Si Si1 0.282514 0.202225 0.136593
Si Si2 0.500000 0.000000 0.500000
Si Si3 0.825172 0.301070 0.830911
Si Si4 0.560203 0.809015 0.663791
Si Si5 0.621777 0.298247 0.827839
Si Si6 0.033934 0.810082 0.084883
Si Si7 0.070633 0.184487 0.394975
O O1 0.224857 0.271421 0.198163
O O2 0.319681 0.262255 0.202697
O O3 0.280337 0.000000 0.138460
O O4 0.308086 0.258666 0.982245
O O5 0.536524 0.847174 0.403629
O O6 0.835936 0.500000 0.824953
O O7 0.874549 0.207996 0.726738
O O8 0.600194 0.786217 0.730083
O O9 0.504707 0.774905 0.781619
O O10 0.574860 0.694483 0.535901
O O11 0.558803 0.000000 0.614781
O O12 0.612784 0.500000 0.827117
O O13 0.587057 0.234237 0.978660
O O14 0.044261 0.000000 0.115380
O O15 0.000000 0.818449 0.000000
O O16 0.049907 0.000000 0.384449
#
# Coordination Sequence:
#
# PCOD9196837 Si02
#       7
#     8   2   8   8   8   8   8
#     4  10  21  37  63  95 126 165 214 270 327 384
#     4  12  26  48  64  98 126 168 226 260 310 386
#     4  10  21  42  65  91 129 167 215 269 326 385
#     4  11  21  37  59  87 127 168 211 261 320 386
#     4  10  20  35  57  88 124 163 213 264 319 381
#     4   8  16  31  50  77 115 159 206 250 307 376
#     4  12  25  45  70  94 130 173 214 268 325 383
#
# _framework density 21.766499
#
# number of rings (size 3 to 8) (size 9 to 14) (size 15 to 20)
#    0.000    1.760    1.600    4.080    0.000    6.720 
#    0.000    2.400    0.000    0.000    0.000    0.000 
#    0.000    0.000    0.000    0.000    0.000    0.000 
#
# Total GULP energy -139504.851427 kJ/mol
# GULP energy per Si atom -5580.194057 kJ/mol
# Density = 2.171696 g / cm^3
# Si number density = 21.766499 Si / 1000 Ang^3
#
#
#
# Elastic Constant Matrix: (Units=GPa)
#
#
# Indices 1 2 3 4 5 6 
#
# 1 83.9102 11.4086 28.1343 0.0000 -5.1240 0.0000
# 2 11.4086 121.4389 29.0121 0.0000 -6.9850 0.0000
# 3 28.1343 29.0121 85.1057 0.0000 -2.4015 0.0000
# 4 0.0000 0.0000 0.0000 38.5594 0.0000 15.1496
# 5 -5.1240 -6.9850 -2.4015 0.0000 41.5325 0.0000
# 6 0.0000 0.0000 0.0000 15.1496 0.0000 54.8438
#
#
#
# Elastic Compliance Matrix: (Units=1/GPa)
#
#
# Indices 1 2 3 4 5 6 
#
# 1 0.013487 -0.000143 -0.004371 0.000000 0.001387 0.000000
# 2 -0.000143 0.009041 -0.002997 0.000000 0.001329 0.000000
# 3 -0.004371 -0.002997 0.014210 0.000000 -0.000222 0.000000
# 4 0.000000 0.000000 0.000000 0.029091 0.000000 -0.008036
# 5 0.001387 0.001329 -0.000222 0.000000 0.024459 0.000000
# 6 0.000000 0.000000 0.000000 -0.008036 0.000000 0.020453
#
#
# Mechanical properties :
#
#
# Convention : Reuss Voigt Hill
#
# Bulk Modulus (GPa) = 46.04816 47.50720 46.77768
# Shear Modulus (GPa) = 37.59331 41.78046 39.68688
#
# Velocity S-wave (km/s) = 4.16037 4.38595 4.27465
# Velocity P-wave (km/s) = 6.65430 6.89361 6.77501
#
# Compressibility (1/GPa) = 0.02171639
#
# Stress axis : x y z
#
# Youngs Moduli (GPa) = 74.14498 110.61328 70.37122
#
# Poissons Ratio (x) = 0.01583 0.30757
# Poissons Ratio (y) = 0.01061 0.21091
# Poissons Ratio (z) = 0.32406 0.33151
#
# Static dielectric constant tensor:
#      x y z
#    x 1.572390 0.000000 -0.056460 
#    y 0.000000 1.798500 0.000000 
#    z -0.056460 0.000000 1.767410 
# 
# From -- ./inp_files/180585.got.cif
#   From: 2010.05.17/outbox.cif.g08.bks.cpg/sg12_91_cif.got.tgz:180585.got - 2010.06.03 13:09:07.
