data_PCOD9196098
_publ_section_title
;
Structure prediction by ZEFSAII (Michael W. Deem and Ramdas Pophale) SiO2 
 PCOD9196098
Probable space group: C 2/M
;
_chemical_formula_sum "Si O2"
_cell_formula_units_Z 48
_cell_length_a 27.895538
_cell_length_b 7.750309
_cell_length_c 15.910527
_cell_angle_alpha 90.000000
_cell_angle_beta 138.828660
_cell_angle_gamma 90.000000
_cell_volume 2264.491857
_symmetry_space_group_name_H-M "C 2/M"
_symmetry_group_IT_number 12
_symmetry_cell_setting 'monoclinic'
loop_
_space_group_symop_operation_xyz
x,y,z
-x,y,-z
-x,-y,-z
x,-y,z
1/2+x,1/2+y,z
1/2-x,1/2+y,-z
1/2-x,1/2-y,-z
1/2+x,1/2-y,z
loop_
_atom_site_type_symbol
_atom_site_label
_atom_site_fract_x
_atom_site_fract_y
_atom_site_fract_z
Si Si1 0.452370 0.788763 0.516930
Si Si2 0.542616 0.296658 0.136109
Si Si3 0.206518 0.792295 0.358638
Si Si4 0.199310 0.206062 0.012015
Si Si5 0.031561 0.298055 0.790235
Si Si6 0.215684 0.711139 0.709288
O O1 0.500000 0.733386 0.500000
O O2 0.489244 0.729715 0.652466
O O3 0.368517 0.734680 0.398363
O O4 0.453310 0.000000 0.518643
O O5 0.552285 0.500000 0.131554
O O6 0.623907 0.224833 0.253808
O O7 0.496677 0.281114 0.160415
O O8 0.500000 0.221325 0.000000
O O9 0.250000 0.750000 0.500000
O O10 0.247070 0.730872 0.328063
O O11 0.204548 0.000000 0.350583
O O12 0.238318 0.268014 0.148983
O O13 0.192779 0.000000 0.009134
O O14 0.250000 0.250000 0.000000
O O15 0.117993 0.276725 0.894521
O O16 0.014540 0.500000 0.773461
O O17 0.215721 0.500000 0.710146
#
# Coordination Sequence:
#
# PCOD9196098 Si02
#       6
#     8   8   8   8   8   8
#     4   9  17  31  53  80 108 140 182 227 271 327
#     4  10  21  38  58  79 108 149 192 230 274 332
#     4  10  20  35  56  81 109 144 186 230 277 329
#     4  11  22  38  60  84 113 148 186 228 273 326
#     4  11  22  36  58  86 113 143 182 231 283 330
#     4   9  18  34  56  79 106 146 190 226 267 326
#
# _framework density 21.196807
#
# number of rings (size 3 to 8) (size 9 to 14) (size 15 to 20)
#    0.000    2.000    0.000    4.000    0.000    7.667 
#    0.000    3.333    0.000   13.000    0.000    0.000 
#    0.000    0.000    0.000    0.000    0.000    0.000 
#
# Total GULP energy -134154.984620 kJ/mol
# GULP energy per Si atom -5589.791026 kJ/mol
# Density = 2.114856 g / cm^3
# Si number density = 21.196807 Si / 1000 Ang^3
#
#
#
# Elastic Constant Matrix: (Units=GPa)
#
#
# Indices 1 2 3 4 5 6 
#
# 1 99.3596 -10.5705 26.9092 0.0000 -3.0542 0.0000
# 2 -10.5705 30.5567 1.6244 0.0000 -1.7059 0.0000
# 3 26.9092 1.6244 134.8171 0.0000 -6.5180 0.0000
# 4 0.0000 0.0000 0.0000 -0.1472 0.0000 -7.8484
# 5 -3.0542 -1.7059 -6.5180 0.0000 46.9941 0.0000
# 6 0.0000 0.0000 0.0000 -7.8484 0.0000 13.9076
#
#
#
# Elastic Compliance Matrix: (Units=1/GPa)
#
#
# Indices 1 2 3 4 5 6 
#
# 1 0.011113 0.003994 -0.002239 0.000000 0.000557 0.000000
# 2 0.003994 0.034244 -0.001145 0.000000 0.001344 0.000000
# 3 -0.002239 -0.001145 0.007922 0.000000 0.000912 0.000000
# 4 0.000000 0.000000 0.000000 -0.218517 0.000000 -0.123315
# 5 0.000557 0.001344 0.000912 0.000000 0.021491 0.000000
# 6 0.000000 0.000000 0.000000 -0.123315 0.000000 0.002313
#
#
# Mechanical properties :
#
#
# Convention : Reuss Voigt Hill
#
# Bulk Modulus (GPa) = 18.34884 33.40663 25.87773
# Shear Modulus (GPa) = -40.16466 28.60225 -5.78120
#
# Velocity S-wave (km/s) = -4.35770 3.67736 -1.65327
# Velocity P-wave (km/s) = 4.07973 5.81593 2.93094
#
# Compressibility (1/GPa) = 0.05449937
#
# Stress axis : x y z
#
# Youngs Moduli (GPa) = 89.98485 29.20242 126.22602
#
# Poissons Ratio (x) = -0.11665 0.28266
# Poissons Ratio (y) = -0.35944 0.14452
# Poissons Ratio (z) = 0.20151 0.03343
#
# Static dielectric constant tensor:
#      x y z
#    x 1.736450 0.000000 0.053770 
#    y 0.000000 1.798230 0.000000 
#    z 0.053770 0.000000 1.818400 
# 
# From -- ./inp_files/244902.got.cif
#   From: 2010.05.17/outbox.cif.g08.bks.cpg/sg12_123_cif.got.tgz:244902.got - 2010.06.03 13:09:07.
