data_PCOD9196054
_publ_section_title
;
Structure prediction by ZEFSAII (Michael W. Deem and Ramdas Pophale) SiO2 
 PCOD9196054
Probable space group: C 2/M
;
_chemical_formula_sum "Si O2"
_cell_formula_units_Z 56
_cell_length_a 7.866688
_cell_length_b 15.345986
_cell_length_c 20.084548
_cell_angle_alpha 90.000000
_cell_angle_beta 62.722061
_cell_angle_gamma 90.000000
_cell_volume 2155.012457
_symmetry_space_group_name_H-M "C 2/M"
_symmetry_group_IT_number 12
_symmetry_cell_setting 'monoclinic'
loop_
_space_group_symop_operation_xyz
x,y,z
-x,y,-z
-x,-y,-z
x,-y,z
1/2+x,1/2+y,z
1/2-x,1/2+y,-z
1/2-x,1/2-y,-z
1/2+x,1/2-y,z
loop_
_atom_site_type_symbol
_atom_site_label
_atom_site_fract_x
_atom_site_fract_y
_atom_site_fract_z
Si Si1 0.239138 0.897142 0.862211
Si Si2 0.702617 0.403320 0.339209
Si Si3 0.641011 0.726312 0.086571
Si Si4 0.643225 0.340008 0.535085
Si Si5 0.481455 0.097701 0.409681
Si Si6 0.719535 0.339593 0.726938
Si Si7 0.229366 0.158657 0.204638
O O1 0.376762 0.824353 0.874633
O O2 0.289390 0.900832 0.774753
O O3 0.033527 0.841978 0.899778
O O4 0.230395 0.000000 0.887609
O O5 0.637364 0.500000 0.370035
O O6 0.509871 0.346326 0.379196
O O7 0.853380 0.375751 0.367953
O O8 0.793577 0.407720 0.249619
O O9 0.767915 0.674882 0.119652
O O10 0.750000 0.750000 0.000000
O O11 0.500000 0.360705 0.500000
O O12 0.750000 0.250000 0.500000
O O13 0.829409 0.400566 0.497078
O O14 0.664775 0.156967 0.362782
O O15 0.550079 0.000000 0.388319
O O16 0.736938 0.246893 0.759777
O O17 0.498119 0.359359 0.758258
#
# Coordination Sequence:
#
# PCOD9196054 Si02
#       7
#     8   8   8   8   8   8   8
#     4  10  22  42  67  94 130 173 212 263 329 390
#     4  10  21  37  56  82 117 157 203 257 317 380
#     4  10  22  40  64  95 127 164 214 263 317 396
#     4  10  21  36  54  77 108 150 198 246 303 364
#     4  10  20  35  56  80 110 150 196 245 296 357
#     4  10  20  36  58  86 117 154 203 250 304 375
#     4  10  21  36  57  83 117 153 192 250 309 365
#
# _framework density 25.985928000000001
#
# number of rings (size 3 to 8) (size 9 to 14) (size 15 to 20)
#    0.000    2.000    0.000    3.000    0.000   10.286 
#    0.000    0.714    0.000    4.286    0.000    0.000 
#    0.000    0.000    0.000    0.000    0.000    0.000 
#
# Total GULP energy -155949.903364 kJ/mol
# GULP energy per Si atom -5569.639406 kJ/mol
# Density = 2.592678 g / cm^3
# Si number density = 25.985928 Si / 1000 Ang^3
#
#
#
# Elastic Constant Matrix: (Units=GPa)
#
#
# Indices 1 2 3 4 5 6 
#
# 1 78.9954 18.1733 -11.3362 0.0000 -0.2820 0.0000
# 2 18.1733 143.9664 9.0242 0.0000 -9.6517 0.0000
# 3 -11.3362 9.0242 146.9299 0.0000 8.3389 0.0000
# 4 0.0000 0.0000 0.0000 35.8285 0.0000 -0.3395
# 5 -0.2820 -9.6517 8.3389 0.0000 37.0292 0.0000
# 6 0.0000 0.0000 0.0000 -0.3395 0.0000 18.5896
#
#
#
# Elastic Compliance Matrix: (Units=1/GPa)
#
#
# Indices 1 2 3 4 5 6 
#
# 1 0.013235 -0.001786 0.001166 0.000000 -0.000627 0.000000
# 2 -0.001786 0.007354 -0.000707 0.000000 0.002062 0.000000
# 3 0.001166 -0.000707 0.007039 0.000000 -0.001761 0.000000
# 4 0.000000 0.000000 0.000000 0.027916 0.000000 0.000510
# 5 -0.000627 0.002062 -0.001761 0.000000 0.027935 0.000000
# 6 0.000000 0.000000 0.000000 0.000510 0.000000 0.053803
#
#
# Mechanical properties :
#
#
# Convention : Reuss Voigt Hill
#
# Bulk Modulus (GPa) = 40.03785 44.62382 42.33084
# Shear Modulus (GPa) = 33.72474 41.89147 37.80811
#
# Velocity S-wave (km/s) = 3.60642 4.01943 3.81851
# Velocity P-wave (km/s) = 5.72561 6.22500 5.98052
#
# Compressibility (1/GPa) = 0.02497636
#
# Stress axis : x y z
#
# Youngs Moduli (GPa) = 75.55748 135.97948 142.06017
#
# Poissons Ratio (x) = 0.24284 -0.16570
# Poissons Ratio (y) = 0.13494 0.10037
# Poissons Ratio (z) = -0.08813 0.09607
#
# Static dielectric constant tensor:
#      x y z
#    x 2.175830 0.000000 -0.050640 
#    y 0.000000 2.441070 0.000000 
#    z -0.050640 0.000000 2.203780 
# 
# From -- ./inp_files/332827.got.cif
#   From: 2010.05.17/outbox.cif.g08.bks.cpg/sg12_167_cif.got.tgz:332827.got - 2010.06.03 13:09:07.
