data_PCOD9196377
_publ_section_title
;
Structure prediction by ZEFSAII (Michael W. Deem and Ramdas Pophale) SiO2 
 PCOD9196377
Probable space group: C 2/M
;
_chemical_formula_sum "Si O2"
_cell_formula_units_Z 56
_cell_length_a 30.184610
_cell_length_b 7.807482
_cell_length_c 11.883888
_cell_angle_alpha 90.000000
_cell_angle_beta 112.213480
_cell_angle_gamma 90.000000
_cell_volume 2592.768166
_symmetry_space_group_name_H-M "C 2/M"
_symmetry_group_IT_number 12
_symmetry_cell_setting 'monoclinic'
loop_
_space_group_symop_operation_xyz
x,y,z
-x,y,-z
-x,-y,-z
x,-y,z
1/2+x,1/2+y,z
1/2-x,1/2+y,-z
1/2-x,1/2-y,-z
1/2+x,1/2-y,z
loop_
_atom_site_type_symbol
_atom_site_label
_atom_site_fract_x
_atom_site_fract_y
_atom_site_fract_z
Si Si1 0.101687 0.701102 0.340130
Si Si2 0.815905 0.701132 0.121941
Si Si3 0.795615 0.292742 0.618534
Si Si4 0.511516 0.207254 0.385929
Si Si5 0.556147 0.707638 0.060193
Si Si6 0.725058 0.200239 0.152630
Si Si7 0.917241 0.796567 0.158603
O O1 0.105917 0.500000 0.371849
O O2 0.155108 0.773666 0.388291
O O3 0.061655 0.774533 0.385109
O O4 0.080471 0.718674 0.194226
O O5 0.804727 0.500000 0.114041
O O6 0.781672 0.783398 0.182140
O O7 0.872496 0.724139 0.184382
O O8 0.800294 0.773093 0.983852
O O9 0.798803 0.500000 0.627797
O O10 0.750000 0.250000 0.500000
O O11 0.789383 0.226730 0.740575
O O12 0.500000 0.268785 0.500000
O O13 0.467942 0.254719 0.262728
O O14 0.513882 0.000000 0.390617
O O15 0.558542 0.500000 0.068603
O O16 0.581470 0.766049 0.969372
O O17 0.500000 0.754053 0.000000
O O18 0.712234 0.000000 0.142619
O O19 0.911750 0.000000 0.150401
#
# Coordination Sequence:
#
# PCOD9196377 Si02
#       7
#     8   8   8   8   8   8   8
#     4  10  21  38  60  84 113 150 192 240 288 336
#     4  10  20  35  59  86 114 147 186 233 286 345
#     4  10  22  39  58  83 114 151 197 243 287 339
#     4  10  22  39  57  80 113 152 193 234 277 333
#     4  10  20  35  56  85 119 149 184 231 282 339
#     4   9  19  37  57  81 115 148 187 239 292 343
#     4  11  22  36  56  84 118 151 186 230 281 340
#
# _framework density 21.598537
#
# number of rings (size 3 to 8) (size 9 to 14) (size 15 to 20)
#    0.000    2.000    1.429    1.714    0.000    5.714 
#    0.000    1.429    0.000    0.000    0.000    0.000 
#    0.000    0.000    0.000    0.000    0.000    0.000 
#
# Total GULP energy -156434.555690 kJ/mol
# GULP energy per Si atom -5586.948418 kJ/mol
# Density = 2.154938 g / cm^3
# Si number density = 21.598537 Si / 1000 Ang^3
#
#
#
# Elastic Constant Matrix: (Units=GPa)
#
#
# Indices 1 2 3 4 5 6 
#
# 1 167.2213 -3.7378 45.9647 0.0000 3.2528 0.0000
# 2 -3.7378 31.0280 -3.2611 0.0000 -3.3518 0.0000
# 3 45.9647 -3.2611 62.4599 0.0000 -13.1406 0.0000
# 4 0.0000 0.0000 0.0000 3.8391 0.0000 -2.9670
# 5 3.2528 -3.3518 -13.1406 0.0000 33.8787 0.0000
# 6 0.0000 0.0000 0.0000 -2.9670 0.0000 13.7139
#
#
#
# Elastic Compliance Matrix: (Units=1/GPa)
#
#
# Indices 1 2 3 4 5 6 
#
# 1 0.007811 -0.000087 -0.006438 0.000000 -0.003256 0.000000
# 2 -0.000087 0.032968 0.002693 0.000000 0.004315 0.000000
# 3 -0.006438 0.002693 0.022947 0.000000 0.009785 0.000000
# 4 0.000000 0.000000 0.000000 0.312775 0.000000 0.067670
# 5 -0.003256 0.004315 0.009785 0.000000 0.034052 0.000000
# 6 0.000000 0.000000 0.000000 0.067670 0.000000 0.087560
#
#
# Mechanical properties :
#
#
# Convention : Reuss Voigt Hill
#
# Bulk Modulus (GPa) = 17.83733 37.62677 27.73205
# Shear Modulus (GPa) = 9.53356 25.06922 17.30139
#
# Velocity S-wave (km/s) = 2.10323 3.41059 2.83334
# Velocity P-wave (km/s) = 3.76492 5.74180 4.85504
#
# Compressibility (1/GPa) = 0.05606221
#
# Stress axis : x y z
#
# Youngs Moduli (GPa) = 128.02424 30.33279 43.57859
#
# Poissons Ratio (x) = 0.00265 0.28054
# Poissons Ratio (y) = 0.01118 -0.11737
# Poissons Ratio (z) = 0.82418 -0.08169
#
# Static dielectric constant tensor:
#      x y z
#    x 1.804910 0.000000 -0.015370 
#    y 0.000000 1.785340 0.000000 
#    z -0.015370 0.000000 1.756320 
# 
# From -- ./inp_files/186363.got.cif
#   From: 2010.05.17/outbox.cif.g08.bks.cpg/sg12_94_cif.got.tgz:186363.got - 2010.06.03 13:09:07.
