data_PCOD9196402
_publ_section_title
;
Structure prediction by ZEFSAII (Michael W. Deem and Ramdas Pophale) SiO2 
 PCOD9196402
Probable space group: C 2/M
;
_chemical_formula_sum "Si O2"
_cell_formula_units_Z 64
_cell_length_a 27.356966
_cell_length_b 14.561155
_cell_length_c 9.357233
_cell_angle_alpha 90.000000
_cell_angle_beta 109.476021
_cell_angle_gamma 90.000000
_cell_volume 3514.164376
_symmetry_space_group_name_H-M "C 2/M"
_symmetry_group_IT_number 12
_symmetry_cell_setting 'monoclinic'
loop_
_space_group_symop_operation_xyz
x,y,z
-x,y,-z
-x,-y,-z
x,-y,z
1/2+x,1/2+y,z
1/2-x,1/2+y,-z
1/2-x,1/2-y,-z
1/2+x,1/2-y,z
loop_
_atom_site_type_symbol
_atom_site_label
_atom_site_fract_x
_atom_site_fract_y
_atom_site_fract_z
Si Si1 0.971424 0.710922 0.623671
Si Si2 0.033301 0.598474 0.889111
Si Si3 0.350709 0.101412 0.884595
Si Si4 0.442805 0.600881 0.516710
Si Si5 0.366199 0.894475 0.558535
Si Si6 0.703884 0.716830 0.054947
Si Si7 0.775933 0.265394 0.370313
Si Si8 0.834736 0.891010 0.247271
O O1 0.946867 0.811442 0.622640
O O2 0.924297 0.639895 0.587417
O O3 0.000000 0.708344 0.500000
O O4 0.014679 0.682777 0.778305
O O5 0.023281 0.500000 0.804143
O O6 0.092259 0.600632 0.993151
O O7 0.000000 0.598792 0.000000
O O8 0.355214 0.111372 0.717962
O O9 0.324661 0.190316 0.925574
O O10 0.326733 0.000000 0.890347
O O11 0.500000 0.597332 0.500000
O O12 0.433764 0.500000 0.573035
O O13 0.394373 0.617837 0.361934
O O14 0.325681 0.829925 0.438618
O O15 0.360405 0.000000 0.509496
O O16 0.733164 0.685401 0.227566
O O17 0.750000 0.750000 0.000000
O O18 0.671793 0.648364 0.920965
O O19 0.750000 0.250000 0.500000
O O20 0.797672 0.171776 0.314559
O O21 0.821774 0.000000 0.240246
#
# Coordination Sequence:
#
# PCOD9196402 Si02
#       8
#     8   8   8   8   8   8   8   8
#     4  11  22  35  59  91 124 155 190 243 299 349
#     4  10  20  35  56  86 122 159 193 226 285 370
#     4  10  21  38  62  87 118 162 201 238 298 366
#     4   9  19  36  59  84 112 149 193 239 293 354
#     4  11  22  38  60  90 126 160 199 245 298 362
#     4  10  23  38  60  85 117 152 204 256 300 354
#     4  11  22  40  61  91 120 156 206 256 300 357
#     4  10  22  41  62  85 120 159 198 248 308 359
#
# _framework density 18.212011
#
# number of rings (size 3 to 8) (size 9 to 14) (size 15 to 20)
#    0.000    1.750    3.750    0.375    3.500    4.000 
#    0.000    4.375    0.000    1.125    0.000    0.000 
#    0.000    0.000    0.000    0.000    0.000    0.000 
#
# Total GULP energy -178271.415413 kJ/mol
# GULP energy per Si atom -5570.981732 kJ/mol
# Density = 1.817056 g / cm^3
# Si number density = 18.212011 Si / 1000 Ang^3
#
#
#
# Elastic Constant Matrix: (Units=GPa)
#
#
# Indices 1 2 3 4 5 6 
#
# 1 61.2098 24.1070 14.1017 0.0000 4.1563 0.0000
# 2 24.1070 131.9663 53.9531 0.0000 8.5612 0.0000
# 3 14.1017 53.9531 96.9124 0.0000 13.0122 0.0000
# 4 0.0000 0.0000 0.0000 22.1775 0.0000 -3.1852
# 5 4.1563 8.5612 13.0122 0.0000 30.7700 0.0000
# 6 0.0000 0.0000 0.0000 -3.1852 0.0000 48.4544
#
#
#
# Elastic Compliance Matrix: (Units=1/GPa)
#
#
# Indices 1 2 3 4 5 6 
#
# 1 0.017724 -0.002811 -0.000846 0.000000 -0.001254 0.000000
# 2 -0.002811 0.010262 -0.005271 0.000000 -0.000247 0.000000
# 3 -0.000846 -0.005271 0.013956 0.000000 -0.004321 0.000000
# 4 0.000000 0.000000 0.000000 0.045521 0.000000 0.002992
# 5 -0.001254 -0.000247 -0.004321 0.000000 0.034565 0.000000
# 6 0.000000 0.000000 0.000000 0.002992 0.000000 0.020835
#
#
# Mechanical properties :
#
#
# Convention : Reuss Voigt Hill
#
# Bulk Modulus (GPa) = 41.51505 52.71244 47.11374
# Shear Modulus (GPa) = 29.63018 33.47550 31.55284
#
# Velocity S-wave (km/s) = 4.03793 4.29196 4.16688
# Velocity P-wave (km/s) = 6.67718 7.31900 7.00545
#
# Compressibility (1/GPa) = 0.02408765
#
# Stress axis : x y z
#
# Youngs Moduli (GPa) = 56.41991 97.44569 71.65182
#
# Poissons Ratio (x) = 0.27388 0.06061
# Poissons Ratio (y) = 0.15857 0.37768
# Poissons Ratio (z) = 0.04773 0.51364
#
# Static dielectric constant tensor:
#      x y z
#    x 1.522250 0.000000 -0.011050 
#    y 0.000000 1.673410 0.000000 
#    z -0.011050 0.000000 1.628610 
# 
# From -- ./inp_files/104676.got.cif
#   From: 2010.05.17/outbox.cif.g08.bks.cpg/sg12_53_cif.got.tgz:104676.got - 2010.06.03 13:09:07.
