data_PCOD9196827
_publ_section_title
;
Structure prediction by ZEFSAII (Michael W. Deem and Ramdas Pophale) SiO2 
 PCOD9196827
Probable space group: C 2/M
;
_chemical_formula_sum "Si O2"
_cell_formula_units_Z 56
_cell_length_a 19.629827
_cell_length_b 8.979901
_cell_length_c 18.971564
_cell_angle_alpha 90.000000
_cell_angle_beta 111.868468
_cell_angle_gamma 90.000000
_cell_volume 3103.548227
_symmetry_space_group_name_H-M "C 2/M"
_symmetry_group_IT_number 12
_symmetry_cell_setting 'monoclinic'
loop_
_space_group_symop_operation_xyz
x,y,z
-x,y,-z
-x,-y,-z
x,-y,z
1/2+x,1/2+y,z
1/2-x,1/2+y,-z
1/2-x,1/2-y,-z
1/2+x,1/2-y,z
loop_
_atom_site_type_symbol
_atom_site_label
_atom_site_fract_x
_atom_site_fract_y
_atom_site_fract_z
Si Si1 0.472010 0.820959 0.643399
Si Si2 0.556772 0.169938 0.958160
Si Si3 0.467672 0.324884 0.194582
Si Si4 0.174267 0.679776 0.497416
Si Si5 0.371508 0.178949 0.361904
Si Si6 0.693493 0.324917 0.799936
Si Si7 0.292588 0.676690 0.951146
O O1 0.485730 0.741179 0.722971
O O2 0.395594 0.778110 0.577735
O O3 0.542790 0.785914 0.621358
O O4 0.472203 0.000000 0.653540
O O5 0.522332 0.235710 0.873631
O O6 0.582278 0.000000 0.954729
O O7 0.500000 0.167807 0.000000
O O8 0.624238 0.272203 0.007123
O O9 0.482072 0.500000 0.190794
O O10 0.382243 0.307690 0.184892
O O11 0.180319 0.500000 0.497625
O O12 0.250000 0.750000 0.500000
O O13 0.154221 0.722066 0.570060
O O14 0.324006 0.257698 0.283187
O O15 0.364187 0.000000 0.352358
O O16 0.710009 0.500000 0.801919
O O17 0.756681 0.239752 0.866125
O O18 0.285696 0.500000 0.951313
O O19 0.250000 0.750000 0.000000
#
# Coordination Sequence:
#
# PCOD9196827 Si02
#       7
#     8   8   8   8   8   8   8
#     4   9  18  35  60  84 108 144 190 237 281 333
#     4  11  24  41  60  84 116 155 197 240 290 346
#     4  10  20  35  58  86 116 149 188 238 289 340
#     4  10  21  37  57  83 115 150 185 228 285 344
#     4   9  18  35  59  84 110 144 191 238 280 335
#     4  10  20  35  57  88 118 147 188 240 291 338
#     4  12  23  37  61  88 117 154 195 240 289 341
#
# _framework density 18.043863999999999
#
# number of rings (size 3 to 8) (size 9 to 14) (size 15 to 20)
#    0.000    1.857    1.429    3.000    0.000    5.143 
#    2.571    0.000    0.000    4.286    0.000    0.000 
#    0.000    0.000    0.000    0.000    0.000    0.000 
#
# Total GULP energy -156380.827313 kJ/mol
# GULP energy per Si atom -5585.029547 kJ/mol
# Density = 1.800279 g / cm^3
# Si number density = 18.043864 Si / 1000 Ang^3
#
#
#
# Elastic Constant Matrix: (Units=GPa)
#
#
# Indices 1 2 3 4 5 6 
#
# 1 81.4602 45.2183 75.1078 0.0000 0.4234 0.0000
# 2 45.2183 90.4560 73.1253 0.0000 -3.3476 0.0000
# 3 75.1078 73.1253 163.7724 0.0000 -1.9332 0.0000
# 4 0.0000 0.0000 0.0000 30.4319 0.0000 2.6337
# 5 0.4234 -3.3476 -1.9332 0.0000 22.2546 0.0000
# 6 0.0000 0.0000 0.0000 2.6337 0.0000 27.9536
#
#
#
# Elastic Compliance Matrix: (Units=1/GPa)
#
#
# Indices 1 2 3 4 5 6 
#
# 1 0.022469 -0.004620 -0.008263 0.000000 -0.001840 0.000000
# 2 -0.004620 0.018333 -0.006040 0.000000 0.002321 0.000000
# 3 -0.008263 -0.006040 0.012596 0.000000 0.000343 0.000000
# 4 0.000000 0.000000 0.000000 0.033130 0.000000 -0.003121
# 5 -0.001840 0.002321 0.000343 0.000000 0.045348 0.000000
# 6 0.000000 0.000000 0.000000 -0.003121 0.000000 0.036068
#
#
# Mechanical properties :
#
#
# Convention : Reuss Voigt Hill
#
# Bulk Modulus (GPa) = 64.29850 80.28794 72.29322
# Shear Modulus (GPa) = 23.69947 25.61050 24.65498
#
# Velocity S-wave (km/s) = 3.62807 3.77151 3.70048
# Velocity P-wave (km/s) = 7.29811 7.97234 7.64267
#
# Compressibility (1/GPa) = 0.01555246
#
# Stress axis : x y z
#
# Youngs Moduli (GPa) = 44.50562 54.54661 79.38735
#
# Poissons Ratio (x) = 0.25201 0.65601
# Poissons Ratio (y) = 0.20562 0.47947
# Poissons Ratio (z) = 0.36777 0.32944
#
# Static dielectric constant tensor:
#      x y z
#    x 1.599300 0.000000 0.000080 
#    y 0.000000 1.607420 0.000000 
#    z 0.000080 0.000000 1.598680 
# 
# From -- ./inp_files/281719.got.cif
#   From: 2010.05.17/outbox.cif.g08.bks.cpg/sg12_141_cif.got.tgz:281719.got - 2010.06.03 13:09:07.
