data_PCOD9196950
_publ_section_title
;
Structure prediction by ZEFSAII (Michael W. Deem and Ramdas Pophale) SiO2 
 PCOD9196950
Probable space group: C 2/M
;
_chemical_formula_sum "Si O2"
_cell_formula_units_Z 60
_cell_length_a 20.962991
_cell_length_b 17.656092
_cell_length_c 8.302983
_cell_angle_alpha 90.000000
_cell_angle_beta 100.692554
_cell_angle_gamma 90.000000
_cell_volume 3019.778272
_symmetry_space_group_name_H-M "C 2/M"
_symmetry_group_IT_number 12
_symmetry_cell_setting 'monoclinic'
loop_
_space_group_symop_operation_xyz
x,y,z
-x,y,-z
-x,-y,-z
x,-y,z
1/2+x,1/2+y,z
1/2-x,1/2+y,-z
1/2-x,1/2-y,-z
1/2+x,1/2-y,z
loop_
_atom_site_type_symbol
_atom_site_label
_atom_site_fract_x
_atom_site_fract_y
_atom_site_fract_z
Si Si1 0.564195 0.829113 0.694941
Si Si2 0.689458 0.689935 0.280617
Si Si3 0.321169 0.169277 0.480865
Si Si4 0.956959 0.415862 0.817279
Si Si5 0.500000 0.308354 0.500000
Si Si6 0.852867 0.683782 0.943977
Si Si7 0.750799 0.411749 0.732138
Si Si8 0.122797 0.910721 0.481895
O O1 0.610028 0.847612 0.565178
O O2 0.507537 0.888293 0.707262
O O3 0.528934 0.749061 0.646740
O O4 0.611756 0.824798 0.870552
O O5 0.676882 0.752601 0.416707
O O6 0.766759 0.680223 0.317139
O O7 0.660592 0.729714 0.110954
O O8 0.655627 0.614778 0.329130
O O9 0.290895 0.107685 0.587534
O O10 0.930364 0.500000 0.773035
O O11 0.901912 0.355178 0.836687
O O12 0.000000 0.420112 0.000000
O O13 0.558770 0.361190 0.472327
O O14 0.785186 0.639152 0.884032
O O15 0.755695 0.500000 0.774193
O O16 0.676751 0.393754 0.646292
O O17 0.109983 0.000000 0.479720
#
# Coordination Sequence:
#
# PCOD9196950 Si02
#       8
#     8   8   8   8   4   8   8   8
#     4  11  23  35  56  86 115 152 196 235 285 332
#     4   9  17  35  57  80 112 139 184 235 287 343
#     4   9  18  33  55  84 111 148 184 234 282 333
#     4   9  19  35  51  74 112 151 184 218 269 341
#     4  12  23  38  55  82 118 146 192 244 277 336
#     4  10  20  35  58  84 114 153 190 232 292 341
#     4   9  19  36  60  86 114 149 193 234 284 346
#     4  10  20  37  62  84 107 148 191 233 287 344
#
# _framework density 19.869008999999998
#
# number of rings (size 3 to 8) (size 9 to 14) (size 15 to 20)
#    0.000    2.267    1.333    2.200    1.867    1.600 
#    0.000    0.333    0.000    2.400    0.000    0.000 
#    0.000    0.000    0.000    0.000    0.000    0.000 
#
# Total GULP energy -167387.795344 kJ/mol
# GULP energy per Si atom -5579.593178 kJ/mol
# Density = 1.982379 g / cm^3
# Si number density = 19.869009 Si / 1000 Ang^3
#
#
#
# Elastic Constant Matrix: (Units=GPa)
#
#
# Indices 1 2 3 4 5 6 
#
# 1 110.5563 28.4887 23.8231 0.0000 4.8361 0.0000
# 2 28.4887 70.8204 12.4390 0.0000 12.4016 0.0000
# 3 23.8231 12.4390 55.7916 0.0000 17.4967 0.0000
# 4 0.0000 0.0000 0.0000 12.1741 0.0000 3.5341
# 5 4.8361 12.4016 17.4967 0.0000 32.2689 0.0000
# 6 0.0000 0.0000 0.0000 3.5341 0.0000 20.7771
#
#
#
# Elastic Compliance Matrix: (Units=1/GPa)
#
#
# Indices 1 2 3 4 5 6 
#
# 1 0.010953 -0.004025 -0.004518 0.000000 0.002355 0.000000
# 2 -0.004025 0.016781 -0.000228 0.000000 -0.005722 0.000000
# 3 -0.004518 -0.000228 0.023693 0.000000 -0.012082 0.000000
# 4 0.000000 0.000000 0.000000 0.086408 0.000000 -0.014697
# 5 0.002355 -0.005722 -0.012082 0.000000 0.039387 0.000000
# 6 0.000000 0.000000 0.000000 -0.014697 0.000000 0.050630
#
#
# Mechanical properties :
#
#
# Convention : Reuss Voigt Hill
#
# Bulk Modulus (GPa) = 29.51176 40.74110 35.12643
# Shear Modulus (GPa) = 19.47880 24.53853 22.00867
#
# Velocity S-wave (km/s) = 3.13447 3.51809 3.33181
# Velocity P-wave (km/s) = 5.29011 6.08703 5.70251
#
# Compressibility (1/GPa) = 0.03388480
#
# Stress axis : x y z
#
# Youngs Moduli (GPa) = 91.30027 59.58959 42.20666
#
# Poissons Ratio (x) = 0.23984 0.19070
# Poissons Ratio (y) = 0.36747 0.00963
# Poissons Ratio (z) = 0.41251 0.01360
#
# Static dielectric constant tensor:
#      x y z
#    x 1.722300 0.000000 0.011500 
#    y 0.000000 1.696940 0.000000 
#    z 0.011500 0.000000 1.740240 
# 
# From -- ./inp_files/88003.got.cif
#   From: 2010.05.17/outbox.cif.g08.bks.cpg/sg12_45_cif.got.tgz:88003.got - 2010.06.03 13:09:07.
