data_PCOD9196862
_publ_section_title
;
Structure prediction by ZEFSAII (Michael W. Deem and Ramdas Pophale) SiO2 
 PCOD9196862
Probable space group: C 2/M
;
_chemical_formula_sum "Si O2"
_cell_formula_units_Z 56
_cell_length_a 17.973716
_cell_length_b 14.446412
_cell_length_c 20.296016
_cell_angle_alpha 90.000000
_cell_angle_beta 149.546847
_cell_angle_gamma 90.000000
_cell_volume 2671.001602
_symmetry_space_group_name_H-M "C 2/M"
_symmetry_group_IT_number 12
_symmetry_cell_setting 'monoclinic'
loop_
_space_group_symop_operation_xyz
x,y,z
-x,y,-z
-x,-y,-z
x,-y,z
1/2+x,1/2+y,z
1/2-x,1/2+y,-z
1/2-x,1/2-y,-z
1/2+x,1/2-y,z
loop_
_atom_site_type_symbol
_atom_site_label
_atom_site_fract_x
_atom_site_fract_y
_atom_site_fract_z
Si Si1 0.976275 0.610624 0.757405
Si Si2 0.233316 0.610928 0.055605
Si Si3 0.268771 0.242804 0.674232
Si Si4 0.188670 0.209651 0.758212
Si Si5 0.333352 0.601346 0.899309
Si Si6 0.899276 0.724100 0.575346
Si Si7 0.479053 0.392970 0.145379
O O1 0.971773 0.500000 0.752125
O O2 0.835823 0.657577 0.684280
O O3 0.975757 0.650513 0.682788
O O4 0.109825 0.639268 0.908186
O O5 0.226772 0.500000 0.056345
O O6 0.215907 0.655466 0.114386
O O7 0.391887 0.634084 0.144770
O O8 0.212830 0.197452 0.699183
O O9 0.152474 0.296449 0.538825
O O10 0.398421 0.318939 0.780812
O O11 0.234726 0.316524 0.800020
O O12 0.021600 0.198169 0.654331
O O13 0.278911 0.500000 0.838287
O O14 0.500000 0.610305 0.000000
O O15 0.355164 0.605546 0.994245
O O16 0.750000 0.750000 0.500000
O O17 0.533248 0.500000 0.191645
#
# Coordination Sequence:
#
# PCOD9196862 Si02
#       7
#     8   8   8   8   8   8   8
#     4  10  22  41  63  90 123 161 207 257 309 366
#     4  10  22  38  61  93 127 163 207 254 307 376
#     4  11  23  39  61  89 123 163 207 256 308 370
#     4  12  23  38  63  91 126 164 204 257 319 372
#     4  10  20  35  57  90 126 159 200 254 319 379
#     4  10  23  42  61  83 117 163 214 256 296 358
#     4  10  20  37  59  86 122 164 208 257 310 368
#
# _framework density 20.965919
#
# number of rings (size 3 to 8) (size 9 to 14) (size 15 to 20)
#    0.000    1.571    1.429    3.857    0.000    4.571 
#    0.000    5.714    0.000    6.857    0.000    0.000 
#    0.000    0.000    0.000    0.000    0.000    0.000 
#
# Total GULP energy -156104.341168 kJ/mol
# GULP energy per Si atom -5575.155042 kJ/mol
# Density = 2.091820 g / cm^3
# Si number density = 20.965919 Si / 1000 Ang^3
#
#
#
# Elastic Constant Matrix: (Units=GPa)
#
#
# Indices 1 2 3 4 5 6 
#
# 1 148.2809 26.2267 36.2995 0.0002 -24.1132 0.0004
# 2 26.2267 39.2953 14.8686 0.0000 -5.3176 0.0015
# 3 36.2995 14.8686 81.3798 -0.0004 -20.8356 0.0011
# 4 0.0002 0.0000 -0.0004 3.4279 -0.0002 5.3031
# 5 -24.1132 -5.3176 -20.8356 -0.0002 31.2902 0.0005
# 6 0.0004 0.0015 0.0011 5.3031 0.0005 12.9849
#
#
#
# Elastic Compliance Matrix: (Units=1/GPa)
#
#
# Indices 1 2 3 4 5 6 
#
# 1 0.008771 -0.004502 -0.001875 -0.000002 0.004746 0.000001
# 2 -0.004502 0.029715 -0.003636 0.000012 -0.000841 -0.000008
# 3 -0.001875 -0.003636 0.015986 0.000012 0.008582 -0.000006
# 4 -0.000002 0.000012 0.000012 0.792323 0.000019 -0.323587
# 5 0.004746 -0.000841 0.008582 0.000019 0.041188 -0.000010
# 6 0.000001 -0.000008 -0.000006 -0.323587 -0.000010 0.209166
#
#
# Mechanical properties :
#
#
# Convention : Reuss Voigt Hill
#
# Bulk Modulus (GPa) = 29.03119 47.08286 38.05702
# Shear Modulus (GPa) = 4.43004 22.31134 13.37069
#
# Velocity S-wave (km/s) = 1.45518 3.26570 2.52808
# Velocity P-wave (km/s) = 4.08660 6.06015 5.16845
#
# Compressibility (1/GPa) = 0.03444571
#
# Stress axis : x y z
#
# Youngs Moduli (GPa) = 114.01246 33.65255 62.55521
#
# Poissons Ratio (x) = 0.15152 0.11727
# Poissons Ratio (y) = 0.51333 0.22746
# Poissons Ratio (z) = 0.21373 0.12237
#
# Static dielectric constant tensor:
#      x y z
#    x 1.832060 0.000000 -0.005620 
#    y 0.000000 1.742580 0.000000 
#    z -0.005620 0.000000 1.824560 
# 
# From -- ./inp_files/316759.got.cif
#   From: 2010.05.17/outbox.cif.g08.bks.cpg/sg12_159_cif.got.tgz:316759.got - 2010.06.03 13:09:07.
