data_PCOD9196863
_publ_section_title
;
Structure prediction by ZEFSAII (Michael W. Deem and Ramdas Pophale) SiO2 
 PCOD9196863
Probable space group: C 2/M
;
_chemical_formula_sum "Si O2"
_cell_formula_units_Z 56
_cell_length_a 11.552739
_cell_length_b 14.139361
_cell_length_c 25.694100
_cell_angle_alpha 90.000000
_cell_angle_beta 31.848568
_cell_angle_gamma 90.000000
_cell_volume 2214.703164
_symmetry_space_group_name_H-M "C 2/M"
_symmetry_group_IT_number 12
_symmetry_cell_setting 'monoclinic'
loop_
_space_group_symop_operation_xyz
x,y,z
-x,y,-z
-x,-y,-z
x,-y,z
1/2+x,1/2+y,z
1/2-x,1/2+y,-z
1/2-x,1/2-y,-z
1/2+x,1/2-y,z
loop_
_atom_site_type_symbol
_atom_site_label
_atom_site_fract_x
_atom_site_fract_y
_atom_site_fract_z
Si Si1 0.554467 0.385012 0.539214
Si Si2 0.242621 0.156478 0.258342
Si Si3 0.220718 0.603706 0.102235
Si Si4 0.140629 0.856508 0.832196
Si Si5 0.262270 0.182081 0.073186
Si Si6 0.464964 0.106381 0.613488
Si Si7 0.049060 0.108173 0.721972
O O1 0.500000 0.369468 0.500000
O O2 0.527260 0.500000 0.558293
O O3 0.387566 0.327562 0.638985
O O4 0.801601 0.353821 0.458824
O O5 0.461671 0.103580 0.190967
O O6 0.325098 0.245322 0.193011
O O7 0.061152 0.108453 0.291680
O O8 0.297298 0.500000 0.054219
O O9 0.284480 0.613008 0.139163
O O10 0.293742 0.705685 0.050423
O O11 0.308329 0.896439 0.724641
O O12 0.884064 0.871727 0.914323
O O13 0.097800 0.173331 0.184760
O O14 0.500000 0.143621 0.000000
O O15 0.299894 0.139856 0.631275
O O16 0.520979 0.000000 0.575860
O O17 0.035108 0.000000 0.746967
#
# Coordination Sequence:
#
# PCOD9196863 Si02
#       7
#     8   8   8   8   8   8   8
#     4  10  20  35  57  90 127 163 209 260 307 366
#     4  11  22  38  62  91 124 166 212 255 311 371
#     4  11  22  40  65  93 126 168 209 253 317 382
#     4  10  21  39  64  87 123 163 206 255 313 372
#     4  10  23  42  65  93 126 161 210 264 315 375
#     4   9  19  35  57  85 118 160 206 253 306 367
#     4  10  20  39  63  89 124 167 211 258 317 377
#
# _framework density 25.285557000000001
#
# number of rings (size 3 to 8) (size 9 to 14) (size 15 to 20)
#    0.000    1.857    1.429    2.571    0.000    4.000 
#    0.000    2.143    0.000    0.000    0.000    0.000 
#    0.000    0.000    0.000    0.000    0.000    0.000 
#
# Total GULP energy -156366.650238 kJ/mol
# GULP energy per Si atom -5584.523223 kJ/mol
# Density = 2.522801 g / cm^3
# Si number density = 25.285557 Si / 1000 Ang^3
#
#
#
# Elastic Constant Matrix: (Units=GPa)
#
#
# Indices 1 2 3 4 5 6 
#
# 1 171.1536 30.7016 47.3160 0.0006 -40.7222 0.0003
# 2 30.7016 106.2054 9.4485 0.0000 -13.0013 -0.0004
# 3 47.3160 9.4485 96.0979 -0.0023 -49.8389 0.0026
# 4 0.0006 0.0000 -0.0023 21.8614 0.0001 1.5941
# 5 -40.7222 -13.0013 -49.8389 0.0001 59.1882 0.0002
# 6 0.0003 -0.0004 0.0026 1.5941 0.0002 7.9299
#
#
#
# Elastic Compliance Matrix: (Units=1/GPa)
#
#
# Indices 1 2 3 4 5 6 
#
# 1 0.007393 -0.001583 -0.001823 0.000000 0.003204 0.000000
# 2 -0.001583 0.010019 0.000658 0.000000 0.001666 0.000000
# 3 -0.001823 0.000658 0.018930 0.000002 0.014831 -0.000007
# 4 0.000000 0.000000 0.000002 0.046423 0.000002 -0.009332
# 5 0.003204 0.001666 0.014831 0.000002 0.031954 -0.000006
# 6 0.000000 0.000000 -0.000007 -0.009332 -0.000006 0.127982
#
#
# Mechanical properties :
#
#
# Convention : Reuss Voigt Hill
#
# Bulk Modulus (GPa) = 32.41762 60.93212 46.67487
# Shear Modulus (GPa) = 19.34406 36.86195 28.10301
#
# Velocity S-wave (km/s) = 2.76891 3.82229 3.33742
# Velocity P-wave (km/s) = 4.80322 6.60529 5.77498
#
# Compressibility (1/GPa) = 0.03084742
#
# Stress axis : x y z
#
# Youngs Moduli (GPa) = 135.26654 99.81390 52.82494
#
# Poissons Ratio (x) = 0.15798 0.09629
# Poissons Ratio (y) = 0.21409 -0.03478
# Poissons Ratio (z) = 0.24657 -0.06571
#
# Static dielectric constant tensor:
#      x y z
#    x 2.008230 0.000000 -0.011800 
#    y 0.000000 2.063600 0.000000 
#    z -0.011800 0.000000 1.974030 
# 
# From -- ./inp_files/374185.got.cif
#   From: 2010.05.17/outbox.cif.g08.bks.cpg/sg12_188_cif.got.tgz:374185.got - 2010.06.03 13:09:07.
