data_PCOD9196841
_publ_section_title
;
Structure prediction by ZEFSAII (Michael W. Deem and Ramdas Pophale) SiO2 
 PCOD9196841
Probable space group: C 2/M
;
_chemical_formula_sum "Si O2"
_cell_formula_units_Z 64
_cell_length_a 29.346134
_cell_length_b 13.702356
_cell_length_c 8.933329
_cell_angle_alpha 90.000000
_cell_angle_beta 122.043224
_cell_angle_gamma 90.000000
_cell_volume 3044.914175
_symmetry_space_group_name_H-M "C 2/M"
_symmetry_group_IT_number 12
_symmetry_cell_setting 'monoclinic'
loop_
_space_group_symop_operation_xyz
x,y,z
-x,y,-z
-x,-y,-z
x,-y,z
1/2+x,1/2+y,z
1/2-x,1/2+y,-z
1/2-x,1/2-y,-z
1/2+x,1/2-y,z
loop_
_atom_site_type_symbol
_atom_site_label
_atom_site_fract_x
_atom_site_fract_y
_atom_site_fract_z
Si Si1 0.151713 0.609038 0.270622
Si Si2 0.603697 0.736092 0.778264
Si Si3 0.314664 0.112969 0.017088
Si Si4 0.257602 0.348377 0.606406
Si Si5 0.034548 0.189891 0.922689
Si Si6 0.941007 0.889051 0.555761
Si Si7 0.626256 0.335674 0.286598
Si Si8 0.211371 0.883506 0.010273
O O1 0.124097 0.500000 0.225333
O O2 0.203819 0.597998 0.466084
O O3 0.126479 0.715192 0.273979
O O4 0.172169 0.625648 0.135509
O O5 0.640105 0.830086 0.810594
O O6 0.567420 0.754874 0.861777
O O7 0.566167 0.690363 0.586316
O O8 0.651551 0.658102 0.890415
O O9 0.253688 0.141525 0.952634
O O10 0.318991 0.000000 0.060382
O O11 0.250000 0.250000 0.500000
O O12 0.316553 0.380348 0.655737
O O13 0.263078 0.341917 0.793057
O O14 0.993466 0.129023 0.749222
O O15 0.080822 0.130840 0.089933
O O16 0.000000 0.235389 0.000000
O O17 0.891433 0.869496 0.581239
O O18 0.940600 0.000000 0.498217
O O19 0.208393 0.000000 0.017227
#
# Coordination Sequence:
#
# PCOD9196841 Si02
#       8
#     8   8   8   8   8   8   8   8
#     4  10  20  37  63  93 127 166 211 253 304 371
#     4  12  22  42  67  90 128 173 204 256 311 376
#     4  10  23  40  64  97 132 168 205 251 308 375
#     4  10  20  35  57  88 127 169 207 253 300 361
#     4  10  22  44  66  88 120 160 209 264 318 362
#     4  11  27  42  63  92 122 161 210 261 315 378
#     4  10  21  41  61  89 124 168 205 258 316 365
#     4  11  23  37  59  96 134 169 208 249 305 379
#
# _framework density 21.018654999999999
#
# number of rings (size 3 to 8) (size 9 to 14) (size 15 to 20)
#    0.000    1.500    2.500    2.250    5.250    4.750 
#    0.000    0.000    0.000    9.000    0.000    0.000 
#    0.000    0.000    0.000    0.000    0.000    0.000 
#
# Total GULP energy -178382.904502 kJ/mol
# GULP energy per Si atom -5574.465766 kJ/mol
# Density = 2.097082 g / cm^3
# Si number density = 21.018655 Si / 1000 Ang^3
#
#
#
# Elastic Constant Matrix: (Units=GPa)
#
#
# Indices 1 2 3 4 5 6 
#
# 1 100.4419 5.1890 13.6557 0.0000 2.2892 0.0000
# 2 5.1890 102.2514 8.0401 0.0000 4.9260 0.0000
# 3 13.6557 8.0401 96.1344 0.0000 16.3428 0.0000
# 4 0.0000 0.0000 0.0000 32.8075 0.0000 -19.2042
# 5 2.2892 4.9260 16.3428 0.0000 30.5454 0.0000
# 6 0.0000 0.0000 0.0000 -19.2042 0.0000 23.0632
#
#
#
# Elastic Compliance Matrix: (Units=1/GPa)
#
#
# Indices 1 2 3 4 5 6 
#
# 1 0.010169 -0.000407 -0.001421 0.000000 0.000064 0.000000
# 2 -0.000407 0.009905 -0.000555 0.000000 -0.001270 0.000000
# 3 -0.001421 -0.000555 0.011679 0.000000 -0.006053 0.000000
# 4 0.000000 0.000000 0.000000 0.059465 0.000000 0.049515
# 5 0.000064 -0.001270 -0.006053 0.000000 0.036177 0.000000
# 6 0.000000 0.000000 0.000000 0.049515 0.000000 0.084589
#
#
# Mechanical properties :
#
#
# Convention : Reuss Voigt Hill
#
# Bulk Modulus (GPa) = 37.05499 39.17748 38.11623
# Shear Modulus (GPa) = 22.14873 35.41276 28.78074
#
# Velocity S-wave (km/s) = 3.24970 4.10912 3.70441
# Velocity P-wave (km/s) = 5.63459 6.41817 6.03910
#
# Compressibility (1/GPa) = 0.02698692
#
# Stress axis : x y z
#
# Youngs Moduli (GPa) = 98.33976 100.95612 85.62114
#
# Poissons Ratio (x) = 0.04113 0.12169
# Poissons Ratio (y) = 0.04006 0.04749
# Poissons Ratio (z) = 0.13977 0.05599
#
# Static dielectric constant tensor:
#      x y z
#    x 1.797390 0.000000 -0.010750 
#    y 0.000000 1.676510 0.000000 
#    z -0.010750 0.000000 1.757920 
# 
# From -- ./inp_files/111664.got.cif
#   From: 2010.05.17/outbox.cif.g08.bks.cpg/sg12_56_cif.got.tgz:111664.got - 2010.06.03 13:09:07.
