data_PCOD9196882
_publ_section_title
;
Structure prediction by ZEFSAII (Michael W. Deem and Ramdas Pophale) SiO2 
 PCOD9196882
Probable space group: C 2/M
;
_chemical_formula_sum "Si O2"
_cell_formula_units_Z 56
_cell_length_a 14.209093
_cell_length_b 14.062938
_cell_length_c 15.327269
_cell_angle_alpha 90.000000
_cell_angle_beta 101.811377
_cell_angle_gamma 90.000000
_cell_volume 2997.871641
_symmetry_space_group_name_H-M "C 2/M"
_symmetry_group_IT_number 12
_symmetry_cell_setting 'monoclinic'
loop_
_space_group_symop_operation_xyz
x,y,z
-x,y,-z
-x,-y,-z
x,-y,z
1/2+x,1/2+y,z
1/2-x,1/2+y,-z
1/2-x,1/2-y,-z
1/2+x,1/2-y,z
loop_
_atom_site_type_symbol
_atom_site_label
_atom_site_fract_x
_atom_site_fract_y
_atom_site_fract_z
Si Si1 0.747540 0.152346 0.948040
Si Si2 0.093871 0.285442 0.456900
Si Si3 0.964592 0.683458 0.092814
Si Si4 0.002855 0.612518 0.277297
Si Si5 0.720796 0.612987 0.428800
Si Si6 0.224842 0.613089 0.757234
Si Si7 0.565935 0.600069 0.926551
O O1 0.635882 0.125054 0.926734
O O2 0.772681 0.161427 0.850609
O O3 0.750000 0.250000 0.000000
O O4 0.826481 0.095410 0.015302
O O5 0.063266 0.328032 0.357887
O O6 0.176971 0.352556 0.512975
O O7 0.139987 0.180877 0.454613
O O8 0.000000 0.285153 0.500000
O O9 0.947815 0.794880 0.116399
O O10 0.026835 0.637805 0.181482
O O11 0.000000 0.682474 0.000000
O O12 0.014028 0.500000 0.294959
O O13 0.888989 0.636545 0.268795
O O14 0.707463 0.500000 0.439656
O O15 0.726777 0.632263 0.326016
O O16 0.231327 0.500000 0.775440
O O17 0.544966 0.500000 0.873999
O O18 0.500000 0.601138 0.000000
#
# Coordination Sequence:
#
# PCOD9196882 Si02
#       7
#     8   8   8   8   8   8   8
#     4   9  17  29  48  75 107 144 181 234 282 327
#     4  11  22  38  62  91 120 154 191 245 295 350
#     4   9  19  34  52  80 112 144 187 237 286 343
#     4  10  20  35  58  82 107 145 194 244 290 340
#     4  10  22  38  60  91 121 154 194 238 294 356
#     4   9  17  32  55  81 105 138 193 245 284 334
#     4   9  17  30  49  72 101 140 182 226 277 331
#
# _framework density 18.679919000000002
#
# number of rings (size 3 to 8) (size 9 to 14) (size 15 to 20)
#    0.000    2.429    1.429    0.857    0.000    5.143 
#    0.000    2.143    0.000    0.000    0.000    0.000 
#    0.000    0.000    0.000    0.000    0.000    0.000 
#
# Total GULP energy -155931.217019 kJ/mol
# GULP energy per Si atom -5568.972036 kJ/mol
# Density = 1.863740 g / cm^3
# Si number density = 18.679919 Si / 1000 Ang^3
#
#
#
# Elastic Constant Matrix: (Units=GPa)
#
#
# Indices 1 2 3 4 5 6 
#
# 1 48.9945 29.0258 18.5891 0.0000 -2.3295 0.0000
# 2 29.0258 97.7591 27.4720 0.0000 0.5469 0.0000
# 3 18.5891 27.4720 102.3338 0.0000 -0.7755 0.0000
# 4 0.0000 0.0000 0.0000 26.0514 0.0000 -4.1901
# 5 -2.3295 0.5469 -0.7755 0.0000 14.9323 0.0000
# 6 0.0000 0.0000 0.0000 -4.1901 0.0000 18.4979
#
#
#
# Elastic Compliance Matrix: (Units=1/GPa)
#
#
# Indices 1 2 3 4 5 6 
#
# 1 0.025744 -0.006881 -0.002798 0.000000 0.004123 0.000000
# 2 -0.006881 0.012907 -0.002228 0.000000 -0.001662 0.000000
# 3 -0.002798 -0.002228 0.010880 0.000000 0.000210 0.000000
# 4 0.000000 0.000000 0.000000 0.039837 0.000000 0.009024
# 5 0.004123 -0.001662 0.000210 0.000000 0.067684 0.000000
# 6 0.000000 0.000000 0.000000 0.009024 0.000000 0.056104
#
#
# Mechanical properties :
#
#
# Convention : Reuss Voigt Hill
#
# Bulk Modulus (GPa) = 38.88215 44.36239 41.62227
# Shear Modulus (GPa) = 20.36303 23.49635 21.92969
#
# Velocity S-wave (km/s) = 3.30525 3.55045 3.43004
# Velocity P-wave (km/s) = 5.95201 6.37243 6.16580
#
# Compressibility (1/GPa) = 0.02571874
#
# Stress axis : x y z
#
# Youngs Moduli (GPa) = 38.84341 77.47439 91.91272
#
# Poissons Ratio (x) = 0.53307 0.25719
# Poissons Ratio (y) = 0.26726 0.20476
# Poissons Ratio (z) = 0.10869 0.17260
#
# Static dielectric constant tensor:
#      x y z
#    x 1.699670 0.000000 0.017760 
#    y 0.000000 1.660850 0.000000 
#    z 0.017760 0.000000 1.657820 
# 
# From -- ./inp_files/214348.got.cif
#   From: 2010.05.17/outbox.cif.g08.bks.cpg/sg12_108_cif.got.tgz:214348.got - 2010.06.03 13:09:07.
