data_PCOD9196171
_publ_section_title
;
Structure prediction by ZEFSAII (Michael W. Deem and Ramdas Pophale) SiO2 
 PCOD9196171
Probable space group: C 2/M
;
_chemical_formula_sum "Si O2"
_cell_formula_units_Z 56
_cell_length_a 24.733089
_cell_length_b 7.474330
_cell_length_c 13.620917
_cell_angle_alpha 90.000000
_cell_angle_beta 74.890692
_cell_angle_gamma 90.000000
_cell_volume 2430.960484
_symmetry_space_group_name_H-M "C 2/M"
_symmetry_group_IT_number 12
_symmetry_cell_setting 'monoclinic'
loop_
_space_group_symop_operation_xyz
x,y,z
-x,y,-z
-x,-y,-z
x,-y,z
1/2+x,1/2+y,z
1/2-x,1/2+y,-z
1/2-x,1/2-y,-z
1/2+x,1/2-y,z
loop_
_atom_site_type_symbol
_atom_site_label
_atom_site_fract_x
_atom_site_fract_y
_atom_site_fract_z
Si Si1 0.053624 0.792098 0.530050
Si Si2 0.698238 0.787222 0.951693
Si Si3 0.487525 0.784045 0.116111
Si Si4 0.275576 0.293363 0.283208
Si Si5 0.849293 0.717924 0.667862
Si Si6 0.396392 0.781835 0.856432
Si Si7 0.890712 0.210996 0.302663
O O1 0.106089 0.780881 0.432479
O O2 0.073792 0.711638 0.623665
O O3 0.000000 0.711439 0.500000
O O4 0.039026 0.000000 0.556808
O O5 0.709775 0.708653 0.839533
O O6 0.693528 0.000000 0.940275
O O7 0.750000 0.750000 0.000000
O O8 0.642469 0.724284 0.034244
O O9 0.539635 0.725082 0.159012
O O10 0.428508 0.727348 0.188073
O O11 0.487188 0.000000 0.114854
O O12 0.500000 0.722886 0.000000
O O13 0.271163 0.500000 0.316414
O O14 0.213505 0.216342 0.323914
O O15 0.328823 0.212625 0.314207
O O16 0.848921 0.500000 0.668133
O O17 0.869322 0.775234 0.766720
O O18 0.395668 0.000000 0.857147
O O19 0.883419 0.000000 0.326273
#
# Coordination Sequence:
#
# PCOD9196171 Si02
#       7
#     8   8   8   8   8   8   8
#     4  10  22  40  59  82 112 143 183 237 289 337
#     4  11  20  34  56  83 117 154 189 229 278 333
#     4  10  20  35  56  82 111 144 185 231 273 325
#     4  10  21  38  56  80 115 151 188 231 282 339
#     4  10  20  36  57  80 107 143 187 233 278 332
#     4   9  18  33  53  78 111 146 182 227 279 328
#     4  10  22  39  58  80 113 152 185 230 289 339
#
# _framework density 23.036163999999999
#
# number of rings (size 3 to 8) (size 9 to 14) (size 15 to 20)
#    0.000    2.000    1.429    2.143    0.000    4.000 
#    0.000    1.429    0.000    0.000    0.000    0.000 
#    0.000    0.000    0.000    0.000    0.000    0.000 
#
# Total GULP energy -156541.406439 kJ/mol
# GULP energy per Si atom -5590.764516 kJ/mol
# Density = 2.298373 g / cm^3
# Si number density = 23.036164 Si / 1000 Ang^3
#
#
#
# Elastic Constant Matrix: (Units=GPa)
#
#
# Indices 1 2 3 4 5 6 
#
# 1 184.5336 1.4602 39.0817 0.0000 4.8870 0.0000
# 2 1.4602 70.0025 -15.8180 0.0000 5.9919 0.0000
# 3 39.0817 -15.8180 82.5305 0.0000 -0.0681 0.0000
# 4 0.0000 0.0000 0.0000 21.0364 0.0000 -12.1500
# 5 4.8870 5.9919 -0.0681 0.0000 35.5185 0.0000
# 6 0.0000 0.0000 0.0000 -12.1500 0.0000 3.3092
#
#
#
# Elastic Compliance Matrix: (Units=1/GPa)
#
#
# Indices 1 2 3 4 5 6 
#
# 1 0.006085 -0.000749 -0.003026 0.000000 -0.000717 0.000000
# 2 -0.000749 0.015252 0.003276 0.000000 -0.002464 0.000000
# 3 -0.003026 0.003276 0.014177 0.000000 -0.000109 0.000000
# 4 0.000000 0.000000 0.000000 -0.042421 0.000000 -0.155751
# 5 -0.000717 -0.002464 -0.000109 0.000000 0.028668 0.000000
# 6 0.000000 0.000000 0.000000 -0.155751 0.000000 -0.269666
#
#
# Mechanical properties :
#
#
# Convention : Reuss Voigt Hill
#
# Bulk Modulus (GPa) = 28.97185 42.94607 35.95896
# Shear Modulus (GPa) = -21.24032 32.79565 5.77767
#
# Velocity S-wave (km/s) = -3.03981 3.77723 1.58541
# Velocity P-wave (km/s) = 0.53235 6.14058 4.35833
#
# Compressibility (1/GPa) = 0.03451627
#
# Stress axis : x y z
#
# Youngs Moduli (GPa) = 164.34526 65.56538 70.53547
#
# Poissons Ratio (x) = 0.04913 0.21341
# Poissons Ratio (y) = 0.12314 -0.23107
# Poissons Ratio (z) = 0.49724 -0.21479
#
# Static dielectric constant tensor:
#      x y z
#    x 1.873290 0.000000 0.017990 
#    y 0.000000 1.928540 0.000000 
#    z 0.017990 0.000000 1.801200 
# 
# From -- ./inp_files/238382.got.cif
#   From: 2010.05.17/outbox.cif.g08.bks.cpg/sg12_120_cif.got.tgz:238382.got - 2010.06.03 13:09:07.
