data_PCOD9196654
_publ_section_title
;
Structure prediction by ZEFSAII (Michael W. Deem and Ramdas Pophale) SiO2 
 PCOD9196654
Probable space group: C 2/M
;
_chemical_formula_sum "Si O2"
_cell_formula_units_Z 64
_cell_length_a 30.950318
_cell_length_b 7.601070
_cell_length_c 23.185989
_cell_angle_alpha 90.000000
_cell_angle_beta 148.144921
_cell_angle_gamma 90.000000
_cell_volume 2878.805220
_symmetry_space_group_name_H-M "C 2/M"
_symmetry_group_IT_number 12
_symmetry_cell_setting 'monoclinic'
loop_
_space_group_symop_operation_xyz
x,y,z
-x,y,-z
-x,-y,-z
x,-y,z
1/2+x,1/2+y,z
1/2-x,1/2+y,-z
1/2-x,1/2-y,-z
1/2+x,1/2-y,z
loop_
_atom_site_type_symbol
_atom_site_label
_atom_site_fract_x
_atom_site_fract_y
_atom_site_fract_z
Si Si1 0.365386 0.202068 0.007719
Si Si2 0.691763 0.296978 0.775848
Si Si3 0.495459 0.783758 0.750192
Si Si4 0.924241 0.205920 0.951567
Si Si5 0.462019 0.204661 0.329026
Si Si6 0.287079 0.787161 0.704447
Si Si7 0.668282 0.789005 0.371647
Si Si8 0.376738 0.713055 0.423232
O O1 0.276227 0.283924 0.894716
O O2 0.411353 0.205098 0.998390
O O3 0.351368 0.000000 0.010078
O O4 0.426317 0.277800 0.124324
O O5 0.712504 0.500000 0.784745
O O6 0.620043 0.293314 0.741154
O O7 0.654689 0.222022 0.674591
O O8 0.504872 0.728168 0.694708
O O9 0.412014 0.723293 0.686186
O O10 0.493566 0.000000 0.749038
O O11 0.843746 0.226114 0.821200
O O12 0.939242 0.000000 0.979882
O O13 0.000000 0.276314 0.000000
O O14 0.534768 0.222713 0.457582
O O15 0.441826 0.000000 0.299046
O O16 0.320805 0.722735 0.681395
O O17 0.193354 0.735445 0.610368
O O18 0.289302 0.000000 0.707255
O O19 0.750000 0.750000 0.500000
O O20 0.660452 0.000000 0.358651
O O21 0.381875 0.500000 0.427347
#
# Coordination Sequence:
#
# PCOD9196654 Si02
#       8
#     8   8   8   8   8   8   8   8
#     4  10  20  40  65  83 108 152 196 238 284 339
#     4  10  21  38  60  85 112 145 190 244 294 336
#     4   9  20  38  58  83 115 150 193 239 281 334
#     4  11  23  36  53  84 121 150 180 229 287 338
#     4  11  23  37  56  84 116 153 193 233 289 352
#     4  10  20  36  59  85 109 148 198 234 276 342
#     4  10  20  35  57  84 115 151 194 238 281 335
#     4  10  20  37  58  85 116 144 188 244 289 338
#
# _framework density 22.231444
#
# number of rings (size 3 to 8) (size 9 to 14) (size 15 to 20)
#    0.000    1.875    1.250    2.625    0.000    6.000 
#    0.000    2.500    0.000    0.000    0.000    0.000 
#    0.000    0.000    0.000    0.000    0.000    0.000 
#
# Total GULP energy -178880.460447 kJ/mol
# GULP energy per Si atom -5590.014389 kJ/mol
# Density = 2.218084 g / cm^3
# Si number density = 22.231444 Si / 1000 Ang^3
#
#
#
# Elastic Constant Matrix: (Units=GPa)
#
#
# Indices 1 2 3 4 5 6 
#
# 1 97.7861 1.0456 35.3275 0.0000 8.6708 0.0000
# 2 1.0456 48.4120 -4.7769 0.0000 0.3343 0.0000
# 3 35.3275 -4.7769 135.4115 0.0000 5.6088 0.0000
# 4 0.0000 0.0000 0.0000 21.4534 0.0000 12.7742
# 5 8.6708 0.3343 5.6088 0.0000 40.1763 0.0000
# 6 0.0000 0.0000 0.0000 12.7742 0.0000 43.2428
#
#
#
# Elastic Compliance Matrix: (Units=1/GPa)
#
#
# Indices 1 2 3 4 5 6 
#
# 1 0.011472 -0.000522 -0.002926 0.000000 -0.002063 0.000000
# 2 -0.000522 0.020755 0.000876 0.000000 -0.000182 0.000000
# 3 -0.002926 0.000876 0.008201 0.000000 -0.000521 0.000000
# 4 0.000000 0.000000 0.000000 0.056562 0.000000 -0.016709
# 5 -0.002063 -0.000182 -0.000521 0.000000 0.025410 0.000000
# 6 0.000000 0.000000 0.000000 -0.016709 0.000000 0.028061
#
#
# Mechanical properties :
#
#
# Convention : Reuss Voigt Hill
#
# Bulk Modulus (GPa) = 28.34198 38.31134 33.32666
# Shear Modulus (GPa) = 29.87470 37.64206 33.75838
#
# Velocity S-wave (km/s) = 3.66977 4.11930 3.90102
# Velocity P-wave (km/s) = 5.54370 6.31627 5.94255
#
# Compressibility (1/GPa) = 0.03528335
#
# Stress axis : x y z
#
# Youngs Moduli (GPa) = 87.16903 48.18120 121.94085
#
# Poissons Ratio (x) = 0.02516 0.35679
# Poissons Ratio (y) = 0.04552 -0.10682
# Poissons Ratio (z) = 0.25505 -0.04220
#
# Static dielectric constant tensor:
#      x y z
#    x 1.796080 0.000000 0.004770 
#    y 0.000000 1.861060 0.000000 
#    z 0.004770 0.000000 1.788570 
# 
# From -- ./inp_files/353435.got.cif
#   From: 2010.05.17/outbox.cif.g08.bks.cpg/sg12_177_cif.got.tgz:353435.got - 2010.06.03 13:09:07.
