data_PCOD9196163
_publ_section_title
;
Structure prediction by ZEFSAII (Michael W. Deem and Ramdas Pophale) SiO2 
 PCOD9196163
Probable space group: C 2/M
;
_chemical_formula_sum "Si O2"
_cell_formula_units_Z 64
_cell_length_a 31.807466
_cell_length_b 9.016892
_cell_length_c 19.637766
_cell_angle_alpha 90.000000
_cell_angle_beta 144.420811
_cell_angle_gamma 90.000000
_cell_volume 3276.969030
_symmetry_space_group_name_H-M "C 2/M"
_symmetry_group_IT_number 12
_symmetry_cell_setting 'monoclinic'
loop_
_space_group_symop_operation_xyz
x,y,z
-x,y,-z
-x,-y,-z
x,-y,z
1/2+x,1/2+y,z
1/2-x,1/2+y,-z
1/2-x,1/2-y,-z
1/2+x,1/2-y,z
loop_
_atom_site_type_symbol
_atom_site_label
_atom_site_fract_x
_atom_site_fract_y
_atom_site_fract_z
Si Si1 0.040195 0.824167 0.481955
Si Si2 0.324943 0.825784 0.681704
Si Si3 0.406527 0.826544 0.058425
Si Si4 0.248196 0.673651 0.070909
Si Si5 0.157155 0.175848 0.153040
Si Si6 0.021254 0.323106 0.322263
Si Si7 0.845884 0.826385 0.567428
Si Si8 0.811198 0.323318 0.284099
O O1 0.999637 0.751511 0.364727
O O2 0.119387 0.752985 0.591933
O O3 0.000000 0.795625 0.500000
O O4 0.045944 0.000000 0.479412
O O5 0.352583 0.761026 0.789099
O O6 0.237611 0.810077 0.564504
O O7 0.352574 0.735257 0.652943
O O8 0.342037 0.000000 0.696876
O O9 0.470438 0.777727 0.192454
O O10 0.417124 0.000000 0.054709
O O11 0.332530 0.816421 0.004350
O O12 0.395698 0.733224 0.975850
O O13 0.267698 0.500000 0.091754
O O14 0.298120 0.755866 0.191876
O O15 0.250000 0.750000 0.000000
O O16 0.238386 0.206198 0.231581
O O17 0.150165 0.000000 0.153642
O O18 0.018086 0.500000 0.324427
O O19 0.101336 0.268212 0.409900
O O20 0.864506 0.000000 0.588454
O O21 0.821035 0.500000 0.293344
#
# Coordination Sequence:
#
# PCOD9196163 Si02
#       8
#     8   8   8   8   8   8   8   8
#     4  11  25  41  57  83 114 150 192 238 289 342
#     4  10  20  35  59  88 120 153 189 235 284 339
#     4   9  21  39  57  80 111 151 193 233 285 345
#     4  10  20  35  56  82 110 144 188 239 289 339
#     4  10  20  35  58  87 115 147 189 238 287 336
#     4  11  23  40  61  84 115 155 193 234 286 348
#     4  10  21  37  59  89 120 154 191 234 286 339
#     4  10  21  37  57  82 111 146 188 234 286 343
#
# _framework density 19.530242000000001
#
# number of rings (size 3 to 8) (size 9 to 14) (size 15 to 20)
#    0.000    1.875    0.000    3.375    1.750    7.500 
#    0.000    0.625    0.000    3.750    0.000    0.000 
#    0.000    0.000    0.000    0.000    0.000    0.000 
#
# Total GULP energy -178867.730652 kJ/mol
# GULP energy per Si atom -5589.616583 kJ/mol
# Density = 1.948579 g / cm^3
# Si number density = 19.530242 Si / 1000 Ang^3
#
#
#
# Elastic Constant Matrix: (Units=GPa)
#
#
# Indices 1 2 3 4 5 6 
#
# 1 46.2247 31.5115 24.3227 0.0000 -28.4305 0.0000
# 2 31.5115 52.0872 27.1561 0.0000 -14.6668 0.0000
# 3 24.3227 27.1561 77.0769 0.0000 -24.9866 0.0000
# 4 0.0000 0.0000 0.0000 28.4741 0.0000 -11.4460
# 5 -28.4305 -14.6668 -24.9866 0.0000 34.0292 0.0000
# 6 0.0000 0.0000 0.0000 -11.4460 0.0000 27.3720
#
#
#
# Elastic Compliance Matrix: (Units=1/GPa)
#
#
# Indices 1 2 3 4 5 6 
#
# 1 0.070704 -0.031403 0.004612 0.000000 0.048923 0.000000
# 2 -0.031403 0.038223 -0.008822 0.000000 -0.016239 0.000000
# 3 0.004612 -0.008822 0.019218 0.000000 0.014162 0.000000
# 4 0.000000 0.000000 0.000000 0.042216 0.000000 0.017653
# 5 0.048923 -0.016239 0.014162 0.000000 0.073660 0.000000
# 6 0.000000 0.000000 0.000000 0.017653 0.000000 0.043916
#
#
# Mechanical properties :
#
#
# Convention : Reuss Voigt Hill
#
# Bulk Modulus (GPa) = 17.56853 37.92991 27.74922
# Shear Modulus (GPa) = 13.22278 24.13498 18.67888
#
# Velocity S-wave (km/s) = 2.60482 3.51917 3.09594
# Velocity P-wave (km/s) = 4.24993 5.99800 5.19798
#
# Compressibility (1/GPa) = 0.05691994
#
# Stress axis : x y z
#
# Youngs Moduli (GPa) = 14.14343 26.16210 52.03501
#
# Poissons Ratio (x) = 0.82157 -0.23999
# Poissons Ratio (y) = 0.44415 0.45904
# Poissons Ratio (z) = -0.06523 0.23080
#
# Static dielectric constant tensor:
#      x y z
#    x 1.677150 0.000000 0.004390 
#    y 0.000000 1.645770 0.000000 
#    z 0.004390 0.000000 1.682350 
# 
# From -- ./inp_files/295690.got.cif
#   From: 2010.05.17/outbox.cif.g08.bks.cpg/sg12_148_cif.got.tgz:295690.got - 2010.06.03 13:09:07.
