data_PCOD9196952
_publ_section_title
;
Structure prediction by ZEFSAII (Michael W. Deem and Ramdas Pophale) SiO2 
 PCOD9196952
Probable space group: C 2/M
;
_chemical_formula_sum "Si O2"
_cell_formula_units_Z 56
_cell_length_a 14.214365
_cell_length_b 14.023046
_cell_length_c 19.079849
_cell_angle_alpha 90.000000
_cell_angle_beta 128.005242
_cell_angle_gamma 90.000000
_cell_volume 2996.717838
_symmetry_space_group_name_H-M "C 2/M"
_symmetry_group_IT_number 12
_symmetry_cell_setting 'monoclinic'
loop_
_space_group_symop_operation_xyz
x,y,z
-x,y,-z
-x,-y,-z
x,-y,z
1/2+x,1/2+y,z
1/2-x,1/2+y,-z
1/2-x,1/2-y,-z
1/2+x,1/2-y,z
loop_
_atom_site_type_symbol
_atom_site_label
_atom_site_fract_x
_atom_site_fract_y
_atom_site_fract_z
Si Si1 0.569238 0.792267 0.957956
Si Si2 0.068360 0.393513 0.605662
Si Si3 0.266341 0.254106 0.387906
Si Si4 0.863948 0.388092 0.778500
Si Si5 0.928880 0.773087 0.589703
Si Si6 0.828182 0.113907 0.068160
Si Si7 0.127032 0.889762 0.754196
O O1 0.480177 0.832526 0.857842
O O2 0.609947 0.684069 0.959213
O O3 0.500000 0.798482 0.000000
O O4 0.689219 0.855989 0.010505
O O5 0.098496 0.500000 0.643466
O O6 0.180522 0.325154 0.640353
O O7 0.000000 0.401071 0.500000
O O8 0.976410 0.335958 0.612267
O O9 0.198511 0.336730 0.315651
O O10 0.173048 0.209084 0.399954
O O11 0.373509 0.290274 0.487447
O O12 0.887702 0.500000 0.777253
O O13 0.764084 0.380369 0.793748
O O14 0.042871 0.833881 0.662777
O O15 0.884716 0.138192 0.170193
O O16 0.839144 0.000000 0.060908
O O17 0.094659 0.000000 0.734047
#
# Coordination Sequence:
#
# PCOD9196952 Si02
#       7
#     8   8   8   8   8   8   8
#     4  11  22  39  65  89 117 155 192 238 292 348
#     4   9  18  34  54  76 106 146 191 236 282 335
#     4  10  21  36  56  82 113 154 194 241 288 337
#     4  11  22  36  58  86 117 153 193 236 288 351
#     4  10  20  36  57  80 114 153 196 239 287 340
#     4  10  22  40  63  91 119 151 192 239 291 346
#     4  10  20  35  58  84 115 152 189 235 288 346
#
# _framework density 18.687111000000002
#
# number of rings (size 3 to 8) (size 9 to 14) (size 15 to 20)
#    0.000    1.857    2.857    1.286    0.000    2.571 
#    0.000    5.000    0.000    0.857    0.000    0.000 
#    0.000    0.000    0.000    0.000    0.000    0.000 
#
# Total GULP energy -156134.918116 kJ/mol
# GULP energy per Si atom -5576.247076 kJ/mol
# Density = 1.864458 g / cm^3
# Si number density = 18.687111 Si / 1000 Ang^3
#
#
#
# Elastic Constant Matrix: (Units=GPa)
#
#
# Indices 1 2 3 4 5 6 
#
# 1 60.6270 28.3095 26.3039 0.0000 12.2920 0.0000
# 2 28.3095 87.9753 57.8790 0.0000 16.8624 0.0000
# 3 26.3039 57.8790 88.6227 0.0000 19.0300 0.0000
# 4 0.0000 0.0000 0.0000 26.0630 0.0000 0.5620
# 5 12.2920 16.8624 19.0300 0.0000 21.5093 0.0000
# 6 0.0000 0.0000 0.0000 0.5620 0.0000 15.7096
#
#
#
# Elastic Compliance Matrix: (Units=1/GPa)
#
#
# Indices 1 2 3 4 5 6 
#
# 1 0.020632 -0.003971 -0.002058 0.000000 -0.006857 0.000000
# 2 -0.003971 0.021153 -0.011806 0.000000 -0.003869 0.000000
# 3 -0.002058 -0.011806 0.021438 0.000000 -0.008535 0.000000
# 4 0.000000 0.000000 0.000000 0.038398 0.000000 -0.001374
# 5 -0.006857 -0.003869 -0.008535 0.000000 0.060995 0.000000
# 6 0.000000 0.000000 0.000000 -0.001374 0.000000 0.063705
#
#
# Mechanical properties :
#
#
# Convention : Reuss Voigt Hill
#
# Bulk Modulus (GPa) = 36.29300 51.35662 43.82481
# Shear Modulus (GPa) = 18.43842 20.97189 19.70516
#
# Velocity S-wave (km/s) = 3.14457 3.35366 3.25080
# Velocity P-wave (km/s) = 5.71385 6.52212 6.13132
#
# Compressibility (1/GPa) = 0.02755352
#
# Stress axis : x y z
#
# Youngs Moduli (GPa) = 48.46953 47.27441 46.64712
#
# Poissons Ratio (x) = 0.18772 0.09599
# Poissons Ratio (y) = 0.19247 0.55070
# Poissons Ratio (z) = 0.09974 0.55810
#
# Static dielectric constant tensor:
#      x y z
#    x 1.672080 0.000000 -0.006640 
#    y 0.000000 1.633370 0.000000 
#    z -0.006640 0.000000 1.649640 
# 
# From -- ./inp_files/270406.got.cif
#   From: 2010.05.17/outbox.cif.g08.bks.cpg/sg12_136_cif.got.tgz:270406.got - 2010.06.03 13:09:07.
