data_PCOD9196414
_publ_section_title
;
Structure prediction by ZEFSAII (Michael W. Deem and Ramdas Pophale) SiO2 
 PCOD9196414
Probable space group: C 2/M
;
_chemical_formula_sum "Si O2"
_cell_formula_units_Z 56
_cell_length_a 30.691481
_cell_length_b 8.846409
_cell_length_c 12.101945
_cell_angle_alpha 90.000000
_cell_angle_beta 119.060855
_cell_angle_gamma 90.000000
_cell_volume 2872.124658
_symmetry_space_group_name_H-M "C 2/M"
_symmetry_group_IT_number 12
_symmetry_cell_setting 'monoclinic'
loop_
_space_group_symop_operation_xyz
x,y,z
-x,y,-z
-x,-y,-z
x,-y,z
1/2+x,1/2+y,z
1/2-x,1/2+y,-z
1/2-x,1/2-y,-z
1/2+x,1/2-y,z
loop_
_atom_site_type_symbol
_atom_site_label
_atom_site_fract_x
_atom_site_fract_y
_atom_site_fract_z
Si Si1 0.246441 0.176743 0.115100
Si Si2 0.912327 0.818645 0.130516
Si Si3 0.995118 0.681089 0.624316
Si Si4 0.657155 0.327920 0.753317
Si Si5 0.306512 0.181521 0.574436
Si Si6 0.608365 0.674489 0.467458
Si Si7 0.846028 0.183742 0.849330
O O1 0.299379 0.218184 0.231365
O O2 0.201281 0.229800 0.134155
O O3 0.240203 0.000000 0.094810
O O4 0.250000 0.250000 0.000000
O O5 0.866585 0.787329 0.158592
O O6 0.959629 0.740050 0.244098
O O7 0.919744 0.000000 0.142076
O O8 0.894206 0.777965 0.984391
O O9 0.994878 0.500000 0.624205
O O10 0.943885 0.742740 0.613741
O O11 0.000000 0.728876 0.500000
O O12 0.676768 0.500000 0.783826
O O13 0.615588 0.326019 0.608586
O O14 0.250000 0.250000 0.500000
O O15 0.343449 0.245850 0.525885
O O16 0.335339 0.235259 0.721039
O O17 0.302689 0.000000 0.564294
O O18 0.606641 0.500000 0.427302
O O19 0.845622 0.000000 0.833951
#
# Coordination Sequence:
#
# PCOD9196414 Si02
#       7
#     8   8   8   8   8   8   8
#     4  11  21  33  53  83 120 158 198 247 304 371
#     4  10  20  38  61  88 124 164 206 254 310 374
#     4  11  23  38  60  95 134 169 209 259 315 374
#     4  10  20  35  56  87 121 157 202 250 307 370
#     4  12  26  45  68  94 127 166 213 263 312 374
#     4  11  23  41  67  93 123 165 213 261 313 373
#     4  10  22  41  62  87 123 166 210 260 315 373
#
# _framework density 19.49776
#
# number of rings (size 3 to 8) (size 9 to 14) (size 15 to 20)
#    0.000    1.286    2.857    3.429    0.000    6.286 
#    0.000    0.714    0.000    4.286    0.000    0.000 
#    0.000    0.000    0.000    0.000    0.000    0.000 
#
# Total GULP energy -156258.737053 kJ/mol
# GULP energy per Si atom -5580.669180 kJ/mol
# Density = 1.945338 g / cm^3
# Si number density = 19.497760 Si / 1000 Ang^3
#
#
#
# Elastic Constant Matrix: (Units=GPa)
#
#
# Indices 1 2 3 4 5 6 
#
# 1 80.7405 39.2384 31.9838 0.0000 7.7014 0.0000
# 2 39.2384 66.3546 42.4260 0.0000 7.8809 0.0000
# 3 31.9838 42.4260 120.6795 0.0000 7.0161 0.0000
# 4 0.0000 0.0000 0.0000 32.5166 0.0000 3.6258
# 5 7.7014 7.8809 7.0161 0.0000 28.5033 0.0000
# 6 0.0000 0.0000 0.0000 3.6258 0.0000 30.0231
#
#
#
# Elastic Compliance Matrix: (Units=1/GPa)
#
#
# Indices 1 2 3 4 5 6 
#
# 1 0.017629 -0.009399 -0.001260 0.000000 -0.001854 0.000000
# 2 -0.009399 0.024854 -0.006082 0.000000 -0.002835 0.000000
# 3 -0.001260 -0.006082 0.010795 0.000000 -0.000635 0.000000
# 4 0.000000 0.000000 0.000000 0.031173 0.000000 -0.003765
# 5 -0.001854 -0.002835 -0.000635 0.000000 0.036525 0.000000
# 6 0.000000 0.000000 0.000000 -0.003765 0.000000 0.033762
#
#
# Mechanical properties :
#
#
# Convention : Reuss Voigt Hill
#
# Bulk Modulus (GPa) = 50.51340 55.00788 52.76064
# Shear Modulus (GPa) = 25.66476 28.48369 27.07423
#
# Velocity S-wave (km/s) = 3.63201 3.82628 3.73041
# Velocity P-wave (km/s) = 6.59941 6.91334 6.75820
#
# Compressibility (1/GPa) = 0.01979673
#
# Stress axis : x y z
#
# Youngs Moduli (GPa) = 56.72427 40.23521 92.63181
#
# Poissons Ratio (x) = 0.37817 0.11673
# Poissons Ratio (y) = 0.53315 0.56336
# Poissons Ratio (z) = 0.07148 0.24470
#
# Static dielectric constant tensor:
#      x y z
#    x 1.690870 0.000000 0.013960 
#    y 0.000000 1.673880 0.000000 
#    z 0.013960 0.000000 1.755720 
# 
# From -- ./inp_files/181013.got.cif
#   From: 2010.05.17/outbox.cif.g08.bks.cpg/sg12_91_cif.got.tgz:181013.got - 2010.06.03 13:09:07.
