data_PCOD9196748
_publ_section_title
;
Structure prediction by ZEFSAII (Michael W. Deem and Ramdas Pophale) SiO2 
 PCOD9196748
Probable space group: C 2/M
;
_chemical_formula_sum "Si O2"
_cell_formula_units_Z 40
_cell_length_a 14.406334
_cell_length_b 14.112155
_cell_length_c 14.590637
_cell_angle_alpha 90.000000
_cell_angle_beta 39.713568
_cell_angle_gamma 90.000000
_cell_volume 1895.343557
_symmetry_space_group_name_H-M "C 2/M"
_symmetry_group_IT_number 12
_symmetry_cell_setting 'monoclinic'
loop_
_space_group_symop_operation_xyz
x,y,z
-x,y,-z
-x,-y,-z
x,-y,z
1/2+x,1/2+y,z
1/2-x,1/2+y,-z
1/2-x,1/2-y,-z
1/2+x,1/2-y,z
loop_
_atom_site_type_symbol
_atom_site_label
_atom_site_fract_x
_atom_site_fract_y
_atom_site_fract_z
Si Si1 0.611802 0.249317 0.835153
Si Si2 0.021946 0.279056 0.700034
Si Si3 0.345077 0.604905 0.640286
Si Si4 0.302832 0.394928 0.460706
Si Si5 0.139645 0.388185 0.326857
O O1 0.531134 0.215238 0.803431
O O2 0.724979 0.167244 0.779910
O O3 0.717908 0.339036 0.737317
O O4 0.500000 0.270349 0.000000
O O5 0.161868 0.331614 0.548058
O O6 0.052211 0.167116 0.662640
O O7 0.893657 0.329827 0.742079
O O8 0.500000 0.652772 0.500000
O O9 0.371024 0.500000 0.660879
O O10 0.287033 0.593269 0.581671
O O11 0.302151 0.500000 0.419466
O O12 0.160119 0.500000 0.293231
O O13 0.000000 0.379574 0.500000
#
# Coordination Sequence:
#
# PCOD9196748 Si02
#       5
#     8   8   8   8   8
#     4  11  24  39  58  87 127 166 203 246 301 366
#     4  10  20  35  57  85 121 161 202 247 301 363
#     4   9  17  32  56  84 113 148 196 249 295 347
#     4   9  16  28  52  84 113 145 191 249 304 348
#     4  11  23  41  66  92 118 156 207 258 309 364
#
# _framework density 21.104354000000001
#
# number of rings (size 3 to 8) (size 9 to 14) (size 15 to 20)
#    0.000    2.000    0.000    6.000    0.000    4.800 
#    0.000    0.000    0.000    2.400    0.000    0.000 
#    0.000    0.000    0.000    0.000    0.000    0.000 
#
# Total GULP energy -111402.792726 kJ/mol
# GULP energy per Si atom -5570.139636 kJ/mol
# Density = 2.105632 g / cm^3
# Si number density = 21.104354 Si / 1000 Ang^3
#
#
#
# Elastic Constant Matrix: (Units=GPa)
#
#
# Indices 1 2 3 4 5 6 
#
# 1 89.6539 12.3673 12.6675 0.0000 14.0222 0.0000
# 2 12.3673 118.4199 17.9713 0.0000 0.7591 0.0000
# 3 12.6675 17.9713 92.8595 0.0000 7.5200 0.0000
# 4 0.0000 0.0000 0.0000 11.4741 0.0000 0.7811
# 5 14.0222 0.7591 7.5200 0.0000 21.2424 0.0000
# 6 0.0000 0.0000 0.0000 0.7811 0.0000 23.3807
#
#
#
# Elastic Compliance Matrix: (Units=1/GPa)
#
#
# Indices 1 2 3 4 5 6 
#
# 1 0.012689 -0.001143 -0.000859 0.000000 -0.008031 0.000000
# 2 -0.001143 0.008805 -0.001630 0.000000 0.001017 0.000000
# 3 -0.000859 -0.001630 0.011480 0.000000 -0.003439 0.000000
# 4 0.000000 0.000000 0.000000 0.087351 0.000000 -0.002918
# 5 -0.008031 0.001017 -0.003439 0.000000 0.053558 0.000000
# 6 0.000000 0.000000 0.000000 -0.002918 0.000000 0.042868
#
#
# Mechanical properties :
#
#
# Convention : Reuss Voigt Hill
#
# Bulk Modulus (GPa) = 38.89831 42.99394 40.94612
# Shear Modulus (GPa) = 21.49733 28.41459 24.95596
#
# Velocity S-wave (km/s) = 3.19505 3.67329 3.44248
# Velocity P-wave (km/s) = 5.66414 6.19734 5.93673
#
# Compressibility (1/GPa) = 0.02570806
#
# Stress axis : x y z
#
# Youngs Moduli (GPa) = 78.80690 113.57389 87.10659
#
# Poissons Ratio (x) = 0.12985 0.07486
# Poissons Ratio (y) = 0.09010 0.14202
# Poissons Ratio (z) = 0.06772 0.18517
#
# Static dielectric constant tensor:
#      x y z
#    x 1.915290 0.000000 0.018230 
#    y 0.000000 1.841440 0.000000 
#    z 0.018230 0.000000 1.705260 
# 
# From -- ./inp_files/59220.got.cif
#   From: 2010.05.17/outbox.cif.g08.bks.cpg/sg12_30_cif.got.tgz:59220.got - 2010.06.03 13:09:07.
