data_PCOD9196487
_publ_section_title
;
Structure prediction by ZEFSAII (Michael W. Deem and Ramdas Pophale) SiO2 
 PCOD9196487
Probable space group: C 2/M
;
_chemical_formula_sum "Si O2"
_cell_formula_units_Z 30
_cell_length_a 14.084368
_cell_length_b 5.387339
_cell_length_c 18.231288
_cell_angle_alpha 90.000000
_cell_angle_beta 57.716911
_cell_angle_gamma 90.000000
_cell_volume 1169.502857
_symmetry_space_group_name_H-M "C 2/M"
_symmetry_group_IT_number 12
_symmetry_cell_setting 'monoclinic'
loop_
_space_group_symop_operation_xyz
x,y,z
-x,y,-z
-x,-y,-z
x,-y,z
1/2+x,1/2+y,z
1/2-x,1/2+y,-z
1/2-x,1/2-y,-z
1/2+x,1/2-y,z
loop_
_atom_site_type_symbol
_atom_site_label
_atom_site_fract_x
_atom_site_fract_y
_atom_site_fract_z
Si Si1 0.812931 0.000000 0.837547
Si Si2 0.083340 0.000000 0.359799
Si Si3 0.221456 0.000000 0.815461
Si Si4 0.900079 0.500000 0.608379
Si Si5 0.195208 0.000000 0.584868
Si Si6 0.000000 0.500000 0.000000
Si Si7 0.211122 0.500000 0.615850
Si Si8 0.532588 0.500000 0.085909
O O1 0.739805 0.248404 0.854274
O O2 0.898814 0.000000 0.733543
O O3 0.877574 0.000000 0.886420
O O4 0.030578 0.749070 0.410924
O O5 0.207635 0.000000 0.347571
O O6 0.314212 0.000000 0.713005
O O7 0.097475 0.000000 0.833935
O O8 0.819456 0.500000 0.571354
O O9 0.142428 0.750681 0.637884
O O10 0.213937 0.000000 0.490112
O O11 0.040093 0.732491 0.040298
#
# Coordination Sequence:
#
# PCOD9196487 Si02
#       8
#     4   4   4   4   4   2   4   4
#     4  10  20  35  57  82 107 139 177 215 259 307
#     4   8  14  24  39  63  93 123 163 209 244 290
#     4  10  20  35  57  82 107 139 177 215 259 307
#     4   8  14  24  39  63  93 123 163 209 244 290
#     4   8  12  18  30  51  83 121 157 197 244 287
#     4  10  24  42  60  82 112 136 170 214 252 310
#     4   8  12  18  30  51  83 121 157 197 244 287
#     4  11  22  42  60  80 111 140 168 214 259 308
#
# _framework density 25.651924999999999
#
# number of rings (size 3 to 8) (size 9 to 14) (size 15 to 20)
#    0.000    2.933    0.000    1.600    0.000    0.000 
#    0.000   13.333    0.000    0.000    0.000    0.933 
#    0.000    0.000    0.000   92.000    0.000    6.400 
#
# Total GULP energy -83574.527558 kJ/mol
# GULP energy per Si atom -5571.635171 kJ/mol
# Density = 2.559354 g / cm^3
# Si number density = 25.651925 Si / 1000 Ang^3
#
#
#
# Elastic Constant Matrix: (Units=GPa)
#
#
# Indices 1 2 3 4 5 6 
#
# 1 108.5231 14.0227 36.4641 0.0067 16.5737 0.0088
# 2 14.0227 278.9593 28.1938 0.0186 3.3777 0.0167
# 3 36.4641 28.1938 110.6556 0.0012 17.6744 0.0023
# 4 0.0067 0.0186 0.0012 102.0862 0.0024 32.5941
# 5 16.5737 3.3777 17.6744 0.0024 48.7715 0.0043
# 6 0.0088 0.0167 0.0023 32.5941 0.0043 0.5387
#
#
#
# Elastic Compliance Matrix: (Units=1/GPa)
#
#
# Indices 1 2 3 4 5 6 
#
# 1 0.010650 -0.000196 -0.003061 -0.000002 -0.002496 0.000006
# 2 -0.000196 0.003683 -0.000896 -0.000002 0.000136 0.000004
# 3 -0.003061 -0.000896 0.010718 0.000001 -0.002782 -0.000002
# 4 -0.000002 -0.000002 0.000001 -0.000535 -0.000002 0.032355
# 5 -0.002496 0.000136 -0.002782 -0.000002 0.022351 0.000006
# 6 0.000006 0.000004 -0.000002 0.032355 0.000006 -0.101337
#
#
# Mechanical properties :
#
#
# Convention : Reuss Voigt Hill
#
# Bulk Modulus (GPa) = 59.71285 72.83324 66.27304
# Shear Modulus (GPa) = -123.20361 58.24308 -32.48026
#
# Velocity S-wave (km/s) = -6.93781 4.77016 -3.56222
# Velocity P-wave (km/s) = 6.39132 7.66771 2.99539
#
# Compressibility (1/GPa) = 0.01674682
#
# Stress axis : x y z
#
# Youngs Moduli (GPa) = 93.90051 271.48282 93.29899
#
# Poissons Ratio (x) = 0.05315 0.28556
# Poissons Ratio (y) = 0.01838 0.08357
# Poissons Ratio (z) = 0.28740 0.24317
#
# Static dielectric constant tensor:
#      x y z
#    x 1.942330 0.000000 -0.002470 
#    y 0.000000 2.191660 0.000000 
#    z -0.002470 0.000000 1.993960 
# 
# From -- ./inp_files/303212.got.cif
#   From: 2010.05.17/outbox.cif.g08.bks.cpg/sg12_152_cif.got.tgz:303212.got - 2010.06.03 13:09:07.
