data_PCOD9196415
_publ_section_title
;
Structure prediction by ZEFSAII (Michael W. Deem and Ramdas Pophale) SiO2 
 PCOD9196415
Probable space group: C 2/M
;
_chemical_formula_sum "Si O2"
_cell_formula_units_Z 56
_cell_length_a 21.538127
_cell_length_b 13.754711
_cell_length_c 15.358302
_cell_angle_alpha 90.000000
_cell_angle_beta 37.097089
_cell_angle_gamma 90.000000
_cell_volume 2744.356417
_symmetry_space_group_name_H-M "C 2/M"
_symmetry_group_IT_number 12
_symmetry_cell_setting 'monoclinic'
loop_
_space_group_symop_operation_xyz
x,y,z
-x,y,-z
-x,-y,-z
x,-y,z
1/2+x,1/2+y,z
1/2-x,1/2+y,-z
1/2-x,1/2-y,-z
1/2+x,1/2-y,z
loop_
_atom_site_type_symbol
_atom_site_label
_atom_site_fract_x
_atom_site_fract_y
_atom_site_fract_z
Si Si1 0.915709 0.108009 0.018300
Si Si2 0.763754 0.888246 0.566787
Si Si3 0.046840 0.605303 0.718914
Si Si4 0.586096 0.107234 0.475711
Si Si5 0.585137 0.615758 0.327761
Si Si6 0.251128 0.732043 0.751025
Si Si7 0.984653 0.182769 0.260255
O O1 0.838283 0.198358 0.114039
O O2 0.867621 0.000000 0.080598
O O3 0.972701 0.113505 0.862059
O O4 0.000000 0.117000 0.000000
O O5 0.667415 0.889922 0.609367
O O6 0.725593 0.837613 0.698264
O O7 0.863802 0.836054 0.414891
O O8 0.794493 0.000000 0.551459
O O9 0.008028 0.500000 0.795867
O O10 0.037787 0.605453 0.625055
O O11 0.999568 0.708609 0.795775
O O12 0.500000 0.123881 0.500000
O O13 0.667397 0.191687 0.378988
O O14 0.631462 0.000000 0.409754
O O15 0.500000 0.627762 0.500000
O O16 0.599864 0.500000 0.299124
O O17 0.688662 0.668671 0.244393
O O18 0.542041 0.662776 0.287267
#
# Coordination Sequence:
#
# PCOD9196415 Si02
#       7
#     8   8   8   8   8   8   8
#     4  11  27  45  63  91 131 178 219 259 318 389
#     4  11  22  36  63  96 123 161 216 273 322 372
#     4  10  21  35  58  93 123 157 211 267 323 374
#     4  10  20  35  56  87 122 159 204 259 318 374
#     4  11  22  39  67 100 129 162 212 269 325 382
#     4  12  22  39  62  92 127 167 210 264 317 378
#     4  12  22  42  65  91 129 170 212 265 321 381
#
# _framework density 20.405512000000002
#
# number of rings (size 3 to 8) (size 9 to 14) (size 15 to 20)
#    0.000    1.000    2.857    4.714    2.000    0.571 
#    0.000    2.143    0.000    3.857    0.000    0.000 
#    0.000    0.000    0.000    0.000    0.000    0.000 
#
# Total GULP energy -156385.992685 kJ/mol
# GULP energy per Si atom -5585.214024 kJ/mol
# Density = 2.035907 g / cm^3
# Si number density = 20.405512 Si / 1000 Ang^3
#
#
#
# Elastic Constant Matrix: (Units=GPa)
#
#
# Indices 1 2 3 4 5 6 
#
# 1 65.1399 25.4571 7.1158 0.0000 6.7148 0.0000
# 2 25.4571 161.8397 28.4126 0.0000 -10.2974 0.0000
# 3 7.1158 28.4126 51.3259 0.0000 4.7868 0.0000
# 4 0.0000 0.0000 0.0000 22.3552 0.0000 1.2216
# 5 6.7148 -10.2974 4.7868 0.0000 16.4070 0.0000
# 6 0.0000 0.0000 0.0000 1.2216 0.0000 35.7037
#
#
#
# Elastic Compliance Matrix: (Units=1/GPa)
#
#
# Indices 1 2 3 4 5 6 
#
# 1 0.017634 -0.003436 0.000341 0.000000 -0.009473 0.000000
# 2 -0.003436 0.008044 -0.004706 0.000000 0.007828 0.000000
# 3 0.000341 -0.004706 0.022955 0.000000 -0.009790 0.000000
# 4 0.000000 0.000000 0.000000 0.044816 0.000000 -0.001533
# 5 -0.009473 0.007828 -0.009790 0.000000 0.072596 0.000000
# 6 0.000000 0.000000 0.000000 -0.001533 0.000000 0.028061
#
#
# Mechanical properties :
#
#
# Convention : Reuss Voigt Hill
#
# Bulk Modulus (GPa) = 30.27689 44.47515 37.37602
# Shear Modulus (GPa) = 22.65334 29.38120 26.01727
#
# Velocity S-wave (km/s) = 3.33552 3.79867 3.57460
# Velocity P-wave (km/s) = 5.45014 6.40959 5.94924
#
# Compressibility (1/GPa) = 0.03302849
#
# Stress axis : x y z
#
# Youngs Moduli (GPa) = 56.70927 124.31891 43.56441
#
# Poissons Ratio (x) = 0.42721 -0.01486
# Poissons Ratio (y) = 0.19487 0.20503
# Poissons Ratio (z) = -0.01934 0.58510
#
# Static dielectric constant tensor:
#      x y z
#    x 1.780240 0.000000 0.056370 
#    y 0.000000 1.806790 0.000000 
#    z 0.056370 0.000000 1.728270 
# 
# From -- ./inp_files/233676.got.cif
#   From: 2010.05.17/outbox.cif.g08.bks.cpg/sg12_117_cif.got.tgz:233676.got - 2010.06.03 13:09:07.
