data_PCOD9196922
_publ_section_title
;
Structure prediction by ZEFSAII (Michael W. Deem and Ramdas Pophale) SiO2 
 PCOD9196922
Probable space group: C 2/M
;
_chemical_formula_sum "Si O2"
_cell_formula_units_Z 48
_cell_length_a 21.155303
_cell_length_b 14.056523
_cell_length_c 9.957683
_cell_angle_alpha 90.000000
_cell_angle_beta 60.184653
_cell_angle_gamma 90.000000
_cell_volume 2569.160096
_symmetry_space_group_name_H-M "C 2/M"
_symmetry_group_IT_number 12
_symmetry_cell_setting 'monoclinic'
loop_
_space_group_symop_operation_xyz
x,y,z
-x,y,-z
-x,-y,-z
x,-y,z
1/2+x,1/2+y,z
1/2-x,1/2+y,-z
1/2-x,1/2-y,-z
1/2+x,1/2-y,z
loop_
_atom_site_type_symbol
_atom_site_label
_atom_site_fract_x
_atom_site_fract_y
_atom_site_fract_z
Si Si1 0.020297 0.263434 0.135636
Si Si2 0.671981 0.738534 0.382126
Si Si3 0.793443 0.104403 0.211229
Si Si4 0.672416 0.697350 0.080515
Si Si5 0.903320 0.890799 0.329225
Si Si6 0.448899 0.893613 0.423224
O O1 0.105541 0.251775 0.079242
O O2 0.975930 0.172885 0.243612
O O3 0.991104 0.353506 0.249694
O O4 0.000000 0.270203 0.000000
O O5 0.746173 0.801161 0.296724
O O6 0.655586 0.689732 0.255812
O O7 0.656628 0.659461 0.511231
O O8 0.614052 0.820474 0.474788
O O9 0.866433 0.109221 0.221740
O O10 0.759169 0.000000 0.276288
O O11 0.813056 0.109686 0.033394
O O12 0.750000 0.750000 0.000000
O O13 0.917295 0.000000 0.354087
O O14 0.500000 0.894833 0.500000
O O15 0.422204 0.000000 0.426494
#
# Coordination Sequence:
#
# PCOD9196922 Si02
#       6
#     8   8   8   8   8   8
#     4  11  21  38  59  82 117 149 190 239 292 336
#     4  10  20  37  59  80 119 148 191 233 293 333
#     4  10  20  36  58  86 114 153 193 232 286 346
#     4  10  21  37  56  82 112 153 189 232 283 344
#     4  10  22  36  58  87 115 150 194 236 286 342
#     4  10  20  35  58  84 109 147 191 235 286 343
#
# _framework density 18.683147999999999
#
# number of rings (size 3 to 8) (size 9 to 14) (size 15 to 20)
#    0.000    1.833    3.333    1.000    0.000    2.000 
#    0.000    0.833    0.000    1.000    0.000    0.000 
#    0.000    0.000    0.000    0.000    0.000    0.000 
#
# Total GULP energy -133631.736787 kJ/mol
# GULP energy per Si atom -5567.989033 kJ/mol
# Density = 1.864062 g / cm^3
# Si number density = 18.683148 Si / 1000 Ang^3
#
#
#
# Elastic Constant Matrix: (Units=GPa)
#
#
# Indices 1 2 3 4 5 6 
#
# 1 80.0563 13.8124 22.3373 0.0000 1.4019 0.0000
# 2 13.8124 101.0857 37.1732 0.0000 4.5067 0.0000
# 3 22.3373 37.1732 88.8256 0.0000 9.4009 0.0000
# 4 0.0000 0.0000 0.0000 22.8187 0.0000 1.9567
# 5 1.4019 4.5067 9.4009 0.0000 28.0512 0.0000
# 6 0.0000 0.0000 0.0000 1.9567 0.0000 15.9353
#
#
#
# Elastic Compliance Matrix: (Units=1/GPa)
#
#
# Indices 1 2 3 4 5 6 
#
# 1 0.013483 -0.000707 -0.003147 0.000000 0.000494 0.000000
# 2 -0.000707 0.011731 -0.004703 0.000000 -0.000273 0.000000
# 3 -0.003147 -0.004703 0.014433 0.000000 -0.003924 0.000000
# 4 0.000000 0.000000 0.000000 0.044290 0.000000 -0.005438
# 5 0.000494 -0.000273 -0.003924 0.000000 0.036983 0.000000
# 6 0.000000 0.000000 0.000000 -0.005438 0.000000 0.063421
#
#
# Mechanical properties :
#
#
# Convention : Reuss Voigt Hill
#
# Bulk Modulus (GPa) = 44.37947 46.29037 45.33492
# Shear Modulus (GPa) = 23.92747 26.47069 25.19908
#
# Velocity S-wave (km/s) = 3.58257 3.76815 3.67653
# Velocity P-wave (km/s) = 6.39675 6.61531 6.50694
#
# Compressibility (1/GPa) = 0.02253294
#
# Stress axis : x y z
#
# Youngs Moduli (GPa) = 74.16961 85.24642 69.28720
#
# Poissons Ratio (x) = 0.06027 0.21804
# Poissons Ratio (y) = 0.05244 0.32582
# Poissons Ratio (z) = 0.23341 0.40087
#
# Static dielectric constant tensor:
#      x y z
#    x 1.655720 0.000000 -0.017420 
#    y 0.000000 1.637900 0.000000 
#    z -0.017420 0.000000 1.680000 
# 
# From -- ./inp_files/85662.got.cif
#   From: 2010.05.17/outbox.cif.g08.bks.cpg/sg12_43_cif.got.tgz:85662.got - 2010.06.03 13:09:07.
