data_PCOD9196783
_publ_section_title
;
Structure prediction by ZEFSAII (Michael W. Deem and Ramdas Pophale) SiO2 
 PCOD9196783
Probable space group: C 2/M
;
_chemical_formula_sum "Si O2"
_cell_formula_units_Z 56
_cell_length_a 16.410788
_cell_length_b 8.969574
_cell_length_c 23.262373
_cell_angle_alpha 90.000000
_cell_angle_beta 121.599452
_cell_angle_gamma 90.000000
_cell_volume 2916.474637
_symmetry_space_group_name_H-M "C 2/M"
_symmetry_group_IT_number 12
_symmetry_cell_setting 'monoclinic'
loop_
_space_group_symop_operation_xyz
x,y,z
-x,y,-z
-x,-y,-z
x,-y,z
1/2+x,1/2+y,z
1/2-x,1/2+y,-z
1/2-x,1/2-y,-z
1/2+x,1/2-y,z
loop_
_atom_site_type_symbol
_atom_site_label
_atom_site_fract_x
_atom_site_fract_y
_atom_site_fract_z
Si Si1 0.438605 0.179593 0.420989
Si Si2 0.006950 0.673999 0.071016
Si Si3 0.229492 0.322997 0.349666
Si Si4 0.795718 0.674055 0.790837
Si Si5 0.367530 0.176707 0.202276
Si Si6 0.455881 0.181531 0.656847
Si Si7 0.166576 0.824534 0.932063
O O1 0.500000 0.217248 0.500000
O O2 0.332512 0.245900 0.387019
O O3 0.496268 0.230796 0.385329
O O4 0.430434 0.000000 0.414472
O O5 0.982756 0.500000 0.074946
O O6 0.112106 0.700656 0.135438
O O7 0.932287 0.780745 0.074088
O O8 0.000000 0.692962 0.000000
O O9 0.243872 0.500000 0.363834
O O10 0.184398 0.304787 0.269239
O O11 0.151154 0.267911 0.366912
O O12 0.767370 0.500000 0.788136
O O13 0.710057 0.779744 0.778520
O O14 0.470793 0.222321 0.265078
O O15 0.337948 0.259323 0.133517
O O16 0.368320 0.000000 0.192611
O O17 0.452968 0.000000 0.654342
O O18 0.181750 0.000000 0.935652
O O19 0.250000 0.750000 0.000000
#
# Coordination Sequence:
#
# PCOD9196783 Si02
#       7
#     8   8   8   8   8   8   8
#     4  10  21  39  61  87 122 160 202 254 308 362
#     4  10  21  38  59  83 115 155 197 243 300 363
#     4  10  20  36  59  85 119 160 205 248 297 365
#     4  10  20  35  57  86 119 154 196 249 303 356
#     4  11  21  37  62  86 116 157 200 243 300 365
#     4   9  19  37  60  87 120 161 200 242 304 369
#     4  12  25  40  58  83 116 152 198 250 302 359
#
# _framework density 19.201263999999998
#
# number of rings (size 3 to 8) (size 9 to 14) (size 15 to 20)
#    0.000    1.714    1.429    3.429    0.000    5.143 
#    0.000    3.571    0.000    0.000    0.000    0.000 
#    0.000    0.000    0.000    0.000    0.000    0.000 
#
# Total GULP energy -156398.858505 kJ/mol
# GULP energy per Si atom -5585.673518 kJ/mol
# Density = 1.915756 g / cm^3
# Si number density = 19.201264 Si / 1000 Ang^3
#
#
#
# Elastic Constant Matrix: (Units=GPa)
#
#
# Indices 1 2 3 4 5 6 
#
# 1 131.7871 37.9242 58.1164 0.0000 2.6698 0.0000
# 2 37.9242 48.2228 32.3453 0.0000 -0.6851 0.0000
# 3 58.1164 32.3453 112.1219 0.0000 5.1388 0.0000
# 4 0.0000 0.0000 0.0000 33.3589 0.0000 7.5178
# 5 2.6698 -0.6851 5.1388 0.0000 23.0602 0.0000
# 6 0.0000 0.0000 0.0000 7.5178 0.0000 37.3039
#
#
#
# Elastic Compliance Matrix: (Units=1/GPa)
#
#
# Indices 1 2 3 4 5 6 
#
# 1 0.011100 -0.006071 -0.003975 0.000000 -0.000580 0.000000
# 2 -0.006071 0.029170 -0.005395 0.000000 0.002772 0.000000
# 3 -0.003975 -0.005395 0.012651 0.000000 -0.002519 0.000000
# 4 0.000000 0.000000 0.000000 0.031403 0.000000 -0.006329
# 5 -0.000580 0.002772 -0.002519 0.000000 0.044076 0.000000
# 6 0.000000 0.000000 0.000000 -0.006329 0.000000 0.028082
#
#
# Mechanical properties :
#
#
# Convention : Reuss Voigt Hill
#
# Bulk Modulus (GPa) = 45.37708 60.98929 53.18319
# Shear Modulus (GPa) = 25.67899 29.66098 27.66999
#
# Velocity S-wave (km/s) = 3.66096 3.93458 3.80024
# Velocity P-wave (km/s) = 6.44622 7.24385 6.85665
#
# Compressibility (1/GPa) = 0.02203756
#
# Stress axis : x y z
#
# Youngs Moduli (GPa) = 90.09047 34.28207 79.04279
#
# Poissons Ratio (x) = 0.20813 0.31423
# Poissons Ratio (y) = 0.54695 0.42645
# Poissons Ratio (z) = 0.35815 0.18496
#
# Static dielectric constant tensor:
#      x y z
#    x 1.675770 0.000000 -0.023280 
#    y 0.000000 1.594010 0.000000 
#    z -0.023280 0.000000 1.726750 
# 
# From -- ./inp_files/339072.got.cif
#   From: 2010.05.17/outbox.cif.g08.bks.cpg/sg12_170_cif.got.tgz:339072.got - 2010.06.03 13:09:07.
