data_PCOD9196160
_publ_section_title
;
Structure prediction by ZEFSAII (Michael W. Deem and Ramdas Pophale) SiO2 
 PCOD9196160
Probable space group: C 2/M
;
_chemical_formula_sum "Si O2"
_cell_formula_units_Z 64
_cell_length_a 9.417250
_cell_length_b 19.011253
_cell_length_c 21.605619
_cell_angle_alpha 90.000000
_cell_angle_beta 110.312868
_cell_angle_gamma 90.000000
_cell_volume 3627.578956
_symmetry_space_group_name_H-M "C 2/M"
_symmetry_group_IT_number 12
_symmetry_cell_setting 'monoclinic'
loop_
_space_group_symop_operation_xyz
x,y,z
-x,y,-z
-x,-y,-z
x,-y,z
1/2+x,1/2+y,z
1/2-x,1/2+y,-z
1/2-x,1/2-y,-z
1/2+x,1/2-y,z
loop_
_atom_site_type_symbol
_atom_site_label
_atom_site_fract_x
_atom_site_fract_y
_atom_site_fract_z
Si Si1 0.071219 0.917215 0.694889
Si Si2 0.671562 0.669333 0.047159
Si Si3 0.822792 0.416094 0.174058
Si Si4 0.761655 0.417080 0.305269
Si Si5 0.841172 0.584028 0.827359
Si Si6 0.369130 0.175384 0.434910
Si Si7 0.171262 0.669900 0.048906
Si Si8 0.973485 0.824665 0.565237
O O1 0.216437 0.896431 0.757156
O O2 0.918775 0.908582 0.712435
O O3 0.046211 0.872854 0.629165
O O4 0.085025 0.000000 0.681787
O O5 0.706008 0.625038 0.113066
O O6 0.729206 0.749695 0.065779
O O7 0.500000 0.673307 0.000000
O O8 0.749616 0.636329 0.998657
O O9 0.795560 0.500000 0.166713
O O10 0.808933 0.395011 0.243615
O O11 0.990688 0.402122 0.173104
O O12 0.796346 0.500000 0.317620
O O13 0.840596 0.373172 0.371298
O O14 0.827597 0.500000 0.836483
O O15 0.815586 0.626527 0.886487
O O16 0.500000 0.145842 0.500000
O O17 0.205825 0.183359 0.444902
O O18 0.438900 0.250051 0.423820
O O19 0.000000 0.674644 0.000000
O O20 0.000000 0.854343 0.500000
#
# Coordination Sequence:
#
# PCOD9196160 Si02
#       8
#     8   8   8   8   8   8   8   8
#     4   9  20  38  56  78 107 141 180 218 263 314
#     4  10  22  36  54  79 107 140 177 217 268 320
#     4  10  21  37  55  79 108 138 177 221 264 316
#     4   9  20  38  56  77 109 142 176 220 264 313
#     4  10  21  36  57  80 104 139 179 220 266 314
#     4  10  20  35  56  82 110 143 179 217 263 312
#     4  10  20  38  55  76 108 139 175 222 265 315
#     4  10  20  35  56  82 111 142 177 220 262 311
#
# _framework density 17.642620000000001
#
# number of rings (size 3 to 8) (size 9 to 14) (size 15 to 20)
#    0.000    2.250    1.250    1.500    1.750    4.500 
#    0.000    2.500    0.000    0.000    0.000    0.000 
#    0.000    0.000    0.000    0.000    0.000    0.000 
#
# Total GULP energy -178395.859507 kJ/mol
# GULP energy per Si atom -5574.870610 kJ/mol
# Density = 1.760247 g / cm^3
# Si number density = 17.642620 Si / 1000 Ang^3
#
#
#
# Elastic Constant Matrix: (Units=GPa)
#
#
# Indices 1 2 3 4 5 6 
#
# 1 77.9962 31.1162 63.0255 0.0000 -15.6312 0.0000
# 2 31.1162 41.1096 63.4050 0.0000 -7.7602 0.0000
# 3 63.0255 63.4050 158.1338 0.0000 -12.4143 0.0000
# 4 0.0000 0.0000 0.0000 50.5605 0.0000 -0.7741
# 5 -15.6312 -7.7602 -12.4143 0.0000 38.7516 0.0000
# 6 0.0000 0.0000 0.0000 -0.7741 0.0000 22.3199
#
#
#
# Elastic Compliance Matrix: (Units=1/GPa)
#
#
# Indices 1 2 3 4 5 6 
#
# 1 0.020746 -0.006779 -0.005129 0.000000 0.005368 0.000000
# 2 -0.006779 0.066806 -0.023849 0.000000 0.003004 0.000000
# 3 -0.005129 -0.023849 0.017842 0.000000 -0.001129 0.000000
# 4 0.000000 0.000000 0.000000 0.019789 0.000000 0.000686
# 5 0.005368 0.003004 -0.001129 0.000000 0.028210 0.000000
# 6 0.000000 0.000000 0.000000 0.000686 0.000000 0.044827
#
#
# Mechanical properties :
#
#
# Convention : Reuss Voigt Hill
#
# Bulk Modulus (GPa) = 29.51555 65.81479 47.66517
# Shear Modulus (GPa) = 17.79191 30.30595 24.04893
#
# Velocity S-wave (km/s) = 3.17907 4.14909 3.69604
# Velocity P-wave (km/s) = 5.49921 7.76780 6.72979
#
# Compressibility (1/GPa) = 0.03388044
#
# Stress axis : x y z
#
# Youngs Moduli (GPa) = 48.20275 14.96864 56.04812
#
# Poissons Ratio (x) = 0.10147 0.28747
# Poissons Ratio (y) = 0.32675 1.33669
# Poissons Ratio (z) = 0.24723 0.35699
#
# Static dielectric constant tensor:
#      x y z
#    x 1.593010 0.000000 -0.009730 
#    y 0.000000 1.596560 0.000000 
#    z -0.009730 0.000000 1.568420 
# 
# From -- ./inp_files/301745.got.cif
#   From: 2010.05.17/outbox.cif.g08.bks.cpg/sg12_151_cif.got.tgz:301745.got - 2010.06.03 13:09:07.
