data_PCOD9196063
_publ_section_title
;
Structure prediction by ZEFSAII (Michael W. Deem and Ramdas Pophale) SiO2 
 PCOD9196063
Probable space group: C 2/M
;
_chemical_formula_sum "Si O2"
_cell_formula_units_Z 48
_cell_length_a 16.535517
_cell_length_b 28.341091
_cell_length_c 6.122161
_cell_angle_alpha 90.000000
_cell_angle_beta 131.637367
_cell_angle_gamma 90.000000
_cell_volume 2144.232164
_symmetry_space_group_name_H-M "C 2/M"
_symmetry_group_IT_number 12
_symmetry_cell_setting 'monoclinic'
loop_
_space_group_symop_operation_xyz
x,y,z
-x,y,-z
-x,-y,-z
x,-y,z
1/2+x,1/2+y,z
1/2-x,1/2+y,-z
1/2-x,1/2-y,-z
1/2+x,1/2-y,z
loop_
_atom_site_type_symbol
_atom_site_label
_atom_site_fract_x
_atom_site_fract_y
_atom_site_fract_z
Si Si1 0.314573 0.947460 0.984807
Si Si2 0.777637 0.191616 0.309755
Si Si3 0.795870 0.101692 0.598840
Si Si4 0.405560 0.222890 0.671548
Si Si5 0.084713 0.946408 0.825495
Si Si6 0.358355 0.143113 0.304371
O O1 0.273443 0.935219 0.668043
O O2 0.202220 0.948123 0.919462
O O3 0.363411 0.000000 0.086025
O O4 0.383577 0.902998 0.200686
O O5 0.829751 0.143856 0.498835
O O6 0.689206 0.207133 0.331894
O O7 0.861394 0.234364 0.445620
O O8 0.715496 0.176901 0.979565
O O9 0.715927 0.122691 0.636403
O O10 0.892607 0.079360 0.907985
O O11 0.438154 0.177685 0.582571
O O12 0.500000 0.239168 0.000000
O O13 0.000000 0.925396 0.500000
O O14 0.048352 0.000000 0.803617
#
# Coordination Sequence:
#
# PCOD9196063 Si02
#       6
#     8   8   8   8   8   8
#     4   9  17  30  50  73  97 135 178 215 262 315
#     4   9  19  36  53  76 110 138 174 219 260 310
#     4   9  17  31  47  69  99 139 173 215 262 306
#     4  10  20  35  56  81 105 138 177 216 264 315
#     4   9  17  28  42  66  99 137 179 220 262 309
#     4   9  18  34  54  73 105 138 171 216 261 309
#
# _framework density 22.385634
#
# number of rings (size 3 to 8) (size 9 to 14) (size 15 to 20)
#    0.000    2.833    0.000    1.000    0.000    2.000 
#    9.000    2.500    0.000    0.500    0.000   10.500 
#    0.000    0.000    0.000    0.000    0.000    0.000 
#
# Total GULP energy -133883.397664 kJ/mol
# GULP energy per Si atom -5578.474903 kJ/mol
# Density = 2.233468 g / cm^3
# Si number density = 22.385634 Si / 1000 Ang^3
#
#
#
# Elastic Constant Matrix: (Units=GPa)
#
#
# Indices 1 2 3 4 5 6 
#
# 1 30.3086 -4.3453 -1.1274 0.0000 -8.3681 0.0000
# 2 -4.3453 116.8248 44.5749 0.0000 -1.5601 0.0000
# 3 -1.1274 44.5749 111.5731 0.0000 -6.4139 0.0000
# 4 0.0000 0.0000 0.0000 28.7724 0.0000 -2.0519
# 5 -8.3681 -1.5601 -6.4139 0.0000 26.0823 0.0000
# 6 0.0000 0.0000 0.0000 -2.0519 0.0000 3.8252
#
#
#
# Elastic Compliance Matrix: (Units=1/GPa)
#
#
# Indices 1 2 3 4 5 6 
#
# 1 0.036492 0.001315 0.000528 0.000000 0.011916 0.000000
# 2 0.001315 0.010151 -0.004040 0.000000 0.000036 0.000000
# 3 0.000528 -0.004040 0.010730 0.000000 0.002566 0.000000
# 4 0.000000 0.000000 0.000000 0.036138 0.000000 0.019385
# 5 0.011916 0.000036 0.002566 0.000000 0.042797 0.000000
# 6 0.000000 0.000000 0.000000 0.019385 0.000000 0.271824
#
#
# Mechanical properties :
#
#
# Convention : Reuss Voigt Hill
#
# Bulk Modulus (GPa) = 18.87537 37.43457 28.15497
# Shear Modulus (GPa) = 11.62294 26.37627 18.99961
#
# Velocity S-wave (km/s) = 2.28110 3.43631 2.91648
# Velocity P-wave (km/s) = 3.92277 5.70116 4.89343
#
# Compressibility (1/GPa) = 0.05297909
#
# Stress axis : x y z
#
# Youngs Moduli (GPa) = 27.40311 98.51549 93.19979
#
# Poissons Ratio (x) = -0.12953 -0.04925
# Poissons Ratio (y) = -0.03603 0.37653
# Poissons Ratio (z) = -0.01448 0.39800
#
# Static dielectric constant tensor:
#      x y z
#    x 1.826290 0.000000 0.006280 
#    y 0.000000 1.872480 0.000000 
#    z 0.006280 0.000000 1.809570 
# 
# From -- ./inp_files/12931.got.cif
#   From: 2010.05.17/outbox.cif.g08.bks.cpg/sg12_7_cif.got.tgz:12931.got - 2010.06.03 13:09:07.
