data_PCOD9196327
_publ_section_title
;
Structure prediction by ZEFSAII (Michael W. Deem and Ramdas Pophale) SiO2 
 PCOD9196327
Probable space group: C 2/M
;
_chemical_formula_sum "Si O2"
_cell_formula_units_Z 64
_cell_length_a 30.750340
_cell_length_b 8.817996
_cell_length_c 16.588028
_cell_angle_alpha 90.000000
_cell_angle_beta 132.936111
_cell_angle_gamma 90.000000
_cell_volume 3293.010595
_symmetry_space_group_name_H-M "C 2/M"
_symmetry_group_IT_number 12
_symmetry_cell_setting 'monoclinic'
loop_
_space_group_symop_operation_xyz
x,y,z
-x,y,-z
-x,-y,-z
x,-y,z
1/2+x,1/2+y,z
1/2-x,1/2+y,-z
1/2-x,1/2-y,-z
1/2+x,1/2-y,z
loop_
_atom_site_type_symbol
_atom_site_label
_atom_site_fract_x
_atom_site_fract_y
_atom_site_fract_z
Si Si1 0.859446 0.317555 0.988399
Si Si2 0.959106 0.818328 0.587778
Si Si3 0.749855 0.316533 0.743536
Si Si4 0.588155 0.681043 0.301584
Si Si5 0.973373 0.181461 0.052419
Si Si6 0.705514 0.818655 0.378046
Si Si7 0.873202 0.681138 0.353958
Si Si8 0.910358 0.682976 0.223530
O O1 0.858808 0.500000 0.987936
O O2 0.912752 0.262373 0.998787
O O3 0.875578 0.266274 0.099320
O O4 0.797181 0.267543 0.871493
O O5 0.916574 0.779516 0.610153
O O6 0.930191 0.748378 0.471818
O O7 0.024336 0.754874 0.688598
O O8 0.961859 0.000000 0.585256
O O9 0.745299 0.500000 0.738841
O O10 0.774915 0.272106 0.687268
O O11 0.685891 0.247707 0.680812
O O12 0.598000 0.500000 0.307358
O O13 0.524143 0.714643 0.182059
O O14 0.639965 0.763807 0.319148
O O15 0.963455 0.000000 0.038642
O O16 0.000000 0.226846 0.000000
O O17 0.750000 0.750000 0.500000
O O18 0.708247 0.000000 0.385089
O O19 0.873943 0.500000 0.362475
O O20 0.876757 0.720907 0.263915
O O21 0.916811 0.500000 0.228016
#
# Coordination Sequence:
#
# PCOD9196327 Si02
#       8
#     8   8   8   8   8   8   8   8
#     4  10  21  39  62  85 117 156 195 242 294 349
#     4  11  22  38  61  89 121 155 195 242 295 355
#     4  10  23  42  60  85 119 155 199 247 292 347
#     4  10  21  36  55  84 118 149 187 235 285 343
#     4  10  20  35  56  84 117 151 189 236 288 341
#     4  11  23  38  58  84 116 154 197 241 288 345
#     4  11  24  40  60  87 117 153 199 247 299 354
#     4  10  22  40  61  88 120 153 193 246 300 352
#
# _framework density 19.435102000000001
#
# number of rings (size 3 to 8) (size 9 to 14) (size 15 to 20)
#    0.000    1.625    1.250    3.000    0.000    9.250 
#    0.000    0.000    0.000    0.000    0.000    0.000 
#    0.000    0.000    0.000    0.000    0.000    0.000 
#
# Total GULP energy -178852.907131 kJ/mol
# GULP energy per Si atom -5589.153348 kJ/mol
# Density = 1.939087 g / cm^3
# Si number density = 19.435102 Si / 1000 Ang^3
#
#
#
# Elastic Constant Matrix: (Units=GPa)
#
#
# Indices 1 2 3 4 5 6 
#
# 1 81.8649 23.6783 24.2859 0.0000 -3.8507 0.0000
# 2 23.6783 16.3235 23.7558 0.0000 -1.5745 0.0000
# 3 24.2859 23.7558 113.1011 0.0000 -8.0391 0.0000
# 4 0.0000 0.0000 0.0000 26.2095 0.0000 4.1242
# 5 -3.8507 -1.5745 -8.0391 0.0000 30.7979 0.0000
# 6 0.0000 0.0000 0.0000 4.1242 0.0000 29.8098
#
#
#
# Elastic Compliance Matrix: (Units=1/GPa)
#
#
# Indices 1 2 3 4 5 6 
#
# 1 0.021728 -0.035631 0.002936 0.000000 0.001662 0.000000
# 2 -0.035631 0.146665 -0.023372 0.000000 -0.003058 0.000000
# 3 0.002936 -0.023372 0.013308 0.000000 0.002646 0.000000
# 4 0.000000 0.000000 0.000000 0.039003 0.000000 -0.005396
# 5 0.001662 -0.003058 0.002646 0.000000 0.033212 0.000000
# 6 0.000000 0.000000 0.000000 -0.005396 0.000000 0.034293
#
#
# Mechanical properties :
#
#
# Convention : Reuss Voigt Hill
#
# Bulk Modulus (GPa) = 14.37441 39.41441 26.89441
# Shear Modulus (GPa) = 11.80548 26.66807 19.23678
#
# Velocity S-wave (km/s) = 2.46728 3.70829 3.14951
# Velocity P-wave (km/s) = 3.94066 6.21765 5.20519
#
# Compressibility (1/GPa) = 0.06956805
#
# Stress axis : x y z
#
# Youngs Moduli (GPa) = 46.02329 6.81825 75.14130
#
# Poissons Ratio (x) = 0.24294 -0.22065
# Poissons Ratio (y) = 1.63987 1.75620
# Poissons Ratio (z) = -0.13515 0.15936
#
# Static dielectric constant tensor:
#      x y z
#    x 1.654910 0.000000 -0.022030 
#    y 0.000000 1.652910 0.000000 
#    z -0.022030 0.000000 1.694550 
# 
# From -- ./inp_files/250123.got.cif
#   From: 2010.05.17/outbox.cif.g08.bks.cpg/sg12_126_cif.got.tgz:250123.got - 2010.06.03 13:09:07.
