data_PCOD9196070
_publ_section_title
;
Structure prediction by ZEFSAII (Michael W. Deem and Ramdas Pophale) SiO2 
 PCOD9196070
Probable space group: C 2/M
;
_chemical_formula_sum "Si O2"
_cell_formula_units_Z 64
_cell_length_a 23.277107
_cell_length_b 18.898370
_cell_length_c 27.611319
_cell_angle_alpha 90.000000
_cell_angle_beta 16.771449
_cell_angle_gamma 90.000000
_cell_volume 3504.843956
_symmetry_space_group_name_H-M "C 2/M"
_symmetry_group_IT_number 12
_symmetry_cell_setting 'monoclinic'
loop_
_space_group_symop_operation_xyz
x,y,z
-x,y,-z
-x,-y,-z
x,-y,z
1/2+x,1/2+y,z
1/2-x,1/2+y,-z
1/2-x,1/2-y,-z
1/2+x,1/2-y,z
loop_
_atom_site_type_symbol
_atom_site_label
_atom_site_fract_x
_atom_site_fract_y
_atom_site_fract_z
Si Si1 0.949801 0.417602 0.182127
Si Si2 0.420733 0.918043 0.444904
Si Si3 0.319555 0.329170 0.433594
Si Si4 0.818812 0.586202 0.681199
Si Si5 0.193834 0.829264 0.059220
Si Si6 0.076255 0.082428 0.555498
Si Si7 0.819486 0.414186 0.180642
Si Si8 0.039332 0.081925 0.826452
O O1 0.015706 0.500000 0.123705
O O2 0.768789 0.416132 0.365936
O O3 0.867682 0.392010 0.196427
O O4 0.127333 0.370261 0.058977
O O5 0.356237 0.871322 0.451901
O O6 0.614073 0.892981 0.319181
O O7 0.234366 0.917170 0.633485
O O8 0.448184 0.000000 0.408493
O O9 0.250000 0.250000 0.500000
O O10 0.506801 0.328425 0.246356
O O11 0.383610 0.370330 0.430174
O O12 0.818548 0.500000 0.681300
O O13 0.618088 0.607248 0.815412
O O14 0.000000 0.608898 0.500000
O O15 0.125570 0.871339 0.066285
O O16 0.250000 0.750000 0.000000
O O17 0.887969 0.108219 0.675897
O O18 0.038771 0.000000 0.600004
O O19 0.810163 0.500000 0.189951
O O20 0.000000 0.393717 0.000000
O O21 0.975934 0.000000 0.881039
#
# Coordination Sequence:
#
# PCOD9196070 Si02
#       8
#     8   8   8   8   8   8   8   8
#     4  10  20  35  56  81 107 136 174 220 268 320
#     4   8  14  26  47  73  97 123 158 203 256 313
#     4  11  22  35  50  71 104 142 180 220 263 314
#     4   7  10  20  41  70  98 117 143 193 252 303
#     4  11  22  35  50  71 104 142 180 220 263 314
#     4  10  20  35  56  81 107 136 174 220 268 320
#     4   9  17  31  54  83 110 135 167 211 264 319
#     4   8  14  26  47  73  97 123 158 203 256 313
#
# _framework density 18.260442000000001
#
# number of rings (size 3 to 8) (size 9 to 14) (size 15 to 20)
#    0.000    2.750    0.000    4.125    0.000    4.000 
#    0.000    1.250    0.000    3.000    0.000    2.625 
#    0.000   14.000    0.000    0.000    0.000    0.000 
#
# Total GULP energy -178379.709213 kJ/mol
# GULP energy per Si atom -5574.365913 kJ/mol
# Density = 1.821888 g / cm^3
# Si number density = 18.260442 Si / 1000 Ang^3
#
#
#
# Elastic Constant Matrix: (Units=GPa)
#
#
# Indices 1 2 3 4 5 6 
#
# 1 205.2301 91.6096 50.9019 0.0325 -38.3568 -0.0116
# 2 91.6096 86.8728 30.3598 0.0985 -20.3685 -0.0110
# 3 50.9019 30.3598 43.9085 0.1386 -15.0331 0.0994
# 4 0.0325 0.0985 0.1386 19.6358 0.0107 7.8335
# 5 -38.3568 -20.3685 -15.0331 0.0107 27.1483 -0.0631
# 6 -0.0116 -0.0110 0.0994 7.8335 -0.0631 -3.9610
#
#
#
# Elastic Compliance Matrix: (Units=1/GPa)
#
#
# Indices 1 2 3 4 5 6 
#
# 1 0.011059 -0.008458 -0.004684 0.000082 0.006686 -0.000071
# 2 -0.008458 0.022766 -0.005157 0.000009 0.002275 -0.000186
# 3 -0.004684 -0.005157 0.034773 -0.000291 0.008769 0.000186
# 4 0.000082 0.000009 -0.000291 0.028471 0.000081 0.056296
# 5 0.006686 0.002275 0.008769 0.000081 0.052842 -0.000487
# 6 -0.000071 -0.000186 0.000186 0.056296 -0.000487 -0.141115
#
#
# Mechanical properties :
#
#
# Convention : Reuss Voigt Hill
#
# Bulk Modulus (GPa) = 31.24917 75.75043 53.49980
# Shear Modulus (GPa) = 89.19283 19.44064 54.31673
#
# Velocity S-wave (km/s) = 6.99649 3.26641 5.45987
# Velocity P-wave (km/s) = 9.07844 7.46989 8.31316
#
# Compressibility (1/GPa) = 0.03200085
#
# Stress axis : x y z
#
# Youngs Moduli (GPa) = 90.42328 43.92608 28.75831
#
# Poissons Ratio (x) = 0.37152 0.13469
# Poissons Ratio (y) = 0.76479 0.14830
# Poissons Ratio (z) = 0.42350 0.22651
#
# Static dielectric constant tensor:
#      x y z
#    x 1.646270 -0.000030 -0.007040 
#    y -0.000030 1.596010 0.000100 
#    z -0.007040 0.000100 1.626560 
# 
# From -- ./inp_files/347862.got.cif
#   From: 2010.05.17/outbox.cif.g08.bks.cpg/sg12_174_cif.got.tgz:347862.got - 2010.06.03 13:09:07.
