data_PCOD9196924
_publ_section_title
;
Structure prediction by ZEFSAII (Michael W. Deem and Ramdas Pophale) SiO2 
 PCOD9196924
Probable space group: C 2/M
;
_chemical_formula_sum "Si O2"
_cell_formula_units_Z 64
_cell_length_a 29.716575
_cell_length_b 7.491593
_cell_length_c 23.475343
_cell_angle_alpha 90.000000
_cell_angle_beta 32.406012
_cell_angle_gamma 90.000000
_cell_volume 2800.793572
_symmetry_space_group_name_H-M "C 2/M"
_symmetry_group_IT_number 12
_symmetry_cell_setting 'monoclinic'
loop_
_space_group_symop_operation_xyz
x,y,z
-x,y,-z
-x,-y,-z
x,-y,z
1/2+x,1/2+y,z
1/2-x,1/2+y,-z
1/2-x,1/2-y,-z
1/2+x,1/2-y,z
loop_
_atom_site_type_symbol
_atom_site_label
_atom_site_fract_x
_atom_site_fract_y
_atom_site_fract_z
Si Si1 0.788098 0.286433 0.897261
Si Si2 0.240992 0.780502 0.328905
Si Si3 0.475762 0.783974 0.235368
Si Si4 0.090966 0.702494 0.909983
Si Si5 0.934330 0.207033 0.524822
Si Si6 0.295263 0.213065 0.392245
Si Si7 0.519775 0.783214 0.314382
Si Si8 0.135233 0.790819 0.987550
O O1 0.791439 0.500000 0.887373
O O2 0.883176 0.222049 0.789957
O O3 0.750000 0.250000 0.000000
O O4 0.721127 0.218817 0.922948
O O5 0.328243 0.720407 0.207793
O O6 0.159168 0.716196 0.382399
O O7 0.244676 0.722989 0.390993
O O8 0.237934 0.000000 0.330457
O O9 0.391188 0.720431 0.294653
O O10 0.478427 0.727647 0.298657
O O11 0.560137 0.726967 0.113234
O O12 0.475541 0.000000 0.235144
O O13 0.083076 0.500000 0.894991
O O14 0.110624 0.698240 0.955571
O O15 0.000000 0.789517 0.000000
O O16 0.000000 0.286950 0.500000
O O17 0.973969 0.215930 0.419529
O O18 0.923341 0.000000 0.553605
O O19 0.250000 0.250000 0.500000
O O20 0.300805 0.000000 0.380031
O O21 0.518299 0.000000 0.317722
O O22 0.146027 0.000000 0.963207
#
# Coordination Sequence:
#
# PCOD9196924 Si02
#       8
#     8   8   8   8   8   8   8   8
#     4  10  21  37  56  83 117 151 188 231 285 344
#     4   9  19  37  57  80 112 145 184 233 276 326
#     4  10  20  36  58  83 111 148 189 228 276 345
#     4  10  21  39  63  85 110 152 197 233 280 340
#     4  10  22  38  56  80 109 147 192 233 278 336
#     4  10  20  35  58  84 110 141 181 228 281 334
#     4  10  21  37  57  81 112 146 186 235 281 331
#     4  11  23  36  55  86 118 147 185 233 289 341
#
# _framework density 22.850666
#
# number of rings (size 3 to 8) (size 9 to 14) (size 15 to 20)
#    0.000    2.000    1.250    1.875    1.750    4.500 
#    0.000    1.250    0.000    0.000    0.000    0.000 
#    0.000    0.000    0.000    0.000    0.000    0.000 
#
# Total GULP energy -178879.593918 kJ/mol
# GULP energy per Si atom -5589.987310 kJ/mol
# Density = 2.279866 g / cm^3
# Si number density = 22.850666 Si / 1000 Ang^3
#
#
#
# Elastic Constant Matrix: (Units=GPa)
#
#
# Indices 1 2 3 4 5 6 
#
# 1 165.6484 6.4666 47.5896 -0.0117 -24.3825 0.0058
# 2 6.4666 67.3149 -5.0378 -0.0357 -9.4079 0.0169
# 3 47.5896 -5.0378 108.1872 -0.0456 -20.9714 0.0141
# 4 -0.0117 -0.0357 -0.0456 3.6765 0.0095 17.2049
# 5 -24.3825 -9.4079 -20.9714 0.0095 48.2205 0.0041
# 6 0.0058 0.0169 0.0141 17.2049 0.0041 3.5596
#
#
#
# Elastic Compliance Matrix: (Units=1/GPa)
#
#
# Indices 1 2 3 4 5 6 
#
# 1 0.007189 -0.000569 -0.002736 0.000001 0.002334 -0.000005
# 2 -0.000569 0.015516 0.001642 -0.000025 0.003454 0.000040
# 3 -0.002736 0.001642 0.011267 -0.000018 0.003837 0.000033
# 4 0.000001 -0.000025 -0.000018 -0.012582 -0.000015 0.060811
# 5 0.002334 0.003454 0.003837 -0.000015 0.024261 0.000009
# 6 -0.000005 0.000040 0.000033 0.060811 0.000009 -0.012994
#
#
# Mechanical properties :
#
#
# Convention : Reuss Voigt Hill
#
# Bulk Modulus (GPa) = 32.63137 48.79858 40.71497
# Shear Modulus (GPa) = 108.23026 30.56680 69.39853
#
# Velocity S-wave (km/s) = 6.88963 3.66139 5.51692
# Velocity P-wave (km/s) = 8.80912 6.26707 7.64450
#
# Compressibility (1/GPa) = 0.03064536
#
# Stress axis : x y z
#
# Youngs Moduli (GPa) = 139.10614 64.45044 88.75383
#
# Poissons Ratio (x) = 0.03668 0.24286
# Poissons Ratio (y) = 0.07918 -0.14576
# Poissons Ratio (z) = 0.38064 -0.10585
#
# Static dielectric constant tensor:
#      x y z
#    x 1.818700 0.000030 -0.026390 
#    y 0.000030 1.926020 0.000010 
#    z -0.026390 0.000010 1.812640 
# 
# From -- ./inp_files/353336.got.cif
#   From: 2010.05.17/outbox.cif.g08.bks.cpg/sg12_177_cif.got.tgz:353336.got - 2010.06.03 13:09:07.
