data_PCOD9196376
_publ_section_title
;
Structure prediction by ZEFSAII (Michael W. Deem and Ramdas Pophale) SiO2 
 PCOD9196376
Probable space group: C 2/M
;
_chemical_formula_sum "Si O2"
_cell_formula_units_Z 56
_cell_length_a 13.888985
_cell_length_b 27.480617
_cell_length_c 12.249348
_cell_angle_alpha 90.000000
_cell_angle_beta 40.817253
_cell_angle_gamma 90.000000
_cell_volume 3056.006296
_symmetry_space_group_name_H-M "C 2/M"
_symmetry_group_IT_number 12
_symmetry_cell_setting 'monoclinic'
loop_
_space_group_symop_operation_xyz
x,y,z
-x,y,-z
-x,-y,-z
x,-y,z
1/2+x,1/2+y,z
1/2-x,1/2+y,-z
1/2-x,1/2-y,-z
1/2+x,1/2-y,z
loop_
_atom_site_type_symbol
_atom_site_label
_atom_site_fract_x
_atom_site_fract_y
_atom_site_fract_z
Si Si1 0.561988 0.554028 0.823455
Si Si2 0.685399 0.203334 0.120078
Si Si3 0.603060 0.852521 0.646086
Si Si4 0.592653 0.055664 0.524084
Si Si5 0.619849 0.312079 0.490983
Si Si6 0.226902 0.706785 0.335645
Si Si7 0.989912 0.839937 0.828086
O O1 0.513462 0.500000 0.826791
O O2 0.738577 0.554883 0.661452
O O3 0.517112 0.602534 0.798671
O O4 0.500000 0.559425 0.000000
O O5 0.537597 0.179563 0.198514
O O6 0.661746 0.210825 0.269993
O O7 0.750000 0.250000 0.000000
O O8 0.820766 0.166320 0.000519
O O9 0.569384 0.908060 0.644650
O O10 0.741572 0.847934 0.608588
O O11 0.654452 0.829916 0.484940
O O12 0.500000 0.073207 0.500000
O O13 0.549474 0.000000 0.586325
O O14 0.500000 0.321521 0.500000
O O15 0.698937 0.260145 0.408082
O O16 0.528185 0.314143 0.681256
O O17 0.394963 0.687077 0.189684
#
# Coordination Sequence:
#
# PCOD9196376 Si02
#       7
#     8   8   8   8   8   8   8
#     4  10  20  35  56  85 119 147 178 226 284 341
#     4  12  23  35  54  85 116 149 190 231 279 339
#     4  11  22  36  56  81 111 153 189 231 284 336
#     4  10  20  35  57  86 118 146 180 224 280 346
#     4  11  22  39  56  75 107 151 196 238 284 331
#     4  11  20  36  56  78 113 147 187 229 279 339
#     4  11  22  36  56  83 111 150 188 232 282 339
#
# _framework density 18.324569
#
# number of rings (size 3 to 8) (size 9 to 14) (size 15 to 20)
#    0.000    1.143    2.857    7.714    2.000    0.000 
#    0.000    2.143    0.000    1.714    0.000    0.000 
#    0.000    5.714    0.000    0.000    0.000    0.000 
#
# Total GULP energy -156143.195152 kJ/mol
# GULP energy per Si atom -5576.542684 kJ/mol
# Density = 1.828286 g / cm^3
# Si number density = 18.324569 Si / 1000 Ang^3
#
#
#
# Elastic Constant Matrix: (Units=GPa)
#
#
# Indices 1 2 3 4 5 6 
#
# 1 98.8830 37.9699 13.3168 0.0000 -7.2799 0.0000
# 2 37.9699 100.9486 13.5312 0.0000 -2.9410 0.0000
# 3 13.3168 13.5312 58.3195 0.0000 -15.6019 0.0000
# 4 0.0000 0.0000 0.0000 28.2594 0.0000 -3.5310
# 5 -7.2799 -2.9410 -15.6019 0.0000 23.6968 0.0000
# 6 0.0000 0.0000 0.0000 -3.5310 0.0000 19.3387
#
#
#
# Elastic Compliance Matrix: (Units=1/GPa)
#
#
# Indices 1 2 3 4 5 6 
#
# 1 0.012107 -0.004334 -0.001102 0.000000 0.002456 0.000000
# 2 -0.004334 0.011778 -0.002073 0.000000 -0.001235 0.000000
# 3 -0.001102 -0.002073 0.021509 0.000000 0.013565 0.000000
# 4 0.000000 0.000000 0.000000 0.036213 0.000000 0.006612
# 5 0.002456 -0.001235 0.013565 0.000000 0.051732 0.000000
# 6 0.000000 0.000000 0.000000 0.006612 0.000000 0.052917
#
#
# Mechanical properties :
#
#
# Convention : Reuss Voigt Hill
#
# Bulk Modulus (GPa) = 32.92257 43.08744 38.00501
# Shear Modulus (GPa) = 23.65191 27.14786 25.39988
#
# Velocity S-wave (km/s) = 3.59656 3.85320 3.72709
# Velocity P-wave (km/s) = 5.93737 6.58489 6.26949
#
# Compressibility (1/GPa) = 0.03037430
#
# Stress axis : x y z
#
# Youngs Moduli (GPa) = 82.60025 84.90205 46.49289
#
# Poissons Ratio (x) = 0.36800 0.05122
# Poissons Ratio (y) = 0.35802 0.09640
# Poissons Ratio (z) = 0.09100 0.17604
#
# Static dielectric constant tensor:
#      x y z
#    x 1.665220 0.000000 -0.020780 
#    y 0.000000 1.662740 0.000000 
#    z -0.020780 0.000000 1.651420 
# 
# From -- ./inp_files/149444.got.cif
#   From: 2010.05.17/outbox.cif.g08.bks.cpg/sg12_75_cif.got.tgz:149444.got - 2010.06.03 13:09:07.
