data_PCOD9196553
_publ_section_title
;
Structure prediction by ZEFSAII (Michael W. Deem and Ramdas Pophale) SiO2 
 PCOD9196553
Probable space group: C 2/M
;
_chemical_formula_sum "Si O2"
_cell_formula_units_Z 56
_cell_length_a 23.111810
_cell_length_b 7.536145
_cell_length_c 15.036070
_cell_angle_alpha 90.000000
_cell_angle_beta 110.338276
_cell_angle_gamma 90.000000
_cell_volume 2455.622047
_symmetry_space_group_name_H-M "C 2/M"
_symmetry_group_IT_number 12
_symmetry_cell_setting 'monoclinic'
loop_
_space_group_symop_operation_xyz
x,y,z
-x,y,-z
-x,-y,-z
x,-y,z
1/2+x,1/2+y,z
1/2-x,1/2+y,-z
1/2-x,1/2-y,-z
1/2+x,1/2-y,z
loop_
_atom_site_type_symbol
_atom_site_label
_atom_site_fract_x
_atom_site_fract_y
_atom_site_fract_z
Si Si1 0.879408 0.716367 0.847084
Si Si2 0.756766 0.207439 0.244875
Si Si3 0.194896 0.786317 0.541269
Si Si4 0.932151 0.716949 0.057318
Si Si5 0.947301 0.205081 0.538218
Si Si6 0.809601 0.710041 0.090751
Si Si7 0.965879 0.285851 0.746490
O O1 0.880667 0.500000 0.853124
O O2 0.809613 0.780027 0.821441
O O3 0.901917 0.763308 0.760604
O O4 0.924710 0.774854 0.950943
O O5 0.782245 0.281619 0.350273
O O6 0.802213 0.220579 0.186174
O O7 0.745805 0.000000 0.256751
O O8 0.250000 0.750000 0.500000
O O9 0.123430 0.721240 0.492189
O O10 0.190351 0.000000 0.539706
O O11 0.936712 0.500000 0.056829
O O12 0.868862 0.773937 0.069859
O O13 0.984738 0.773341 0.153530
O O14 0.972819 0.212323 0.652194
O O15 0.000000 0.282686 0.500000
O O16 0.940005 0.000000 0.505693
O O17 0.815770 0.500000 0.101135
O O18 0.750000 0.750000 0.000000
O O19 0.969132 0.500000 0.740859
#
# Coordination Sequence:
#
# PCOD9196553 Si02
#       7
#     8   8   8   8   8   8   8
#     4   9  16  31  55  83 113 140 173 225 280 329
#     4  10  20  35  57  83 111 146 188 230 281 341
#     4  10  22  40  63  89 117 153 198 247 297 351
#     4   9  18  32  53  83 114 142 180 229 275 324
#     4  10  23  42  59  81 119 159 191 235 300 357
#     4  11  21  35  54  80 114 150 186 230 280 335
#     4  10  20  35  60  86 107 143 193 236 276 328
#
# _framework density 22.804811000000001
#
# number of rings (size 3 to 8) (size 9 to 14) (size 15 to 20)
#    0.000    2.143    1.429    1.714    2.000    4.286 
#    0.000    1.429    0.000    0.857    0.000    0.000 
#    0.000    0.000    0.000    0.000    0.000    0.000 
#
# Total GULP energy -156233.493423 kJ/mol
# GULP energy per Si atom -5579.767622 kJ/mol
# Density = 2.275291 g / cm^3
# Si number density = 22.804811 Si / 1000 Ang^3
#
#
#
# Elastic Constant Matrix: (Units=GPa)
#
#
# Indices 1 2 3 4 5 6 
#
# 1 135.6384 2.5929 68.3156 0.0000 -16.2748 0.0000
# 2 2.5929 51.3912 -1.8932 0.0000 6.9762 0.0000
# 3 68.3156 -1.8932 149.7137 0.0000 -25.4484 0.0000
# 4 0.0000 0.0000 0.0000 10.9159 0.0000 -2.5409
# 5 -16.2748 6.9762 -25.4484 0.0000 39.8952 0.0000
# 6 0.0000 0.0000 0.0000 -2.5409 0.0000 14.2384
#
#
#
# Elastic Compliance Matrix: (Units=1/GPa)
#
#
# Indices 1 2 3 4 5 6 
#
# 1 0.009664 -0.000835 -0.004178 0.000000 0.001423 0.000000
# 2 -0.000835 0.020023 -0.000021 0.000000 -0.003855 0.000000
# 3 -0.004178 -0.000021 0.009306 0.000000 0.004235 0.000000
# 4 0.000000 0.000000 0.000000 0.095579 0.000000 0.017057
# 5 0.001423 -0.003855 0.004235 0.000000 0.029022 0.000000
# 6 0.000000 0.000000 0.000000 0.017057 0.000000 0.073276
#
#
# Mechanical properties :
#
#
# Convention : Reuss Voigt Hill
#
# Bulk Modulus (GPa) = 34.57325 52.75265 43.66295
# Shear Modulus (GPa) = 19.48711 30.85846 25.17278
#
# Velocity S-wave (km/s) = 2.92638 3.68252 3.32601
# Velocity P-wave (km/s) = 5.15865 6.42368 5.82561
#
# Compressibility (1/GPa) = 0.02892409
#
# Stress axis : x y z
#
# Youngs Moduli (GPa) = 103.48038 49.94194 107.46184
#
# Poissons Ratio (x) = 0.04168 0.44901
# Poissons Ratio (y) = 0.08637 0.00229
# Poissons Ratio (z) = 0.43237 0.00106
#
# Static dielectric constant tensor:
#      x y z
#    x 1.874060 0.000000 0.029100 
#    y 0.000000 1.878840 0.000000 
#    z 0.029100 0.000000 1.807880 
# 
# From -- ./inp_files/237495.got.cif
#   From: 2010.05.17/outbox.cif.g08.bks.cpg/sg12_119_cif.got.tgz:237495.got - 2010.06.03 13:09:07.
