data_PCOD9196579
_publ_section_title
;
Structure prediction by ZEFSAII (Michael W. Deem and Ramdas Pophale) SiO2 
 PCOD9196579
Probable space group: C 2/M
;
_chemical_formula_sum "Si O2"
_cell_formula_units_Z 56
_cell_length_a 23.815347
_cell_length_b 9.634228
_cell_length_c 14.190965
_cell_angle_alpha 90.000000
_cell_angle_beta 70.147744
_cell_angle_gamma 90.000000
_cell_volume 3062.510229
_symmetry_space_group_name_H-M "C 2/M"
_symmetry_group_IT_number 12
_symmetry_cell_setting 'monoclinic'
loop_
_space_group_symop_operation_xyz
x,y,z
-x,y,-z
-x,-y,-z
x,-y,z
1/2+x,1/2+y,z
1/2-x,1/2+y,-z
1/2-x,1/2-y,-z
1/2+x,1/2-y,z
loop_
_atom_site_type_symbol
_atom_site_label
_atom_site_fract_x
_atom_site_fract_y
_atom_site_fract_z
Si Si1 0.567379 0.842621 0.499258
Si Si2 0.654195 0.335451 0.322364
Si Si3 0.065443 0.662377 0.004241
Si Si4 0.402237 0.660653 0.832443
Si Si5 0.535690 0.338957 0.693556
Si Si6 0.235081 0.336606 0.602838
Si Si7 0.388975 0.161572 0.221112
O O1 0.500000 0.849579 0.500000
O O2 0.608206 0.763924 0.401698
O O3 0.564131 0.749716 0.593922
O O4 0.588254 0.000000 0.506059
O O5 0.638157 0.500000 0.340853
O O6 0.649466 0.303891 0.213491
O O7 0.715919 0.315477 0.342838
O O8 0.059486 0.500000 0.033654
O O9 0.112002 0.673890 0.891096
O O10 0.087995 0.746842 0.081275
O O11 0.000000 0.704213 0.000000
O O12 0.395340 0.500000 0.864977
O O13 0.464190 0.670640 0.738017
O O14 0.552173 0.500000 0.676739
O O15 0.561040 0.267027 0.771936
O O16 0.235954 0.500000 0.577245
O O17 0.250000 0.250000 0.500000
O O18 0.171299 0.306300 0.687436
O O19 0.405246 0.000000 0.231769
#
# Coordination Sequence:
#
# PCOD9196579 Si02
#       7
#     8   8   8   8   8   8   8
#     4  11  22  33  50  79 112 145 181 226 280 338
#     4  10  21  39  58  79 111 152 190 231 283 337
#     4  10  20  35  57  83 114 150 187 229 282 340
#     4  10  21  35  54  81 113 145 183 230 281 335
#     4  11  21  33  53  81 112 147 183 227 281 338
#     4  10  22  40  62  83 111 149 191 235 279 332
#     4  10  21  38  58  83 113 147 189 236 282 332
#
# _framework density 18.285654000000001
#
# number of rings (size 3 to 8) (size 9 to 14) (size 15 to 20)
#    0.000    1.714    2.857    1.714    0.000    6.000 
#    0.000    0.714    0.000    0.000    0.000    0.000 
#    0.000    0.000    0.000    0.000    0.000    0.000 
#
# Total GULP energy -156184.787095 kJ/mol
# GULP energy per Si atom -5578.028111 kJ/mol
# Density = 1.824403 g / cm^3
# Si number density = 18.285654 Si / 1000 Ang^3
#
#
#
# Elastic Constant Matrix: (Units=GPa)
#
#
# Indices 1 2 3 4 5 6 
#
# 1 85.8850 39.9214 32.8450 0.0000 18.6277 0.0000
# 2 39.9214 80.4748 52.3338 0.0000 21.1798 0.0000
# 3 32.8450 52.3338 98.2797 0.0000 22.4863 0.0000
# 4 0.0000 0.0000 0.0000 33.3595 0.0000 8.5042
# 5 18.6277 21.1798 22.4863 0.0000 34.6134 0.0000
# 6 0.0000 0.0000 0.0000 8.5042 0.0000 14.9786
#
#
#
# Elastic Compliance Matrix: (Units=1/GPa)
#
#
# Indices 1 2 3 4 5 6 
#
# 1 0.015751 -0.006005 -0.001136 0.000000 -0.004064 0.000000
# 2 -0.006005 0.022397 -0.008837 0.000000 -0.004732 0.000000
# 3 -0.001136 -0.008837 0.016307 0.000000 -0.004575 0.000000
# 4 0.000000 0.000000 0.000000 0.035049 0.000000 -0.019900
# 5 -0.004064 -0.004732 -0.004575 0.000000 0.036945 0.000000
# 6 0.000000 0.000000 0.000000 -0.019900 0.000000 0.078060
#
#
# Mechanical properties :
#
#
# Convention : Reuss Voigt Hill
#
# Bulk Modulus (GPa) = 44.44708 57.20444 50.82576
# Shear Modulus (GPa) = 20.49461 25.89292 23.19377
#
# Velocity S-wave (km/s) = 3.35147 3.76709 3.56534
# Velocity P-wave (km/s) = 6.27187 7.09035 6.69363
#
# Compressibility (1/GPa) = 0.02249866
#
# Stress axis : x y z
#
# Youngs Moduli (GPa) = 63.48905 44.64791 61.32229
#
# Poissons Ratio (x) = 0.26811 0.06969
# Poissons Ratio (y) = 0.38125 0.54191
# Poissons Ratio (z) = 0.07215 0.39455
#
# Static dielectric constant tensor:
#      x y z
#    x 1.664850 0.000000 0.011330 
#    y 0.000000 1.613680 0.000000 
#    z 0.011330 0.000000 1.631970 
# 
# From -- ./inp_files/237810.got.cif
#   From: 2010.05.17/outbox.cif.g08.bks.cpg/sg12_119_cif.got.tgz:237810.got - 2010.06.03 13:09:07.
