data_PCOD9196124
_publ_section_title
;
Structure prediction by ZEFSAII (Michael W. Deem and Ramdas Pophale) SiO2 
 PCOD9196124
Probable space group: C 2/M
;
_chemical_formula_sum "Si O2"
_cell_formula_units_Z 64
_cell_length_a 20.443206
_cell_length_b 9.643300
_cell_length_c 23.758391
_cell_angle_alpha 90.000000
_cell_angle_beta 43.896779
_cell_angle_gamma 90.000000
_cell_volume 3247.516141
_symmetry_space_group_name_H-M "C 2/M"
_symmetry_group_IT_number 12
_symmetry_cell_setting 'monoclinic'
loop_
_space_group_symop_operation_xyz
x,y,z
-x,y,-z
-x,-y,-z
x,-y,z
1/2+x,1/2+y,z
1/2-x,1/2+y,-z
1/2-x,1/2-y,-z
1/2+x,1/2-y,z
loop_
_atom_site_type_symbol
_atom_site_label
_atom_site_fract_x
_atom_site_fract_y
_atom_site_fract_z
Si Si1 0.846414 0.167788 0.109266
Si Si2 0.496181 0.837723 0.664975
Si Si3 0.197192 0.660063 0.487376
Si Si4 0.256266 0.839023 0.669829
Si Si5 0.455905 0.659414 0.148457
Si Si6 0.456257 0.840623 0.811408
Si Si7 0.758968 0.159735 0.049862
Si Si8 0.176330 0.833854 0.272715
O O1 0.934776 0.196611 0.096032
O O2 0.837519 0.195607 0.047992
O O3 0.762916 0.260970 0.186371
O O4 0.829016 0.000000 0.126116
O O5 0.586394 0.825837 0.569112
O O6 0.517624 0.809197 0.717777
O O7 0.418474 0.728917 0.694095
O O8 0.463255 0.000000 0.683262
O O9 0.222135 0.500000 0.481186
O O10 0.250000 0.750000 0.500000
O O11 0.227584 0.693185 0.405251
O O12 0.147330 0.832177 0.757419
O O13 0.313112 0.729215 0.671523
O O14 0.286487 0.000000 0.661388
O O15 0.487401 0.500000 0.129650
O O16 0.522348 0.748939 0.147404
O O17 0.347230 0.829295 0.859108
O O18 0.472880 0.000000 0.817210
O O19 0.773579 0.000000 0.024931
O O20 0.750000 0.250000 0.000000
O O21 0.181000 0.000000 0.267624
#
# Coordination Sequence:
#
# PCOD9196124 Si02
#       8
#     8   8   8   8   8   8   8   8
#     4   9  18  38  60  79 112 152 183 217 271 335
#     4  10  20  36  55  75 105 147 185 220 275 339
#     4  10  21  35  54  76 103 144 187 230 280 330
#     4   9  19  36  53  74 109 149 185 222 275 336
#     4   9  18  32  56  82 107 144 185 227 267 315
#     4  10  20  35  56  81 111 144 179 225 277 326
#     4  10  21  38  60  84 111 146 181 221 272 327
#     4  11  21  32  53  83 106 136 183 236 278 313
#
# _framework density 19.707370000000001
#
# number of rings (size 3 to 8) (size 9 to 14) (size 15 to 20)
#    0.000    2.250    1.250    2.625    0.000    5.000 
#    0.000    3.125    0.000    3.750    0.000    0.000 
#    0.000    0.000    0.000    0.000    0.000    0.000 
#
# Total GULP energy -178482.452764 kJ/mol
# GULP energy per Si atom -5577.576649 kJ/mol
# Density = 1.966252 g / cm^3
# Si number density = 19.707370 Si / 1000 Ang^3
#
#
#
# Elastic Constant Matrix: (Units=GPa)
#
#
# Indices 1 2 3 4 5 6 
#
# 1 130.3552 69.9027 28.1515 0.0000 21.3946 -0.0001
# 2 69.9027 73.4214 21.5690 0.0001 14.3435 -0.0002
# 3 28.1515 21.5690 72.1881 0.0000 21.2150 0.0000
# 4 0.0000 0.0001 0.0000 20.7153 0.0000 5.6583
# 5 21.3946 14.3435 21.2150 0.0000 24.8472 0.0000
# 6 -0.0001 -0.0002 0.0000 5.6583 0.0000 36.7432
#
#
#
# Elastic Compliance Matrix: (Units=1/GPa)
#
#
# Indices 1 2 3 4 5 6 
#
# 1 0.016384 -0.014402 -0.000512 0.000000 -0.005356 0.000000
# 2 -0.014402 0.028399 -0.002263 0.000000 -0.002061 0.000000
# 3 -0.000512 -0.002263 0.018977 0.000000 -0.014455 0.000000
# 4 0.000000 0.000000 0.000000 0.050393 0.000000 -0.007760
# 5 -0.005356 -0.002061 -0.014455 0.000000 0.058390 0.000000
# 6 0.000000 0.000000 0.000000 -0.007760 0.000000 0.028411
#
#
# Mechanical properties :
#
#
# Convention : Reuss Voigt Hill
#
# Bulk Modulus (GPa) = 34.00741 57.24567 45.62654
# Shear Modulus (GPa) = 20.39890 26.88390 23.64140
#
# Velocity S-wave (km/s) = 3.22077 3.69745 3.46731
# Velocity P-wave (km/s) = 5.57896 6.88034 6.26354
#
# Compressibility (1/GPa) = 0.02940536
#
# Stress axis : x y z
#
# Youngs Moduli (GPa) = 61.03459 35.21205 52.69583
#
# Poissons Ratio (x) = 0.50713 0.02698
# Poissons Ratio (y) = 0.87903 0.11927
# Poissons Ratio (z) = 0.03125 0.07970
#
# Static dielectric constant tensor:
#      x y z
#    x 1.718400 0.000000 0.011220 
#    y 0.000000 1.653510 0.000000 
#    z 0.011220 0.000000 1.775280 
# 
# From -- ./inp_files/345969.got.cif
#   From: 2010.05.17/outbox.cif.g08.bks.cpg/sg12_173_cif.got.tgz:345969.got - 2010.06.03 13:09:07.
