data_PCOD9196092
_publ_section_title
;
Structure prediction by ZEFSAII (Michael W. Deem and Ramdas Pophale) SiO2 
 PCOD9196092
Probable space group: C 2/M
;
_chemical_formula_sum "Si O2"
_cell_formula_units_Z 64
_cell_length_a 10.161200
_cell_length_b 14.899920
_cell_length_c 19.138042
_cell_angle_alpha 90.000000
_cell_angle_beta 98.682210
_cell_angle_gamma 90.000000
_cell_volume 2864.316734
_symmetry_space_group_name_H-M "C 2/M"
_symmetry_group_IT_number 12
_symmetry_cell_setting 'monoclinic'
loop_
_space_group_symop_operation_xyz
x,y,z
-x,y,-z
-x,-y,-z
x,-y,z
1/2+x,1/2+y,z
1/2-x,1/2+y,-z
1/2-x,1/2-y,-z
1/2+x,1/2-y,z
loop_
_atom_site_type_symbol
_atom_site_label
_atom_site_fract_x
_atom_site_fract_y
_atom_site_fract_z
Si Si1 0.520973 0.389722 0.420256
Si Si2 0.629245 0.853433 0.051805
Si Si3 0.931190 0.323755 0.801225
Si Si4 0.250359 0.349708 0.810513
Si Si5 0.645767 0.365004 0.034269
Si Si6 0.466286 0.109330 0.573953
Si Si7 0.745920 0.107747 0.340954
Si Si8 0.763836 0.602891 0.347348
O O1 0.500000 0.363493 0.500000
O O2 0.522708 0.500000 0.421302
O O3 0.397250 0.361803 0.360973
O O4 0.652921 0.357445 0.390096
O O5 0.607469 0.876089 0.130801
O O6 0.638791 0.744276 0.043188
O O7 0.500000 0.883376 0.000000
O O8 0.757766 0.887673 0.021981
O O9 0.859107 0.228944 0.808567
O O10 0.850350 0.362053 0.728978
O O11 0.092736 0.321746 0.806471
O O12 0.294514 0.395780 0.886588
O O13 0.263394 0.397886 0.737095
O O14 0.500000 0.394745 0.000000
O O15 0.500000 0.140103 0.500000
O O16 0.326806 0.137368 0.593890
O O17 0.588988 0.141094 0.630765
O O18 0.459975 0.000000 0.573000
O O19 0.749338 0.000000 0.337819
O O20 0.773604 0.500000 0.371818
#
# Coordination Sequence:
#
# PCOD9196092 Si02
#       8
#     8   8   8   8   8   8   8   8
#     4   9  18  33  55  84 111 137 178 229 271 311
#     4   9  16  30  49  73 103 134 177 223 264 305
#     4  11  23  35  55  81 111 144 178 224 271 322
#     4  11  23  36  54  82 112 142 179 222 272 323
#     4   9  18  30  51  77 104 135 179 224 265 308
#     4   9  16  29  53  81 102 129 178 228 261 298
#     4  10  20  35  56  81 109 141 177 220 269 319
#     4  10  20  35  57  81 109 144 178 219 271 322
#
# _framework density 22.343896999999998
#
# number of rings (size 3 to 8) (size 9 to 14) (size 15 to 20)
#    0.000    2.250    2.500    0.750    7.000    3.000 
#    0.000    0.000    0.000    6.000    0.000    0.000 
#    0.000    0.000    0.000    0.000    0.000    0.000 
#
# Total GULP energy -178404.677282 kJ/mol
# GULP energy per Si atom -5575.146165 kJ/mol
# Density = 2.229304 g / cm^3
# Si number density = 22.343897 Si / 1000 Ang^3
#
#
#
# Elastic Constant Matrix: (Units=GPa)
#
#
# Indices 1 2 3 4 5 6 
#
# 1 131.9242 9.8495 20.8817 0.0000 -11.0959 0.0000
# 2 9.8495 55.6613 -5.6650 0.0000 -1.5216 0.0000
# 3 20.8817 -5.6650 100.3741 0.0000 -4.3726 0.0000
# 4 0.0000 0.0000 0.0000 13.2842 0.0000 2.4869
# 5 -11.0959 -1.5216 -4.3726 0.0000 43.6708 0.0000
# 6 0.0000 0.0000 0.0000 2.4869 0.0000 -1.6947
#
#
#
# Elastic Compliance Matrix: (Units=1/GPa)
#
#
# Indices 1 2 3 4 5 6 
#
# 1 0.008120 -0.001559 -0.001697 0.000000 0.001839 0.000000
# 2 -0.001559 0.018393 0.001379 0.000000 0.000383 0.000000
# 3 -0.001697 0.001379 0.010422 0.000000 0.000660 0.000000
# 4 0.000000 0.000000 0.000000 0.059055 0.000000 0.086657
# 5 0.001839 0.000383 0.000660 0.000000 0.023445 0.000000
# 6 0.000000 0.000000 0.000000 0.086657 0.000000 -0.462903
#
#
# Mechanical properties :
#
#
# Convention : Reuss Voigt Hill
#
# Bulk Modulus (GPa) = 30.13849 37.56577 33.85213
# Shear Modulus (GPa) = -15.21359 28.57829 6.68235
#
# Velocity S-wave (km/s) = -2.61221 3.58022 1.73123
# Velocity P-wave (km/s) = 2.10228 5.82578 4.37945
#
# Compressibility (1/GPa) = 0.03318016
#
# Stress axis : x y z
#
# Youngs Moduli (GPa) = 123.15540 54.36982 95.94712
#
# Poissons Ratio (x) = 0.08478 0.16284
# Poissons Ratio (y) = 0.19204 -0.13232
# Poissons Ratio (z) = 0.20901 -0.07498
#
# Static dielectric constant tensor:
#      x y z
#    x 2.184480 0.000000 -0.015880 
#    y 0.000000 1.890480 0.000000 
#    z -0.015880 0.000000 1.846050 
# 
# From -- ./inp_files/251924.got.cif
#   From: 2010.05.17/outbox.cif.g08.bks.cpg/sg12_126_cif.got.tgz:251924.got - 2010.06.03 13:09:07.
