data_PCOD9196508
_publ_section_title
;
Structure prediction by ZEFSAII (Michael W. Deem and Ramdas Pophale) SiO2 
 PCOD9196508
Probable space group: C 2/M
;
_chemical_formula_sum "Si O2"
_cell_formula_units_Z 64
_cell_length_a 14.509844
_cell_length_b 8.334971
_cell_length_c 30.852259
_cell_angle_alpha 90.000000
_cell_angle_beta 117.756442
_cell_angle_gamma 90.000000
_cell_volume 3301.910634
_symmetry_space_group_name_H-M "C 2/M"
_symmetry_group_IT_number 12
_symmetry_cell_setting 'monoclinic'
loop_
_space_group_symop_operation_xyz
x,y,z
-x,y,-z
-x,-y,-z
x,-y,z
1/2+x,1/2+y,z
1/2-x,1/2+y,-z
1/2-x,1/2-y,-z
1/2+x,1/2-y,z
loop_
_atom_site_type_symbol
_atom_site_label
_atom_site_fract_x
_atom_site_fract_y
_atom_site_fract_z
Si Si1 0.982112 0.190902 0.634088
Si Si2 0.850928 0.806990 0.821238
Si Si3 0.945583 0.804628 0.444309
Si Si4 0.721951 0.809211 0.362812
Si Si5 0.200946 0.806609 0.093782
Si Si6 0.932071 0.306566 0.114273
Si Si7 0.204065 0.690829 0.711792
Si Si8 0.136103 0.692016 0.991024
O O1 0.883913 0.268431 0.635991
O O2 0.997250 0.246346 0.587518
O O3 0.090851 0.230749 0.681535
O O4 0.967673 0.000000 0.630621
O O5 0.825465 0.746889 0.864099
O O6 0.769978 0.749610 0.767375
O O7 0.969754 0.758873 0.838460
O O8 0.844515 0.000000 0.820513
O O9 0.824444 0.758845 0.412599
O O10 0.000000 0.746239 0.500000
O O11 0.948822 0.000000 0.445703
O O12 0.732798 0.727295 0.318388
O O13 0.729519 0.000000 0.357610
O O14 0.319648 0.757255 0.108160
O O15 0.127232 0.750760 0.038234
O O16 0.198315 0.000000 0.093164
O O17 0.935310 0.500000 0.115636
O O18 0.936468 0.252184 0.064641
O O19 0.189467 0.500000 0.712589
O O20 0.133054 0.500000 0.991081
O O21 0.250000 0.750000 0.000000
#
# Coordination Sequence:
#
# PCOD9196508 Si02
#       8
#     8   8   8   8   8   8   8   8
#     4  10  20  35  57  83 110 144 185 225 268 320
#     4  10  22  37  54  77 103 132 170 215 264 315
#     4   8  16  32  53  80 116 151 182 220 264 312
#     4  10  20  35  57  82 109 146 187 225 269 318
#     4   9  19  36  53  73 102 134 166 204 254 310
#     4   9  19  34  52  74 103 135 167 205 251 308
#     4  10  21  38  56  77 107 140 180 230 275 320
#     4   9  17  31  51  75 101 132 167 203 248 303
#
# _framework density 19.382715999999999
#
# number of rings (size 3 to 8) (size 9 to 14) (size 15 to 20)
#    0.000    2.625    0.000    3.000    0.000    6.000 
#    0.000    3.750    0.000   12.750    0.000    0.000 
#    0.000    0.000    0.000    0.000    0.000    0.000 
#
# Total GULP energy -178520.821499 kJ/mol
# GULP energy per Si atom -5578.775672 kJ/mol
# Density = 1.933860 g / cm^3
# Si number density = 19.382716 Si / 1000 Ang^3
#
#
#
# Elastic Constant Matrix: (Units=GPa)
#
#
# Indices 1 2 3 4 5 6 
#
# 1 83.6575 -8.9426 33.9976 0.0000 1.5240 0.0000
# 2 -8.9426 10.0731 0.5246 0.0000 -2.1665 0.0000
# 3 33.9976 0.5246 132.5899 0.0000 7.1340 0.0000
# 4 0.0000 0.0000 0.0000 23.2073 0.0000 1.1823
# 5 1.5240 -2.1665 7.1340 0.0000 10.6120 0.0000
# 6 0.0000 0.0000 0.0000 1.1823 0.0000 18.2245
#
#
#
# Elastic Compliance Matrix: (Units=1/GPa)
#
#
# Indices 1 2 3 4 5 6 
#
# 1 0.015100 0.014381 -0.004119 0.000000 0.003536 0.000000
# 2 0.014381 0.117861 -0.005538 0.000000 0.025719 0.000000
# 3 -0.004119 -0.005538 0.008974 0.000000 -0.006572 0.000000
# 4 0.000000 0.000000 0.000000 0.043233 0.000000 -0.002805
# 5 0.003536 0.025719 -0.006572 0.000000 0.103393 0.000000
# 6 0.000000 0.000000 0.000000 -0.002805 0.000000 0.055053
#
#
# Mechanical properties :
#
#
# Convention : Reuss Voigt Hill
#
# Bulk Modulus (GPa) = 6.60574 30.83107 18.71841
# Shear Modulus (GPa) = 12.99961 23.79151 18.39556
#
# Velocity S-wave (km/s) = 2.59256 3.50731 3.08404
# Velocity P-wave (km/s) = 3.51814 5.68706 4.72863
#
# Compressibility (1/GPa) = 0.15138344
#
# Stress axis : x y z
#
# Youngs Moduli (GPa) = 66.22401 8.48456 111.43651
#
# Poissons Ratio (x) = -0.12201 0.45901
# Poissons Ratio (y) = -0.95235 0.61708
# Poissons Ratio (z) = 0.27278 0.04698
#
# Static dielectric constant tensor:
#      x y z
#    x 1.670950 0.000000 -0.009170 
#    y 0.000000 1.665920 0.000000 
#    z -0.009170 0.000000 1.682670 
# 
# From -- ./inp_files/375109.got.cif
#   From: 2010.05.17/outbox.cif.g08.bks.cpg/sg12_188_cif.got.tgz:375109.got - 2010.06.03 13:09:07.
