data_PCOD9196404
_publ_section_title
;
Structure prediction by ZEFSAII (Michael W. Deem and Ramdas Pophale) SiO2 
 PCOD9196404
Probable space group: C 2/M
;
_chemical_formula_sum "Si O2"
_cell_formula_units_Z 64
_cell_length_a 25.957754
_cell_length_b 10.904379
_cell_length_c 21.283774
_cell_angle_alpha 90.000000
_cell_angle_beta 31.096018
_cell_angle_gamma 90.000000
_cell_volume 3111.465566
_symmetry_space_group_name_H-M "C 2/M"
_symmetry_group_IT_number 12
_symmetry_cell_setting 'monoclinic'
loop_
_space_group_symop_operation_xyz
x,y,z
-x,y,-z
-x,-y,-z
x,-y,z
1/2+x,1/2+y,z
1/2-x,1/2+y,-z
1/2-x,1/2-y,-z
1/2+x,1/2-y,z
loop_
_atom_site_type_symbol
_atom_site_label
_atom_site_fract_x
_atom_site_fract_y
_atom_site_fract_z
Si Si1 0.762931 0.133617 0.398313
Si Si2 0.931989 0.631146 0.921129
Si Si3 0.494245 0.637203 0.347358
Si Si4 0.927891 0.859786 0.015745
Si Si5 0.281674 0.299291 0.899128
Si Si6 0.800680 0.357068 0.755907
Si Si7 0.599891 0.783400 0.663267
Si Si8 0.592642 0.146826 0.477399
O O1 0.678507 0.138892 0.540974
O O2 0.842282 0.233954 0.336127
O O3 0.699459 0.151745 0.401876
O O4 0.811040 0.000000 0.345688
O O5 0.956159 0.500000 0.926660
O O6 0.950402 0.751469 0.943611
O O7 0.001607 0.646318 0.787401
O O8 0.816083 0.631099 0.023332
O O9 0.465943 0.500000 0.399251
O O10 0.611503 0.636181 0.208683
O O11 0.433270 0.673130 0.348177
O O12 0.471419 0.750400 0.419001
O O13 0.936234 0.000000 0.981584
O O14 0.000000 0.851154 0.000000
O O15 0.811271 0.841245 0.154240
O O16 0.299478 0.199350 0.826034
O O17 0.250000 0.250000 0.000000
O O18 0.818393 0.500000 0.743711
O O19 0.882938 0.315310 0.619576
O O20 0.562024 0.000000 0.512874
#
# Coordination Sequence:
#
# PCOD9196404 Si02
#       8
#     8   8   8   8   8   8   8   8
#     4   9  18  33  57  85 119 158 197 244 298 356
#     4  11  23  39  60  89 124 160 202 253 313 373
#     4  11  23  40  62  91 123 162 210 259 312 369
#     4   9  20  38  62  89 120 160 205 250 300 364
#     4  11  23  43  60  88 122 166 208 260 313 368
#     4   9  20  39  64  91 120 156 208 257 303 367
#     4  10  20  35  56  86 123 160 201 247 299 367
#     4   9  20  40  64  93 123 157 201 253 311 370
#
# _framework density 20.569085000000001
#
# number of rings (size 3 to 8) (size 9 to 14) (size 15 to 20)
#    0.000    2.125    1.250    1.125    1.750    3.750 
#    0.000    5.625    0.000    0.000    0.000    0.000 
#    0.000    0.000    0.000    0.000    0.000    0.000 
#
# Total GULP energy -178408.402905 kJ/mol
# GULP energy per Si atom -5575.262591 kJ/mol
# Density = 2.052227 g / cm^3
# Si number density = 20.569085 Si / 1000 Ang^3
#
#
#
# Elastic Constant Matrix: (Units=GPa)
#
#
# Indices 1 2 3 4 5 6 
#
# 1 73.3444 34.8809 25.7425 0.0000 2.7272 0.0000
# 2 34.8809 111.9305 40.2598 0.0005 16.4804 0.0002
# 3 25.7425 40.2598 105.6969 0.0002 9.0397 0.0001
# 4 0.0000 0.0005 0.0002 0.7613 -0.0001 3.7794
# 5 2.7272 16.4804 9.0397 -0.0001 33.6812 -0.0001
# 6 0.0000 0.0002 0.0001 3.7794 -0.0001 -39.3880
#
#
#
# Elastic Compliance Matrix: (Units=1/GPa)
#
#
# Indices 1 2 3 4 5 6 
#
# 1 0.016583 -0.004510 -0.002451 0.000003 0.001522 0.000000
# 2 -0.004510 0.012164 -0.003129 -0.000005 -0.004747 0.000000
# 3 -0.002451 -0.003129 0.011363 -0.000001 -0.001320 0.000000
# 4 0.000003 -0.000005 -0.000001 0.889712 0.000005 0.085371
# 5 0.001522 -0.004747 -0.001320 0.000005 0.032244 0.000000
# 6 0.000000 0.000000 0.000000 0.085371 0.000000 -0.017197
#
#
# Mechanical properties :
#
#
# Convention : Reuss Voigt Hill
#
# Bulk Modulus (GPa) = 50.17698 54.74871 52.46284
# Shear Modulus (GPa) = 5.14566 11.68345 8.41456
#
# Velocity S-wave (km/s) = 1.58338 2.38588 2.02479
# Velocity P-wave (km/s) = 5.27163 5.85360 5.57022
#
# Compressibility (1/GPa) = 0.01992946
#
# Stress axis : x y z
#
# Youngs Moduli (GPa) = 60.30292 82.21009 88.00785
#
# Poissons Ratio (x) = 0.37079 0.21571
# Poissons Ratio (y) = 0.27198 0.27536
# Poissons Ratio (z) = 0.14780 0.25722
#
# Static dielectric constant tensor:
#      x y z
#    x 1.756980 0.000000 -0.013740 
#    y 0.000000 1.745730 0.000000 
#    z -0.013740 0.000000 1.753500 
# 
# From -- ./inp_files/349349.got.cif
#   From: 2010.05.17/outbox.cif.g08.bks.cpg/sg12_175_cif.got.tgz:349349.got - 2010.06.03 13:09:07.
