data_PCOD9196970
_publ_section_title
;
Structure prediction by ZEFSAII (Michael W. Deem and Ramdas Pophale) SiO2 
 PCOD9196970
Probable space group: C 2/M
;
_chemical_formula_sum "Si O2"
_cell_formula_units_Z 64
_cell_length_a 8.601563
_cell_length_b 20.696340
_cell_length_c 23.373750
_cell_angle_alpha 90.000000
_cell_angle_beta 55.689184
_cell_angle_gamma 90.000000
_cell_volume 3436.964989
_symmetry_space_group_name_H-M "C 2/M"
_symmetry_group_IT_number 12
_symmetry_cell_setting 'monoclinic'
loop_
_space_group_symop_operation_xyz
x,y,z
-x,y,-z
-x,-y,-z
x,-y,z
1/2+x,1/2+y,z
1/2-x,1/2+y,-z
1/2-x,1/2-y,-z
1/2+x,1/2-y,z
loop_
_atom_site_type_symbol
_atom_site_label
_atom_site_fract_x
_atom_site_fract_y
_atom_site_fract_z
Si Si1 0.305467 0.427416 0.073887
Si Si2 0.190068 0.577361 0.299018
Si Si3 0.451704 0.820345 0.281577
Si Si4 0.447603 0.806818 0.871611
Si Si5 0.033545 0.777530 0.365352
Si Si6 0.357014 0.159461 0.577937
Si Si7 0.691764 0.814212 0.924064
Si Si8 0.014422 0.074110 0.148514
O O1 0.237669 0.500000 0.075456
O O2 0.158223 0.372693 0.089964
O O3 0.363805 0.423077 0.128141
O O4 0.500000 0.417432 0.000000
O O5 0.165553 0.500000 0.302883
O O6 0.173806 0.607765 0.365242
O O7 0.396300 0.592144 0.229420
O O8 0.040223 0.614868 0.290079
O O9 0.515398 0.808620 0.203519
O O10 0.225027 0.818399 0.329267
O O11 0.523387 0.762575 0.307937
O O12 0.634325 0.802992 0.870162
O O13 0.317621 0.746614 0.915491
O O14 0.051661 0.723029 0.410810
O O15 0.843185 0.818816 0.406782
O O16 0.500000 0.136073 0.500000
O O17 0.817845 0.877956 0.900834
O O18 0.500000 0.817876 0.000000
O O19 0.079537 0.000000 0.139257
#
# Coordination Sequence:
#
# PCOD9196970 Si02
#       8
#     8   8   8   8   8   8   8   8
#     4  10  20  37  60  82 109 149 195 240 290 350
#     4  10  22  40  60  84 117 155 196 239 290 347
#     4  10  20  35  58  85 112 151 189 242 284 344
#     4  12  23  35  59  82 116 149 195 241 297 350
#     4   9  20  35  58  91 122 147 191 234 288 337
#     4  10  20  36  63  91 124 157 191 235 285 345
#     4  12  26  39  56  84 119 153 193 248 303 354
#     4  10  22  41  60  80 113 154 196 243 295 353
#
# _framework density 18.621081
#
# number of rings (size 3 to 8) (size 9 to 14) (size 15 to 20)
#    0.000    1.625    1.250    3.375    7.000    1.000 
#    0.000    0.625    0.000    0.750    0.000    0.000 
#    0.000    0.000    0.000    0.000    0.000    0.000 
#
# Total GULP energy -178770.945357 kJ/mol
# GULP energy per Si atom -5586.592042 kJ/mol
# Density = 1.857870 g / cm^3
# Si number density = 18.621081 Si / 1000 Ang^3
#
#
#
# Elastic Constant Matrix: (Units=GPa)
#
#
# Indices 1 2 3 4 5 6 
#
# 1 68.6238 22.9877 -1.0137 0.0000 -11.0750 0.0000
# 2 22.9877 58.3786 21.3700 0.0000 -20.1819 0.0000
# 3 -1.0137 21.3700 89.1486 0.0000 -0.4562 0.0000
# 4 0.0000 0.0000 0.0000 1.6754 0.0000 -12.3008
# 5 -11.0750 -20.1819 -0.4562 0.0000 22.4612 0.0000
# 6 0.0000 0.0000 0.0000 -12.3008 0.0000 21.3093
#
#
#
# Elastic Compliance Matrix: (Units=1/GPa)
#
#
# Indices 1 2 3 4 5 6 
#
# 1 0.017207 -0.006494 0.001766 0.000000 0.002685 0.000000
# 2 -0.006494 0.030766 -0.007325 0.000000 0.024294 0.000000
# 3 0.001766 -0.007325 0.012965 0.000000 -0.005447 0.000000
# 4 0.000000 0.000000 0.000000 -0.184324 0.000000 -0.106401
# 5 0.002685 0.024294 -0.005447 0.000000 0.067563 0.000000
# 6 0.000000 0.000000 0.000000 -0.106401 0.000000 -0.014492
#
#
# Mechanical properties :
#
#
# Convention : Reuss Voigt Hill
#
# Bulk Modulus (GPa) = 27.14884 33.64879 30.39881
# Shear Modulus (GPa) = -147.35343 20.60966 -63.37189
#
# Velocity S-wave (km/s) = -8.90530 3.33046 -5.84005
# Velocity P-wave (km/s) = 9.54609 5.73574 5.39579
#
# Compressibility (1/GPa) = 0.03683399
#
# Stress axis : x y z
#
# Youngs Moduli (GPa) = 58.11613 32.50309 77.12944
#
# Poissons Ratio (x) = 0.21106 -0.13621
# Poissons Ratio (y) = 0.37739 0.56494
# Poissons Ratio (z) = -0.10263 0.23807
#
# Static dielectric constant tensor:
#      x y z
#    x 1.635850 0.000000 0.022260 
#    y 0.000000 1.623680 0.000000 
#    z 0.022260 0.000000 1.655720 
# 
# From -- ./inp_files/301694.got.cif
#   From: 2010.05.17/outbox.cif.g08.bks.cpg/sg12_151_cif.got.tgz:301694.got - 2010.06.03 13:09:07.
