data_PCOD9196245
_publ_section_title
;
Structure prediction by ZEFSAII (Michael W. Deem and Ramdas Pophale) SiO2 
 PCOD9196245
Probable space group: C 2/M
;
_chemical_formula_sum "Si O2"
_cell_formula_units_Z 56
_cell_length_a 21.860483
_cell_length_b 13.480176
_cell_length_c 11.803310
_cell_angle_alpha 90.000000
_cell_angle_beta 63.055747
_cell_angle_gamma 90.000000
_cell_volume 3100.666499
_symmetry_space_group_name_H-M "C 2/M"
_symmetry_group_IT_number 12
_symmetry_cell_setting 'monoclinic'
loop_
_space_group_symop_operation_xyz
x,y,z
-x,y,-z
-x,-y,-z
x,-y,z
1/2+x,1/2+y,z
1/2-x,1/2+y,-z
1/2-x,1/2-y,-z
1/2+x,1/2-y,z
loop_
_atom_site_type_symbol
_atom_site_label
_atom_site_fract_x
_atom_site_fract_y
_atom_site_fract_z
Si Si1 0.313263 0.615360 0.291432
Si Si2 0.931248 0.616564 0.123203
Si Si3 0.971433 0.886785 0.651901
Si Si4 0.650633 0.884899 0.397997
Si Si5 0.320123 0.231389 0.087492
Si Si6 0.909844 0.751918 0.357276
Si Si7 0.839061 0.237513 0.806852
O O1 0.334337 0.500000 0.272494
O O2 0.230627 0.618315 0.368330
O O3 0.331230 0.672704 0.159261
O O4 0.349438 0.675748 0.362394
O O5 0.934429 0.500000 0.140775
O O6 0.866045 0.645421 0.102008
O O7 0.924335 0.674557 0.245641
O O8 0.000000 0.648041 0.000000
O O9 0.895562 0.841555 0.721686
O O10 0.000000 0.885772 0.500000
O O11 0.023322 0.817993 0.677650
O O12 0.971923 0.000000 0.692351
O O13 0.610453 0.810990 0.515052
O O14 0.646677 0.838543 0.275322
O O15 0.628252 0.000000 0.421032
O O16 0.239041 0.207955 0.157831
O O17 0.341008 0.249362 0.940310
#
# Coordination Sequence:
#
# PCOD9196245 Si02
#       7
#     8   8   8   8   8   8   8
#     4   9  19  35  57  84 112 144 184 234 286 336
#     4  10  21  37  57  83 114 146 186 236 284 336
#     4  11  23  38  56  81 114 151 189 231 281 337
#     4  10  20  35  56  83 113 146 187 233 283 339
#     4   9  20  36  61  84 113 151 191 231 288 337
#     4  11  20  37  58  80 111 148 187 232 283 338
#     4  10  20  39  57  83 117 152 189 238 280 337
#
# _framework density 18.060634
#
# number of rings (size 3 to 8) (size 9 to 14) (size 15 to 20)
#    0.000    2.000    1.429    2.143    0.000    1.714 
#    0.000    5.000    0.000    4.714    0.000    0.000 
#    0.000    0.000    0.000    0.000    0.000    0.000 
#
# Total GULP energy -156244.297908 kJ/mol
# GULP energy per Si atom -5580.153497 kJ/mol
# Density = 1.801953 g / cm^3
# Si number density = 18.060634 Si / 1000 Ang^3
#
#
#
# Elastic Constant Matrix: (Units=GPa)
#
#
# Indices 1 2 3 4 5 6 
#
# 1 54.3011 41.1234 34.1271 0.0000 0.0179 0.0000
# 2 41.1234 99.4307 43.5507 0.0000 -10.0612 0.0000
# 3 34.1271 43.5507 80.9565 0.0000 -7.2961 0.0000
# 4 0.0000 0.0000 0.0000 12.4300 0.0000 -7.5000
# 5 0.0179 -10.0612 -7.2961 0.0000 20.9398 0.0000
# 6 0.0000 0.0000 0.0000 -7.5000 0.0000 26.7757
#
#
#
# Elastic Compliance Matrix: (Units=1/GPa)
#
#
# Indices 1 2 3 4 5 6 
#
# 1 0.031380 -0.010031 -0.008537 0.000000 -0.007821 0.000000
# 2 -0.010031 0.016693 -0.004159 0.000000 0.006580 0.000000
# 3 -0.008537 -0.004159 0.018593 0.000000 0.004487 0.000000
# 4 0.000000 0.000000 0.000000 0.096813 0.000000 0.027118
# 5 -0.007821 0.006580 0.004487 0.000000 0.052488 0.000000
# 6 0.000000 0.000000 0.000000 0.027118 0.000000 0.044943
#
#
# Mechanical properties :
#
#
# Convention : Reuss Voigt Hill
#
# Bulk Modulus (GPa) = 47.14041 52.47673 49.80857
# Shear Modulus (GPa) = 15.95230 19.75489 17.85359
#
# Velocity S-wave (km/s) = 2.97520 3.31087 3.14751
# Velocity P-wave (km/s) = 6.16119 6.61322 6.39120
#
# Compressibility (1/GPa) = 0.02121322
#
# Stress axis : x y z
#
# Youngs Moduli (GPa) = 31.86716 59.90475 53.78443
#
# Poissons Ratio (x) = 0.60088 0.45917
# Poissons Ratio (y) = 0.31965 0.22367
# Poissons Ratio (z) = 0.27206 0.24912
#
# Static dielectric constant tensor:
#      x y z
#    x 1.612090 0.000000 -0.001030 
#    y 0.000000 1.594230 0.000000 
#    z -0.001030 0.000000 1.605340 
# 
# From -- ./inp_files/165610.got.cif
#   From: 2010.05.17/outbox.cif.g08.bks.cpg/sg12_83_cif.got.tgz:165610.got - 2010.06.03 13:09:07.
