data_PCOD9196354
_publ_section_title
;
Structure prediction by ZEFSAII (Michael W. Deem and Ramdas Pophale) SiO2 
 PCOD9196354
Probable space group: C 2/M
;
_chemical_formula_sum "Si O2"
_cell_formula_units_Z 52
_cell_length_a 10.044733
_cell_length_b 26.664010
_cell_length_c 11.835888
_cell_angle_alpha 90.000000
_cell_angle_beta 69.247741
_cell_angle_gamma 90.000000
_cell_volume 2964.371500
_symmetry_space_group_name_H-M "C 2/M"
_symmetry_group_IT_number 12
_symmetry_cell_setting 'monoclinic'
loop_
_space_group_symop_operation_xyz
x,y,z
-x,y,-z
-x,-y,-z
x,-y,z
1/2+x,1/2+y,z
1/2-x,1/2+y,-z
1/2-x,1/2-y,-z
1/2+x,1/2-y,z
loop_
_atom_site_type_symbol
_atom_site_label
_atom_site_fract_x
_atom_site_fract_y
_atom_site_fract_z
Si Si1 0.107079 0.370561 0.138133
Si Si2 0.448143 0.441681 0.732053
Si Si3 0.219676 0.204675 0.358486
Si Si4 0.699343 0.131794 0.864381
Si Si5 0.000000 0.126540 0.500000
Si Si6 0.975615 0.300444 0.629699
Si Si7 0.364576 0.442154 0.110222
O O1 0.090671 0.333943 0.250202
O O2 0.218461 0.413417 0.136955
O O3 0.947571 0.386673 0.149906
O O4 0.168401 0.349547 0.000655
O O5 0.415235 0.500000 0.717706
O O6 0.313478 0.413088 0.828132
O O7 0.487214 0.409338 0.611200
O O8 0.579936 0.440682 0.778572
O O9 0.246191 0.176640 0.231372
O O10 0.124452 0.253224 0.366434
O O11 0.370514 0.216603 0.369762
O O12 0.134942 0.163899 0.459139
O O13 0.000000 0.326482 0.500000
O O14 0.347424 0.500000 0.078984
O O15 0.500000 0.420837 0.000000
#
# Coordination Sequence:
#
# PCOD9196354 Si02
#       7
#     8   8   8   8   4   8   8
#     4  10  21  37  57  80 112 148 179 230 274 322
#     4  10  20  35  57  84 112 145 186 226 269 328
#     4  10  22  38  56  82 107 145 186 228 270 331
#     4   9  20  38  56  80 111 146 188 223 272 325
#     4  10  21  36  60  78 116 146 183 226 276 322
#     4  11  23  37  57  80 109 142 188 225 274 332
#     4  10  20  35  56  85 112 140 183 226 273 327
#
# _framework density 17.541661000000001
#
# number of rings (size 3 to 8) (size 9 to 14) (size 15 to 20)
#    0.000    2.000    2.308    0.692    2.154    2.462 
#    0.000    1.538    0.000    0.462    0.000    0.000 
#    0.000    0.000    0.000    0.000    0.000    0.000 
#
# Total GULP energy -144922.219509 kJ/mol
# GULP energy per Si atom -5573.931520 kJ/mol
# Density = 1.750174 g / cm^3
# Si number density = 17.541661 Si / 1000 Ang^3
#
#
#
# Elastic Constant Matrix: (Units=GPa)
#
#
# Indices 1 2 3 4 5 6 
#
# 1 86.5118 51.3525 45.1924 0.0000 -2.7570 0.0000
# 2 51.3525 75.5039 52.7371 0.0000 0.6311 0.0000
# 3 45.1924 52.7371 120.7830 0.0000 -3.4618 0.0000
# 4 0.0000 0.0000 0.0000 17.5006 0.0000 -6.3926
# 5 -2.7570 0.6311 -3.4618 0.0000 23.1480 0.0000
# 6 0.0000 0.0000 0.0000 -6.3926 0.0000 29.4190
#
#
#
# Elastic Compliance Matrix: (Units=1/GPa)
#
#
# Indices 1 2 3 4 5 6 
#
# 1 0.019912 -0.012096 -0.002101 0.000000 0.002387 0.000000
# 2 -0.012096 0.026476 -0.007127 0.000000 -0.003228 0.000000
# 3 -0.002101 -0.007127 0.012228 0.000000 0.001773 0.000000
# 4 0.000000 0.000000 0.000000 0.062067 0.000000 0.013487
# 5 0.002387 -0.003228 0.001773 0.000000 0.043838 0.000000
# 6 0.000000 0.000000 0.000000 0.013487 0.000000 0.036922
#
#
# Mechanical properties :
#
#
# Convention : Reuss Voigt Hill
#
# Bulk Modulus (GPa) = 62.61888 64.59587 63.60737
# Shear Modulus (GPa) = 20.04702 22.91464 21.48083
#
# Velocity S-wave (km/s) = 3.38423 3.61820 3.50317
# Velocity P-wave (km/s) = 7.14461 7.37288 7.25964
#
# Compressibility (1/GPa) = 0.01596963
#
# Stress axis : x y z
#
# Youngs Moduli (GPa) = 50.21972 37.77017 81.78007
#
# Poissons Ratio (x) = 0.45686 0.17180
# Poissons Ratio (y) = 0.60745 0.58284
# Poissons Ratio (z) = 0.10550 0.26918
#
# Static dielectric constant tensor:
#      x y z
#    x 1.584260 0.000000 -0.004610 
#    y 0.000000 1.567370 0.000000 
#    z -0.004610 0.000000 1.641000 
# 
# From -- ./inp_files/123602.got.cif
#   From: 2010.05.17/outbox.cif.g08.bks.cpg/sg12_62_cif.got.tgz:123602.got - 2010.06.03 13:09:07.
