data_PCOD9196947
_publ_section_title
;
Structure prediction by ZEFSAII (Michael W. Deem and Ramdas Pophale) SiO2 
 PCOD9196947
Probable space group: C 2/M
;
_chemical_formula_sum "Si O2"
_cell_formula_units_Z 64
_cell_length_a 26.403412
_cell_length_b 8.986020
_cell_length_c 14.437572
_cell_angle_alpha 90.000000
_cell_angle_beta 85.968532
_cell_angle_gamma 90.000000
_cell_volume 3417.005212
_symmetry_space_group_name_H-M "C 2/M"
_symmetry_group_IT_number 12
_symmetry_cell_setting 'monoclinic'
loop_
_space_group_symop_operation_xyz
x,y,z
-x,y,-z
-x,-y,-z
x,-y,z
1/2+x,1/2+y,z
1/2-x,1/2+y,-z
1/2-x,1/2-y,-z
1/2+x,1/2-y,z
loop_
_atom_site_type_symbol
_atom_site_label
_atom_site_fract_x
_atom_site_fract_y
_atom_site_fract_z
Si Si1 0.273274 0.821941 0.905647
Si Si2 0.442092 0.676513 0.712006
Si Si3 0.255472 0.320961 0.293139
Si Si4 0.554808 0.822963 0.945855
Si Si5 0.147077 0.320682 0.395483
Si Si6 0.118448 0.176015 0.093600
Si Si7 0.951915 0.320779 0.269532
Si Si8 0.150830 0.320893 0.611346
O O1 0.243730 0.779810 0.815462
O O2 0.330616 0.764181 0.889256
O O3 0.272838 0.000000 0.913236
O O4 0.250000 0.750000 0.000000
O O5 0.444681 0.500000 0.697470
O O6 0.400395 0.746693 0.649470
O O7 0.421885 0.703886 0.819231
O O8 0.497368 0.748427 0.696330
O O9 0.258914 0.500000 0.299527
O O10 0.200401 0.277319 0.341020
O O11 0.300905 0.249171 0.344268
O O12 0.553304 0.780394 0.838304
O O13 0.565689 0.000000 0.950530
O O14 0.500000 0.797775 0.000000
O O15 0.595614 0.733563 0.000278
O O16 0.142305 0.500000 0.388486
O O17 0.149010 0.280376 0.503424
O O18 0.128892 0.000000 0.088437
O O19 0.956988 0.500000 0.273498
O O20 0.901312 0.276889 0.331061
O O21 0.154914 0.500000 0.616454
#
# Coordination Sequence:
#
# PCOD9196947 Si02
#       8
#     8   8   8   8   8   8   8   8
#     4  11  24  41  61  89 123 159 197 239 296 355
#     4  11  23  38  61  91 120 157 202 251 302 350
#     4  10  22  40  63  89 119 157 198 244 299 356
#     4  10  20  35  58  84 113 155 199 235 284 354
#     4  10  21  41  65  88 116 155 202 249 301 361
#     4  11  23  38  58  87 120 155 199 248 298 351
#     4  10  22  40  59  86 122 159 199 244 300 361
#     4  10  23  40  62  90 119 156 200 249 304 358
#
# _framework density 18.729852000000001
#
# number of rings (size 3 to 8) (size 9 to 14) (size 15 to 20)
#    0.000    1.625    2.500    1.500    1.750    4.750 
#    0.000    2.500    0.000    0.000    0.000    0.000 
#    0.000    0.000    0.000    0.000    0.000    0.000 
#
# Total GULP energy -178838.370476 kJ/mol
# GULP energy per Si atom -5588.699077 kJ/mol
# Density = 1.868722 g / cm^3
# Si number density = 18.729852 Si / 1000 Ang^3
#
#
#
# Elastic Constant Matrix: (Units=GPa)
#
#
# Indices 1 2 3 4 5 6 
#
# 1 130.2463 44.6859 85.2198 0.0000 25.5060 0.0000
# 2 44.6859 29.5028 48.9374 0.0000 9.9357 0.0000
# 3 85.2198 48.9374 155.7717 0.0000 10.0121 0.0000
# 4 0.0000 0.0000 0.0000 25.8111 0.0000 8.1811
# 5 25.5060 9.9357 10.0121 0.0000 32.5465 0.0000
# 6 0.0000 0.0000 0.0000 8.1811 0.0000 35.3236
#
#
#
# Elastic Compliance Matrix: (Units=1/GPa)
#
#
# Indices 1 2 3 4 5 6 
#
# 1 0.017743 -0.019096 -0.003253 0.000000 -0.007075 0.000000
# 2 -0.019096 0.099396 -0.020190 0.000000 -0.009167 0.000000
# 3 -0.003253 -0.020190 0.014264 0.000000 0.004325 0.000000
# 4 0.000000 0.000000 0.000000 0.041812 0.000000 -0.009684
# 5 -0.007075 -0.009167 0.004325 0.000000 0.037738 0.000000
# 6 0.000000 0.000000 0.000000 -0.009684 0.000000 0.030553
#
#
# Mechanical properties :
#
#
# Convention : Reuss Voigt Hill
#
# Bulk Modulus (GPa) = 21.58649 74.80078 48.19364
# Shear Modulus (GPa) = 14.61876 27.84807 21.23342
#
# Velocity S-wave (km/s) = 2.79678 3.86012 3.37065
# Velocity P-wave (km/s) = 4.68823 7.73891 6.39806
#
# Compressibility (1/GPa) = 0.04632526
#
# Stress axis : x y z
#
# Youngs Moduli (GPa) = 56.35941 10.06078 70.10498
#
# Poissons Ratio (x) = 0.19212 0.22806
# Poissons Ratio (y) = 1.07624 1.41543
# Poissons Ratio (z) = 0.18334 0.20313
#
# Static dielectric constant tensor:
#      x y z
#    x 1.617210 0.000000 -0.018550 
#    y 0.000000 1.626050 0.000000 
#    z -0.018550 0.000000 1.643070 
# 
# From -- ./inp_files/238711.got.cif
#   From: 2010.05.17/outbox.cif.g08.bks.cpg/sg12_120_cif.got.tgz:238711.got - 2010.06.03 13:09:07.
