data_PCOD9196170
_publ_section_title
;
Structure prediction by ZEFSAII (Michael W. Deem and Ramdas Pophale) SiO2 
 PCOD9196170
Probable space group: C 2/M
;
_chemical_formula_sum "Si O2"
_cell_formula_units_Z 40
_cell_length_a 8.898758
_cell_length_b 16.406109
_cell_length_c 18.932402
_cell_angle_alpha 90.000000
_cell_angle_beta 134.832952
_cell_angle_gamma 90.000000
_cell_volume 1960.145121
_symmetry_space_group_name_H-M "C 2/M"
_symmetry_group_IT_number 12
_symmetry_cell_setting 'monoclinic'
loop_
_space_group_symop_operation_xyz
x,y,z
-x,y,-z
-x,-y,-z
x,-y,z
1/2+x,1/2+y,z
1/2-x,1/2+y,-z
1/2-x,1/2-y,-z
1/2+x,1/2-y,z
loop_
_atom_site_type_symbol
_atom_site_label
_atom_site_fract_x
_atom_site_fract_y
_atom_site_fract_z
Si Si1 0.579167 0.340246 0.100022
Si Si2 0.474591 0.097655 0.703063
Si Si3 0.326267 0.099878 0.500000
Si Si4 0.365403 0.597655 0.296937
Si Si5 0.220899 0.340245 0.100022
O O1 0.782029 0.382753 0.201321
O O2 0.386583 0.336714 0.091054
O O3 0.658296 0.250001 0.105529
O O4 0.500000 0.378996 0.000000
O O5 0.393497 0.127756 0.600247
O O6 0.324417 0.129544 0.716278
O O7 0.453315 0.000000 0.694710
O O8 0.500000 0.124682 0.500000
O O9 0.092755 0.127755 0.399752
O O10 0.323806 0.000000 0.500000
O O11 0.369185 0.500000 0.305288
O O12 0.321935 0.617248 0.201321
O O13 0.000000 0.378993 0.000000
#
# Coordination Sequence:
#
# PCOD9196170 Si02
#       5
#     8   8   8   8   8
#     4  11  22  38  58  79 107 142 180 221 269 322
#     4  10  20  35  56  82 111 143 180 221 265 315
#     4   9  17  31  52  79 110 143 178 217 265 317
#     4  10  20  35  56  82 111 143 180 221 265 315
#     4  11  22  38  58  79 107 142 180 221 269 322
#
# _framework density 20.406654
#
# number of rings (size 3 to 8) (size 9 to 14) (size 15 to 20)
#    0.000    1.800    0.000    6.600    0.000    5.600 
#    0.000    1.000    0.000    0.000    0.000    0.000 
#    0.000    0.000    0.000    0.000    0.000    0.000 
#
# Total GULP energy -111726.642420 kJ/mol
# GULP energy per Si atom -5586.332121 kJ/mol
# Density = 2.036021 g / cm^3
# Si number density = 20.406654 Si / 1000 Ang^3
#
#
#
# Elastic Constant Matrix: (Units=GPa)
#
#
# Indices 1 2 3 4 5 6 
#
# 1 226.6199 11.5923 100.0241 0.0000 0.0496 0.0000
# 2 11.5923 3.6109 12.4102 0.0000 -0.0081 0.0000
# 3 100.0241 12.4102 201.9856 0.0000 0.2443 0.0000
# 4 0.0000 0.0000 0.0000 25.0431 0.0000 -0.0442
# 5 0.0496 -0.0081 0.2443 0.0000 61.4075 0.0000
# 6 0.0000 0.0000 0.0000 -0.0442 0.0000 21.1654
#
#
#
# Elastic Compliance Matrix: (Units=1/GPa)
#
#
# Indices 1 2 3 4 5 6 
#
# 1 0.006000 -0.011473 -0.002266 0.000000 0.000003 0.000000
# 2 -0.011473 0.373010 -0.017237 0.000000 0.000127 0.000000
# 3 -0.002266 -0.017237 0.007132 0.000000 -0.000029 0.000000
# 4 0.000000 0.000000 0.000000 0.039931 0.000000 0.000083
# 5 0.000003 0.000127 -0.000029 0.000000 0.016285 0.000000
# 6 0.000000 0.000000 0.000000 0.000083 0.000000 0.047247
#
#
# Mechanical properties :
#
#
# Convention : Reuss Voigt Hill
#
# Bulk Modulus (GPa) = 3.08461 75.58555 39.33508
# Shear Modulus (GPa) = 7.58012 42.06917 24.82464
#
# Velocity S-wave (km/s) = 1.92940 4.54535 3.49162
# Velocity P-wave (km/s) = 2.54525 8.04158 5.96428
#
# Compressibility (1/GPa) = 0.32419003
#
# Stress axis : x y z
#
# Youngs Moduli (GPa) = 166.67232 2.68089 140.20939
#
# Poissons Ratio (x) = 0.03076 0.31775
# Poissons Ratio (y) = 1.91219 2.41679
# Poissons Ratio (z) = 0.37772 0.04621
#
# Static dielectric constant tensor:
#      x y z
#    x 1.702850 0.000000 -0.000310 
#    y 0.000000 1.749230 0.000000 
#    z -0.000310 0.000000 1.729550 
# 
# From -- ./inp_files/118872.got.cif
#   From: 2010.05.17/outbox.cif.g08.bks.cpg/sg12_60_cif.got.tgz:118872.got - 2010.06.03 13:09:07.
