data_PCOD9196367
_publ_section_title
;
Structure prediction by ZEFSAII (Michael W. Deem and Ramdas Pophale) SiO2 
 PCOD9196367
Probable space group: C 2/M
;
_chemical_formula_sum "Si O2"
_cell_formula_units_Z 60
_cell_length_a 29.575869
_cell_length_b 26.648689
_cell_length_c 5.151167
_cell_angle_alpha 90.000000
_cell_angle_beta 43.385376
_cell_angle_gamma 90.000000
_cell_volume 2788.777066
_symmetry_space_group_name_H-M "C 2/M"
_symmetry_group_IT_number 12
_symmetry_cell_setting 'monoclinic'
loop_
_space_group_symop_operation_xyz
x,y,z
-x,y,-z
-x,-y,-z
x,-y,z
1/2+x,1/2+y,z
1/2-x,1/2+y,-z
1/2-x,1/2-y,-z
1/2+x,1/2-y,z
loop_
_atom_site_type_symbol
_atom_site_label
_atom_site_fract_x
_atom_site_fract_y
_atom_site_fract_z
Si Si1 0.545968 0.609601 0.555991
Si Si2 0.956808 0.441254 0.441112
Si Si3 0.238842 0.784936 0.300223
Si Si4 0.697144 0.555421 0.457552
Si Si5 0.657648 0.349271 0.353693
Si Si6 0.546732 0.500000 0.552007
Si Si7 0.338038 0.057475 0.594027
Si Si8 0.272250 0.875809 0.500449
O O1 0.500000 0.617295 0.500000
O O2 0.600040 0.651704 0.386887
O O3 0.580389 0.554371 0.394763
O O4 0.500000 0.608886 0.000000
O O5 0.946884 0.500000 0.547723
O O6 0.885268 0.425016 0.631365
O O7 0.000000 0.419611 0.500000
O O8 0.000000 0.437693 0.000000
O O9 0.250000 0.750000 0.500000
O O10 0.166657 0.807223 0.533779
O O11 0.277301 0.836229 0.239919
O O12 0.250000 0.750000 0.000000
O O13 0.668164 0.500000 0.593112
O O14 0.650977 0.598121 0.534122
O O15 0.727591 0.577431 0.592669
O O16 0.763420 0.553439 0.006953
O O17 0.726677 0.349740 0.909528
O O18 0.500000 0.500000 0.500000
O O19 0.500000 0.500000 0.000000
O O20 0.334731 0.098614 0.379328
O O21 0.357863 0.000000 0.433606
#
# Coordination Sequence:
#
# PCOD9196367 Si02
#       8
#     8   8   8   8   8   4   8   8
#     4  10  22  36  56  81 119 162 203 240 282 333
#     4   9  18  30  46  72 104 146 193 230 265 316
#     4  11  22  40  63  86 115 138 178 239 309 356
#     4   9  19  32  50  80 120 161 192 232 285 337
#     4  10  22  37  58  87 120 149 200 246 289 359
#     4   8  16  34  48  72 108 160 208 232 262 320
#     4   9  18  32  51  77 119 158 191 235 284 343
#     4  10  20  35  56  85 117 147 196 238 295 356
#
# _framework density 21.514807999999999
#
# number of rings (size 3 to 8) (size 9 to 14) (size 15 to 20)
#    0.000    2.400    1.333    0.400    6.533    0.533 
#    0.000    0.000    0.000    0.000    0.000    3.733 
#    0.000    0.000    0.000    0.000    0.000    0.000 
#
# Total GULP energy -167092.363525 kJ/mol
# GULP energy per Si atom -5569.745451 kJ/mol
# Density = 2.146584 g / cm^3
# Si number density = 21.514808 Si / 1000 Ang^3
#
#
#
# Elastic Constant Matrix: (Units=GPa)
#
#
# Indices 1 2 3 4 5 6 
#
# 1 212.1860 66.4973 34.2549 0.0000 17.9788 0.0000
# 2 66.4973 108.2827 18.2599 0.0000 4.1565 0.0000
# 3 34.2549 18.2599 51.3015 0.0000 18.8683 0.0000
# 4 0.0000 0.0000 0.0000 13.3531 0.0000 13.9902
# 5 17.9788 4.1565 18.8683 0.0000 35.1083 0.0000
# 6 0.0000 0.0000 0.0000 13.9902 0.0000 42.3322
#
#
#
# Elastic Compliance Matrix: (Units=1/GPa)
#
#
# Indices 1 2 3 4 5 6 
#
# 1 0.006300 -0.003399 -0.002441 0.000000 -0.001512 0.000000
# 2 -0.003399 0.011682 -0.002517 0.000000 0.001711 0.000000
# 3 -0.002441 -0.002517 0.026733 0.000000 -0.012819 0.000000
# 4 0.000000 0.000000 0.000000 0.114553 0.000000 -0.037858
# 5 -0.001512 0.001711 -0.012819 0.000000 0.035945 0.000000
# 6 0.000000 0.000000 0.000000 -0.037858 0.000000 0.036134
#
#
# Mechanical properties :
#
#
# Convention : Reuss Voigt Hill
#
# Bulk Modulus (GPa) = 35.71376 67.75492 51.73434
# Shear Modulus (GPa) = 19.42535 35.00924 27.21730
#
# Velocity S-wave (km/s) = 3.00806 4.03825 3.56061
# Velocity P-wave (km/s) = 5.35726 7.30095 6.40329
#
# Compressibility (1/GPa) = 0.02800041
#
# Stress axis : x y z
#
# Youngs Moduli (GPa) = 158.72089 85.60512 37.40680
#
# Poissons Ratio (x) = 0.29101 0.09130
# Poissons Ratio (y) = 0.53957 0.09416
# Poissons Ratio (z) = 0.38739 0.21548
#
# Static dielectric constant tensor:
#      x y z
#    x 1.852970 0.000000 0.040540 
#    y 0.000000 1.848640 0.000000 
#    z 0.040540 0.000000 1.895210 
# 
# From -- ./inp_files/29784.got.cif
#   From: 2010.05.17/outbox.cif.g08.bks.cpg/sg12_15_cif.got.tgz:29784.got - 2010.06.03 13:09:07.
