data_PCOD9196258
_publ_section_title
;
Structure prediction by ZEFSAII (Michael W. Deem and Ramdas Pophale) SiO2 
 PCOD9196258
Probable space group: C 2/M
;
_chemical_formula_sum "Si O2"
_cell_formula_units_Z 48
_cell_length_a 8.855510
_cell_length_b 18.394179
_cell_length_c 15.947822
_cell_angle_alpha 90.000000
_cell_angle_beta 90.000711
_cell_angle_gamma 90.000000
_cell_volume 2597.738111
_symmetry_space_group_name_H-M "C 2/M"
_symmetry_group_IT_number 12
_symmetry_cell_setting 'monoclinic'
loop_
_space_group_symop_operation_xyz
x,y,z
-x,y,-z
-x,-y,-z
x,-y,z
1/2+x,1/2+y,z
1/2-x,1/2+y,-z
1/2-x,1/2-y,-z
1/2+x,1/2-y,z
loop_
_atom_site_type_symbol
_atom_site_label
_atom_site_fract_x
_atom_site_fract_y
_atom_site_fract_z
Si Si1 0.318423 0.169765 0.166955
Si Si2 0.179270 0.086861 0.324280
Si Si3 0.325845 0.911595 0.499992
Si Si4 0.683673 0.916734 0.000004
Si Si5 0.179280 0.913139 0.675704
Si Si6 0.681562 0.830242 0.166967
O O1 0.260436 0.128294 0.249137
O O2 0.499993 0.173479 0.168154
O O3 0.249998 0.250005 0.164189
O O4 0.270176 0.125452 0.083900
O O5 0.243108 0.110860 0.414658
O O6 0.999994 0.098953 0.320954
O O7 0.206475 0.000000 0.316109
O O8 0.500000 0.888205 0.500000
O O9 0.243093 0.889142 0.585321
O O10 0.323662 0.000000 0.499991
O O11 0.729816 0.874566 0.083921
O O12 0.736802 0.000000 0.999994
O O13 0.500000 0.918268 0.000000
O O14 0.260468 0.871705 0.750841
O O15 0.206489 0.000000 0.683873
#
# Coordination Sequence:
#
# PCOD9196258 Si02
#       6
#     8   8   8   8   8   8
#     4  11  22  37  57  81 113 150 187 228 277 332
#     4  10  20  35  56  83 114 147 186 232 279 328
#     4   9  17  31  54  83 112 145 186 229 275 327
#     4   9  19  36  59  85 110 141 184 231 276 326
#     4  10  20  35  56  83 114 147 186 232 279 328
#     4  11  22  37  57  81 113 150 187 228 277 332
#
# _framework density 18.477613999999999
#
# number of rings (size 3 to 8) (size 9 to 14) (size 15 to 20)
#    0.000    2.000    0.000    4.000    0.000    5.333 
#    0.000    3.333    0.000    6.000    0.000    0.000 
#    0.000    0.000    0.000    0.000    0.000    0.000 
#
# Total GULP energy -134059.353312 kJ/mol
# GULP energy per Si atom -5585.806388 kJ/mol
# Density = 1.843556 g / cm^3
# Si number density = 18.477614 Si / 1000 Ang^3
#
#
#
# Elastic Constant Matrix: (Units=GPa)
#
#
# Indices 1 2 3 4 5 6 
#
# 1 86.4387 67.5084 77.4595 0.0000 -0.0504 0.0000
# 2 67.5084 99.2705 94.7994 0.0000 -0.0550 0.0000
# 3 77.4595 94.7994 219.4793 0.0000 -0.0858 0.0000
# 4 0.0000 0.0000 0.0000 -18.0813 0.0000 -0.0018
# 5 -0.0504 -0.0550 -0.0858 0.0000 14.1058 0.0000
# 6 0.0000 0.0000 0.0000 -0.0018 0.0000 21.9553
#
#
#
# Elastic Compliance Matrix: (Units=1/GPa)
#
#
# Indices 1 2 3 4 5 6 
#
# 1 0.025497 -0.014886 -0.002569 0.000000 0.000017 0.000000
# 2 -0.014886 0.025836 -0.005906 0.000000 0.000012 0.000000
# 3 -0.002569 -0.005906 0.008014 0.000000 0.000017 0.000000
# 4 0.000000 0.000000 0.000000 -0.055306 0.000000 -0.000004
# 5 0.000017 0.000012 0.000017 0.000000 0.070893 0.000000
# 6 0.000000 0.000000 0.000000 -0.000004 0.000000 0.045547
#
#
# Mechanical properties :
#
#
# Convention : Reuss Voigt Hill
#
# Bulk Modulus (GPa) = 79.20261 98.30257 88.75259
# Shear Modulus (GPa) = 29.16972 14.62403 21.89688
#
# Velocity S-wave (km/s) = 3.97754 2.81632 3.44619
# Velocity P-wave (km/s) = 8.00322 7.99324 7.99823
#
# Compressibility (1/GPa) = 0.01262585
#
# Stress axis : x y z
#
# Youngs Moduli (GPa) = 39.22105 38.70508 124.78515
#
# Poissons Ratio (x) = 0.57615 0.32054
# Poissons Ratio (y) = 0.58383 0.73698
# Poissons Ratio (z) = 0.10075 0.22859
#
# Static dielectric constant tensor:
#      x y z
#    x 1.616280 0.000000 0.000000 
#    y 0.000000 1.615330 0.000000 
#    z 0.000000 0.000000 1.609620 
# 
# From -- ./inp_files/195915.got.cif
#   From: 2010.05.17/outbox.cif.g08.bks.cpg/sg12_98_cif.got.tgz:195915.got - 2010.06.03 13:09:07.
