data_PCOD9196626
_publ_section_title
;
Structure prediction by ZEFSAII (Michael W. Deem and Ramdas Pophale) SiO2 
 PCOD9196626
Probable space group: C 2/M
;
_chemical_formula_sum "Si O2"
_cell_formula_units_Z 36
_cell_length_a 24.691012
_cell_length_b 16.108408
_cell_length_c 10.962149
_cell_angle_alpha 90.000000
_cell_angle_beta 157.471379
_cell_angle_gamma 90.000000
_cell_volume 1670.514505
_symmetry_space_group_name_H-M "C 2/M"
_symmetry_group_IT_number 12
_symmetry_cell_setting 'monoclinic'
loop_
_space_group_symop_operation_xyz
x,y,z
-x,y,-z
-x,-y,-z
x,-y,z
1/2+x,1/2+y,z
1/2-x,1/2+y,-z
1/2-x,1/2-y,-z
1/2+x,1/2-y,z
loop_
_atom_site_type_symbol
_atom_site_label
_atom_site_fract_x
_atom_site_fract_y
_atom_site_fract_z
Si Si1 0.351805 0.676589 0.747942
Si Si2 0.765068 0.821087 0.846388
Si Si3 0.265156 0.000000 0.518302
Si Si4 0.732052 0.000000 0.774080
Si Si5 0.907640 0.500000 0.059477
Si Si6 0.554002 0.836525 0.743965
O O1 0.250000 0.750000 0.500000
O O2 0.333476 0.673880 0.854591
O O3 0.312784 0.585996 0.615566
O O4 0.500000 0.699481 0.000000
O O5 0.791730 0.914449 0.951273
O O6 0.592639 0.813203 0.488682
O O7 0.845045 0.742669 0.068951
O O8 0.269863 0.000000 0.379853
O O9 0.394328 0.000000 0.884757
O O10 0.564473 0.000000 0.441965
O O11 0.859079 0.409918 0.007522
O O12 0.500000 0.865150 0.500000
#
# Coordination Sequence:
#
# PCOD9196626 Si02
#       6
#     8   8   4   4   4   8
#     4  11  22  37  58  87 119 151 184 227 283 345
#     4  10  21  38  58  82 113 148 186 233 281 332
#     4  10  20  35  57  84 115 150 184 226 283 341
#     4   8  19  36  57  82 116 147 180 226 285 345
#     4  10  20  35  57  84 112 147 190 232 278 336
#     4  11  22  39  59  82 111 150 194 238 278 323
#
# _framework density 21.550246000000001
#
# number of rings (size 3 to 8) (size 9 to 14) (size 15 to 20)
#    0.000    1.778    0.000    4.333    0.000    3.556 
#    0.000    1.667    0.000    0.000    0.000    0.000 
#    0.000    0.000    0.000    0.000    0.000    0.000 
#
# Total GULP energy -100209.716292 kJ/mol
# GULP energy per Si atom -5567.206461 kJ/mol
# Density = 2.150120 g / cm^3
# Si number density = 21.550246 Si / 1000 Ang^3
#
#
#
# Elastic Constant Matrix: (Units=GPa)
#
#
# Indices 1 2 3 4 5 6 
#
# 1 76.2178 16.4148 27.8096 0.0000 12.1454 0.0000
# 2 16.4148 159.6234 53.2045 0.0000 16.6003 0.0000
# 3 27.8096 53.2045 49.7490 0.0000 14.7004 0.0000
# 4 0.0000 0.0000 0.0000 29.6128 0.0000 -0.9779
# 5 12.1454 16.6003 14.7004 0.0000 39.7084 0.0000
# 6 0.0000 0.0000 0.0000 -0.9779 0.0000 19.4937
#
#
#
# Elastic Compliance Matrix: (Units=1/GPa)
#
#
# Indices 1 2 3 4 5 6 
#
# 1 0.017099 0.002235 -0.011371 0.000000 -0.001955 0.000000
# 2 0.002235 0.010029 -0.011828 0.000000 -0.000497 0.000000
# 3 -0.011371 -0.011828 0.041116 0.000000 -0.006799 0.000000
# 4 0.000000 0.000000 0.000000 0.033825 0.000000 0.001697
# 5 -0.001955 -0.000497 -0.006799 0.000000 0.028506 0.000000
# 6 0.000000 0.000000 0.000000 0.001697 0.000000 0.051384
#
#
# Mechanical properties :
#
#
# Convention : Reuss Voigt Hill
#
# Bulk Modulus (GPa) = 37.99969 53.38310 45.69140
# Shear Modulus (GPa) = 21.49055 30.30707 25.89881
#
# Velocity S-wave (km/s) = 3.16132 3.75419 3.47044
# Velocity P-wave (km/s) = 5.56746 6.60433 6.10794
#
# Compressibility (1/GPa) = 0.02631600
#
# Stress axis : x y z
#
# Youngs Moduli (GPa) = 58.48140 99.70995 24.32144
#
# Poissons Ratio (x) = -0.22286 0.27656
# Poissons Ratio (y) = -0.13071 0.28768
# Poissons Ratio (z) = 0.66501 1.17938
#
# Static dielectric constant tensor:
#      x y z
#    x 1.790410 0.000000 0.000460 
#    y 0.000000 1.883820 0.000000 
#    z 0.000460 0.000000 1.769630 
# 
# From -- ./inp_files/184407.got.cif
#   From: 2010.05.17/outbox.cif.g08.bks.cpg/sg12_93_cif.got.tgz:184407.got - 2010.06.03 13:09:07.
