data_PCOD9196328
_publ_section_title
;
Structure prediction by ZEFSAII (Michael W. Deem and Ramdas Pophale) SiO2 
 PCOD9196328
Probable space group: C 2/M
;
_chemical_formula_sum "Si O2"
_cell_formula_units_Z 64
_cell_length_a 12.790073
_cell_length_b 11.592293
_cell_length_c 22.137264
_cell_angle_alpha 90.000000
_cell_angle_beta 105.722779
_cell_angle_gamma 90.000000
_cell_volume 3159.402777
_symmetry_space_group_name_H-M "C 2/M"
_symmetry_group_IT_number 12
_symmetry_cell_setting 'monoclinic'
loop_
_space_group_symop_operation_xyz
x,y,z
-x,y,-z
-x,-y,-z
x,-y,z
1/2+x,1/2+y,z
1/2-x,1/2+y,-z
1/2-x,1/2-y,-z
1/2+x,1/2-y,z
loop_
_atom_site_type_symbol
_atom_site_label
_atom_site_fract_x
_atom_site_fract_y
_atom_site_fract_z
Si Si1 0.263556 0.367508 0.782136
Si Si2 0.373827 0.368364 0.480959
Si Si3 0.496254 0.365564 0.185061
Si Si4 0.624378 0.867688 0.016582
Si Si5 0.309034 0.213360 0.101653
Si Si6 0.739619 0.324685 0.407960
Si Si7 0.413974 0.869033 0.347051
Si Si8 0.983345 0.132479 0.672428
O O1 0.287182 0.500000 0.771534
O O2 0.382906 0.311744 0.801251
O O3 0.214827 0.355640 0.841156
O O4 0.173903 0.336809 0.718550
O O5 0.500000 0.324192 0.500000
O O6 0.381224 0.500000 0.463262
O O7 0.318834 0.361528 0.538940
O O8 0.285624 0.303320 0.425906
O O9 0.494297 0.500000 0.165678
O O10 0.409688 0.296086 0.133031
O O11 0.470302 0.362510 0.252610
O O12 0.704244 0.789321 0.068090
O O13 0.628529 0.000000 0.038096
O O14 0.500000 0.827332 0.000000
O O15 0.662978 0.859534 0.953200
O O16 0.849475 0.380129 0.399897
O O17 0.646914 0.353496 0.345243
O O18 0.484106 0.750396 0.358010
O O19 0.459171 0.000000 0.341015
O O20 0.005519 0.000000 0.652648
#
# Coordination Sequence:
#
# PCOD9196328 Si02
#       8
#     8   8   8   8   8   8   8   8
#     4  10  20  35  56  84 117 152 190 240 296 354
#     4  10  22  41  64  91 124 163 209 262 307 352
#     4  10  20  35  57  85 116 153 195 241 293 358
#     4  10  22  38  56  80 114 153 192 243 303 353
#     4  11  20  36  60  83 111 151 199 244 289 359
#     4  11  22  38  65  92 121 165 205 243 306 370
#     4  11  22  38  60  89 124 159 197 243 300 363
#     4  11  22  39  62  89 124 163 200 244 303 364
#
# _framework density 20.256992
#
# number of rings (size 3 to 8) (size 9 to 14) (size 15 to 20)
#    0.000    1.500    2.500    3.375    0.000    2.000 
#    0.000    0.000    0.000   13.500    0.000    0.000 
#    0.000    0.000    0.000    0.000    0.000    0.000 
#
# Total GULP energy -178185.167026 kJ/mol
# GULP energy per Si atom -5568.286470 kJ/mol
# Density = 2.021089 g / cm^3
# Si number density = 20.256992 Si / 1000 Ang^3
#
#
#
# Elastic Constant Matrix: (Units=GPa)
#
#
# Indices 1 2 3 4 5 6 
#
# 1 65.8522 38.6557 -5.3733 0.0000 -1.9186 0.0000
# 2 38.6557 98.9297 14.4584 0.0000 16.1250 0.0000
# 3 -5.3733 14.4584 47.5340 0.0000 1.6730 0.0000
# 4 0.0000 0.0000 0.0000 -11.9197 0.0000 -0.1364
# 5 -1.9186 16.1250 1.6730 0.0000 35.5160 0.0000
# 6 0.0000 0.0000 0.0000 -0.1364 0.0000 21.4986
#
#
#
# Elastic Compliance Matrix: (Units=1/GPa)
#
#
# Indices 1 2 3 4 5 6 
#
# 1 0.021770 -0.010196 0.005367 0.000000 0.005552 0.000000
# 2 -0.010196 0.016184 -0.005807 0.000000 -0.007625 0.000000
# 3 0.005367 -0.005807 0.023346 0.000000 0.001827 0.000000
# 4 0.000000 0.000000 0.000000 -0.083888 0.000000 -0.000532
# 5 0.005552 -0.007625 0.001827 0.000000 0.031832 0.000000
# 6 0.000000 0.000000 0.000000 -0.000532 0.000000 0.046511
#
#
# Mechanical properties :
#
#
# Convention : Reuss Voigt Hill
#
# Bulk Modulus (GPa) = 24.98222 34.19969 29.59095
# Shear Modulus (GPa) = 55.32851 19.99065 37.65958
#
# Velocity S-wave (km/s) = 5.23188 3.14483 4.31639
# Velocity P-wave (km/s) = 6.98972 5.48691 6.28340
#
# Compressibility (1/GPa) = 0.04002847
#
# Stress axis : x y z
#
# Youngs Moduli (GPa) = 45.93427 61.79108 42.83351
#
# Poissons Ratio (x) = 0.63001 -0.22988
# Poissons Ratio (y) = 0.46834 0.24872
# Poissons Ratio (z) = -0.24652 0.35880
#
# Static dielectric constant tensor:
#      x y z
#    x 1.767820 0.000000 -0.016740 
#    y 0.000000 1.727190 0.000000 
#    z -0.016740 0.000000 1.739800 
# 
# From -- ./inp_files/335678.got.cif
#   From: 2010.05.17/outbox.cif.g08.bks.cpg/sg12_168_cif.got.tgz:335678.got - 2010.06.03 13:09:07.
