data_PCOD9196757
_publ_section_title
;
Structure prediction by ZEFSAII (Michael W. Deem and Ramdas Pophale) SiO2 
 PCOD9196757
Probable space group: C 2/M
;
_chemical_formula_sum "Si O2"
_cell_formula_units_Z 48
_cell_length_a 19.879916
_cell_length_b 11.410884
_cell_length_c 11.172098
_cell_angle_alpha 90.000000
_cell_angle_beta 87.810411
_cell_angle_gamma 90.000000
_cell_volume 2532.511156
_symmetry_space_group_name_H-M "C 2/M"
_symmetry_group_IT_number 12
_symmetry_cell_setting 'monoclinic'
loop_
_space_group_symop_operation_xyz
x,y,z
-x,y,-z
-x,-y,-z
x,-y,z
1/2+x,1/2+y,z
1/2-x,1/2+y,-z
1/2-x,1/2-y,-z
1/2+x,1/2-y,z
loop_
_atom_site_type_symbol
_atom_site_label
_atom_site_fract_x
_atom_site_fract_y
_atom_site_fract_z
Si Si1 0.860634 0.000000 0.122590
Si Si2 0.591900 0.500000 0.137146
Si Si3 0.468835 0.860361 0.128818
Si Si4 0.325752 0.240258 0.106048
Si Si5 0.919276 0.637921 0.671985
Si Si6 0.680323 0.730309 0.166646
Si Si7 0.964475 0.000000 0.317370
Si Si8 0.000000 0.200554 0.500000
O O1 0.819797 0.880889 0.111875
O O2 0.896842 0.000000 0.246630
O O3 0.912592 0.000000 0.006786
O O4 0.633817 0.615470 0.168608
O O5 0.523724 0.500000 0.215382
O O6 0.397365 0.798218 0.153937
O O7 0.523632 0.842510 0.228793
O O8 0.456650 0.000000 0.119457
O O9 0.500000 0.818778 0.000000
O O10 0.258272 0.193768 0.171884
O O11 0.326387 0.210278 0.964585
O O12 0.917524 0.500000 0.644950
O O13 0.849555 0.683528 0.732256
O O14 0.942968 0.716180 0.559475
O O15 0.972329 0.113982 0.399618
#
# Coordination Sequence:
#
# PCOD9196757 Si02
#       8
#     4   4   8   8   8   8   4   4
#     4  10  22  35  58  91 120 150 181 239 297 357
#     4  10  20  37  58  91 117 151 190 232 299 348
#     4  10  20  35  57  86 114 152 188 237 293 343
#     4  10  21  34  55  87 127 150 185 227 294 358
#     4  11  22  38  61  85 116 152 201 245 287 342
#     4  10  21  35  55  86 121 157 185 232 284 356
#     4  11  21  38  64  86 115 148 196 247 293 345
#     4  11  23  38  58  90 109 155 200 250 290 327
#
# _framework density 18.953520000000001
#
# number of rings (size 3 to 8) (size 9 to 14) (size 15 to 20)
#    0.000    1.667    3.333    1.500    2.333    0.000 
#    0.000    0.000    0.000    4.000    0.000    0.000 
#    0.000    0.000    0.000    0.000    0.000    0.000 
#
# Total GULP energy -134035.403152 kJ/mol
# GULP energy per Si atom -5584.808465 kJ/mol
# Density = 1.891038 g / cm^3
# Si number density = 18.953520 Si / 1000 Ang^3
#
#
#
# Elastic Constant Matrix: (Units=GPa)
#
#
# Indices 1 2 3 4 5 6 
#
# 1 67.2244 6.7968 6.2702 0.0000 -15.9968 0.0000
# 2 6.7968 78.7316 27.0283 0.0000 -10.4273 0.0000
# 3 6.2702 27.0283 59.0024 0.0000 -10.8414 0.0000
# 4 0.0000 0.0000 0.0000 25.8246 0.0000 -9.1639
# 5 -15.9968 -10.4273 -10.8414 0.0000 24.9513 0.0000
# 6 0.0000 0.0000 0.0000 -9.1639 0.0000 2.1561
#
#
#
# Elastic Compliance Matrix: (Units=1/GPa)
#
#
# Indices 1 2 3 4 5 6 
#
# 1 0.017557 -0.000106 0.000264 0.000000 0.011326 0.000000
# 2 -0.000106 0.015373 -0.006372 0.000000 0.003588 0.000000
# 3 0.000264 -0.006372 0.021063 0.000000 0.006658 0.000000
# 4 0.000000 0.000000 0.000000 -0.076202 0.000000 -0.323866
# 5 0.011326 0.003588 0.006658 0.000000 0.051732 0.000000
# 6 0.000000 0.000000 0.000000 -0.323866 0.000000 -0.912683
#
#
# Mechanical properties :
#
#
# Convention : Reuss Voigt Hill
#
# Bulk Modulus (GPa) = 24.05878 31.68323 27.87101
# Shear Modulus (GPa) = -5.83514 21.57728 7.87107
#
# Velocity S-wave (km/s) = -1.75651 3.37773 2.04006
# Velocity P-wave (km/s) = 2.93383 5.65373 4.50400
#
# Compressibility (1/GPa) = 0.04156486
#
# Stress axis : x y z
#
# Youngs Moduli (GPa) = 56.95766 65.04866 47.47747
#
# Poissons Ratio (x) = 0.00691 -0.01254
# Poissons Ratio (y) = 0.00605 0.30251
# Poissons Ratio (z) = -0.01504 0.41447
#
# Static dielectric constant tensor:
#      x y z
#    x 1.644730 0.000000 -0.005980 
#    y 0.000000 1.673140 0.000000 
#    z -0.005980 0.000000 1.652240 
# 
# From -- ./inp_files/164147.got.cif
#   From: 2010.05.17/outbox.cif.g08.bks.cpg/sg12_83_cif.got.tgz:164147.got - 2010.06.03 13:09:07.
