data_PCOD9196613
_publ_section_title
;
Structure prediction by ZEFSAII (Michael W. Deem and Ramdas Pophale) SiO2 
 PCOD9196613
Probable space group: C 2/M
;
_chemical_formula_sum "Si O2"
_cell_formula_units_Z 64
_cell_length_a 31.058291
_cell_length_b 9.130248
_cell_length_c 20.316400
_cell_angle_alpha 90.000000
_cell_angle_beta 144.289323
_cell_angle_gamma 90.000000
_cell_volume 3362.722429
_symmetry_space_group_name_H-M "C 2/M"
_symmetry_group_IT_number 12
_symmetry_cell_setting 'monoclinic'
loop_
_space_group_symop_operation_xyz
x,y,z
-x,y,-z
-x,-y,-z
x,-y,z
1/2+x,1/2+y,z
1/2-x,1/2+y,-z
1/2-x,1/2-y,-z
1/2+x,1/2-y,z
loop_
_atom_site_type_symbol
_atom_site_label
_atom_site_fract_x
_atom_site_fract_y
_atom_site_fract_z
Si Si1 0.073883 0.172714 0.678451
Si Si2 0.083161 0.676441 0.085009
Si Si3 0.175182 0.173433 0.930222
Si Si4 0.189893 0.325129 0.337751
Si Si5 0.671763 0.826978 0.690684
Si Si6 0.588366 0.325612 0.476043
Si Si7 0.845765 0.326579 0.558687
Si Si8 0.341118 0.674383 0.942537
O O1 0.114391 0.192766 0.798550
O O2 0.116341 0.267609 0.677523
O O3 0.988457 0.209399 0.582958
O O4 0.079221 0.000000 0.666632
O O5 0.084703 0.500000 0.082358
O O6 0.140049 0.718347 0.213896
O O7 0.109254 0.744339 0.048935
O O8 0.000000 0.720833 0.000000
O O9 0.190521 0.000000 0.955375
O O10 0.250000 0.250000 0.000000
O O11 0.149671 0.224499 0.970575
O O12 0.205756 0.500000 0.352995
O O13 0.148078 0.301223 0.355376
O O14 0.266300 0.238079 0.438468
O O15 0.652935 0.740635 0.600980
O O16 0.755318 0.800896 0.817514
O O17 0.661646 0.000000 0.668077
O O18 0.594425 0.500000 0.478605
O O19 0.594380 0.254107 0.411829
O O20 0.847754 0.500000 0.549284
O O21 0.355110 0.500000 0.956303
#
# Coordination Sequence:
#
# PCOD9196613 Si02
#       8
#     8   8   8   8   8   8   8   8
#     4  10  22  38  57  80 111 151 190 230 282 340
#     4  10  22  39  58  83 114 148 188 231 278 337
#     4  10  20  38  60  83 112 146 189 237 281 332
#     4   9  19  37  59  81 110 146 184 230 283 337
#     4  11  22  37  58  84 113 146 188 236 281 334
#     4  11  23  37  53  80 116 151 187 228 280 343
#     4  10  20  35  57  84 110 142 186 235 281 333
#     4  10  22  38  58  86 115 145 187 235 283 336
#
# _framework density 19.032198999999999
#
# number of rings (size 3 to 8) (size 9 to 14) (size 15 to 20)
#    0.000    1.875    1.250    2.250    0.000    8.250 
#    0.000    0.000    0.000    0.000    0.000    0.000 
#    0.000    0.000    0.000    0.000    0.000    0.000 
#
# Total GULP energy -178789.150285 kJ/mol
# GULP energy per Si atom -5587.160946 kJ/mol
# Density = 1.898888 g / cm^3
# Si number density = 19.032199 Si / 1000 Ang^3
#
#
#
# Elastic Constant Matrix: (Units=GPa)
#
#
# Indices 1 2 3 4 5 6 
#
# 1 124.5882 40.7814 16.3819 0.0000 -19.1379 0.0000
# 2 40.7814 34.0819 14.5970 0.0000 -5.2242 0.0000
# 3 16.3819 14.5970 43.4947 0.0000 -16.0933 0.0000
# 4 0.0000 0.0000 0.0000 18.6556 0.0000 -2.4420
# 5 -19.1379 -5.2242 -16.0933 0.0000 26.7536 0.0000
# 6 0.0000 0.0000 0.0000 -2.4420 0.0000 40.0422
#
#
#
# Elastic Compliance Matrix: (Units=1/GPa)
#
#
# Indices 1 2 3 4 5 6 
#
# 1 0.014866 -0.018032 0.003967 0.000000 0.009500 0.000000
# 2 -0.018032 0.056139 -0.016420 0.000000 -0.011814 0.000000
# 3 0.003967 -0.016420 0.034565 0.000000 0.020423 0.000000
# 4 0.000000 0.000000 0.000000 0.054035 0.000000 0.003295
# 5 0.009500 -0.011814 0.020423 0.000000 0.054152 0.000000
# 6 0.000000 0.000000 0.000000 0.003295 0.000000 0.025175
#
#
# Mechanical properties :
#
#
# Convention : Reuss Voigt Hill
#
# Bulk Modulus (GPa) = 22.42118 38.40946 30.41532
# Shear Modulus (GPa) = 15.88474 25.78391 20.83432
#
# Velocity S-wave (km/s) = 2.89212 3.68469 3.31220
# Velocity P-wave (km/s) = 4.79153 6.19094 5.53563
#
# Compressibility (1/GPa) = 0.04460068
#
# Stress axis : x y z
#
# Youngs Moduli (GPa) = 67.26600 17.81292 28.93140
#
# Poissons Ratio (x) = 0.32120 -0.11478
# Poissons Ratio (y) = 1.21291 0.47506
# Poissons Ratio (z) = -0.26686 0.29249
#
# Static dielectric constant tensor:
#      x y z
#    x 1.655910 0.000000 -0.018470 
#    y 0.000000 1.635520 0.000000 
#    z -0.018470 0.000000 1.658980 
# 
# From -- ./inp_files/295861.got.cif
#   From: 2010.05.17/outbox.cif.g08.bks.cpg/sg12_148_cif.got.tgz:295861.got - 2010.06.03 13:09:07.
