data_PCOD9196211
_publ_section_title
;
Structure prediction by ZEFSAII (Michael W. Deem and Ramdas Pophale) SiO2 
 PCOD9196211
Probable space group: C 2/M
;
_chemical_formula_sum "Si O2"
_cell_formula_units_Z 56
_cell_length_a 29.500688
_cell_length_b 8.804885
_cell_length_c 20.725233
_cell_angle_alpha 90.000000
_cell_angle_beta 31.938824
_cell_angle_gamma 90.000000
_cell_volume 2847.882026
_symmetry_space_group_name_H-M "C 2/M"
_symmetry_group_IT_number 12
_symmetry_cell_setting 'monoclinic'
loop_
_space_group_symop_operation_xyz
x,y,z
-x,y,-z
-x,-y,-z
x,-y,z
1/2+x,1/2+y,z
1/2-x,1/2+y,-z
1/2-x,1/2-y,-z
1/2+x,1/2-y,z
loop_
_atom_site_type_symbol
_atom_site_label
_atom_site_fract_x
_atom_site_fract_y
_atom_site_fract_z
Si Si1 0.985949 0.319879 0.305381
Si Si2 0.057323 0.816586 0.773893
Si Si3 0.134621 0.181352 0.445206
Si Si4 0.624886 0.318623 0.947011
Si Si5 0.812816 0.181932 0.270341
Si Si6 0.339545 0.682049 0.868557
Si Si7 0.195329 0.817705 0.232832
O O1 0.989613 0.500000 0.299626
O O2 0.934736 0.257672 0.305461
O O3 0.940174 0.261406 0.425245
O O4 0.080993 0.250188 0.188925
O O5 0.132126 0.776981 0.733668
O O6 0.056421 0.000000 0.768736
O O7 0.965688 0.768447 0.914797
O O8 0.224474 0.228509 0.369551
O O9 0.144612 0.230494 0.358390
O O10 0.122721 0.000000 0.461947
O O11 0.630270 0.500000 0.949148
O O12 0.633155 0.288528 0.860388
O O13 0.708372 0.246252 0.878890
O O14 0.795333 0.000000 0.293093
O O15 0.339116 0.500000 0.875537
O O16 0.347355 0.723159 0.783313
O O17 0.250000 0.750000 0.000000
O O18 0.201279 0.000000 0.228032
#
# Coordination Sequence:
#
# PCOD9196211 Si02
#       7
#     8   8   8   8   8   8   8
#     4  12  26  41  57  81 113 149 191 237 281 329
#     4  10  20  35  56  82 114 153 191 230 281 335
#     4  10  21  40  61  82 110 146 189 233 281 334
#     4   9  17  31  55  86 117 147 183 228 277 332
#     4   9  18  34  57  85 115 147 186 232 280 333
#     4  11  23  41  63  89 119 149 183 224 275 333
#     4   9  20  37  59  84 112 147 184 228 280 332
#
# _framework density 19.663736
#
# number of rings (size 3 to 8) (size 9 to 14) (size 15 to 20)
#    0.000    2.000    0.000    3.429    0.000    8.000 
#    0.000    2.857    0.000    4.286    0.000    0.000 
#    0.000    0.000    0.000    0.000    0.000    0.000 
#
# Total GULP energy -156460.918830 kJ/mol
# GULP energy per Si atom -5587.889958 kJ/mol
# Density = 1.961898 g / cm^3
# Si number density = 19.663736 Si / 1000 Ang^3
#
#
#
# Elastic Constant Matrix: (Units=GPa)
#
#
# Indices 1 2 3 4 5 6 
#
# 1 91.2895 28.1665 -0.5009 -0.0019 11.2590 0.0011
# 2 28.1665 40.1086 16.9698 -0.0043 6.8976 0.0017
# 3 -0.5009 16.9698 61.0404 -0.0033 9.3597 0.0015
# 4 -0.0019 -0.0043 -0.0033 27.1420 0.0009 -3.4766
# 5 11.2590 6.8976 9.3597 0.0009 12.5841 0.0005
# 6 0.0011 0.0017 0.0015 -3.4766 0.0005 24.2667
#
#
#
# Elastic Compliance Matrix: (Units=1/GPa)
#
#
# Indices 1 2 3 4 5 6 
#
# 1 0.015930 -0.011304 0.005089 0.000000 -0.011842 0.000000
# 2 -0.011304 0.037663 -0.010101 0.000004 -0.003018 -0.000001
# 3 0.005089 -0.010101 0.021538 0.000002 -0.015036 0.000000
# 4 0.000000 0.000004 0.000002 0.037532 -0.000007 0.005377
# 5 -0.011842 -0.003018 -0.015036 -0.000007 0.102898 -0.000001
# 6 0.000000 -0.000001 0.000000 0.005377 -0.000001 0.041979
#
#
# Mechanical properties :
#
#
# Convention : Reuss Voigt Hill
#
# Bulk Modulus (GPa) = 23.52909 31.30103 27.41506
# Shear Modulus (GPa) = 16.42911 22.65212 19.54061
#
# Velocity S-wave (km/s) = 2.89364 3.39776 3.15578
# Velocity P-wave (km/s) = 4.81206 5.59872 5.22023
#
# Compressibility (1/GPa) = 0.04250058
#
# Stress axis : x y z
#
# Youngs Moduli (GPa) = 62.77351 26.55129 46.42958
#
# Poissons Ratio (x) = 0.30013 -0.23628
# Poissons Ratio (y) = 0.70958 0.46897
# Poissons Ratio (z) = -0.31946 0.26819
#
# Static dielectric constant tensor:
#      x y z
#    x 1.680190 0.000000 0.024950 
#    y 0.000000 1.653130 0.000000 
#    z 0.024950 0.000000 1.688300 
# 
# From -- ./inp_files/238915.got.cif
#   From: 2010.05.17/outbox.cif.g08.bks.cpg/sg12_120_cif.got.tgz:238915.got - 2010.06.03 13:09:07.
