data_PCOD9196818
_publ_section_title
;
Structure prediction by ZEFSAII (Michael W. Deem and Ramdas Pophale) SiO2 
 PCOD9196818
Probable space group: C 2/M
;
_chemical_formula_sum "Si O2"
_cell_formula_units_Z 56
_cell_length_a 14.703620
_cell_length_b 15.023480
_cell_length_c 27.271061
_cell_angle_alpha 90.000000
_cell_angle_beta 27.859892
_cell_angle_gamma 90.000000
_cell_volume 2815.158799
_symmetry_space_group_name_H-M "C 2/M"
_symmetry_group_IT_number 12
_symmetry_cell_setting 'monoclinic'
loop_
_space_group_symop_operation_xyz
x,y,z
-x,y,-z
-x,-y,-z
x,-y,z
1/2+x,1/2+y,z
1/2-x,1/2+y,-z
1/2-x,1/2-y,-z
1/2+x,1/2-y,z
loop_
_atom_site_type_symbol
_atom_site_label
_atom_site_fract_x
_atom_site_fract_y
_atom_site_fract_z
Si Si1 0.471326 0.628493 0.457943
Si Si2 0.558538 0.726925 0.265485
Si Si3 0.115180 0.664884 0.491942
Si Si4 0.314175 0.762269 0.051567
Si Si5 0.462039 0.094419 0.366432
Si Si6 0.770556 0.393774 0.980975
Si Si7 0.283501 0.097007 0.226981
O O1 0.500000 0.602181 0.500000
O O2 0.461229 0.735446 0.460995
O O3 0.263020 0.594516 0.541390
O O4 0.637941 0.599644 0.341913
O O5 0.346771 0.679094 0.372458
O O6 0.628840 0.740553 0.176528
O O7 0.550100 0.821796 0.296549
O O8 0.714184 0.668682 0.220930
O O9 0.054222 0.609239 0.567945
O O10 0.000000 0.630617 0.500000
O O11 0.333436 0.672851 0.008482
O O12 0.500000 0.771880 0.000000
O O13 0.275058 0.843947 0.032070
O O14 0.556065 0.000000 0.309469
O O15 0.713325 0.500000 0.009442
O O16 0.998665 0.390710 0.858201
O O17 0.272902 0.000000 0.207897
#
# Coordination Sequence:
#
# PCOD9196818 Si02
#       7
#     8   8   8   8   8   8   8
#     4  10  20  35  57  87 121 158 201 255 311 364
#     4  11  22  40  63  91 125 164 214 260 318 379
#     4  10  21  37  60  85 124 172 209 256 302 367
#     4  11  24  44  71  95 130 175 211 268 336 390
#     4  11  22  37  56  84 126 165 205 252 304 371
#     4  10  25  45  68 100 129 163 219 276 324 389
#     4  11  21  37  65  92 121 159 210 270 319 372
#
# _framework density 19.892306000000001
#
# number of rings (size 3 to 8) (size 9 to 14) (size 15 to 20)
#    0.000    1.429    4.286    1.286    6.000    3.143 
#    0.000    0.000    0.000    0.000    0.000    0.000 
#    0.000    0.000    0.000    0.000    0.000    0.000 
#
# Total GULP energy -156217.701216 kJ/mol
# GULP energy per Si atom -5579.203615 kJ/mol
# Density = 1.984703 g / cm^3
# Si number density = 19.892306 Si / 1000 Ang^3
#
#
#
# Elastic Constant Matrix: (Units=GPa)
#
#
# Indices 1 2 3 4 5 6 
#
# 1 99.1085 38.8735 6.0448 -0.0002 16.9433 -0.0006
# 2 38.8735 101.1386 26.3557 0.0003 16.8747 -0.0002
# 3 6.0448 26.3557 52.2167 0.0080 13.3917 -0.0009
# 4 -0.0002 0.0003 0.0080 3.4941 0.0017 -11.8279
# 5 16.9433 16.8747 13.3917 0.0017 23.2083 -0.0006
# 6 -0.0006 -0.0002 -0.0009 -11.8279 -0.0006 26.6113
#
#
#
# Elastic Compliance Matrix: (Units=1/GPa)
#
#
# Indices 1 2 3 4 5 6 
#
# 1 0.012991 -0.004392 0.002730 0.000002 -0.007866 0.000001
# 2 -0.004392 0.013583 -0.005442 -0.000024 -0.003529 -0.000011
# 3 0.002730 -0.005442 0.024739 0.000096 -0.012311 0.000043
# 4 0.000002 -0.000024 0.000096 -0.567219 -0.000005 -0.252111
# 5 -0.007866 -0.003529 -0.012311 -0.000005 0.058501 -0.000002
# 6 0.000001 -0.000011 0.000043 -0.252111 -0.000002 -0.074477
#
#
# Mechanical properties :
#
#
# Convention : Reuss Voigt Hill
#
# Bulk Modulus (GPa) = 26.95070 43.89019 35.42045
# Shear Modulus (GPa) = -9.89499 22.74207 6.42354
#
# Velocity S-wave (km/s) = -2.23273 3.38488 1.79894
# Velocity P-wave (km/s) = 2.63267 6.11460 4.70740
#
# Compressibility (1/GPa) = 0.03710479
#
# Stress axis : x y z
#
# Youngs Moduli (GPa) = 76.97659 73.62354 40.42173
#
# Poissons Ratio (x) = 0.32338 -0.11037
# Poissons Ratio (y) = 0.33810 0.21998
# Poissons Ratio (z) = -0.21018 0.40067
#
# Static dielectric constant tensor:
#      x y z
#    x 1.670900 0.000000 -0.014670 
#    y 0.000000 1.755780 0.000000 
#    z -0.014670 0.000000 1.690590 
# 
# From -- ./inp_files/361416.got.cif
#   From: 2010.05.17/outbox.cif.g08.bks.cpg/sg12_181_cif.got.tgz:361416.got - 2010.06.03 13:09:07.
