data_PCOD9196230
_publ_section_title
;
Structure prediction by ZEFSAII (Michael W. Deem and Ramdas Pophale) SiO2 
 PCOD9196230
Probable space group: C 2/M
;
_chemical_formula_sum "Si O2"
_cell_formula_units_Z 56
_cell_length_a 19.601596
_cell_length_b 7.489509
_cell_length_c 19.499038
_cell_angle_alpha 90.000000
_cell_angle_beta 120.848761
_cell_angle_gamma 90.000000
_cell_volume 2457.594997
_symmetry_space_group_name_H-M "C 2/M"
_symmetry_group_IT_number 12
_symmetry_cell_setting 'monoclinic'
loop_
_space_group_symop_operation_xyz
x,y,z
-x,y,-z
-x,-y,-z
x,-y,z
1/2+x,1/2+y,z
1/2-x,1/2+y,-z
1/2-x,1/2-y,-z
1/2+x,1/2-y,z
loop_
_atom_site_type_symbol
_atom_site_label
_atom_site_fract_x
_atom_site_fract_y
_atom_site_fract_z
Si Si1 0.767083 0.288227 0.588577
Si Si2 0.813155 0.708785 0.315554
Si Si3 0.941167 0.717486 0.682558
Si Si4 0.486426 0.218220 0.416515
Si Si5 0.570622 0.207433 0.988637
Si Si6 0.596744 0.781547 0.847455
Si Si7 0.261585 0.716341 0.858016
O O1 0.767807 0.500000 0.595094
O O2 0.750000 0.250000 0.500000
O O3 0.705936 0.223002 0.614178
O O4 0.853717 0.219879 0.657503
O O5 0.818896 0.500000 0.302547
O O6 0.900529 0.782398 0.347854
O O7 0.751309 0.777427 0.227539
O O8 0.941242 0.500000 0.685943
O O9 0.950726 0.769946 0.608002
O O10 0.018910 0.774814 0.764214
O O11 0.500000 0.281424 0.500000
O O12 0.486220 0.000000 0.418257
O O13 0.655698 0.216077 0.069515
O O14 0.548653 0.000000 0.966220
O O15 0.500000 0.284293 0.000000
O O16 0.583802 0.281105 0.918812
O O17 0.681885 0.728408 0.858875
O O18 0.598260 0.000000 0.846740
O O19 0.266436 0.500000 0.864366
#
# Coordination Sequence:
#
# PCOD9196230 Si02
#       7
#     8   8   8   8   8   8   8
#     4  11  23  37  57  82 113 152 188 230 278 329
#     4  10  20  35  56  83 111 141 182 231 280 330
#     4   9  17  31  54  81 105 139 187 230 269 323
#     4   9  15  27  51  80 104 131 178 231 267 312
#     4  10  22  36  56  84 114 147 184 230 276 329
#     4   9  17  34  56  81 110 142 186 233 277 327
#     4  10  20  36  59  83 111 145 181 229 282 333
#
# _framework density 22.786503
#
# number of rings (size 3 to 8) (size 9 to 14) (size 15 to 20)
#    0.000    2.286    1.429    1.714    2.000    3.143 
#    0.000    0.000    0.000    6.429    0.000    0.000 
#    0.000    0.000    0.000    0.000    0.000    0.000 
#
# Total GULP energy -156300.253665 kJ/mol
# GULP energy per Si atom -5582.151917 kJ/mol
# Density = 2.273464 g / cm^3
# Si number density = 22.786503 Si / 1000 Ang^3
#
#
#
# Elastic Constant Matrix: (Units=GPa)
#
#
# Indices 1 2 3 4 5 6 
#
# 1 91.0747 -6.1681 10.7839 0.0000 1.0247 0.0000
# 2 -6.1681 57.9921 -8.5876 0.0000 0.4178 0.0000
# 3 10.7839 -8.5876 106.3510 0.0000 -3.9907 0.0000
# 4 0.0000 0.0000 0.0000 14.2698 0.0000 5.1597
# 5 1.0247 0.4178 -3.9907 0.0000 37.8767 0.0000
# 6 0.0000 0.0000 0.0000 5.1597 0.0000 -8.3559
#
#
#
# Elastic Compliance Matrix: (Units=1/GPa)
#
#
# Indices 1 2 3 4 5 6 
#
# 1 0.011181 0.001034 -0.001066 0.000000 -0.000426 0.000000
# 2 0.001034 0.017548 0.001309 0.000000 -0.000084 0.000000
# 3 -0.001066 0.001309 0.009655 0.000000 0.001032 0.000000
# 4 0.000000 0.000000 0.000000 0.057287 0.000000 0.035375
# 5 -0.000426 -0.000084 0.001032 0.000000 0.026523 0.000000
# 6 0.000000 0.000000 0.000000 0.035375 0.000000 -0.097833
#
#
# Mechanical properties :
#
#
# Convention : Reuss Voigt Hill
#
# Bulk Modulus (GPa) = 24.42664 27.49713 25.96189
# Shear Modulus (GPa) = 141.02948 26.05078 83.54013
#
# Velocity S-wave (km/s) = 7.87566 3.38487 6.06149
# Velocity P-wave (km/s) = 9.66667 5.23163 7.77221
#
# Compressibility (1/GPa) = 0.04093891
#
# Stress axis : x y z
#
# Youngs Moduli (GPa) = 89.43662 56.98599 103.56958
#
# Poissons Ratio (x) = -0.05895 0.11043
# Poissons Ratio (y) = -0.09251 -0.13557
# Poissons Ratio (z) = 0.09536 -0.07459
#
# Static dielectric constant tensor:
#      x y z
#    x 1.784710 0.000000 0.011220 
#    y 0.000000 1.883930 0.000000 
#    z 0.011220 0.000000 1.839110 
# 
# From -- ./inp_files/275686.got.cif
#   From: 2010.05.17/outbox.cif.g08.bks.cpg/sg12_138_cif.got.tgz:275686.got - 2010.06.03 13:09:07.
