data_PCOD9196642
_publ_section_title
;
Structure prediction by ZEFSAII (Michael W. Deem and Ramdas Pophale) SiO2 
 PCOD9196642
Probable space group: C 2/M
;
_chemical_formula_sum "Si O2"
_cell_formula_units_Z 56
_cell_length_a 19.621994
_cell_length_b 8.765313
_cell_length_c 18.774072
_cell_angle_alpha 90.000000
_cell_angle_beta 63.428393
_cell_angle_gamma 90.000000
_cell_volume 2887.946811
_symmetry_space_group_name_H-M "C 2/M"
_symmetry_group_IT_number 12
_symmetry_cell_setting 'monoclinic'
loop_
_space_group_symop_operation_xyz
x,y,z
-x,y,-z
-x,-y,-z
x,-y,z
1/2+x,1/2+y,z
1/2-x,1/2+y,-z
1/2-x,1/2-y,-z
1/2+x,1/2-y,z
loop_
_atom_site_type_symbol
_atom_site_label
_atom_site_fract_x
_atom_site_fract_y
_atom_site_fract_z
Si Si1 0.145302 0.817357 0.193877
Si Si2 0.685636 0.316861 0.863901
Si Si3 0.834155 0.183405 0.971606
Si Si4 0.367931 0.815727 0.257542
Si Si5 0.576217 0.182261 0.507525
Si Si6 0.764713 0.818255 0.571315
Si Si7 0.492998 0.183140 0.309341
O O1 0.227457 0.746290 0.174290
O O2 0.124881 0.772459 0.121067
O O3 0.075639 0.758406 0.273402
O O4 0.151795 0.000000 0.195435
O O5 0.688796 0.500000 0.859543
O O6 0.643622 0.253551 0.814540
O O7 0.644860 0.270381 0.957773
O O8 0.831037 0.000000 0.973084
O O9 0.750000 0.250000 0.000000
O O10 0.297952 0.768241 0.341719
O O11 0.445212 0.770844 0.262037
O O12 0.366503 0.000000 0.253360
O O13 0.500000 0.218490 0.500000
O O14 0.650877 0.267521 0.446114
O O15 0.558152 0.220505 0.598048
O O16 0.589451 0.000000 0.496477
O O17 0.750000 0.750000 0.500000
O O18 0.759443 0.000000 0.568288
O O19 0.502511 0.000000 0.304622
#
# Coordination Sequence:
#
# PCOD9196642 Si02
#       7
#     8   8   8   8   8   8   8
#     4  10  20  35  57  84 114 145 181 226 279 326
#     4  10  20  35  58  85 110 143 188 227 270 327
#     4   8  16  32  53  79 110 142 178 225 271 321
#     4  10  22  39  56  79 114 148 181 228 277 323
#     4  10  22  40  60  83 112 146 184 229 278 324
#     4  11  22  39  61  83 110 146 188 228 274 327
#     4  10  21  39  56  78 114 149 183 225 276 329
#
# _framework density 19.390938999999999
#
# number of rings (size 3 to 8) (size 9 to 14) (size 15 to 20)
#    0.000    2.143    1.429    1.286    2.000    3.714 
#    0.000    0.714    0.000    4.286    0.000    0.000 
#    0.000    0.000    0.000    0.000    0.000    0.000 
#
# Total GULP energy -156214.500531 kJ/mol
# GULP energy per Si atom -5579.089305 kJ/mol
# Density = 1.934680 g / cm^3
# Si number density = 19.390939 Si / 1000 Ang^3
#
#
#
# Elastic Constant Matrix: (Units=GPa)
#
#
# Indices 1 2 3 4 5 6 
#
# 1 51.8220 10.1373 -0.2935 0.0000 13.6817 -0.0001
# 2 10.1373 16.2431 3.7790 0.0000 4.5612 -0.0002
# 3 -0.2935 3.7790 22.4188 0.0000 15.9952 0.0000
# 4 0.0000 0.0000 0.0000 23.3131 0.0000 4.1134
# 5 13.6817 4.5612 15.9952 0.0000 38.8759 0.0000
# 6 -0.0001 -0.0002 0.0000 4.1134 0.0000 28.3883
#
#
#
# Elastic Compliance Matrix: (Units=1/GPa)
#
#
# Indices 1 2 3 4 5 6 
#
# 1 0.025463 -0.015205 0.011349 0.000000 -0.011847 0.000000
# 2 -0.015205 0.073681 -0.014536 0.000000 0.002687 0.000000
# 3 0.011349 -0.014536 0.069130 0.000000 -0.030732 0.000000
# 4 0.000000 0.000000 0.000000 0.044020 0.000000 -0.006378
# 5 -0.011847 0.002687 -0.030732 0.000000 0.042221 0.000000
# 6 0.000000 0.000000 0.000000 -0.006378 0.000000 0.036150
#
#
# Mechanical properties :
#
#
# Convention : Reuss Voigt Hill
#
# Bulk Modulus (GPa) = 7.60518 13.08106 10.34312
# Shear Modulus (GPa) = 13.46688 23.23957 18.35322
#
# Velocity S-wave (km/s) = 2.63818 3.46566 3.07984
# Velocity P-wave (km/s) = 3.63463 4.77231 4.24179
#
# Compressibility (1/GPa) = 0.13148926
#
# Stress axis : x y z
#
# Youngs Moduli (GPa) = 39.27245 13.57194 14.46540
#
# Poissons Ratio (x) = 0.20636 -0.16416
# Poissons Ratio (y) = 0.59714 0.21028
# Poissons Ratio (z) = -0.44569 0.19729
#
# Static dielectric constant tensor:
#      x y z
#    x 1.655980 0.000000 0.030890 
#    y 0.000000 1.655800 0.000000 
#    z 0.030890 0.000000 1.704770 
# 
# From -- ./inp_files/275294.got.cif
#   From: 2010.05.17/outbox.cif.g08.bks.cpg/sg12_138_cif.got.tgz:275294.got - 2010.06.03 13:09:07.
