data_PCOD9196401
_publ_section_title
;
Structure prediction by ZEFSAII (Michael W. Deem and Ramdas Pophale) SiO2 
 PCOD9196401
Probable space group: C 2/M
;
_chemical_formula_sum "Si O2"
_cell_formula_units_Z 56
_cell_length_a 25.426987
_cell_length_b 15.309079
_cell_length_c 14.609071
_cell_angle_alpha 90.000000
_cell_angle_beta 29.766393
_cell_angle_gamma 90.000000
_cell_volume 2823.287475
_symmetry_space_group_name_H-M "C 2/M"
_symmetry_group_IT_number 12
_symmetry_cell_setting 'monoclinic'
loop_
_space_group_symop_operation_xyz
x,y,z
-x,y,-z
-x,-y,-z
x,-y,z
1/2+x,1/2+y,z
1/2-x,1/2+y,-z
1/2-x,1/2-y,-z
1/2+x,1/2-y,z
loop_
_atom_site_type_symbol
_atom_site_label
_atom_site_fract_x
_atom_site_fract_y
_atom_site_fract_z
Si Si1 0.227634 0.245459 0.829198
Si Si2 0.778412 0.299810 0.551343
Si Si3 0.484923 0.722538 0.257521
Si Si4 0.755356 0.599188 0.062381
Si Si5 0.022555 0.902107 0.358555
Si Si6 0.623816 0.895417 0.296602
Si Si7 0.914097 0.100748 0.203167
O O1 0.240038 0.249417 0.701215
O O2 0.260215 0.333416 0.832650
O O3 0.300658 0.165877 0.756174
O O4 0.105046 0.234130 0.043721
O O5 0.750000 0.250000 0.500000
O O6 0.905465 0.304728 0.369355
O O7 0.703856 0.384292 0.657272
O O8 0.480537 0.677695 0.363196
O O9 0.433782 0.652141 0.266235
O O10 0.770095 0.500000 0.073189
O O11 0.649845 0.599997 0.159791
O O12 0.848306 0.624084 0.851826
O O13 0.000000 0.893736 0.500000
O O14 0.986253 0.000000 0.384830
O O15 0.500000 0.878172 0.500000
O O16 0.643432 0.000000 0.281273
O O17 0.935467 0.000000 0.186176
O O18 0.000000 0.134563 0.000000
#
# Coordination Sequence:
#
# PCOD9196401 Si02
#       7
#     8   8   8   8   8   8   8
#     4  12  23  38  65  91 121 170 212 254 311 370
#     4  10  24  41  58  89 122 154 200 256 313 371
#     4  11  22  37  62  90 119 159 206 251 306 369
#     4  10  22  40  58  89 127 166 209 252 300 364
#     4  10  20  35  56  86 122 158 201 250 296 353
#     4  10  23  40  61  92 132 166 205 255 307 372
#     4  10  20  39  64  90 120 152 195 260 320 367
#
# _framework density 19.835032999999999
#
# number of rings (size 3 to 8) (size 9 to 14) (size 15 to 20)
#    0.000    1.571    2.857    1.714    2.000    1.714 
#    0.000    3.571    0.000    0.000    0.000    6.000 
#    0.000    0.000    0.000    0.000    0.000    0.000 
#
# Total GULP energy -156238.631450 kJ/mol
# GULP energy per Si atom -5579.951123 kJ/mol
# Density = 1.978989 g / cm^3
# Si number density = 19.835033 Si / 1000 Ang^3
#
#
#
# Elastic Constant Matrix: (Units=GPa)
#
#
# Indices 1 2 3 4 5 6 
#
# 1 76.9500 36.5219 24.5505 0.0000 6.9392 0.0000
# 2 36.5219 50.8853 16.0722 0.0000 0.6667 0.0000
# 3 24.5505 16.0722 113.2708 0.0000 -8.9726 0.0000
# 4 0.0000 0.0000 0.0000 17.9073 0.0000 -4.2596
# 5 6.9392 0.6667 -8.9726 0.0000 39.9280 0.0000
# 6 0.0000 0.0000 0.0000 -4.2596 0.0000 21.8782
#
#
#
# Elastic Compliance Matrix: (Units=1/GPa)
#
#
# Indices 1 2 3 4 5 6 
#
# 1 0.020960 -0.014086 -0.002865 0.000000 -0.004051 0.000000
# 2 -0.014086 0.030081 -0.001080 0.000000 0.001703 0.000000
# 3 -0.002865 -0.001080 0.009818 0.000000 0.002722 0.000000
# 4 0.000000 0.000000 0.000000 0.058555 0.000000 0.011401
# 5 -0.004051 0.001703 0.002722 0.000000 0.026333 0.000000
# 6 0.000000 0.000000 0.000000 0.011401 0.000000 0.047927
#
#
# Mechanical properties :
#
#
# Convention : Reuss Voigt Hill
#
# Bulk Modulus (GPa) = 40.32796 43.93282 42.13039
# Shear Modulus (GPa) = 21.00818 26.87347 23.94082
#
# Velocity S-wave (km/s) = 3.25798 3.68482 3.47796
# Velocity P-wave (km/s) = 5.87609 6.34831 6.11676
#
# Compressibility (1/GPa) = 0.02479669
#
# Stress axis : x y z
#
# Youngs Moduli (GPa) = 47.70919 33.24381 101.85000
#
# Poissons Ratio (x) = 0.46827 0.29182
# Poissons Ratio (y) = 0.67202 0.11003
# Poissons Ratio (z) = 0.13670 0.03592
#
# Static dielectric constant tensor:
#      x y z
#    x 1.701420 0.000000 -0.015940 
#    y 0.000000 1.692340 0.000000 
#    z -0.015940 0.000000 1.786060 
# 
# From -- ./inp_files/240891.got.cif
#   From: 2010.05.17/outbox.cif.g08.bks.cpg/sg12_121_cif.got.tgz:240891.got - 2010.06.03 13:09:07.
