data_PCOD9196927
_publ_section_title
;
Structure prediction by ZEFSAII (Michael W. Deem and Ramdas Pophale) SiO2 
 PCOD9196927
Probable space group: C 2/M
;
_chemical_formula_sum "Si O2"
_cell_formula_units_Z 48
_cell_length_a 10.270942
_cell_length_b 29.979293
_cell_length_c 10.292187
_cell_angle_alpha 90.000000
_cell_angle_beta 120.168449
_cell_angle_gamma 90.000000
_cell_volume 2739.872069
_symmetry_space_group_name_H-M "C 2/M"
_symmetry_group_IT_number 12
_symmetry_cell_setting 'monoclinic'
loop_
_space_group_symop_operation_xyz
x,y,z
-x,y,-z
-x,-y,-z
x,-y,z
1/2+x,1/2+y,z
1/2-x,1/2+y,-z
1/2-x,1/2-y,-z
1/2+x,1/2-y,z
loop_
_atom_site_type_symbol
_atom_site_label
_atom_site_fract_x
_atom_site_fract_y
_atom_site_fract_z
Si Si1 0.526953 0.949079 0.666708
Si Si2 0.591431 0.275408 0.912515
Si Si3 0.332803 0.448936 0.970949
Si Si4 0.257688 0.137519 0.932396
Si Si5 0.069183 0.638815 0.244000
Si Si6 0.087246 0.272207 0.407771
O O1 0.500000 0.943615 0.500000
O O2 0.702944 0.944315 0.795629
O O3 0.439553 0.910467 0.699474
O O4 0.482960 0.000000 0.679984
O O5 0.631180 0.326885 0.906234
O O6 0.500985 0.254394 0.748283
O O7 0.500000 0.269770 0.000000
O O8 0.750000 0.250000 0.000000
O O9 0.324468 0.500000 0.014696
O O10 0.500000 0.441508 0.000000
O O11 0.294177 0.412233 0.058903
O O12 0.309247 0.142090 0.809781
O O13 0.406408 0.146973 0.094442
O O14 0.096612 0.676669 0.364361
O O15 0.250000 0.250000 0.500000
O O16 0.000000 0.269709 0.500000
#
# Coordination Sequence:
#
# PCOD9196927 Si02
#       6
#     8   8   8   8   8   8
#     4   9  18  34  57  82 110 148 188 228 284 346
#     4  12  23  40  63  84 112 154 197 235 285 352
#     4   9  18  34  56  83 113 143 184 238 287 333
#     4  10  20  35  58  84 110 148 193 235 281 342
#     4  10  20  36  57  82 115 147 188 239 285 334
#     4  12  25  40  59  86 118 151 190 244 295 338
#
# _framework density 17.519065000000001
#
# number of rings (size 3 to 8) (size 9 to 14) (size 15 to 20)
#    0.000    1.667    1.667    4.000    0.000    0.667 
#    3.000    3.333    0.000    0.000    0.000    4.667 
#    0.000    0.000    0.000    0.000    0.000    0.000 
#
# Total GULP energy -133989.734748 kJ/mol
# GULP energy per Si atom -5582.905615 kJ/mol
# Density = 1.747919 g / cm^3
# Si number density = 17.519065 Si / 1000 Ang^3
#
#
#
# Elastic Constant Matrix: (Units=GPa)
#
#
# Indices 1 2 3 4 5 6 
#
# 1 128.8386 66.5834 65.2580 0.0000 -18.4413 0.0000
# 2 66.5834 116.3511 60.4050 0.0000 -11.4160 0.0000
# 3 65.2580 60.4050 108.7105 0.0000 -15.8892 0.0000
# 4 0.0000 0.0000 0.0000 23.7248 0.0000 -5.3881
# 5 -18.4413 -11.4160 -15.8892 0.0000 31.5052 0.0000
# 6 0.0000 0.0000 0.0000 -5.3881 0.0000 30.8604
#
#
#
# Elastic Compliance Matrix: (Units=1/GPa)
#
#
# Indices 1 2 3 4 5 6 
#
# 1 0.013092 -0.004683 -0.004734 0.000000 0.003579 0.000000
# 2 -0.004683 0.013788 -0.004880 0.000000 -0.000206 0.000000
# 3 -0.004734 -0.004880 0.015210 0.000000 0.003132 0.000000
# 4 0.000000 0.000000 0.000000 0.043890 0.000000 0.007663
# 5 0.003579 -0.000206 0.003132 0.000000 0.035340 0.000000
# 6 0.000000 0.000000 0.000000 0.007663 0.000000 0.033742
#
#
# Mechanical properties :
#
#
# Convention : Reuss Voigt Hill
#
# Bulk Modulus (GPa) = 74.09875 82.04368 78.07122
# Shear Modulus (GPa) = 26.57387 27.99499 27.28443
#
# Velocity S-wave (km/s) = 3.89891 4.00180 3.95069
# Velocity P-wave (km/s) = 7.91559 8.26349 8.09141
#
# Compressibility (1/GPa) = 0.01349550
#
# Stress axis : x y z
#
# Youngs Moduli (GPa) = 76.38352 72.52616 65.74782
#
# Poissons Ratio (x) = 0.33967 0.31122
# Poissons Ratio (y) = 0.35773 0.32086
# Poissons Ratio (z) = 0.36156 0.35394
#
# Static dielectric constant tensor:
#      x y z
#    x 1.548360 0.000000 -0.009840 
#    y 0.000000 1.613120 0.000000 
#    z -0.009840 0.000000 1.544380 
# 
# From -- ./inp_files/52768.got.cif
#   From: 2010.05.17/outbox.cif.g08.bks.cpg/sg12_27_cif.got.tgz:52768.got - 2010.06.03 13:09:07.
