data_PCOD9196236
_publ_section_title
;
Structure prediction by ZEFSAII (Michael W. Deem and Ramdas Pophale) SiO2 
 PCOD9196236
Probable space group: C 2/M
;
_chemical_formula_sum "Si O2"
_cell_formula_units_Z 56
_cell_length_a 29.150399
_cell_length_b 7.836050
_cell_length_c 19.330781
_cell_angle_alpha 90.000000
_cell_angle_beta 36.005904
_cell_angle_gamma 90.000000
_cell_volume 2595.800888
_symmetry_space_group_name_H-M "C 2/M"
_symmetry_group_IT_number 12
_symmetry_cell_setting 'monoclinic'
loop_
_space_group_symop_operation_xyz
x,y,z
-x,y,-z
-x,-y,-z
x,-y,z
1/2+x,1/2+y,z
1/2-x,1/2+y,-z
1/2-x,1/2-y,-z
1/2+x,1/2-y,z
loop_
_atom_site_type_symbol
_atom_site_label
_atom_site_fract_x
_atom_site_fract_y
_atom_site_fract_z
Si Si1 0.878367 0.198968 0.957474
Si Si2 0.518651 0.201073 0.692942
Si Si3 0.539768 0.790969 0.380083
Si Si4 0.177976 0.309181 0.541825
Si Si5 0.211708 0.293149 0.204237
Si Si6 0.079603 0.293291 0.939501
Si Si7 0.249599 0.298184 0.686550
O O1 0.938499 0.284569 0.832351
O O2 0.875127 0.000000 0.943256
O O3 0.789821 0.267748 0.069966
O O4 0.911071 0.219655 0.995303
O O5 0.505359 0.272473 0.632442
O O6 0.592576 0.277410 0.643982
O O7 0.535877 0.000000 0.662787
O O8 0.500000 0.737385 0.500000
O O9 0.630333 0.738832 0.270276
O O10 0.538737 0.000000 0.380180
O O11 0.164724 0.500000 0.583565
O O12 0.250000 0.250000 0.500000
O O13 0.206158 0.299076 0.427961
O O14 0.214319 0.500000 0.201686
O O15 0.216882 0.236170 0.277873
O O16 0.078896 0.500000 0.946505
O O17 0.158203 0.247981 0.801939
O O18 0.000000 0.239297 0.000000
O O19 0.254540 0.500000 0.665698
#
# Coordination Sequence:
#
# PCOD9196236 Si02
#       7
#     8   8   8   8   8   8   8
#     4  10  21  35  53  82 118 150 183 232 286 333
#     4  10  22  39  59  82 111 150 193 235 279 338
#     4   9  17  33  60  87 109 144 195 237 274 331
#     4  11  24  40  58  80 110 148 188 234 286 338
#     4   9  18  35  58  84 115 149 187 231 279 330
#     4   9  19  35  56  79 106 144 188 232 274 329
#     4  10  20  35  56  83 112 144 184 229 279 334
#
# _framework density 21.573302999999999
#
# number of rings (size 3 to 8) (size 9 to 14) (size 15 to 20)
#    0.000    2.286    0.000    2.143    2.000    5.429 
#    0.000    0.714    0.000    1.714    0.000    0.000 
#    0.000    0.000    0.000    0.000    0.000    0.000 
#
# Total GULP energy -156334.285929 kJ/mol
# GULP energy per Si atom -5583.367355 kJ/mol
# Density = 2.152420 g / cm^3
# Si number density = 21.573303 Si / 1000 Ang^3
#
#
#
# Elastic Constant Matrix: (Units=GPa)
#
#
# Indices 1 2 3 4 5 6 
#
# 1 121.4020 9.7730 51.1653 0.0141 -38.2788 -0.0125
# 2 9.7730 21.9842 -1.5480 0.0192 -8.3255 -0.0121
# 3 51.1653 -1.5480 93.6852 0.0244 -11.4058 -0.0172
# 4 0.0141 0.0192 0.0244 16.1488 -0.0070 12.7551
# 5 -38.2788 -8.3255 -11.4058 -0.0070 29.0811 0.0028
# 6 -0.0125 -0.0121 -0.0172 12.7551 0.0028 0.1199
#
#
#
# Elastic Compliance Matrix: (Units=1/GPa)
#
#
# Indices 1 2 3 4 5 6 
#
# 1 0.017751 -0.000702 -0.007231 0.000002 0.020328 0.000003
# 2 -0.000702 0.051731 0.003076 0.000050 0.015092 -0.000138
# 3 -0.007231 0.003076 0.014306 0.000016 -0.003027 -0.000046
# 4 0.000002 0.000050 0.000016 -0.000746 0.000016 0.079344
# 5 0.020328 0.015092 -0.003027 0.000016 0.064277 -0.000024
# 6 0.000003 -0.000138 -0.000046 0.079344 -0.000024 -0.100455
#
#
# Mechanical properties :
#
#
# Convention : Reuss Voigt Hill
#
# Bulk Modulus (GPa) = 13.50035 39.53911 26.51973
# Shear Modulus (GPa) = 61.52355 20.91537 41.21946
#
# Velocity S-wave (km/s) = 5.34605 3.11706 4.37586
# Velocity P-wave (km/s) = 6.66172 5.59664 6.15227
#
# Compressibility (1/GPa) = 0.07407218
#
# Stress axis : x y z
#
# Youngs Moduli (GPa) = 56.33600 19.33071 69.90301
#
# Poissons Ratio (x) = 0.01357 0.50548
# Poissons Ratio (y) = 0.03955 -0.21499
# Poissons Ratio (z) = 0.40737 -0.05945
#
# Static dielectric constant tensor:
#      x y z
#    x 1.788940 -0.000010 -0.043130 
#    y -0.000010 1.812860 0.000010 
#    z -0.043130 0.000010 1.771960 
# 
# From -- ./inp_files/292401.got.cif
#   From: 2010.05.17/outbox.cif.g08.bks.cpg/sg12_147_cif.got.tgz:292401.got - 2010.06.03 13:09:07.
