data_PCOD9196979
_publ_section_title
;
Structure prediction by ZEFSAII (Michael W. Deem and Ramdas Pophale) SiO2 
 PCOD9196979
Probable space group: C 2/M
;
_chemical_formula_sum "Si O2"
_cell_formula_units_Z 56
_cell_length_a 16.785425
_cell_length_b 9.211725
_cell_length_c 18.475001
_cell_angle_alpha 90.000000
_cell_angle_beta 67.374691
_cell_angle_gamma 90.000000
_cell_volume 2636.807798
_symmetry_space_group_name_H-M "C 2/M"
_symmetry_group_IT_number 12
_symmetry_cell_setting 'monoclinic'
loop_
_space_group_symop_operation_xyz
x,y,z
-x,y,-z
-x,-y,-z
x,-y,z
1/2+x,1/2+y,z
1/2-x,1/2+y,-z
1/2-x,1/2-y,-z
1/2+x,1/2-y,z
loop_
_atom_site_type_symbol
_atom_site_label
_atom_site_fract_x
_atom_site_fract_y
_atom_site_fract_z
Si Si1 0.787356 0.831521 0.251295
Si Si2 0.261674 0.168853 0.892640
Si Si3 0.875591 0.328866 0.596738
Si Si4 0.034129 0.670357 0.826767
Si Si5 0.842820 0.172626 0.465925
Si Si6 0.390304 0.329358 0.953370
Si Si7 0.017643 0.329267 0.670339
O O1 0.735647 0.816932 0.193976
O O2 0.720360 0.802166 0.338765
O O3 0.869957 0.730724 0.216710
O O4 0.815244 0.000000 0.246963
O O5 0.324828 0.272801 0.914215
O O6 0.281666 0.000000 0.904733
O O7 0.163851 0.197762 0.954481
O O8 0.882365 0.500000 0.573853
O O9 0.889470 0.228403 0.522845
O O10 0.942163 0.303515 0.638749
O O11 0.035345 0.500000 0.840055
O O12 0.990885 0.695961 0.762678
O O13 0.979325 0.748449 0.907763
O O14 0.750000 0.250000 0.500000
O O15 0.901384 0.230910 0.380007
O O16 0.833611 0.000000 0.466872
O O17 0.405119 0.500000 0.942316
O O18 0.042056 0.500000 0.656413
#
# Coordination Sequence:
#
# PCOD9196979 Si02
#       7
#     8   8   8   8   8   8   8
#     4  10  21  38  59  83 113 150 191 233 281 336
#     4   9  19  37  59  83 113 149 190 235 283 337
#     4  10  21  39  63  87 113 148 188 231 281 337
#     4  11  23  38  57  83 116 151 189 235 284 334
#     4  12  25  40  60  87 119 152 187 231 281 333
#     4  10  20  35  58  85 113 148 190 236 284 337
#     4  10  22  41  63  86 114 150 190 232 281 336
#
# _framework density 21.237801999999999
#
# number of rings (size 3 to 8) (size 9 to 14) (size 15 to 20)
#    0.000    1.714    0.000    4.286    0.000   10.286 
#    0.000    4.286    0.000    0.000    0.000    0.000 
#    0.000    0.000    0.000    0.000    0.000    0.000 
#
# Total GULP energy -156609.578952 kJ/mol
# GULP energy per Si atom -5593.199248 kJ/mol
# Density = 2.118946 g / cm^3
# Si number density = 21.237802 Si / 1000 Ang^3
#
#
#
# Elastic Constant Matrix: (Units=GPa)
#
#
# Indices 1 2 3 4 5 6 
#
# 1 56.8822 23.5999 -7.4478 0.0000 -14.7760 0.0000
# 2 23.5999 62.3414 30.9049 0.0000 -19.7089 0.0000
# 3 -7.4478 30.9049 68.7948 0.0000 -17.1165 0.0000
# 4 0.0000 0.0000 0.0000 25.8135 0.0000 -7.2437
# 5 -14.7760 -19.7089 -17.1165 0.0000 34.2006 0.0000
# 6 0.0000 0.0000 0.0000 -7.2437 0.0000 32.1177
#
#
#
# Elastic Compliance Matrix: (Units=1/GPa)
#
#
# Indices 1 2 3 4 5 6 
#
# 1 0.026721 -0.012414 0.010922 0.000000 0.009857 0.000000
# 2 -0.012414 0.028685 -0.013081 0.000000 0.004621 0.000000
# 3 0.010922 -0.013081 0.023865 0.000000 0.009124 0.000000
# 4 0.000000 0.000000 0.000000 0.041357 0.000000 0.009327
# 5 0.009857 0.004621 0.009124 0.000000 0.040727 0.000000
# 6 0.000000 0.000000 0.000000 0.009327 0.000000 0.033239
#
#
# Mechanical properties :
#
#
# Convention : Reuss Voigt Hill
#
# Bulk Modulus (GPa) = 19.94951 31.34804 25.64878
# Shear Modulus (GPa) = 20.79451 27.82380 24.30915
#
# Velocity S-wave (km/s) = 3.13250 3.62347 3.38689
# Velocity P-wave (km/s) = 4.74312 5.68318 5.23430
#
# Compressibility (1/GPa) = 0.05012654
#
# Stress axis : x y z
#
# Youngs Moduli (GPa) = 37.42375 34.86091 41.90271
#
# Poissons Ratio (x) = 0.43275 -0.45766
# Poissons Ratio (y) = 0.46456 0.54811
# Poissons Ratio (z) = -0.40874 0.45600
#
# Static dielectric constant tensor:
#      x y z
#    x 1.796110 0.000000 0.008210 
#    y 0.000000 1.707010 0.000000 
#    z 0.008210 0.000000 1.763240 
# 
# From -- ./inp_files/275301.got.cif
#   From: 2010.05.17/outbox.cif.g08.bks.cpg/sg12_138_cif.got.tgz:275301.got - 2010.06.03 13:09:07.
