data_PCOD9196450
_publ_section_title
;
Structure prediction by ZEFSAII (Michael W. Deem and Ramdas Pophale) SiO2 
 PCOD9196450
Probable space group: C 2/M
;
_chemical_formula_sum "Si O2"
_cell_formula_units_Z 36
_cell_length_a 10.361661
_cell_length_b 22.512983
_cell_length_c 8.927987
_cell_angle_alpha 90.000000
_cell_angle_beta 111.255761
_cell_angle_gamma 90.000000
_cell_volume 1940.968858
_symmetry_space_group_name_H-M "C 2/M"
_symmetry_group_IT_number 12
_symmetry_cell_setting 'monoclinic'
loop_
_space_group_symop_operation_xyz
x,y,z
-x,y,-z
-x,-y,-z
x,-y,z
1/2+x,1/2+y,z
1/2-x,1/2+y,-z
1/2-x,1/2-y,-z
1/2+x,1/2-y,z
loop_
_atom_site_type_symbol
_atom_site_label
_atom_site_fract_x
_atom_site_fract_y
_atom_site_fract_z
Si Si1 0.995964 0.000000 0.747502
Si Si2 0.623377 0.114706 0.945697
Si Si3 0.500000 0.400665 0.500000
Si Si4 0.194006 0.816355 0.733580
Si Si5 0.269686 0.500000 0.910211
Si Si6 0.982138 0.265571 0.815542
O O1 0.986317 0.942724 0.637886
O O2 0.874578 0.000000 0.817038
O O3 0.139260 0.000000 0.899140
O O4 0.682722 0.060610 0.876888
O O5 0.555587 0.169987 0.829176
O O6 0.500000 0.091415 0.000000
O O7 0.737504 0.144830 0.103074
O O8 0.633000 0.359628 0.583225
O O9 0.065932 0.779829 0.748998
O O10 0.318334 0.774859 0.726172
O O11 0.000000 0.249599 0.000000
#
# Coordination Sequence:
#
# PCOD9196450 Si02
#       6
#     4   8   4   8   4   8
#     4  10  24  36  57  84 115 146 196 235 285 328
#     4   9  18  34  59  87 114 144 189 237 285 329
#     4  11  22  40  54  82 122 157 178 234 292 351
#     4  10  20  35  57  80 116 156 184 227 289 338
#     4  11  19  38  59  90 103 148 201 240 269 334
#     4   9  19  35  55  88 114 147 190 238 275 330
#
# _framework density 18.547436000000001
#
# number of rings (size 3 to 8) (size 9 to 14) (size 15 to 20)
#    0.000    2.667    2.222    3.000    0.000    4.444 
#    0.000    0.000    0.000    9.333    0.000    0.000 
#    0.000    0.000    0.000    0.000    0.000    0.000 
#
# Total GULP energy -100390.337465 kJ/mol
# GULP energy per Si atom -5577.240970 kJ/mol
# Density = 1.850522 g / cm^3
# Si number density = 18.547436 Si / 1000 Ang^3
#
#
#
# Elastic Constant Matrix: (Units=GPa)
#
#
# Indices 1 2 3 4 5 6 
#
# 1 93.9971 50.4220 29.6286 0.0000 7.4467 0.0000
# 2 50.4220 61.7024 26.0572 0.0000 -5.3786 0.0000
# 3 29.6286 26.0572 52.2575 0.0000 1.6001 0.0000
# 4 0.0000 0.0000 0.0000 3.4235 0.0000 30.5090
# 5 7.4467 -5.3786 1.6001 0.0000 15.0502 0.0000
# 6 0.0000 0.0000 0.0000 30.5090 0.0000 -49.9589
#
#
#
# Elastic Compliance Matrix: (Units=1/GPa)
#
#
# Indices 1 2 3 4 5 6 
#
# 1 0.023526 -0.019538 -0.003036 0.000000 -0.018300 0.000000
# 2 -0.019538 0.037887 -0.008552 0.000000 0.024117 0.000000
# 3 -0.003036 -0.008552 0.025252 0.000000 -0.004239 0.000000
# 4 0.000000 0.000000 0.000000 0.045342 0.000000 0.027689
# 5 -0.018300 0.024117 -0.004239 0.000000 0.084568 0.000000
# 6 0.000000 0.000000 0.000000 0.027689 0.000000 -0.003107
#
#
# Mechanical properties :
#
#
# Convention : Reuss Voigt Hill
#
# Bulk Modulus (GPa) = 40.96425 46.68585 43.82505
# Shear Modulus (GPa) = 17.61443 0.49290 9.05367
#
# Velocity S-wave (km/s) = 3.08506 0.51607 2.21178
# Velocity P-wave (km/s) = 5.90121 5.05775 5.49568
#
# Compressibility (1/GPa) = 0.02441153
#
# Stress axis : x y z
#
# Youngs Moduli (GPa) = 42.50598 26.39421 39.60143
#
# Poissons Ratio (x) = 0.51570 0.12023
# Poissons Ratio (y) = 0.83049 0.33869
# Poissons Ratio (z) = 0.12905 0.22574
#
# Static dielectric constant tensor:
#      x y z
#    x 1.629030 0.000000 0.020470 
#    y 0.000000 1.644360 0.000000 
#    z 0.020470 0.000000 1.642060 
# 
# From -- ./inp_files/39581.got.cif
#   From: 2010.05.17/outbox.cif.g08.bks.cpg/sg12_20_cif.got.tgz:39581.got - 2010.06.03 13:09:07.
