data_PCOD9196959
_publ_section_title
;
Structure prediction by ZEFSAII (Michael W. Deem and Ramdas Pophale) SiO2 
 PCOD9196959
Probable space group: C 2/M
;
_chemical_formula_sum "Si O2"
_cell_formula_units_Z 48
_cell_length_a 20.704347
_cell_length_b 7.561942
_cell_length_c 26.954454
_cell_angle_alpha 90.000000
_cell_angle_beta 30.148955
_cell_angle_gamma 90.000000
_cell_volume 2119.557283
_symmetry_space_group_name_H-M "C 2/M"
_symmetry_group_IT_number 12
_symmetry_cell_setting 'monoclinic'
loop_
_space_group_symop_operation_xyz
x,y,z
-x,y,-z
-x,-y,-z
x,-y,z
1/2+x,1/2+y,z
1/2-x,1/2+y,-z
1/2-x,1/2-y,-z
1/2+x,1/2-y,z
loop_
_atom_site_type_symbol
_atom_site_label
_atom_site_fract_x
_atom_site_fract_y
_atom_site_fract_z
Si Si1 0.347053 0.211587 0.890909
Si Si2 0.655563 0.785784 0.218099
Si Si3 0.904117 0.717704 0.218365
Si Si4 0.870310 0.794731 0.563947
Si Si5 0.912506 0.292375 0.101911
Si Si6 0.880554 0.710702 0.442862
O O1 0.311888 0.277329 0.859391
O O2 0.486916 0.275192 0.815620
O O3 0.354046 0.000000 0.881905
O O4 0.250000 0.250000 0.000000
O O5 0.764374 0.724719 0.184005
O O6 0.511611 0.728882 0.328731
O O7 0.658070 0.000000 0.217056
O O8 0.904408 0.500000 0.218596
O O9 0.763386 0.780693 0.327534
O O10 0.934682 0.778606 0.142284
O O11 0.873392 0.787382 0.502702
O O12 0.000000 0.713402 0.500000
O O13 0.868775 0.000000 0.581133
O O14 0.944548 0.500000 0.083815
O O15 0.000000 0.213858 0.000000
O O16 0.890381 0.500000 0.441208
O O17 0.750000 0.750000 0.500000
#
# Coordination Sequence:
#
# PCOD9196959 Si02
#       6
#     8   8   8   8   8   8
#     4  10  20  36  56  77 105 140 178 219 265 317
#     4  10  22  38  56  80 112 147 178 220 280 334
#     4   9  18  34  55  79 109 143 177 218 269 321
#     4  10  20  36  59  84 112 148 185 223 276 338
#     4  10  20  35  58  85 110 142 186 229 266 316
#     4  11  23  39  59  83 112 147 189 235 282 333
#
# _framework density 22.646239000000001
#
# number of rings (size 3 to 8) (size 9 to 14) (size 15 to 20)
#    0.000    2.000    0.000    3.500    0.000    8.000 
#    0.000    4.167    0.000    0.000    0.000    0.000 
#    0.000    0.000    0.000    0.000    0.000    0.000 
#
# Total GULP energy -134174.396856 kJ/mol
# GULP energy per Si atom -5590.599869 kJ/mol
# Density = 2.259470 g / cm^3
# Si number density = 22.646239 Si / 1000 Ang^3
#
#
#
# Elastic Constant Matrix: (Units=GPa)
#
#
# Indices 1 2 3 4 5 6 
#
# 1 70.2656 -16.7252 -30.5743 -0.0005 1.0762 0.0001
# 2 -16.7252 53.3224 -9.2808 -0.0020 0.9790 0.0009
# 3 -30.5743 -9.2808 59.6260 -0.0002 0.2751 0.0013
# 4 -0.0005 -0.0020 -0.0002 19.9199 0.0007 0.0145
# 5 1.0762 0.9790 0.2751 0.0007 43.8238 -0.0006
# 6 0.0001 0.0009 0.0013 0.0145 -0.0006 11.2228
#
#
#
# Elastic Compliance Matrix: (Units=1/GPa)
#
#
# Indices 1 2 3 4 5 6 
#
# 1 0.021916 0.009092 0.012657 0.000002 -0.000821 -0.000002
# 2 0.009092 0.023057 0.008255 0.000003 -0.000790 -0.000003
# 3 0.012657 0.008255 0.024549 0.000001 -0.000649 -0.000004
# 4 0.000002 0.000003 0.000001 0.050201 -0.000001 -0.000065
# 5 -0.000821 -0.000790 -0.000649 -0.000001 0.022861 0.000001
# 6 -0.000002 -0.000003 -0.000004 -0.000065 0.000001 0.089105
#
#
# Mechanical properties :
#
#
# Convention : Reuss Voigt Hill
#
# Bulk Modulus (GPa) = 7.72034 7.78372 7.75203
# Shear Modulus (GPa) = 23.27125 30.97957 27.12541
#
# Velocity S-wave (km/s) = 3.20910 3.70263 3.46466
# Velocity P-wave (km/s) = 4.14096 4.66089 4.40860
#
# Compressibility (1/GPa) = 0.12952791
#
# Stress axis : x y z
#
# Youngs Moduli (GPa) = 45.62950 43.37100 40.73498
#
# Poissons Ratio (x) = -0.39433 -0.51557
# Poissons Ratio (y) = -0.41487 -0.33625
# Poissons Ratio (z) = -0.57751 -0.35801
#
# Static dielectric constant tensor:
#      x y z
#    x 1.796980 0.000000 0.015570 
#    y 0.000000 1.864270 -0.000010 
#    z 0.015570 -0.000010 1.943070 
# 
# From -- ./inp_files/319559.got.cif
#   From: 2010.05.17/outbox.cif.g08.bks.cpg/sg12_160_cif.got.tgz:319559.got - 2010.06.03 13:09:07.
