data_PCOD9196932
_publ_section_title
;
Structure prediction by ZEFSAII (Michael W. Deem and Ramdas Pophale) SiO2 
 PCOD9196932
Probable space group: C 2/M
;
_chemical_formula_sum "Si O2"
_cell_formula_units_Z 56
_cell_length_a 33.730101
_cell_length_b 15.343044
_cell_length_c 13.127870
_cell_angle_alpha 90.000000
_cell_angle_beta 24.802336
_cell_angle_gamma 90.000000
_cell_volume 2849.995097
_symmetry_space_group_name_H-M "C 2/M"
_symmetry_group_IT_number 12
_symmetry_cell_setting 'monoclinic'
loop_
_space_group_symop_operation_xyz
x,y,z
-x,y,-z
-x,-y,-z
x,-y,z
1/2+x,1/2+y,z
1/2-x,1/2+y,-z
1/2-x,1/2-y,-z
1/2+x,1/2-y,z
loop_
_atom_site_type_symbol
_atom_site_label
_atom_site_fract_x
_atom_site_fract_y
_atom_site_fract_z
Si Si1 0.889631 0.743232 0.737393
Si Si2 0.081681 0.838356 0.528001
Si Si3 0.780545 0.599100 0.113872
Si Si4 0.615579 0.399260 0.097393
Si Si5 0.218034 0.395598 0.444835
Si Si6 0.845273 0.395116 0.186884
Si Si7 0.467422 0.204240 0.189305
O O1 0.880566 0.766218 0.640367
O O2 0.865127 0.830731 0.857978
O O3 0.000000 0.724570 0.500000
O O4 0.830495 0.663503 0.918552
O O5 0.169226 0.897849 0.353054
O O6 0.046241 0.787602 0.709227
O O7 0.992997 0.885868 0.682979
O O8 0.815461 0.500000 0.022649
O O9 0.801846 0.630967 0.179600
O O10 0.630801 0.500000 0.091820
O O11 0.685085 0.378078 0.840864
O O12 0.202301 0.500000 0.477250
O O13 0.214669 0.370142 0.572346
O O14 0.130622 0.348077 0.593990
O O15 0.851637 0.500000 0.172213
O O16 0.949165 0.354955 0.958534
O O17 0.500000 0.228050 0.000000
#
# Coordination Sequence:
#
# PCOD9196932 Si02
#       7
#     8   8   8   8   8   8   8
#     4  10  22  40  60  82 112 146 190 242 280 324
#     4  11  23  38  55  82 117 150 187 231 275 332
#     4  11  23  39  59  83 116 155 187 225 284 344
#     4  10  21  38  61  86 113 149 191 234 280 329
#     4   9  18  34  57  84 112 144 189 242 284 325
#     4   9  18  34  56  83 114 147 187 236 287 335
#     4  10  20  35  58  84 111 148 190 233 285 337
#
# _framework density 19.649156999999999
#
# number of rings (size 3 to 8) (size 9 to 14) (size 15 to 20)
#    0.000    2.000    0.000    3.857    0.000    6.286 
#    0.000    6.429    0.000    4.286    0.000    0.000 
#    0.000    0.000    0.000    0.000    0.000    0.000 
#
# Total GULP energy -156419.260833 kJ/mol
# GULP energy per Si atom -5586.402173 kJ/mol
# Density = 1.960443 g / cm^3
# Si number density = 19.649157 Si / 1000 Ang^3
#
#
#
# Elastic Constant Matrix: (Units=GPa)
#
#
# Indices 1 2 3 4 5 6 
#
# 1 61.4464 9.7282 12.3647 0.0000 -6.8779 0.0000
# 2 9.7282 52.1411 26.1778 0.0000 5.3478 0.0000
# 3 12.3647 26.1778 85.8026 0.0000 2.1089 0.0000
# 4 0.0000 0.0000 0.0000 10.3172 0.0000 9.1170
# 5 -6.8779 5.3478 2.1089 0.0000 9.8263 0.0000
# 6 0.0000 0.0000 0.0000 9.1170 0.0000 10.3622
#
#
#
# Elastic Compliance Matrix: (Units=1/GPa)
#
#
# Indices 1 2 3 4 5 6 
#
# 1 0.019130 -0.004298 -0.001842 0.000000 0.016125 0.000000
# 2 -0.004298 0.024838 -0.006587 0.000000 -0.015112 0.000000
# 3 -0.001842 -0.006587 0.013947 0.000000 -0.000697 0.000000
# 4 0.000000 0.000000 0.000000 0.435559 0.000000 -0.383216
# 5 0.016125 -0.015112 -0.000697 0.000000 0.121428 0.000000
# 6 0.000000 0.000000 0.000000 -0.383216 0.000000 0.433668
#
#
# Mechanical properties :
#
#
# Convention : Reuss Voigt Hill
#
# Bulk Modulus (GPa) = 30.80644 32.88131 31.84387
# Shear Modulus (GPa) = 4.60896 16.17578 10.39237
#
# Velocity S-wave (km/s) = 1.53321 2.87231 2.30227
# Velocity P-wave (km/s) = 4.34126 5.26980 4.82791
#
# Compressibility (1/GPa) = 0.03246075
#
# Stress axis : x y z
#
# Youngs Moduli (GPa) = 52.27291 40.26129 71.70083
#
# Poissons Ratio (x) = 0.17306 0.13205
# Poissons Ratio (y) = 0.22469 0.47229
# Poissons Ratio (z) = 0.09627 0.26520
#
# Static dielectric constant tensor:
#      x y z
#    x 1.685100 0.000000 0.004740 
#    y 0.000000 1.663370 0.000000 
#    z 0.004740 0.000000 1.681290 
# 
# From -- ./inp_files/189643.got.cif
#   From: 2010.05.17/outbox.cif.g08.bks.cpg/sg12_95_cif.got.tgz:189643.got - 2010.06.03 13:09:07.
