data_PCOD9196726
_publ_section_title
;
Structure prediction by ZEFSAII (Michael W. Deem and Ramdas Pophale) SiO2 
 PCOD9196726
Probable space group: C 2/M
;
_chemical_formula_sum "Si O2"
_cell_formula_units_Z 64
_cell_length_a 16.319195
_cell_length_b 9.212593
_cell_length_c 20.447470
_cell_angle_alpha 90.000000
_cell_angle_beta 97.676111
_cell_angle_gamma 90.000000
_cell_volume 3046.568395
_symmetry_space_group_name_H-M "C 2/M"
_symmetry_group_IT_number 12
_symmetry_cell_setting 'monoclinic'
loop_
_space_group_symop_operation_xyz
x,y,z
-x,y,-z
-x,-y,-z
x,-y,z
1/2+x,1/2+y,z
1/2-x,1/2+y,-z
1/2-x,1/2-y,-z
1/2+x,1/2-y,z
loop_
_atom_site_type_symbol
_atom_site_label
_atom_site_fract_x
_atom_site_fract_y
_atom_site_fract_z
Si Si1 0.505310 0.825974 0.708475
Si Si2 0.954482 0.834418 0.923081
Si Si3 0.772498 0.825879 0.434270
Si Si4 0.678195 0.824148 0.292371
Si Si5 0.830292 0.174855 0.216195
Si Si6 0.056354 0.670752 0.568805
Si Si7 0.318494 0.839441 0.969354
Si Si8 0.902628 0.661991 0.114283
O O1 0.416445 0.775345 0.726460
O O2 0.586001 0.742692 0.743653
O O3 0.506206 0.806399 0.630172
O O4 0.513088 0.000000 0.719980
O O5 0.868397 0.750682 0.921515
O O6 0.012423 0.749965 0.878652
O O7 0.942411 0.000000 0.902198
O O8 0.000000 0.839483 0.000000
O O9 0.750000 0.750000 0.500000
O O10 0.710962 0.785512 0.368354
O O11 0.863034 0.770419 0.423504
O O12 0.770803 0.000000 0.441182
O O13 0.748789 0.779970 0.247951
O O14 0.676108 0.000000 0.289480
O O15 0.833939 0.244051 0.144316
O O16 0.834907 0.000000 0.215313
O O17 0.081244 0.500000 0.569010
O O18 0.000000 0.699896 0.500000
O O19 0.292370 0.000000 0.944663
O O20 0.250000 0.750000 0.000000
O O21 0.382327 0.856606 0.036181
O O22 0.908079 0.500000 0.142629
#
# Coordination Sequence:
#
# PCOD9196726 Si02
#       8
#     8   8   8   8   8   8   8   8
#     4  10  20  38  62  84 113 155 199 243 299 365
#     4   9  17  32  56  83 111 145 185 230 281 336
#     4  11  21  36  57  84 118 152 194 245 302 361
#     4   9  20  39  61  83 115 156 196 243 301 361
#     4  11  22  40  62  86 118 157 202 252 301 353
#     4  10  20  35  57  85 117 153 196 243 299 363
#     4  10  20  35  57  86 122 158 195 240 289 342
#     4  10  21  38  59  85 116 155 198 239 286 346
#
# _framework density 21.007241
#
# number of rings (size 3 to 8) (size 9 to 14) (size 15 to 20)
#    0.000    2.000    1.250    2.625    0.000    5.250 
#    2.250    3.750    0.000    0.000    0.000    0.000 
#    0.000    0.000    0.000    0.000    0.000    0.000 
#
# Total GULP energy -178616.571207 kJ/mol
# GULP energy per Si atom -5581.767850 kJ/mol
# Density = 2.095943 g / cm^3
# Si number density = 21.007241 Si / 1000 Ang^3
#
#
#
# Elastic Constant Matrix: (Units=GPa)
#
#
# Indices 1 2 3 4 5 6 
#
# 1 129.5628 52.3429 22.4044 0.0000 -30.6262 0.0000
# 2 52.3429 114.6904 6.5909 0.0000 -19.0661 0.0000
# 3 22.4044 6.5909 51.1774 0.0000 -6.8472 0.0000
# 4 0.0000 0.0000 0.0000 24.8362 0.0000 -4.5875
# 5 -30.6262 -19.0661 -6.8472 0.0000 36.9381 0.0000
# 6 0.0000 0.0000 0.0000 -4.5875 0.0000 32.9840
#
#
#
# Elastic Compliance Matrix: (Units=1/GPa)
#
#
# Indices 1 2 3 4 5 6 
#
# 1 0.011559 -0.003922 -0.003634 0.000000 0.006886 0.000000
# 2 -0.003922 0.010885 0.000648 0.000000 0.002487 0.000000
# 3 -0.003634 0.000648 0.021215 0.000000 0.001254 0.000000
# 4 0.000000 0.000000 0.000000 0.041325 0.000000 0.005748
# 5 0.006886 0.002487 0.001254 0.000000 0.034298 0.000000
# 6 0.000000 0.000000 0.000000 0.005748 0.000000 0.031117
#
#
# Mechanical properties :
#
#
# Convention : Reuss Voigt Hill
#
# Bulk Modulus (GPa) = 33.50837 50.90078 42.20458
# Shear Modulus (GPa) = 28.70884 33.22447 30.96666
#
# Velocity S-wave (km/s) = 3.70079 3.98121 3.84356
# Velocity P-wave (km/s) = 5.85206 6.73915 6.31121
#
# Compressibility (1/GPa) = 0.02984329
#
# Stress axis : x y z
#
# Youngs Moduli (GPa) = 86.51550 91.86838 47.13632
#
# Poissons Ratio (x) = 0.36028 0.17128
# Poissons Ratio (y) = 0.33929 -0.03053
# Poissons Ratio (z) = 0.31438 -0.05950
#
# Static dielectric constant tensor:
#      x y z
#    x 1.759320 0.000000 0.042470 
#    y 0.000000 1.834190 0.000000 
#    z 0.042470 0.000000 1.834120 
# 
# From -- ./inp_files/314005.got.cif
#   From: 2010.05.17/outbox.cif.g08.bks.cpg/sg12_158_cif.got.tgz:314005.got - 2010.06.03 13:09:07.
