data_PCOD9196961
_publ_section_title
;
Structure prediction by ZEFSAII (Michael W. Deem and Ramdas Pophale) SiO2 
 PCOD9196961
Probable space group: C 2/M
;
_chemical_formula_sum "Si O2"
_cell_formula_units_Z 56
_cell_length_a 19.146898
_cell_length_b 9.368746
_cell_length_c 24.938775
_cell_angle_alpha 90.000000
_cell_angle_beta 134.622504
_cell_angle_gamma 90.000000
_cell_volume 3184.070006
_symmetry_space_group_name_H-M "C 2/M"
_symmetry_group_IT_number 12
_symmetry_cell_setting 'monoclinic'
loop_
_space_group_symop_operation_xyz
x,y,z
-x,y,-z
-x,-y,-z
x,-y,z
1/2+x,1/2+y,z
1/2-x,1/2+y,-z
1/2-x,1/2-y,-z
1/2+x,1/2-y,z
loop_
_atom_site_type_symbol
_atom_site_label
_atom_site_fract_x
_atom_site_fract_y
_atom_site_fract_z
Si Si1 0.908063 0.831957 0.410669
Si Si2 0.018229 0.657737 0.072480
Si Si3 0.984268 0.670909 0.755782
Si Si4 0.707407 0.342633 0.189387
Si Si5 0.853523 0.328056 0.066112
Si Si6 0.079217 0.672112 0.694632
Si Si7 0.714734 0.337471 0.321663
O O1 0.812964 0.754285 0.385341
O O2 0.000000 0.820413 0.500000
O O3 0.935003 0.755846 0.368595
O O4 0.886426 0.000000 0.389864
O O5 0.038328 0.500000 0.105892
O O6 0.114008 0.749498 0.129635
O O7 0.924574 0.711052 0.054614
O O8 0.000000 0.648434 0.000000
O O9 0.968333 0.500000 0.753646
O O10 0.008042 0.699056 0.706077
O O11 0.886331 0.757329 0.718404
O O12 0.078526 0.706655 0.844828
O O13 0.692237 0.500000 0.158286
O O14 0.717327 0.350665 0.258742
O O15 0.811766 0.287104 0.225896
O O16 0.837111 0.500000 0.057830
O O17 0.750000 0.250000 0.000000
O O18 0.080747 0.500000 0.685065
O O19 0.718249 0.500000 0.345497
#
# Coordination Sequence:
#
# PCOD9196961 Si02
#       7
#     8   8   8   8   8   8   8
#     4  10  21  38  61  88 116 146 181 221 270 331
#     4  10  21  35  50  72 102 137 182 230 277 328
#     4  10  20  37  58  80 113 151 188 233 282 333
#     4   9  18  33  52  75 101 135 180 226 271 324
#     4  10  22  37  53  75 108 147 186 232 285 334
#     4   9  20  36  56  84 113 143 184 228 275 327
#     4  10  20  35  58  85 111 143 185 227 272 329
#
# _framework density 17.587553
#
# number of rings (size 3 to 8) (size 9 to 14) (size 15 to 20)
#    0.000    2.286    1.429    1.714    2.000    5.429 
#    0.000    0.714    0.000    0.000    0.000    0.000 
#    0.000    0.000    0.000    0.000    0.000    0.000 
#
# Total GULP energy -155941.916665 kJ/mol
# GULP energy per Si atom -5569.354167 kJ/mol
# Density = 1.754752 g / cm^3
# Si number density = 17.587553 Si / 1000 Ang^3
#
#
#
# Elastic Constant Matrix: (Units=GPa)
#
#
# Indices 1 2 3 4 5 6 
#
# 1 99.8901 38.3408 36.1945 0.0000 6.6844 0.0000
# 2 38.3408 73.5634 55.4108 0.0000 12.2390 0.0000
# 3 36.1945 55.4108 89.7029 0.0000 16.2887 0.0000
# 4 0.0000 0.0000 0.0000 29.8022 0.0000 5.5982
# 5 6.6844 12.2390 16.2887 0.0000 22.2126 0.0000
# 6 0.0000 0.0000 0.0000 5.5982 0.0000 23.1496
#
#
#
# Elastic Compliance Matrix: (Units=1/GPa)
#
#
# Indices 1 2 3 4 5 6 
#
# 1 0.012697 -0.005187 -0.002012 0.000000 0.000513 0.000000
# 2 -0.005187 0.027702 -0.014456 0.000000 -0.003102 0.000000
# 3 -0.002012 -0.014456 0.022303 0.000000 -0.007784 0.000000
# 4 0.000000 0.000000 0.000000 0.035151 0.000000 -0.008501
# 5 0.000513 -0.003102 -0.007784 0.000000 0.052283 0.000000
# 6 0.000000 0.000000 0.000000 -0.008501 0.000000 0.045253
#
#
# Mechanical properties :
#
#
# Convention : Reuss Voigt Hill
#
# Bulk Modulus (GPa) = 51.56810 58.11653 54.84232
# Shear Modulus (GPa) = 20.39469 23.91357 22.15413
#
# Velocity S-wave (km/s) = 3.40900 3.69139 3.55300
# Velocity P-wave (km/s) = 6.69921 7.16131 6.93411
#
# Compressibility (1/GPa) = 0.01939183
#
# Stress axis : x y z
#
# Youngs Moduli (GPa) = 78.76037 36.09857 44.83782
#
# Poissons Ratio (x) = 0.18726 0.09021
# Poissons Ratio (y) = 0.40856 0.64815
# Poissons Ratio (z) = 0.15845 0.52182
#
# Static dielectric constant tensor:
#      x y z
#    x 1.581760 0.000000 0.041980 
#    y 0.000000 1.650230 0.000000 
#    z 0.041980 0.000000 1.459080 
# 
# From -- ./inp_files/342337.got.cif
#   From: 2010.05.17/outbox.cif.g08.bks.cpg/sg12_172_cif.got.tgz:342337.got - 2010.06.03 13:09:07.
