data_PCOD9196996
_publ_section_title
;
Structure prediction by ZEFSAII (Michael W. Deem and Ramdas Pophale) SiO2 
 PCOD9196996
Probable space group: C 2/M
;
_chemical_formula_sum "Si O2"
_cell_formula_units_Z 64
_cell_length_a 24.157209
_cell_length_b 11.446835
_cell_length_c 12.487161
_cell_angle_alpha 90.000000
_cell_angle_beta 103.557710
_cell_angle_gamma 90.000000
_cell_volume 3356.774402
_symmetry_space_group_name_H-M "C 2/M"
_symmetry_group_IT_number 12
_symmetry_cell_setting 'monoclinic'
loop_
_space_group_symop_operation_xyz
x,y,z
-x,y,-z
-x,-y,-z
x,-y,z
1/2+x,1/2+y,z
1/2-x,1/2+y,-z
1/2-x,1/2-y,-z
1/2+x,1/2-y,z
loop_
_atom_site_type_symbol
_atom_site_label
_atom_site_fract_x
_atom_site_fract_y
_atom_site_fract_z
Si Si1 0.683851 0.201082 0.364119
Si Si2 0.734753 0.364268 0.204689
Si Si3 0.528193 0.136430 0.622854
Si Si4 0.559074 0.630905 0.090371
Si Si5 0.311313 0.373580 0.445313
Si Si6 0.835189 0.134967 0.024573
Si Si7 0.647526 0.249570 0.739342
Si Si8 0.435596 0.869809 0.769772
O O1 0.700551 0.291584 0.277511
O O2 0.670411 0.272406 0.465638
O O3 0.742505 0.132065 0.409491
O O4 0.628512 0.131313 0.304874
O O5 0.720245 0.500000 0.207442
O O6 0.801661 0.344202 0.252110
O O7 0.715462 0.324497 0.077385
O O8 0.500000 0.181426 0.500000
O O9 0.585359 0.202019 0.683708
O O10 0.481353 0.141088 0.695306
O O11 0.543040 0.000000 0.611722
O O12 0.564219 0.500000 0.145742
O O13 0.560117 0.749907 0.160082
O O14 0.500000 0.630527 0.000000
O O15 0.609921 0.638329 0.027649
O O16 0.329384 0.500000 0.493430
O O17 0.335853 0.348625 0.339168
O O18 0.847152 0.205712 0.137132
O O19 0.823899 0.000000 0.049463
O O20 0.444936 0.000000 0.825162
#
# Coordination Sequence:
#
# PCOD9196996 Si02
#       8
#     8   8   8   8   8   8   8   8
#     4  10  20  36  58  84 117 153 195 243 302 364
#     4  10  20  35  58  85 115 156 202 245 296 362
#     4  10  22  40  60  83 116 157 198 243 298 359
#     4  10  21  38  60  85 116 160 203 238 290 357
#     4  10  21  35  56  86 118 153 195 248 303 353
#     4  10  20  36  57  82 118 158 196 240 296 359
#     4  11  21  36  58  84 119 153 199 246 299 359
#     4  11  22  38  62  88 117 151 196 251 299 344
#
# _framework density 19.065922
#
# number of rings (size 3 to 8) (size 9 to 14) (size 15 to 20)
#    0.000    1.750    1.250    3.375    0.000    0.750 
#    0.000    5.625    0.000    2.625    0.000    0.000 
#    0.000    0.000    0.000    0.000    0.000    0.000 
#
# Total GULP energy -178496.771565 kJ/mol
# GULP energy per Si atom -5578.024111 kJ/mol
# Density = 1.902253 g / cm^3
# Si number density = 19.065922 Si / 1000 Ang^3
#
#
#
# Elastic Constant Matrix: (Units=GPa)
#
#
# Indices 1 2 3 4 5 6 
#
# 1 89.1114 19.0366 18.3905 0.0000 11.8381 0.0000
# 2 19.0366 100.8660 40.2883 0.0000 -1.6766 0.0000
# 3 18.3905 40.2883 84.1796 0.0000 3.2752 0.0000
# 4 0.0000 0.0000 0.0000 -20.5340 0.0000 18.0127
# 5 11.8381 -1.6766 3.2752 0.0000 28.5693 0.0000
# 6 0.0000 0.0000 0.0000 18.0127 0.0000 5.7626
#
#
#
# Elastic Compliance Matrix: (Units=1/GPa)
#
#
# Indices 1 2 3 4 5 6 
#
# 1 0.012640 -0.001790 -0.001704 0.000000 -0.005147 0.000000
# 2 -0.001790 0.012567 -0.005706 0.000000 0.002134 0.000000
# 3 -0.001704 -0.005706 0.015035 0.000000 -0.001352 0.000000
# 4 0.000000 0.000000 0.000000 -0.013014 0.000000 0.040680
# 5 -0.005147 0.002134 -0.001352 0.000000 0.037416 0.000000
# 6 0.000000 0.000000 0.000000 0.040680 0.000000 0.046375
#
#
# Mechanical properties :
#
#
# Convention : Reuss Voigt Hill
#
# Bulk Modulus (GPa) = 45.78743 47.73201 46.75972
# Shear Modulus (GPa) = 36.57650 15.85567 26.21609
#
# Velocity S-wave (km/s) = 4.38473 2.88692 3.71215
# Velocity P-wave (km/s) = 7.04996 6.01681 6.55378
#
# Compressibility (1/GPa) = 0.02184005
#
# Stress axis : x y z
#
# Youngs Moduli (GPa) = 79.11464 79.57509 66.50998
#
# Poissons Ratio (x) = 0.14247 0.11335
# Poissons Ratio (y) = 0.14164 0.37953
# Poissons Ratio (z) = 0.13483 0.45408
#
# Static dielectric constant tensor:
#      x y z
#    x 1.654520 0.000000 0.015490 
#    y 0.000000 1.671310 0.000000 
#    z 0.015490 0.000000 1.659370 
# 
# From -- ./inp_files/174733.got.cif
#   From: 2010.05.17/outbox.cif.g08.bks.cpg/sg12_88_cif.got.tgz:174733.got - 2010.06.03 13:09:07.
