data_PCOD9196365
_publ_section_title
;
Structure prediction by ZEFSAII (Michael W. Deem and Ramdas Pophale) SiO2 
 PCOD9196365
Probable space group: C 2/M
;
_chemical_formula_sum "Si O2"
_cell_formula_units_Z 56
_cell_length_a 15.006174
_cell_length_b 28.473434
_cell_length_c 11.836733
_cell_angle_alpha 90.000000
_cell_angle_beta 33.901154
_cell_angle_gamma 90.000000
_cell_volume 2820.918016
_symmetry_space_group_name_H-M "C 2/M"
_symmetry_group_IT_number 12
_symmetry_cell_setting 'monoclinic'
loop_
_space_group_symop_operation_xyz
x,y,z
-x,y,-z
-x,-y,-z
x,-y,z
1/2+x,1/2+y,z
1/2-x,1/2+y,-z
1/2-x,1/2-y,-z
1/2+x,1/2-y,z
loop_
_atom_site_type_symbol
_atom_site_label
_atom_site_fract_x
_atom_site_fract_y
_atom_site_fract_z
Si Si1 0.191035 0.709675 0.301996
Si Si2 0.881175 0.136362 0.232366
Si Si3 0.686097 0.584233 0.342775
Si Si4 0.814850 0.849904 0.960489
Si Si5 0.191091 0.814788 0.283569
Si Si6 0.790818 0.552356 0.474127
Si Si7 0.329258 0.946641 0.957087
O O1 0.264561 0.678964 0.324972
O O2 0.254136 0.763037 0.243455
O O3 0.000000 0.710067 0.500000
O O4 0.244724 0.682741 0.132098
O O5 0.779931 0.090769 0.367726
O O6 0.995955 0.147825 0.216538
O O7 0.000000 0.129531 0.000000
O O8 0.500000 0.584206 0.500000
O O9 0.743151 0.638517 0.295359
O O10 0.712001 0.558977 0.433680
O O11 0.782158 0.561225 0.137952
O O12 0.776211 0.827535 0.880868
O O13 0.752608 0.903669 0.024139
O O14 0.000000 0.811965 0.500000
O O15 0.757981 0.500000 0.550312
O O16 0.980873 0.557751 0.258375
O O17 0.281515 0.000000 0.974818
#
# Coordination Sequence:
#
# PCOD9196365 Si02
#       7
#     8   8   8   8   8   8   8
#     4  10  20  37  57  79 110 146 182 223 272 320
#     4  10  22  38  57  81 110 142 186 232 269 318
#     4  10  20  35  56  85 117 145 180 223 270 329
#     4  10  20  37  58  80 110 143 183 228 269 322
#     4   9  18  34  56  82 110 142 179 221 271 324
#     4  11  22  37  56  80 112 147 184 226 275 328
#     4  10  21  36  56  83 112 144 181 225 278 331
#
# _framework density 19.851693000000001
#
# number of rings (size 3 to 8) (size 9 to 14) (size 15 to 20)
#    0.000    2.000    0.000    4.714    0.000    4.286 
#    0.000   18.571    0.000    7.714    0.000    0.000 
#    0.000    0.000    0.000    0.000    0.000    0.000 
#
# Total GULP energy -156316.482445 kJ/mol
# GULP energy per Si atom -5582.731516 kJ/mol
# Density = 1.980651 g / cm^3
# Si number density = 19.851693 Si / 1000 Ang^3
#
#
#
# Elastic Constant Matrix: (Units=GPa)
#
#
# Indices 1 2 3 4 5 6 
#
# 1 40.0966 25.4102 -4.5987 0.0000 -18.1436 0.0000
# 2 25.4102 164.7932 34.9961 0.0000 -15.9163 0.0000
# 3 -4.5987 34.9961 52.8914 0.0000 -7.6193 0.0000
# 4 0.0000 0.0000 0.0000 15.9377 0.0000 -5.4461
# 5 -18.1436 -15.9163 -7.6193 0.0000 19.2803 0.0000
# 6 0.0000 0.0000 0.0000 -5.4461 0.0000 16.3514
#
#
#
# Elastic Compliance Matrix: (Units=1/GPa)
#
#
# Indices 1 2 3 4 5 6 
#
# 1 0.055385 -0.007052 0.017126 0.000000 0.053066 0.000000
# 2 -0.007052 0.008298 -0.006439 0.000000 -0.002331 0.000000
# 3 0.017126 -0.006439 0.027794 0.000000 0.021784 0.000000
# 4 0.000000 0.000000 0.000000 0.070802 0.000000 0.023582
# 5 0.053066 -0.002331 0.021784 0.000000 0.108489 0.000000
# 6 0.000000 0.000000 0.000000 0.023582 0.000000 0.069011
#
#
# Mechanical properties :
#
#
# Convention : Reuss Voigt Hill
#
# Bulk Modulus (GPa) = 10.12687 41.04406 25.58546
# Shear Modulus (GPa) = 13.68267 23.77880 18.73074
#
# Velocity S-wave (km/s) = 2.62819 3.46471 3.07503
# Velocity P-wave (km/s) = 3.78447 6.06019 5.05213
#
# Compressibility (1/GPa) = 0.09874722
#
# Stress axis : x y z
#
# Youngs Moduli (GPa) = 18.05539 120.51222 35.97843
#
# Poissons Ratio (x) = 0.84981 -0.61616
# Poissons Ratio (y) = 0.12732 0.23167
# Poissons Ratio (z) = -0.30921 0.77601
#
# Static dielectric constant tensor:
#      x y z
#    x 1.693260 0.000000 -0.003250 
#    y 0.000000 1.713540 0.000000 
#    z -0.003250 0.000000 1.698860 
# 
# From -- ./inp_files/150449.got.cif
#   From: 2010.05.17/outbox.cif.g08.bks.cpg/sg12_76_cif.got.tgz:150449.got - 2010.06.03 13:09:07.
