data_PCOD9196362
_publ_section_title
;
Structure prediction by ZEFSAII (Michael W. Deem and Ramdas Pophale) SiO2 
 PCOD9196362
Probable space group: C 2/M
;
_chemical_formula_sum "Si O2"
_cell_formula_units_Z 56
_cell_length_a 9.794914
_cell_length_b 21.592690
_cell_length_c 15.614545
_cell_angle_alpha 90.000000
_cell_angle_beta 63.413005
_cell_angle_gamma 90.000000
_cell_volume 2953.238345
_symmetry_space_group_name_H-M "C 2/M"
_symmetry_group_IT_number 12
_symmetry_cell_setting 'monoclinic'
loop_
_space_group_symop_operation_xyz
x,y,z
-x,y,-z
-x,-y,-z
x,-y,z
1/2+x,1/2+y,z
1/2-x,1/2+y,-z
1/2-x,1/2-y,-z
1/2+x,1/2-y,z
loop_
_atom_site_type_symbol
_atom_site_label
_atom_site_fract_x
_atom_site_fract_y
_atom_site_fract_z
Si Si1 0.917405 0.625826 0.161523
Si Si2 0.928557 0.244158 0.928173
Si Si3 0.734611 0.928173 0.091303
Si Si4 0.130443 0.118501 0.118305
Si Si5 0.818904 0.929093 0.252125
Si Si6 0.785846 0.074976 0.634333
Si Si7 0.638524 0.575005 0.576218
O O1 0.787528 0.616519 0.126329
O O2 0.833926 0.611317 0.274180
O O3 0.993322 0.693443 0.128593
O O4 0.059043 0.579315 0.114039
O O5 0.940441 0.187194 0.859724
O O6 0.750000 0.250000 0.000000
O O7 0.000000 0.230012 0.000000
O O8 0.755545 0.901199 0.181289
O O9 0.779742 0.000000 0.081179
O O10 0.833651 0.896104 0.990451
O O11 0.002396 0.072680 0.189452
O O12 0.792321 0.901169 0.353771
O O13 0.762362 0.000000 0.269867
O O14 0.779320 0.091422 0.535579
O O15 0.958684 0.090111 0.616552
O O16 0.765241 0.000000 0.649064
O O17 0.642704 0.500000 0.579379
#
# Coordination Sequence:
#
# PCOD9196362 Si02
#       7
#     8   8   8   8   8   8   8
#     4  12  23  37  56  84 110 147 192 239 285 331
#     4  12  23  41  57  78 109 150 200 237 276 333
#     4  11  23  35  51  83 123 151 178 228 286 339
#     4  12  23  37  58  78 110 152 193 236 272 334
#     4  10  20  35  56  85 116 152 187 219 279 344
#     4   9  17  32  57  89 117 143 183 235 282 333
#     4   8  15  31  57  86 115 147 186 227 273 340
#
# _framework density 18.962236000000001
#
# number of rings (size 3 to 8) (size 9 to 14) (size 15 to 20)
#    0.000    1.429    4.286    3.429    0.000    3.429 
#    0.000    0.714    0.000    4.286    0.000    0.000 
#    0.000    0.000    0.000    0.000    0.000    0.000 
#
# Total GULP energy -156184.875700 kJ/mol
# GULP energy per Si atom -5578.031275 kJ/mol
# Density = 1.891908 g / cm^3
# Si number density = 18.962236 Si / 1000 Ang^3
#
#
#
# Elastic Constant Matrix: (Units=GPa)
#
#
# Indices 1 2 3 4 5 6 
#
# 1 79.4495 8.9725 22.8250 0.0000 17.4532 0.0000
# 2 8.9725 38.9927 16.8305 0.0000 0.7473 0.0000
# 3 22.8250 16.8305 123.4443 0.0000 18.3036 0.0000
# 4 0.0000 0.0000 0.0000 15.7435 0.0000 -3.6933
# 5 17.4532 0.7473 18.3036 0.0000 34.0382 0.0000
# 6 0.0000 0.0000 0.0000 -3.6933 0.0000 23.1824
#
#
#
# Elastic Compliance Matrix: (Units=1/GPa)
#
#
# Indices 1 2 3 4 5 6 
#
# 1 0.014770 -0.002682 -0.001360 0.000000 -0.006784 0.000000
# 2 -0.002682 0.027809 -0.003704 0.000000 0.002757 0.000000
# 3 -0.001360 -0.003704 0.009499 0.000000 -0.004330 0.000000
# 4 0.000000 0.000000 0.000000 0.065984 0.000000 0.010512
# 5 -0.006784 0.002757 -0.004330 0.000000 0.035125 0.000000
# 6 0.000000 0.000000 0.000000 0.010512 0.000000 0.044811
#
#
# Mechanical properties :
#
#
# Convention : Reuss Voigt Hill
#
# Bulk Modulus (GPa) = 27.33218 37.68248 32.50733
# Shear Modulus (GPa) = 22.15470 27.47674 24.81572
#
# Velocity S-wave (km/s) = 3.42184 3.81073 3.62151
# Velocity P-wave (km/s) = 5.48245 6.26720 5.88791
#
# Compressibility (1/GPa) = 0.03658691
#
# Stress axis : x y z
#
# Youngs Moduli (GPa) = 67.70359 35.95953 105.27167
#
# Poissons Ratio (x) = 0.09644 0.14312
# Poissons Ratio (y) = 0.18157 0.38996
# Poissons Ratio (z) = 0.09205 0.13321
#
# Static dielectric constant tensor:
#      x y z
#    x 1.662660 0.000000 0.020680 
#    y 0.000000 1.682790 0.000000 
#    z 0.020680 0.000000 1.686430 
# 
# From -- ./inp_files/198399.got.cif
#   From: 2010.05.17/outbox.cif.g08.bks.cpg/sg12_100_cif.got.tgz:198399.got - 2010.06.03 13:09:07.
