data_PCOD9196756
_publ_section_title
;
Structure prediction by ZEFSAII (Michael W. Deem and Ramdas Pophale) SiO2 
 PCOD9196756
Probable space group: C 2/M
;
_chemical_formula_sum "Si O2"
_cell_formula_units_Z 32
_cell_length_a 7.762504
_cell_length_b 12.750143
_cell_length_c 14.608415
_cell_angle_alpha 90.000000
_cell_angle_beta 101.125555
_cell_angle_gamma 90.000000
_cell_volume 1418.667092
_symmetry_space_group_name_H-M "C 2/M"
_symmetry_group_IT_number 12
_symmetry_cell_setting 'monoclinic'
loop_
_space_group_symop_operation_xyz
x,y,z
-x,y,-z
-x,-y,-z
x,-y,z
1/2+x,1/2+y,z
1/2-x,1/2+y,-z
1/2-x,1/2-y,-z
1/2+x,1/2-y,z
loop_
_atom_site_type_symbol
_atom_site_label
_atom_site_fract_x
_atom_site_fract_y
_atom_site_fract_z
Si Si1 0.398029 0.190882 0.072597
Si Si2 0.185179 0.338333 0.623592
Si Si3 0.618886 0.614575 0.176271
Si Si4 0.278305 0.886040 0.584519
O O1 0.507436 0.283681 0.134210
O O2 0.298872 0.121587 0.136234
O O3 0.500000 0.134855 0.000000
O O4 0.250000 0.250000 0.000000
O O5 0.321012 0.375380 0.713124
O O6 0.184342 0.211866 0.621049
O O7 0.238711 0.373956 0.527149
O O8 0.987806 0.376432 0.622782
O O9 0.534956 0.500000 0.150701
O O10 0.215157 0.000000 0.607472
#
# Coordination Sequence:
#
# PCOD9196756 Si02
#       4
#     8   8   8   8
#     4   9  21  39  57  83 112 139 184 233 280 348
#     4  10  20  35  57  86 114 151 198 232 271 336
#     4  11  21  37  61  84 113 149 187 235 284 331
#     4  10  20  37  56  79 121 159 187 232 281 323
#
# _framework density 22.556384000000001
#
# number of rings (size 3 to 8) (size 9 to 14) (size 15 to 20)
#    0.000    2.000    0.000    4.500    0.000    5.000 
#    0.000   20.000    0.000    0.000    0.000    0.000 
#    0.000    0.000    0.000    0.000    0.000    0.000 
#
# Total GULP energy -89402.635222 kJ/mol
# GULP energy per Si atom -5587.664701 kJ/mol
# Density = 2.250505 g / cm^3
# Si number density = 22.556384 Si / 1000 Ang^3
#
#
#
# Elastic Constant Matrix: (Units=GPa)
#
#
# Indices 1 2 3 4 5 6 
#
# 1 32.7859 4.0076 15.5707 0.0000 6.2582 0.0000
# 2 4.0076 159.6794 8.5210 0.0000 5.0618 0.0000
# 3 15.5707 8.5210 89.0437 0.0000 24.4713 0.0000
# 4 0.0000 0.0000 0.0000 7.2553 0.0000 -20.2639
# 5 6.2582 5.0618 24.4713 0.0000 21.1251 0.0000
# 6 0.0000 0.0000 0.0000 -20.2639 0.0000 54.1009
#
#
#
# Elastic Compliance Matrix: (Units=1/GPa)
#
#
# Indices 1 2 3 4 5 6 
#
# 1 0.033600 -0.000455 -0.004586 0.000000 -0.004532 0.000000
# 2 -0.000455 0.006321 -0.000214 0.000000 -0.001132 0.000000
# 3 -0.004586 -0.000214 0.017114 0.000000 -0.018414 0.000000
# 4 0.000000 0.000000 0.000000 -2.988014 0.000000 -1.119184
# 5 -0.004532 -0.001132 -0.018414 0.000000 0.070282 0.000000
# 6 0.000000 0.000000 0.000000 -1.119184 0.000000 -0.400715
#
#
# Mechanical properties :
#
#
# Convention : Reuss Voigt Hill
#
# Bulk Modulus (GPa) = 21.49463 37.52307 29.50885
# Shear Modulus (GPa) = -1.54541 33.39024 15.92242
#
# Velocity S-wave (km/s) = -0.82862 3.85164 2.65975
# Velocity P-wave (km/s) = 2.93845 6.03751 4.74795
#
# Compressibility (1/GPa) = 0.04652324
#
# Stress axis : x y z
#
# Youngs Moduli (GPa) = 29.76208 158.19590 58.43289
#
# Poissons Ratio (x) = 0.07196 0.26800
# Poissons Ratio (y) = 0.01354 0.01253
# Poissons Ratio (z) = 0.13650 0.03392
#
# Static dielectric constant tensor:
#      x y z
#    x 1.894040 0.000000 -0.037960 
#    y 0.000000 1.856950 0.000000 
#    z -0.037960 0.000000 1.818090 
# 
# From -- ./inp_files/193332.got.cif
#   From: 2010.05.17/outbox.cif.g08.bks.cpg/sg12_97_cif.got.tgz:193332.got - 2010.06.03 13:09:07.
