data_PCOD9196657
_publ_section_title
;
Structure prediction by ZEFSAII (Michael W. Deem and Ramdas Pophale) SiO2 
 PCOD9196657
Probable space group: C 2/M
;
_chemical_formula_sum "Si O2"
_cell_formula_units_Z 64
_cell_length_a 33.088054
_cell_length_b 8.844494
_cell_length_c 15.293179
_cell_angle_alpha 90.000000
_cell_angle_beta 46.987715
_cell_angle_gamma 90.000000
_cell_volume 3272.522189
_symmetry_space_group_name_H-M "C 2/M"
_symmetry_group_IT_number 12
_symmetry_cell_setting 'monoclinic'
loop_
_space_group_symop_operation_xyz
x,y,z
-x,y,-z
-x,-y,-z
x,-y,z
1/2+x,1/2+y,z
1/2-x,1/2+y,-z
1/2-x,1/2-y,-z
1/2+x,1/2-y,z
loop_
_atom_site_type_symbol
_atom_site_label
_atom_site_fract_x
_atom_site_fract_y
_atom_site_fract_z
Si Si1 0.860612 0.817896 0.183816
Si Si2 0.046324 0.320686 0.078031
Si Si3 0.119102 0.682757 0.504947
Si Si4 0.404817 0.321205 0.828505
Si Si5 0.742675 0.184076 0.287774
Si Si6 0.566045 0.178355 0.397014
Si Si7 0.930226 0.180285 0.248449
Si Si8 0.776555 0.180432 0.046618
O O1 0.797716 0.768800 0.258327
O O2 0.883185 0.782159 0.246760
O O3 0.862848 0.000000 0.168692
O O4 0.903092 0.745785 0.052495
O O5 0.045146 0.500000 0.072963
O O6 0.055736 0.269788 0.164453
O O7 0.988241 0.251510 0.133593
O O8 0.115851 0.500000 0.517126
O O9 0.183408 0.730667 0.412017
O O10 0.093550 0.723422 0.448291
O O11 0.086457 0.755628 0.632873
O O12 0.415118 0.500000 0.822808
O O13 0.412356 0.270413 0.717748
O O14 0.341919 0.289376 0.950189
O O15 0.742451 0.000000 0.287348
O O16 0.749735 0.234531 0.176742
O O17 0.500000 0.195524 0.500000
O O18 0.578423 0.000000 0.364829
O O19 0.936184 0.000000 0.243385
O O20 0.769315 0.000000 0.053462
O O21 0.750000 0.250000 0.000000
#
# Coordination Sequence:
#
# PCOD9196657 Si02
#       8
#     8   8   8   8   8   8   8   8
#     4  10  21  41  64  87 119 159 202 246 306 368
#     4  12  24  39  62  91 123 155 196 253 306 365
#     4  10  21  38  61  87 121 164 206 250 298 355
#     4  11  22  37  60  88 119 156 196 243 298 358
#     4   9  18  37  61  83 117 162 200 241 296 359
#     4  10  21  37  57  84 120 162 205 248 298 354
#     4  11  24  40  62  88 118 158 201 253 306 362
#     4  10  20  35  57  84 116 153 194 238 288 349
#
# _framework density 19.556781000000001
#
# number of rings (size 3 to 8) (size 9 to 14) (size 15 to 20)
#    0.000    1.625    1.250    3.750    0.000    6.750 
#    0.000    1.250    0.000    0.000    0.000    0.000 
#    0.000    0.000    0.000    0.000    0.000    0.000 
#
# Total GULP energy -178872.408254 kJ/mol
# GULP energy per Si atom -5589.762758 kJ/mol
# Density = 1.951227 g / cm^3
# Si number density = 19.556781 Si / 1000 Ang^3
#
#
#
# Elastic Constant Matrix: (Units=GPa)
#
#
# Indices 1 2 3 4 5 6 
#
# 1 107.6357 26.5735 13.7818 0.0000 -6.8569 0.0000
# 2 26.5735 19.3010 16.0167 -0.0001 -2.5137 0.0000
# 3 13.7818 16.0167 64.5301 0.0000 -3.6439 0.0000
# 4 0.0000 -0.0001 0.0000 26.1887 0.0000 1.7810
# 5 -6.8569 -2.5137 -3.6439 0.0000 33.1627 0.0000
# 6 0.0000 0.0000 0.0000 1.7810 0.0000 16.8019
#
#
#
# Elastic Compliance Matrix: (Units=1/GPa)
#
#
# Indices 1 2 3 4 5 6 
#
# 1 0.014428 -0.021628 0.002377 0.000000 0.001605 0.000000
# 2 -0.021628 0.098009 -0.019662 0.000000 0.000797 0.000000
# 3 0.002377 -0.019662 0.019936 0.000000 0.001192 0.000000
# 4 0.000000 0.000000 0.000000 0.038462 0.000000 -0.004077
# 5 0.001605 0.000797 0.001192 0.000000 0.030678 0.000000
# 6 0.000000 0.000000 0.000000 -0.004077 0.000000 0.059949
#
#
# Mechanical properties :
#
#
# Convention : Reuss Voigt Hill
#
# Bulk Modulus (GPa) = 18.33272 33.80117 26.06695
# Shear Modulus (GPa) = 13.98720 24.23699 19.11209
#
# Velocity S-wave (km/s) = 2.67724 3.52421 3.12951
# Velocity P-wave (km/s) = 4.35331 5.82075 5.13967
#
# Compressibility (1/GPa) = 0.05454727
#
# Stress axis : x y z
#
# Youngs Moduli (GPa) = 69.30904 10.20319 50.15960
#
# Poissons Ratio (x) = 0.22068 -0.11925
# Poissons Ratio (y) = 1.49904 0.98624
# Poissons Ratio (z) = -0.16478 0.20061
#
# Static dielectric constant tensor:
#      x y z
#    x 1.698370 0.000000 -0.013000 
#    y 0.000000 1.659120 0.000000 
#    z -0.013000 0.000000 1.665360 
# 
# From -- ./inp_files/249813.got.cif
#   From: 2010.05.17/outbox.cif.g08.bks.cpg/sg12_125_cif.got.tgz:249813.got - 2010.06.03 13:09:07.
