data_PCOD9196234
_publ_section_title
;
Structure prediction by ZEFSAII (Michael W. Deem and Ramdas Pophale) SiO2 
 PCOD9196234
Probable space group: C 2/M
;
_chemical_formula_sum "Si O2"
_cell_formula_units_Z 64
_cell_length_a 17.547263
_cell_length_b 13.260289
_cell_length_c 25.897291
_cell_angle_alpha 90.000000
_cell_angle_beta 24.900234
_cell_angle_gamma 90.000000
_cell_volume 2537.111601
_symmetry_space_group_name_H-M "C 2/M"
_symmetry_group_IT_number 12
_symmetry_cell_setting 'monoclinic'
loop_
_space_group_symop_operation_xyz
x,y,z
-x,y,-z
-x,-y,-z
x,-y,z
1/2+x,1/2+y,z
1/2-x,1/2+y,-z
1/2-x,1/2-y,-z
1/2+x,1/2-y,z
loop_
_atom_site_type_symbol
_atom_site_label
_atom_site_fract_x
_atom_site_fract_y
_atom_site_fract_z
Si Si1 0.722628 0.173624 0.080298
Si Si2 0.416414 0.176660 0.332480
Si Si3 0.270227 0.388686 0.449602
Si Si4 0.150160 0.609135 0.842304
Si Si5 0.616066 0.110109 0.365689
Si Si6 0.753625 0.605193 0.044571
Si Si7 0.802131 0.825331 0.638458
Si Si8 0.890124 0.170302 0.115391
O O1 0.620556 0.140776 0.194900
O O2 0.679706 0.111648 0.055734
O O3 0.657156 0.289020 0.112606
O O4 0.939784 0.177940 0.949444
O O5 0.398809 0.293958 0.360132
O O6 0.309071 0.120626 0.443609
O O7 0.322212 0.160968 0.334935
O O8 0.348542 0.500000 0.394373
O O9 0.092899 0.377741 0.522238
O O10 0.211134 0.500000 0.825745
O O11 0.234600 0.624428 0.733138
O O12 0.179600 0.715284 0.853071
O O13 0.933345 0.603944 0.968759
O O14 0.679691 0.206268 0.358868
O O15 0.731986 0.114444 0.241797
O O16 0.646049 0.000000 0.371111
O O17 0.651901 0.500000 0.114047
O O18 0.000000 0.861830 0.500000
O O19 0.000000 0.126347 0.000000
#
# Coordination Sequence:
#
# PCOD9196234 Si02
#       8
#     8   8   8   8   8   8   8   8
#     4  10  20  35  56  83 111 152 190 231 286 347
#     4  11  22  39  62  87 120 157 202 246 299 359
#     4  10  23  42  63  87 120 161 203 249 297 359
#     4   9  19  36  56  81 110 145 191 239 284 342
#     4  10  22  40  62  92 124 156 201 249 300 361
#     4   9  18  33  53  79 110 139 180 231 279 333
#     4  11  21  37  62  88 118 154 195 250 306 351
#     4  10  21  37  58  82 119 157 194 238 293 348
#
# _framework density 25.225536000000002
#
# number of rings (size 3 to 8) (size 9 to 14) (size 15 to 20)
#    0.000    2.000    2.500    0.750    1.750    3.500 
#    0.000    0.000    0.000    0.000    0.000    0.000 
#    0.000    0.000    0.000    0.000    0.000    0.000 
#
# Total GULP energy -178921.959750 kJ/mol
# GULP energy per Si atom -5591.311242 kJ/mol
# Density = 2.516812 g / cm^3
# Si number density = 25.225536 Si / 1000 Ang^3
#
#
#
# Elastic Constant Matrix: (Units=GPa)
#
#
# Indices 1 2 3 4 5 6 
#
# 1 54.3761 -1.4036 14.8277 -0.0033 11.1407 -0.0021
# 2 -1.4036 113.7856 2.1582 -0.0186 -3.1722 -0.0010
# 3 14.8277 2.1582 114.5192 -0.0484 24.9118 -0.0071
# 4 -0.0033 -0.0186 -0.0484 -5.1702 0.0009 -7.4520
# 5 11.1407 -3.1722 24.9118 0.0009 46.5332 0.0011
# 6 -0.0021 -0.0010 -0.0071 -7.4520 0.0011 3.2385
#
#
#
# Elastic Compliance Matrix: (Units=1/GPa)
#
#
# Indices 1 2 3 4 5 6 
#
# 1 0.019637 0.000170 -0.001727 -0.000003 -0.003765 0.000004
# 2 0.000170 0.008818 -0.000351 -0.000007 0.000748 -0.000015
# 3 -0.001727 -0.000351 0.010048 -0.000029 -0.004990 -0.000044
# 4 -0.000003 -0.000007 -0.000029 -0.044807 0.000019 -0.103105
# 5 -0.003765 0.000748 -0.004990 0.000019 0.025114 0.000022
# 6 0.000004 -0.000015 -0.000044 -0.103105 0.000022 0.071534
#
#
# Mechanical properties :
#
#
# Convention : Reuss Voigt Hill
#
# Bulk Modulus (GPa) = 28.82870 34.87172 31.85021
# Shear Modulus (GPa) = 47.29408 26.72688 37.01048
#
# Velocity S-wave (km/s) = 4.33465 3.25855 3.83454
# Velocity P-wave (km/s) = 6.04197 5.29259 5.67966
#
# Compressibility (1/GPa) = 0.03468765
#
# Stress axis : x y z
#
# Youngs Moduli (GPa) = 50.92397 113.40344 99.52477
#
# Poissons Ratio (x) = -0.01928 0.17185
# Poissons Ratio (y) = -0.00866 0.03493
# Poissons Ratio (z) = 0.08793 0.03980
#
# Static dielectric constant tensor:
#      x y z
#    x 2.039460 0.000000 -0.011670 
#    y 0.000000 2.009890 0.000010 
#    z -0.011670 0.000010 1.972820 
# 
# From -- ./inp_files/290082.got.cif
#   From: 2010.05.17/outbox.cif.g08.bks.cpg/sg12_146_cif.got.tgz:290082.got - 2010.06.03 13:09:07.
