data_PCOD9196532
_publ_section_title
;
Structure prediction by ZEFSAII (Michael W. Deem and Ramdas Pophale) SiO2 
 PCOD9196532
Probable space group: C 2/M
;
_chemical_formula_sum "Si O2"
_cell_formula_units_Z 48
_cell_length_a 24.986658
_cell_length_b 11.085746
_cell_length_c 7.921721
_cell_angle_alpha 90.000000
_cell_angle_beta 75.177831
_cell_angle_gamma 90.000000
_cell_volume 2121.267091
_symmetry_space_group_name_H-M "C 2/M"
_symmetry_group_IT_number 12
_symmetry_cell_setting 'monoclinic'
loop_
_space_group_symop_operation_xyz
x,y,z
-x,y,-z
-x,-y,-z
x,-y,z
1/2+x,1/2+y,z
1/2-x,1/2+y,-z
1/2-x,1/2-y,-z
1/2+x,1/2-y,z
loop_
_atom_site_type_symbol
_atom_site_label
_atom_site_fract_x
_atom_site_fract_y
_atom_site_fract_z
Si Si1 0.949821 0.631564 0.907154
Si Si2 0.995069 0.870160 0.800089
Si Si3 0.825345 0.633067 0.052609
Si Si4 0.662986 0.131620 0.360114
Si Si5 0.116567 0.867858 0.542376
Si Si6 0.785126 0.133662 0.264891
O O1 0.948128 0.500000 0.821759
O O2 0.960962 0.749966 0.787645
O O3 0.890603 0.645537 0.046051
O O4 0.000000 0.627053 0.000000
O O5 0.056183 0.861681 0.674809
O O6 0.971030 0.000000 0.765931
O O7 0.000000 0.873655 0.000000
O O8 0.806009 0.500000 0.126873
O O9 0.825708 0.632005 0.849354
O O10 0.793236 0.748660 0.144373
O O11 0.627282 0.247179 0.430764
O O12 0.723944 0.141388 0.394121
O O13 0.639533 0.000000 0.426449
O O14 0.164548 0.866051 0.645098
O O15 0.121459 0.000000 0.453081
O O16 0.787014 0.000000 0.177634
#
# Coordination Sequence:
#
# PCOD9196532 Si02
#       6
#     8   8   8   8   8   8
#     4   9  17  30  50  76 102 130 170 217 263 313
#     4   9  17  31  52  77 103 130 167 219 270 314
#     4  10  21  36  55  82 113 144 182 226 272 324
#     4  10  22  38  54  78 114 150 182 221 272 326
#     4  10  21  36  56  83 111 142 183 226 270 324
#     4  10  20  35  57  83 109 143 187 227 267 320
#
# _framework density 22.627986
#
# number of rings (size 3 to 8) (size 9 to 14) (size 15 to 20)
#    0.000    2.333    0.000    3.000    0.000    4.667 
#    0.000    0.833    0.000    5.000    0.000    0.000 
#    0.000    0.000    0.000    0.000    0.000    0.000 
#
# Total GULP energy -133946.058206 kJ/mol
# GULP energy per Si atom -5581.085759 kJ/mol
# Density = 2.257648 g / cm^3
# Si number density = 22.627986 Si / 1000 Ang^3
#
#
#
# Elastic Constant Matrix: (Units=GPa)
#
#
# Indices 1 2 3 4 5 6 
#
# 1 57.2067 43.4501 12.5348 0.0000 -1.1479 0.0000
# 2 43.4501 303.3955 63.0321 0.0000 -29.0905 0.0000
# 3 12.5348 63.0321 29.4104 0.0000 -5.2066 0.0000
# 4 0.0000 0.0000 0.0000 43.2051 0.0000 -0.8535
# 5 -1.1479 -29.0905 -5.2066 0.0000 22.5603 0.0000
# 6 0.0000 0.0000 0.0000 -0.8535 0.0000 41.8876
#
#
#
# Elastic Compliance Matrix: (Units=1/GPa)
#
#
# Indices 1 2 3 4 5 6 
#
# 1 0.020072 -0.002286 -0.004167 0.000000 -0.002888 0.000000
# 2 -0.002286 0.006777 -0.012536 0.000000 0.005729 0.000000
# 3 -0.004167 -0.012536 0.062291 0.000000 -0.002001 0.000000
# 4 0.000000 0.000000 0.000000 0.023155 0.000000 0.000472
# 5 -0.002888 0.005729 -0.002001 0.000000 0.051105 0.000000
# 6 0.000000 0.000000 0.000000 0.000472 0.000000 0.023883
#
#
# Mechanical properties :
#
#
# Convention : Reuss Voigt Hill
#
# Bulk Modulus (GPa) = 19.54597 69.78297 44.66447
# Shear Modulus (GPa) = 20.63429 39.59699 30.11564
#
# Velocity S-wave (km/s) = 3.02303 4.18773 3.65211
# Velocity P-wave (km/s) = 4.56527 7.36811 6.12906
#
# Compressibility (1/GPa) = 0.05116143
#
# Stress axis : x y z
#
# Youngs Moduli (GPa) = 49.82161 147.55293 16.05358
#
# Poissons Ratio (x) = 0.33725 0.06690
# Poissons Ratio (y) = 0.11387 0.20126
# Poissons Ratio (z) = 0.20762 1.84979
#
# Static dielectric constant tensor:
#      x y z
#    x 1.849220 0.000000 0.049730 
#    y 0.000000 2.010160 0.000000 
#    z 0.049730 0.000000 1.828650 
# 
# From -- ./inp_files/94904.got.cif
#   From: 2010.05.17/outbox.cif.g08.bks.cpg/sg12_48_cif.got.tgz:94904.got - 2010.06.03 13:09:07.
