data_PCOD9196389
_publ_section_title
;
Structure prediction by ZEFSAII (Michael W. Deem and Ramdas Pophale) SiO2 
 PCOD9196389
Probable space group: C 2/M
;
_chemical_formula_sum "Si O2"
_cell_formula_units_Z 58
_cell_length_a 13.669116
_cell_length_b 20.891127
_cell_length_c 10.821367
_cell_angle_alpha 90.000000
_cell_angle_beta 103.786271
_cell_angle_gamma 90.000000
_cell_volume 3001.160738
_symmetry_space_group_name_H-M "C 2/M"
_symmetry_group_IT_number 12
_symmetry_cell_setting 'monoclinic'
loop_
_space_group_symop_operation_xyz
x,y,z
-x,y,-z
-x,-y,-z
x,-y,z
1/2+x,1/2+y,z
1/2-x,1/2+y,-z
1/2-x,1/2-y,-z
1/2+x,1/2-y,z
loop_
_atom_site_type_symbol
_atom_site_label
_atom_site_fract_x
_atom_site_fract_y
_atom_site_fract_z
Si Si1 0.153003 0.425839 0.610534
Si Si2 0.016386 0.803966 0.373236
Si Si3 0.173366 0.154563 0.226134
Si Si4 0.286202 0.292603 0.269806
Si Si5 0.259773 0.826865 0.003715
Si Si6 0.876009 0.326634 0.611008
Si Si7 0.461596 0.114076 0.178232
Si Si8 0.000000 0.500000 0.000000
O O1 0.153385 0.500000 0.576336
O O2 0.261449 0.399659 0.687246
O O3 0.116410 0.380614 0.489351
O O4 0.084581 0.413665 0.709429
O O5 0.071670 0.837247 0.274042
O O6 0.083856 0.741427 0.424173
O O7 0.000000 0.839541 0.500000
O O8 0.904900 0.783313 0.300124
O O9 0.232935 0.222767 0.253061
O O10 0.179934 0.144681 0.079290
O O11 0.239110 0.322986 0.378736
O O12 0.258182 0.338864 0.146277
O O13 0.370106 0.848817 0.082195
O O14 0.250000 0.750000 0.000000
O O15 0.946068 0.341696 0.750719
O O16 0.496830 0.056224 0.105053
#
# Coordination Sequence:
#
# PCOD9196389 Si02
#       8
#     8   8   8   8   8   8   8   2
#     4  11  22  38  57  81 111 152 198 235 274 340
#     4  11  20  34  57  86 117 147 183 238 299 349
#     4   9  20  35  56  83 112 149 188 235 293 339
#     4  10  20  35  56  86 115 145 186 234 296 350
#     4   9  18  36  57  81 113 148 192 239 284 344
#     4  11  22  35  57  84 116 152 189 238 287 345
#     4  11  22  37  55  83 118 155 192 236 287 346
#     4  12  24  36  50  80 120 162 192 224 292 348
#
# _framework density 19.325856000000002
#
# number of rings (size 3 to 8) (size 9 to 14) (size 15 to 20)
#    0.000    1.655    0.690    6.207    0.966    3.310 
#    0.000    5.517    0.000    3.724    0.000    1.931 
#    0.000    0.000    0.000    0.000    0.000    0.000 
#
# Total GULP energy -161495.004436 kJ/mol
# GULP energy per Si atom -5568.793256 kJ/mol
# Density = 1.928187 g / cm^3
# Si number density = 19.325856 Si / 1000 Ang^3
#
#
#
# Elastic Constant Matrix: (Units=GPa)
#
#
# Indices 1 2 3 4 5 6 
#
# 1 112.6254 0.3582 28.0664 0.0000 -11.2079 0.0000
# 2 0.3582 45.4502 15.9244 0.0000 3.1398 0.0000
# 3 28.0664 15.9244 81.6669 0.0000 -9.1117 0.0000
# 4 0.0000 0.0000 0.0000 26.3055 0.0000 -12.1814
# 5 -11.2079 3.1398 -9.1117 0.0000 20.0762 0.0000
# 6 0.0000 0.0000 0.0000 -12.1814 0.0000 7.4534
#
#
#
# Elastic Compliance Matrix: (Units=1/GPa)
#
#
# Indices 1 2 3 4 5 6 
#
# 1 0.010067 0.000743 -0.003150 0.000000 0.004074 0.000000
# 2 0.000743 0.024399 -0.005680 0.000000 -0.005979 0.000000
# 3 -0.003150 -0.005680 0.015103 0.000000 0.005984 0.000000
# 4 0.000000 0.000000 0.000000 0.156324 0.000000 0.255487
# 5 0.004074 -0.005979 0.005984 0.000000 0.055736 0.000000
# 6 0.000000 0.000000 0.000000 0.255487 0.000000 0.551720
#
#
# Mechanical properties :
#
#
# Convention : Reuss Voigt Hill
#
# Bulk Modulus (GPa) = 29.94490 36.49340 33.21915
# Shear Modulus (GPa) = 5.94774 23.79325 14.87050
#
# Velocity S-wave (km/s) = 1.75621 3.51260 2.77693
# Velocity P-wave (km/s) = 4.43179 5.94772 5.24481
#
# Compressibility (1/GPa) = 0.03339466
#
# Stress axis : x y z
#
# Youngs Moduli (GPa) = 99.33371 40.98456 66.21348
#
# Poissons Ratio (x) = -0.03045 0.20857
# Poissons Ratio (y) = -0.07379 0.37610
# Poissons Ratio (z) = 0.31290 0.23280
#
# Static dielectric constant tensor:
#      x y z
#    x 1.712280 0.000000 -0.017110 
#    y 0.000000 1.639300 0.000000 
#    z -0.017110 0.000000 1.778800 
# 
# From -- ./inp_files/135447.got.cif
#   From: 2010.05.17/outbox.cif.g08.bks.cpg/sg12_68_cif.got.tgz:135447.got - 2010.06.03 13:09:07.
