data_PCOD9196069
_publ_section_title
;
Structure prediction by ZEFSAII (Michael W. Deem and Ramdas Pophale) SiO2 
 PCOD9196069
Probable space group: C 2/M
;
_chemical_formula_sum "Si O2"
_cell_formula_units_Z 56
_cell_length_a 18.678742
_cell_length_b 8.947574
_cell_length_c 23.347128
_cell_angle_alpha 90.000000
_cell_angle_beta 126.528515
_cell_angle_gamma 90.000000
_cell_volume 3135.487624
_symmetry_space_group_name_H-M "C 2/M"
_symmetry_group_IT_number 12
_symmetry_cell_setting 'monoclinic'
loop_
_space_group_symop_operation_xyz
x,y,z
-x,y,-z
-x,-y,-z
x,-y,z
1/2+x,1/2+y,z
1/2-x,1/2+y,-z
1/2-x,1/2-y,-z
1/2+x,1/2-y,z
loop_
_atom_site_type_symbol
_atom_site_label
_atom_site_fract_x
_atom_site_fract_y
_atom_site_fract_z
Si Si1 0.670799 0.677953 0.998989
Si Si2 0.180286 0.676643 0.127707
Si Si3 0.120157 0.827264 0.276481
Si Si4 0.094378 0.317822 0.569077
Si Si5 0.758282 0.819417 0.566098
Si Si6 0.510722 0.823551 0.129662
Si Si7 0.206894 0.673010 0.725151
O O1 0.676345 0.500000 0.999328
O O2 0.576602 0.733810 0.929313
O O3 0.750000 0.750000 0.000000
O O4 0.677636 0.734672 0.067453
O O5 0.185628 0.500000 0.119098
O O6 0.089855 0.704423 0.121205
O O7 0.261889 0.730266 0.206407
O O8 0.154923 0.775717 0.355107
O O9 0.048849 0.728593 0.209132
O O10 0.209141 0.826850 0.278991
O O11 0.090254 0.000000 0.265499
O O12 0.093424 0.500000 0.570481
O O13 0.171904 0.274473 0.561944
O O14 0.124413 0.271442 0.647234
O O15 0.000000 0.266295 0.500000
O O16 0.750000 0.750000 0.500000
O O17 0.759211 0.000000 0.563344
O O18 0.492038 0.000000 0.120641
O O19 0.192597 0.500000 0.735440
#
# Coordination Sequence:
#
# PCOD9196069 Si02
#       7
#     8   8   8   8   8   8   8
#     4  12  25  40  57  77 106 140 171 206 254 309
#     4  10  20  35  56  81 107 134 170 215 257 302
#     4   8  15  29  48  71  99 132 171 211 253 302
#     4   8  14  27  48  72  97 128 169 213 253 295
#     4   9  17  29  47  71  99 132 169 211 258 306
#     4  10  20  35  57  83 106 131 170 216 258 304
#     4   8  14  27  49  74  98 128 169 213 254 298
#
# _framework density 17.860061999999999
#
# number of rings (size 3 to 8) (size 9 to 14) (size 15 to 20)
#    0.000    2.714    0.000    4.286    0.000    4.000 
#    0.000    3.571    0.000    6.857    0.000    0.000 
#    0.000    0.000    0.000    0.000    0.000    0.000 
#
# Total GULP energy -156103.600505 kJ/mol
# GULP energy per Si atom -5575.128589 kJ/mol
# Density = 1.781941 g / cm^3
# Si number density = 17.860062 Si / 1000 Ang^3
#
#
#
# Elastic Constant Matrix: (Units=GPa)
#
#
# Indices 1 2 3 4 5 6 
#
# 1 47.1317 47.5506 63.9073 0.0000 6.6693 0.0000
# 2 47.5506 87.8191 76.3565 0.0000 1.6347 0.0000
# 3 63.9073 76.3565 186.7658 0.0000 7.1704 0.0000
# 4 0.0000 0.0000 0.0000 31.9899 0.0000 -4.3256
# 5 6.6693 1.6347 7.1704 0.0000 25.1671 0.0000
# 6 0.0000 0.0000 0.0000 -4.3256 0.0000 19.1460
#
#
#
# Elastic Compliance Matrix: (Units=1/GPa)
#
#
# Indices 1 2 3 4 5 6 
#
# 1 0.061483 -0.023537 -0.010968 0.000000 -0.011639 0.000000
# 2 -0.023537 0.026699 -0.003068 0.000000 0.005377 0.000000
# 3 -0.010968 -0.003068 0.010356 0.000000 0.000155 0.000000
# 4 0.000000 0.000000 0.000000 0.032245 0.000000 0.007285
# 5 -0.011639 0.005377 0.000155 0.000000 0.042425 0.000000
# 6 0.000000 0.000000 0.000000 0.007285 0.000000 0.053876
#
#
# Mechanical properties :
#
#
# Convention : Reuss Voigt Hill
#
# Bulk Modulus (GPa) = 42.75255 77.48285 60.11770
# Shear Modulus (GPa) = 16.12758 24.18742 20.15750
#
# Velocity S-wave (km/s) = 3.00825 3.68404 3.36316
# Velocity P-wave (km/s) = 6.00463 7.84689 6.98675
#
# Compressibility (1/GPa) = 0.02339042
#
# Stress axis : x y z
#
# Youngs Moduli (GPa) = 16.26470 37.45464 96.56400
#
# Poissons Ratio (x) = 0.88157 1.05916
# Poissons Ratio (y) = 0.38282 0.29626
# Poissons Ratio (z) = 0.17840 0.11491
#
# Static dielectric constant tensor:
#      x y z
#    x 1.597580 0.000000 0.008750 
#    y 0.000000 1.595330 0.000000 
#    z 0.008750 0.000000 1.625390 
# 
# From -- ./inp_files/314442.got.cif
#   From: 2010.05.17/outbox.cif.g08.bks.cpg/sg12_158_cif.got.tgz:314442.got - 2010.06.03 13:09:07.
