data_PCOD9196318
_publ_section_title
;
Structure prediction by ZEFSAII (Michael W. Deem and Ramdas Pophale) SiO2 
 PCOD9196318
Probable space group: C 2/M
;
_chemical_formula_sum "Si O2"
_cell_formula_units_Z 48
_cell_length_a 12.768073
_cell_length_b 22.063906
_cell_length_c 14.054762
_cell_angle_alpha 90.000000
_cell_angle_beta 43.266801
_cell_angle_gamma 90.000000
_cell_volume 2713.770774
_symmetry_space_group_name_H-M "C 2/M"
_symmetry_group_IT_number 12
_symmetry_cell_setting 'monoclinic'
loop_
_space_group_symop_operation_xyz
x,y,z
-x,y,-z
-x,-y,-z
x,-y,z
1/2+x,1/2+y,z
1/2-x,1/2+y,-z
1/2-x,1/2-y,-z
1/2+x,1/2-y,z
loop_
_atom_site_type_symbol
_atom_site_label
_atom_site_fract_x
_atom_site_fract_y
_atom_site_fract_z
Si Si1 0.850634 0.185888 0.537084
Si Si2 0.547747 0.748838 0.722084
Si Si3 0.881518 0.628208 0.776419
Si Si4 0.730575 0.571849 0.693596
Si Si5 0.694118 0.069093 0.578033
Si Si6 0.941865 0.149081 0.932646
O O1 0.701193 0.223520 0.668132
O O2 0.891948 0.207853 0.403938
O O3 0.798932 0.116420 0.564172
O O4 0.000000 0.195484 0.500000
O O5 0.451509 0.804463 0.741845
O O6 0.455373 0.707011 0.855635
O O7 0.830989 0.609394 0.703179
O O8 0.017872 0.583888 0.716504
O O9 0.729527 0.625321 0.940623
O O10 0.737970 0.500000 0.711314
O O11 0.785482 0.579946 0.549075
O O12 0.559486 0.598072 0.817589
O O13 0.732583 0.000000 0.572524
O O14 0.000000 0.165938 0.000000
#
# Coordination Sequence:
#
# PCOD9196318 Si02
#       6
#     8   8   8   8   8   8
#     4  10  22  35  59  84 107 147 186 237 280 326
#     4  10  21  38  54  83 116 144 190 227 280 338
#     4  10  21  32  55  82 113 149 180 228 282 333
#     4  10  20  35  56  84 116 149 188 234 282 333
#     4  10  20  37  57  81 111 145 194 238 277 328
#     4  10  21  35  54  83 117 152 183 224 283 340
#
# _framework density 17.687566
#
# number of rings (size 3 to 8) (size 9 to 14) (size 15 to 20)
#    0.000    2.000    1.667    1.500    4.667    5.333 
#    0.000    0.000    0.000    0.000    0.000    1.167 
#    0.000    0.000    0.000    0.000    0.000    0.000 
#
# Total GULP energy -133907.019891 kJ/mol
# GULP energy per Si atom -5579.459162 kJ/mol
# Density = 1.764731 g / cm^3
# Si number density = 17.687566 Si / 1000 Ang^3
#
#
#
# Elastic Constant Matrix: (Units=GPa)
#
#
# Indices 1 2 3 4 5 6 
#
# 1 53.8409 36.3676 18.7570 0.0000 -19.7716 0.0000
# 2 36.3676 81.7253 26.5723 0.0000 -3.6008 0.0000
# 3 18.7570 26.5723 77.5585 0.0000 -13.3885 0.0000
# 4 0.0000 0.0000 0.0000 21.9742 0.0000 6.1502
# 5 -19.7716 -3.6008 -13.3885 0.0000 28.1335 0.0000
# 6 0.0000 0.0000 0.0000 6.1502 0.0000 18.2603
#
#
#
# Elastic Compliance Matrix: (Units=1/GPa)
#
#
# Indices 1 2 3 4 5 6 
#
# 1 0.038698 -0.016300 0.000610 0.000000 0.025401 0.000000
# 2 -0.016300 0.020643 -0.005068 0.000000 -0.011225 0.000000
# 3 0.000610 -0.005068 0.015737 0.000000 0.007269 0.000000
# 4 0.000000 0.000000 0.000000 0.050244 0.000000 -0.016923
# 5 0.025401 -0.011225 0.007269 0.000000 0.055419 0.000000
# 6 0.000000 0.000000 0.000000 -0.016923 0.000000 0.060463
#
#
# Mechanical properties :
#
#
# Convention : Reuss Voigt Hill
#
# Bulk Modulus (GPa) = 29.79484 41.83538 35.81511
# Shear Modulus (GPa) = 17.01216 22.43546 19.72381
#
# Velocity S-wave (km/s) = 3.10468 3.56537 3.34297
# Velocity P-wave (km/s) = 5.45286 6.37596 5.93239
#
# Compressibility (1/GPa) = 0.03356286
#
# Stress axis : x y z
#
# Youngs Moduli (GPa) = 25.84094 48.44293 63.54389
#
# Poissons Ratio (x) = 0.78962 -0.03879
# Poissons Ratio (y) = 0.42121 0.32205
# Poissons Ratio (z) = -0.01577 0.24552
#
# Static dielectric constant tensor:
#      x y z
#    x 1.587880 0.000000 -0.018450 
#    y 0.000000 1.602940 0.000000 
#    z -0.018450 0.000000 1.603890 
# 
# From -- ./inp_files/50593.got.cif
#   From: 2010.05.17/outbox.cif.g08.bks.cpg/sg12_26_cif.got.tgz:50593.got - 2010.06.03 13:09:07.
