data_PCOD9196395
_publ_section_title
;
Structure prediction by ZEFSAII (Michael W. Deem and Ramdas Pophale) SiO2 
 PCOD9196395
Probable space group: C 2/M
;
_chemical_formula_sum "Si O2"
_cell_formula_units_Z 56
_cell_length_a 27.947755
_cell_length_b 14.042356
_cell_length_c 9.575757
_cell_angle_alpha 90.000000
_cell_angle_beta 123.735928
_cell_angle_gamma 90.000000
_cell_volume 3125.198854
_symmetry_space_group_name_H-M "C 2/M"
_symmetry_group_IT_number 12
_symmetry_cell_setting 'monoclinic'
loop_
_space_group_symop_operation_xyz
x,y,z
-x,y,-z
-x,-y,-z
x,-y,z
1/2+x,1/2+y,z
1/2-x,1/2+y,-z
1/2-x,1/2-y,-z
1/2+x,1/2-y,z
loop_
_atom_site_type_symbol
_atom_site_label
_atom_site_fract_x
_atom_site_fract_y
_atom_site_fract_z
Si Si1 0.026406 0.611109 0.698531
Si Si2 0.590631 0.885821 0.344125
Si Si3 0.664777 0.888997 0.213028
Si Si4 0.314040 0.217295 0.319704
Si Si5 0.140169 0.266002 0.915058
Si Si6 0.706664 0.610872 0.507375
Si Si7 0.692274 0.613156 0.168531
O O1 0.044557 0.500000 0.750551
O O2 0.078242 0.684874 0.796633
O O3 0.000000 0.615428 0.500000
O O4 0.974889 0.634668 0.721880
O O5 0.612681 0.855415 0.226913
O O6 0.633948 0.842148 0.527326
O O7 0.597175 0.000000 0.359905
O O8 0.724018 0.879870 0.394798
O O9 0.656461 0.000000 0.167871
O O10 0.670805 0.832266 0.080375
O O11 0.328206 0.234444 0.181339
O O12 0.310851 0.315000 0.402690
O O13 0.254274 0.160043 0.235819
O O14 0.145252 0.162542 0.993634
O O15 0.695025 0.500000 0.523640
O O16 0.680574 0.633080 0.313547
O O17 0.695470 0.500000 0.156070
#
# Coordination Sequence:
#
# PCOD9196395 Si02
#       7
#     8   8   8   8   8   8   8
#     4  10  21  39  60  85 118 154 194 239 291 346
#     4  10  20  36  61  86 114 154 196 235 283 346
#     4  10  20  35  56  86 119 153 191 234 284 343
#     4  12  21  36  58  88 118 153 192 234 290 349
#     4  12  24  36  55  87 122 154 189 241 290 341
#     4  10  21  38  59  83 119 158 192 232 283 349
#     4  11  23  38  57  84 118 155 193 235 287 347
#
# _framework density 17.918859999999999
#
# number of rings (size 3 to 8) (size 9 to 14) (size 15 to 20)
#    0.000    1.286    4.286    2.571    0.000    2.857 
#    0.000    2.143    0.000    1.286    0.000    3.000 
#    0.000    0.000    0.000    0.000    0.000    0.000 
#
# Total GULP energy -156356.631044 kJ/mol
# GULP energy per Si atom -5584.165394 kJ/mol
# Density = 1.787808 g / cm^3
# Si number density = 17.918860 Si / 1000 Ang^3
#
#
#
# Elastic Constant Matrix: (Units=GPa)
#
#
# Indices 1 2 3 4 5 6 
#
# 1 101.3632 63.2763 46.4739 0.0000 -19.5688 0.0000
# 2 63.2763 102.0737 53.3091 0.0000 -8.4030 0.0000
# 3 46.4739 53.3091 86.5639 0.0000 -13.4191 0.0000
# 4 0.0000 0.0000 0.0000 33.9438 0.0000 3.7863
# 5 -19.5688 -8.4030 -13.4191 0.0000 36.8219 0.0000
# 6 0.0000 0.0000 0.0000 3.7863 0.0000 17.8623
#
#
#
# Elastic Compliance Matrix: (Units=1/GPa)
#
#
# Indices 1 2 3 4 5 6 
#
# 1 0.018276 -0.009134 -0.003184 0.000000 0.006468 0.000000
# 2 -0.009134 0.019007 -0.007293 0.000000 -0.003175 0.000000
# 3 -0.003184 -0.007293 0.018265 0.000000 0.003300 0.000000
# 4 0.000000 0.000000 0.000000 0.030174 0.000000 -0.006396
# 5 0.006468 -0.003175 0.003300 0.000000 0.031073 0.000000
# 6 0.000000 0.000000 0.000000 -0.006396 0.000000 0.057339
#
#
# Mechanical properties :
#
#
# Convention : Reuss Voigt Hill
#
# Bulk Modulus (GPa) = 61.25845 68.45772 64.85808
# Shear Modulus (GPa) = 22.85208 26.18839 24.52024
#
# Velocity S-wave (km/s) = 3.57502 3.82710 3.70321
# Velocity P-wave (km/s) = 7.16253 7.60369 7.38641
#
# Compressibility (1/GPa) = 0.01632428
#
# Stress axis : x y z
#
# Youngs Moduli (GPa) = 54.71643 52.61285 54.75040
#
# Poissons Ratio (x) = 0.48057 0.17434
# Poissons Ratio (y) = 0.49978 0.39931
# Poissons Ratio (z) = 0.17423 0.38373
#
# Static dielectric constant tensor:
#      x y z
#    x 1.619760 0.000000 -0.005920 
#    y 0.000000 1.624090 0.000000 
#    z -0.005920 0.000000 1.626420 
# 
# From -- ./inp_files/96959.got.cif
#   From: 2010.05.17/outbox.cif.g08.bks.cpg/sg12_49_cif.got.tgz:96959.got - 2010.06.03 13:09:07.
