data_PCOD9196424
_publ_section_title
;
Structure prediction by ZEFSAII (Michael W. Deem and Ramdas Pophale) SiO2 
 PCOD9196424
Probable space group: C 2/M
;
_chemical_formula_sum "Si O2"
_cell_formula_units_Z 48
_cell_length_a 8.570900
_cell_length_b 18.350284
_cell_length_c 26.368876
_cell_angle_alpha 90.000000
_cell_angle_beta 149.414750
_cell_angle_gamma 90.000000
_cell_volume 2110.205982
_symmetry_space_group_name_H-M "C 2/M"
_symmetry_group_IT_number 12
_symmetry_cell_setting 'monoclinic'
loop_
_space_group_symop_operation_xyz
x,y,z
-x,y,-z
-x,-y,-z
x,-y,z
1/2+x,1/2+y,z
1/2-x,1/2+y,-z
1/2-x,1/2-y,-z
1/2+x,1/2-y,z
loop_
_atom_site_type_symbol
_atom_site_label
_atom_site_fract_x
_atom_site_fract_y
_atom_site_fract_z
Si Si1 0.472368 0.646302 0.935964
Si Si2 0.841227 0.916382 0.796878
Si Si3 0.979472 0.810295 0.419478
Si Si4 0.161656 0.312029 0.114887
Si Si5 0.030778 0.187416 0.317737
Si Si6 0.460118 0.084458 0.591606
O O1 0.291105 0.603443 0.841609
O O2 0.340632 0.728278 0.903089
O O3 0.500000 0.613635 0.000000
O O4 0.822355 0.656327 0.014903
O O5 0.561130 0.910691 0.678829
O O6 0.091387 0.860051 0.845455
O O7 0.951567 0.000000 0.824543
O O8 0.690405 0.767145 0.360838
O O9 0.250000 0.750000 0.500000
O O10 0.928080 0.825844 0.345974
O O11 0.134461 0.879959 0.488055
O O12 0.262186 0.313526 0.201716
O O13 0.285061 0.129484 0.369449
O O14 0.467016 0.000000 0.579203
#
# Coordination Sequence:
#
# PCOD9196424 Si02
#       6
#     8   8   8   8   8   8
#     4  11  23  37  61  95 125 155 205 267 316 358
#     4  10  22  42  65  90 125 170 209 249 312 380
#     4  10  20  35  56  89 116 154 200 246 294 352
#     4  10  22  39  61  91 124 164 208 253 306 376
#     4  10  22  35  59  89 120 157 201 248 299 358
#     4   9  19  37  61  87 118 159 205 250 297 359
#
# _framework density 22.746594000000002
#
# number of rings (size 3 to 8) (size 9 to 14) (size 15 to 20)
#    0.000    2.000    0.000    4.500    9.333    3.000 
#    0.000    0.000    0.000    9.000    0.000    0.000 
#    0.000    0.000    0.000    0.000    0.000    0.000 
#
# Total GULP energy -134323.657536 kJ/mol
# GULP energy per Si atom -5596.819064 kJ/mol
# Density = 2.269482 g / cm^3
# Si number density = 22.746594 Si / 1000 Ang^3
#
#
#
# Elastic Constant Matrix: (Units=GPa)
#
#
# Indices 1 2 3 4 5 6 
#
# 1 92.2521 22.3845 52.7050 0.0002 -33.9890 0.0006
# 2 22.3845 116.4643 44.9085 0.0014 -3.0744 0.0007
# 3 52.7050 44.9085 120.4000 0.0061 -27.2225 -0.0006
# 4 0.0002 0.0014 0.0061 3.0665 0.0028 12.3675
# 5 -33.9890 -3.0744 -27.2225 0.0028 48.3512 -0.0007
# 6 0.0006 0.0007 -0.0006 12.3675 -0.0007 8.9797
#
#
#
# Elastic Compliance Matrix: (Units=1/GPa)
#
#
# Indices 1 2 3 4 5 6 
#
# 1 0.017478 -0.001140 -0.005115 -0.000001 0.009334 0.000000
# 2 -0.001140 0.010224 -0.003837 -0.000002 -0.002312 0.000002
# 3 -0.005115 -0.003837 0.012728 0.000007 0.003326 -0.000008
# 4 -0.000001 -0.000002 0.000007 -0.071598 0.000009 0.098610
# 5 0.009334 -0.002312 0.003326 0.000009 0.028969 -0.000010
# 6 0.000000 0.000002 -0.000008 0.098610 -0.000010 -0.024450
#
#
# Mechanical properties :
#
#
# Convention : Reuss Voigt Hill
#
# Bulk Modulus (GPa) = 49.39549 63.23472 56.31510
# Shear Modulus (GPa) = 17589.66125 26.02071 8807.84098
#
# Velocity S-wave (km/s) = 88.03218 3.38589 62.29417
# Velocity P-wave (km/s) = 101.75779 6.56853 72.10338
#
# Compressibility (1/GPa) = 0.02024476
#
# Stress axis : x y z
#
# Youngs Moduli (GPa) = 57.21522 97.80878 78.56643
#
# Poissons Ratio (x) = 0.11155 0.40188
# Poissons Ratio (y) = 0.06525 0.30146
# Poissons Ratio (z) = 0.29267 0.37529
#
# Static dielectric constant tensor:
#      x y z
#    x 1.896140 0.000000 -0.010090 
#    y 0.000000 1.806870 0.000000 
#    z -0.010090 0.000000 1.849650 
# 
# From -- ./inp_files/356962.got.cif
#   From: 2010.05.17/outbox.cif.g08.bks.cpg/sg12_179_cif.got.tgz:356962.got - 2010.06.03 13:09:07.
