data_PCOD9196143
_publ_section_title
;
Structure prediction by ZEFSAII (Michael W. Deem and Ramdas Pophale) SiO2 
 PCOD9196143
Probable space group: C 2/M
;
_chemical_formula_sum "Si O2"
_cell_formula_units_Z 48
_cell_length_a 31.491218
_cell_length_b 8.901898
_cell_length_c 18.327786
_cell_angle_alpha 90.000000
_cell_angle_beta 30.280339
_cell_angle_gamma 90.000000
_cell_volume 2590.668807
_symmetry_space_group_name_H-M "C 2/M"
_symmetry_group_IT_number 12
_symmetry_cell_setting 'monoclinic'
loop_
_space_group_symop_operation_xyz
x,y,z
-x,y,-z
-x,-y,-z
x,-y,z
1/2+x,1/2+y,z
1/2-x,1/2+y,-z
1/2-x,1/2-y,-z
1/2+x,1/2-y,z
loop_
_atom_site_type_symbol
_atom_site_label
_atom_site_fract_x
_atom_site_fract_y
_atom_site_fract_z
Si Si1 0.245541 0.320783 0.086979
Si Si2 0.592888 0.822093 0.078261
Si Si3 0.171748 0.176493 0.575174
Si Si4 0.590231 0.678829 0.403592
Si Si5 0.003322 0.822877 0.078804
Si Si6 0.580696 0.821220 0.577119
O O1 0.243440 0.500000 0.084963
O O2 0.163015 0.260263 0.250262
O O3 0.250000 0.250000 0.000000
O O4 0.327432 0.266799 0.009825
O O5 0.566249 0.767903 0.037319
O O6 0.511492 0.792909 0.250579
O O7 0.609666 0.000000 0.054223
O O8 0.250000 0.250000 0.500000
O O9 0.089058 0.191442 0.748670
O O10 0.148205 0.257993 0.534647
O O11 0.186544 0.000000 0.540486
O O12 0.500000 0.707092 0.500000
O O13 0.605266 0.500000 0.381270
O O14 0.588316 0.740497 0.488564
O O15 0.026377 0.000000 0.046011
O O16 0.000000 0.772806 0.000000
O O17 0.590619 0.000000 0.554122
#
# Coordination Sequence:
#
# PCOD9196143 Si02
#       6
#     8   8   8   8   8   8
#     4  12  25  41  62  87 118 153 191 235 284 340
#     4  10  21  38  60  86 117 152 193 239 287 341
#     4  10  20  35  56  81 113 151 192 240 291 343
#     4  11  24  41  62  88 117 150 190 236 287 342
#     4   9  19  36  57  81 111 150 194 238 286 338
#     4  10  21  38  60  85 115 152 193 238 290 344
#
# _framework density 18.528034999999999
#
# number of rings (size 3 to 8) (size 9 to 14) (size 15 to 20)
#    0.000    1.667    0.000    4.500    0.000    8.333 
#    0.000    5.000    0.000    0.000    0.000    0.000 
#    0.000    0.000    0.000    0.000    0.000    0.000 
#
# Total GULP energy -134172.760918 kJ/mol
# GULP energy per Si atom -5590.531705 kJ/mol
# Density = 1.848586 g / cm^3
# Si number density = 18.528035 Si / 1000 Ang^3
#
#
#
# Elastic Constant Matrix: (Units=GPa)
#
#
# Indices 1 2 3 4 5 6 
#
# 1 183.4977 102.4169 88.7000 0.0000 6.3702 -0.0002
# 2 102.4169 137.8234 83.9744 0.0003 -9.1179 -0.0008
# 3 88.7000 83.9744 81.7700 0.0000 0.8766 -0.0002
# 4 0.0000 0.0003 0.0000 30.3245 0.0000 1.1056
# 5 6.3702 -9.1179 0.8766 0.0000 40.0146 0.0000
# 6 -0.0002 -0.0008 -0.0002 1.1056 0.0000 39.2013
#
#
#
# Elastic Compliance Matrix: (Units=1/GPa)
#
#
# Indices 1 2 3 4 5 6 
#
# 1 0.012009 -0.003104 -0.009814 0.000000 -0.002404 0.000000
# 2 -0.003104 0.021178 -0.018444 0.000000 0.005724 0.000000
# 3 -0.009814 -0.018444 0.041855 0.000000 -0.003557 0.000000
# 4 0.000000 0.000000 0.000000 0.033011 0.000000 -0.000931
# 5 -0.002404 0.005724 -0.003557 0.000000 0.026756 0.000000
# 6 0.000000 0.000000 0.000000 -0.000931 0.000000 0.025536
#
#
# Mechanical properties :
#
#
# Convention : Reuss Voigt Hill
#
# Bulk Modulus (GPa) = 81.17608 105.91932 93.54770
# Shear Modulus (GPa) = 22.00955 30.44142 26.22549
#
# Velocity S-wave (km/s) = 3.45034 4.05778 3.76633
# Velocity P-wave (km/s) = 7.73180 8.90198 8.33745
#
# Compressibility (1/GPa) = 0.01231890
#
# Stress axis : x y z
#
# Youngs Moduli (GPa) = 83.26868 47.21795 23.89219
#
# Poissons Ratio (x) = 0.14654 0.23448
# Poissons Ratio (y) = 0.25843 0.44067
# Poissons Ratio (z) = 0.81721 0.87089
#
# Static dielectric constant tensor:
#      x y z
#    x 1.604250 0.000000 0.001260 
#    y 0.000000 1.619120 0.000000 
#    z 0.001260 0.000000 1.615700 
# 
# From -- ./inp_files/295377.got.cif
#   From: 2010.05.17/outbox.cif.g08.bks.cpg/sg12_148_cif.got.tgz:295377.got - 2010.06.03 13:09:07.
