data_PCOD9196738
_publ_section_title
;
Structure prediction by ZEFSAII (Michael W. Deem and Ramdas Pophale) SiO2 
 PCOD9196738
Probable space group: C 2/M
;
_chemical_formula_sum "Si O2"
_cell_formula_units_Z 64
_cell_length_a 31.004462
_cell_length_b 8.713557
_cell_length_c 23.119694
_cell_angle_alpha 90.000000
_cell_angle_beta 31.681049
_cell_angle_gamma 90.000000
_cell_volume 3280.336377
_symmetry_space_group_name_H-M "C 2/M"
_symmetry_group_IT_number 12
_symmetry_cell_setting 'monoclinic'
loop_
_space_group_symop_operation_xyz
x,y,z
-x,y,-z
-x,-y,-z
x,-y,z
1/2+x,1/2+y,z
1/2-x,1/2+y,-z
1/2-x,1/2-y,-z
1/2+x,1/2-y,z
loop_
_atom_site_type_symbol
_atom_site_label
_atom_site_fract_x
_atom_site_fract_y
_atom_site_fract_z
Si Si1 0.746413 0.314327 0.751219
Si Si2 0.175415 0.181917 0.548647
Si Si3 0.881745 0.316471 0.505540
Si Si4 0.225757 0.814869 0.153968
Si Si5 0.030378 0.182802 0.804513
Si Si6 0.417904 0.686730 0.127516
Si Si7 0.060666 0.816228 0.280240
Si Si8 0.884376 0.682691 0.905233
O O1 0.744174 0.500000 0.755820
O O2 0.826834 0.268154 0.622886
O O3 0.750688 0.251525 0.810891
O O4 0.664778 0.261568 0.810067
O O5 0.250000 0.250000 0.500000
O O6 0.164452 0.261986 0.499678
O O7 0.093467 0.206646 0.680063
O O8 0.186012 0.000000 0.528801
O O9 0.886598 0.500000 0.499606
O O10 0.973127 0.249399 0.399171
O O11 0.135129 0.767430 0.237066
O O12 0.227542 0.000000 0.155017
O O13 0.293649 0.768524 0.028888
O O14 0.072145 0.232184 0.816946
O O15 0.947309 0.270563 0.884172
O O16 0.012951 0.000000 0.828434
O O17 0.415574 0.500000 0.129517
O O18 0.500000 0.734521 0.000000
O O19 0.084776 0.761653 0.188471
O O20 0.055432 0.000000 0.285875
O O21 0.885709 0.500000 0.895405
#
# Coordination Sequence:
#
# PCOD9196738 Si02
#       8
#     8   8   8   8   8   8   8   8
#     4  10  22  40  62  88 119 159 204 251 301 360
#     4  11  22  36  57  85 119 160 204 247 299 356
#     4  11  23  40  61  88 123 158 202 256 305 361
#     4  10  24  42  61  88 121 157 200 252 309 372
#     4  10  20  35  57  85 118 157 200 241 291 359
#     4   9  17  32  56  85 116 153 197 242 287 344
#     4  11  23  41  63  88 119 159 204 249 308 370
#     4  11  22  38  61  91 124 155 195 252 311 364
#
# _framework density 19.510193999999998
#
# number of rings (size 3 to 8) (size 9 to 14) (size 15 to 20)
#    0.000    1.625    1.250    3.375    0.000    7.000 
#    0.000    3.125    0.000    2.250    0.000    0.000 
#    0.000    0.000    0.000    0.000    0.000    0.000 
#
# Total GULP energy -178856.434379 kJ/mol
# GULP energy per Si atom -5589.263574 kJ/mol
# Density = 1.946579 g / cm^3
# Si number density = 19.510194 Si / 1000 Ang^3
#
#
#
# Elastic Constant Matrix: (Units=GPa)
#
#
# Indices 1 2 3 4 5 6 
#
# 1 85.4789 6.4492 28.3187 -0.0015 -7.8583 0.0025
# 2 6.4492 20.9452 28.4810 0.0062 -2.9526 0.0012
# 3 28.3187 28.4810 111.8083 0.0016 -7.7886 0.0077
# 4 -0.0015 0.0062 0.0016 20.7252 0.0038 -0.0536
# 5 -7.8583 -2.9526 -7.7886 0.0038 38.2997 -0.0045
# 6 0.0025 0.0012 0.0077 -0.0536 -0.0045 32.3459
#
#
#
# Elastic Compliance Matrix: (Units=1/GPa)
#
#
# Indices 1 2 3 4 5 6 
#
# 1 0.012932 0.000866 -0.003354 0.000001 0.002038 0.000000
# 2 0.000866 0.073236 -0.018734 -0.000021 0.002014 0.000002
# 3 -0.003354 -0.018734 0.014624 0.000004 0.000841 -0.000002
# 4 0.000001 -0.000021 0.000004 0.048251 -0.000005 0.000080
# 5 0.002038 0.002014 0.000841 -0.000005 0.026854 0.000003
# 6 0.000000 0.000002 -0.000002 0.000080 0.000003 0.030916
#
#
# Mechanical properties :
#
#
# Convention : Reuss Voigt Hill
#
# Bulk Modulus (GPa) = 17.13877 38.30338 27.72108
# Shear Modulus (GPa) = 18.60766 28.60637 23.60702
#
# Velocity S-wave (km/s) = 3.09162 3.83329 3.48226
# Velocity P-wave (km/s) = 4.64195 6.26636 5.51430
#
# Compressibility (1/GPa) = 0.05834724
#
# Stress axis : x y z
#
# Youngs Moduli (GPa) = 77.32757 13.65457 68.37955
#
# Poissons Ratio (x) = -0.01183 0.22935
# Poissons Ratio (y) = -0.06699 1.28105
# Poissons Ratio (z) = 0.25936 0.25581
#
# Static dielectric constant tensor:
#      x y z
#    x 1.640890 -0.000020 -0.005960 
#    y -0.000020 1.660600 0.000010 
#    z -0.005960 0.000010 1.680640 
# 
# From -- ./inp_files/249881.got.cif
#   From: 2010.05.17/outbox.cif.g08.bks.cpg/sg12_125_cif.got.tgz:249881.got - 2010.06.03 13:09:07.
