data_PCOD9196546
_publ_section_title
;
Structure prediction by ZEFSAII (Michael W. Deem and Ramdas Pophale) SiO2 
 PCOD9196546
Probable space group: C 2/M
;
_chemical_formula_sum "Si O2"
_cell_formula_units_Z 64
_cell_length_a 20.655779
_cell_length_b 8.723707
_cell_length_c 22.148920
_cell_angle_alpha 90.000000
_cell_angle_beta 131.013818
_cell_angle_gamma 90.000000
_cell_volume 3011.507828
_symmetry_space_group_name_H-M "C 2/M"
_symmetry_group_IT_number 12
_symmetry_cell_setting 'monoclinic'
loop_
_space_group_symop_operation_xyz
x,y,z
-x,y,-z
-x,-y,-z
x,-y,z
1/2+x,1/2+y,z
1/2-x,1/2+y,-z
1/2-x,1/2-y,-z
1/2+x,1/2-y,z
loop_
_atom_site_type_symbol
_atom_site_label
_atom_site_fract_x
_atom_site_fract_y
_atom_site_fract_z
Si Si1 0.737022 0.816874 0.659104
Si Si2 0.401563 0.817417 0.943198
Si Si3 0.091015 0.816754 0.178787
Si Si4 0.426389 0.314796 0.147480
Si Si5 0.173118 0.682074 0.491088
Si Si6 0.742311 0.179496 0.905275
Si Si7 0.485684 0.325521 0.672192
Si Si8 0.172254 0.174433 0.741913
O O1 0.840283 0.792421 0.725218
O O2 0.689519 0.764262 0.569716
O O3 0.700637 0.731536 0.694683
O O4 0.724345 0.000000 0.658363
O O5 0.373360 0.769442 0.858243
O O6 0.338026 0.747460 0.954513
O O7 0.402011 0.000000 0.950808
O O8 0.500000 0.760308 0.000000
O O9 0.994946 0.766703 0.138389
O O10 0.089119 0.000000 0.165425
O O11 0.419316 0.500000 0.141623
O O12 0.329628 0.250611 0.093813
O O13 0.477064 0.272895 0.240380
O O14 0.179144 0.500000 0.496063
O O15 0.250000 0.750000 0.500000
O O16 0.086443 0.730228 0.405023
O O17 0.703265 0.216583 0.815039
O O18 0.748867 0.000000 0.921061
O O19 0.453678 0.500000 0.661528
O O20 0.569720 0.328352 0.682154
O O21 0.202070 0.000000 0.774017
#
# Coordination Sequence:
#
# PCOD9196546 Si02
#       8
#     8   8   8   8   8   8   8   8
#     4  10  21  36  55  81 112 147 189 240 291 340
#     4  11  24  41  62  89 121 154 190 236 289 345
#     4  10  20  37  62  89 116 150 194 243 293 346
#     4   9  19  37  61  87 119 158 196 240 292 341
#     4  11  23  37  53  75 108 149 192 238 293 346
#     4  11  21  36  60  89 120 154 195 237 283 345
#     4   9  19  36  55  78 112 150 191 236 287 341
#     4  10  20  35  57  83 110 147 190 237 290 342
#
# _framework density 21.251811
#
# number of rings (size 3 to 8) (size 9 to 14) (size 15 to 20)
#    0.000    1.875    1.250    3.750    0.000    7.500 
#    0.000    4.375    0.000    0.000    0.000    0.000 
#    0.000    0.000    0.000    0.000    0.000    0.000 
#
# Total GULP energy -178685.401926 kJ/mol
# GULP energy per Si atom -5583.918810 kJ/mol
# Density = 2.120344 g / cm^3
# Si number density = 21.251811 Si / 1000 Ang^3
#
#
#
# Elastic Constant Matrix: (Units=GPa)
#
#
# Indices 1 2 3 4 5 6 
#
# 1 139.9595 24.7413 15.3996 0.0000 11.4708 0.0000
# 2 24.7413 38.1019 3.9557 0.0000 10.0779 0.0000
# 3 15.3996 3.9557 70.9705 0.0000 12.9351 0.0000
# 4 0.0000 0.0000 0.0000 17.7889 0.0000 9.4998
# 5 11.4708 10.0779 12.9351 0.0000 32.2459 0.0000
# 6 0.0000 0.0000 0.0000 9.4998 0.0000 35.0615
#
#
#
# Elastic Compliance Matrix: (Units=1/GPa)
#
#
# Indices 1 2 3 4 5 6 
#
# 1 0.008245 -0.004994 -0.001360 0.000000 -0.000827 0.000000
# 2 -0.004994 0.031636 0.000862 0.000000 -0.008456 0.000000
# 3 -0.001360 0.000862 0.015426 0.000000 -0.005973 0.000000
# 4 0.000000 0.000000 0.000000 0.065725 0.000000 -0.017808
# 5 -0.000827 -0.008456 -0.005973 0.000000 0.036345 0.000000
# 6 0.000000 0.000000 0.000000 -0.017808 0.000000 0.033346
#
#
# Mechanical properties :
#
#
# Convention : Reuss Voigt Hill
#
# Bulk Modulus (GPa) = 22.56232 37.46948 30.01590
# Shear Modulus (GPa) = 23.09660 30.68161 26.88911
#
# Velocity S-wave (km/s) = 3.30025 3.80375 3.56091
# Velocity P-wave (km/s) = 5.01617 6.07954 5.57327
#
# Compressibility (1/GPa) = 0.04432169
#
# Stress axis : x y z
#
# Youngs Moduli (GPa) = 121.28338 31.61003 64.82491
#
# Poissons Ratio (x) = 0.15786 0.08817
# Poissons Ratio (y) = 0.60570 -0.05585
# Poissons Ratio (z) = 0.16495 -0.02723
#
# Static dielectric constant tensor:
#      x y z
#    x 1.756660 0.000000 0.014010 
#    y 0.000000 1.729550 0.000000 
#    z 0.014010 0.000000 1.816300 
# 
# From -- ./inp_files/346296.got.cif
#   From: 2010.05.17/outbox.cif.g08.bks.cpg/sg12_174_cif.got.tgz:346296.got - 2010.06.03 13:09:07.
