data_PCOD9196111
_publ_section_title
;
Structure prediction by ZEFSAII (Michael W. Deem and Ramdas Pophale) SiO2 
 PCOD9196111
Probable space group: C 2/M
;
_chemical_formula_sum "Si O2"
_cell_formula_units_Z 48
_cell_length_a 18.487302
_cell_length_b 8.914945
_cell_length_c 31.939842
_cell_angle_alpha 90.000000
_cell_angle_beta 150.048809
_cell_angle_gamma 90.000000
_cell_volume 2628.170530
_symmetry_space_group_name_H-M "C 2/M"
_symmetry_group_IT_number 12
_symmetry_cell_setting 'monoclinic'
loop_
_space_group_symop_operation_xyz
x,y,z
-x,y,-z
-x,-y,-z
x,-y,z
1/2+x,1/2+y,z
1/2-x,1/2+y,-z
1/2-x,1/2-y,-z
1/2+x,1/2-y,z
loop_
_atom_site_type_symbol
_atom_site_label
_atom_site_fract_x
_atom_site_fract_y
_atom_site_fract_z
Si Si1 0.331556 0.319626 0.330841
Si Si2 0.812781 0.821935 0.822470
Si Si3 0.668992 0.319202 0.498937
Si Si4 0.849435 0.819534 0.179154
Si Si5 0.578753 0.827561 0.993947
Si Si6 0.164890 0.680377 0.332801
O O1 0.324384 0.500000 0.321203
O O2 0.246225 0.240324 0.250737
O O3 0.500326 0.275288 0.414981
O O4 0.259793 0.285272 0.339512
O O5 0.716910 0.749751 0.811677
O O6 0.800620 0.000000 0.818333
O O7 0.978277 0.771465 0.914013
O O8 0.674327 0.500000 0.498815
O O9 0.750000 0.250000 0.500000
O O10 0.749390 0.275793 0.582165
O O11 0.741201 0.777559 0.086656
O O12 0.010458 0.760600 0.253575
O O13 0.845190 0.000000 0.180470
O O14 0.579258 0.000000 0.979366
O O15 0.500000 0.826997 0.000000
O O16 0.142923 0.500000 0.323077
#
# Coordination Sequence:
#
# PCOD9196111 Si02
#       6
#     8   8   8   8   8   8
#     4  10  21  38  57  77 109 149 181 217 271 325
#     4  11  21  33  54  83 111 140 182 230 269 315
#     4  10  21  37  58  83 108 139 180 222 266 318
#     4  10  20  35  56  81 110 144 181 222 271 325
#     4   8  16  32  53  77 106 141 180 222 270 321
#     4  10  21  37  57  81 109 142 182 225 267 317
#
# _framework density 18.263656000000001
#
# number of rings (size 3 to 8) (size 9 to 14) (size 15 to 20)
#    0.000    2.167    0.000    4.500    0.000   10.333 
#    0.000    0.833    0.000    3.000    0.000    0.000 
#    0.000    0.000    0.000    0.000    0.000    0.000 
#
# Total GULP energy -133992.303321 kJ/mol
# GULP energy per Si atom -5583.012638 kJ/mol
# Density = 1.822209 g / cm^3
# Si number density = 18.263656 Si / 1000 Ang^3
#
#
#
# Elastic Constant Matrix: (Units=GPa)
#
#
# Indices 1 2 3 4 5 6 
#
# 1 116.9885 57.2021 100.4232 0.0000 -7.1273 0.0000
# 2 57.2021 54.6893 74.8901 0.0000 1.0569 0.0001
# 3 100.4232 74.8901 208.5960 0.0000 -1.2828 0.0000
# 4 0.0000 0.0000 0.0000 28.4109 0.0000 3.7063
# 5 -7.1273 1.0569 -1.2828 0.0000 -16.9399 0.0000
# 6 0.0000 0.0001 0.0000 3.7063 0.0000 26.0786
#
#
#
# Elastic Compliance Matrix: (Units=1/GPa)
#
#
# Indices 1 2 3 4 5 6 
#
# 1 0.017856 -0.013144 -0.003927 0.000000 -0.008035 0.000000
# 2 -0.013144 0.045468 -0.009940 0.000000 0.009119 0.000000
# 3 -0.003927 -0.009940 0.010255 0.000000 0.000255 0.000000
# 4 0.000000 0.000000 0.000000 0.035863 0.000000 -0.005097
# 5 -0.008035 0.009119 0.000255 0.000000 -0.055102 0.000000
# 6 0.000000 0.000000 0.000000 -0.005097 0.000000 0.039070
#
#
# Mechanical properties :
#
#
# Convention : Reuss Voigt Hill
#
# Bulk Modulus (GPa) = 51.13139 93.92273 72.52706
# Shear Modulus (GPa) = 32.47804 17.36048 24.91926
#
# Velocity S-wave (km/s) = 4.22155 3.08644 3.69781
# Velocity P-wave (km/s) = 7.19854 8.01493 7.61768
#
# Compressibility (1/GPa) = 0.01955746
#
# Stress axis : x y z
#
# Youngs Moduli (GPa) = 56.00462 21.99329 97.51574
#
# Poissons Ratio (x) = 0.28907 0.38292
# Poissons Ratio (y) = 0.73610 0.96934
# Poissons Ratio (z) = 0.21992 0.21862
#
# Static dielectric constant tensor:
#      x y z
#    x 1.594230 0.000000 0.007450 
#    y 0.000000 1.612490 0.000000 
#    z 0.007450 0.000000 1.631230 
# 
# From -- ./inp_files/274034.got.cif
#   From: 2010.05.17/outbox.cif.g08.bks.cpg/sg12_138_cif.got.tgz:274034.got - 2010.06.03 13:09:07.
