data_PCOD9196078
_publ_section_title
;
Structure prediction by ZEFSAII (Michael W. Deem and Ramdas Pophale) SiO2 
 PCOD9196078
Probable space group: C 2/M
;
_chemical_formula_sum "Si O2"
_cell_formula_units_Z 64
_cell_length_a 14.997940
_cell_length_b 7.618912
_cell_length_c 29.855614
_cell_angle_alpha 90.000000
_cell_angle_beta 45.977005
_cell_angle_gamma 90.000000
_cell_volume 2453.105805
_symmetry_space_group_name_H-M "C 2/M"
_symmetry_group_IT_number 12
_symmetry_cell_setting 'monoclinic'
loop_
_space_group_symop_operation_xyz
x,y,z
-x,y,-z
-x,-y,-z
x,-y,z
1/2+x,1/2+y,z
1/2-x,1/2+y,-z
1/2-x,1/2-y,-z
1/2+x,1/2-y,z
loop_
_atom_site_type_symbol
_atom_site_label
_atom_site_fract_x
_atom_site_fract_y
_atom_site_fract_z
Si Si1 0.526162 0.291557 0.598332
Si Si2 0.641591 0.193191 0.466991
Si Si3 0.010157 0.798026 0.841354
Si Si4 0.615932 0.209119 0.025487
Si Si5 0.467040 0.792611 0.305508
Si Si6 0.249658 0.787324 0.106707
Si Si7 0.763559 0.801301 0.658226
Si Si8 0.743421 0.791928 0.210513
O O1 0.512898 0.500000 0.603728
O O2 0.619735 0.249159 0.525479
O O3 0.575746 0.226500 0.628230
O O4 0.385353 0.218020 0.638749
O O5 0.500000 0.177941 0.500000
O O6 0.697983 0.308986 0.407960
O O7 0.700824 0.000000 0.444653
O O8 0.973552 0.794324 0.906997
O O9 0.888879 0.720595 0.858904
O O10 0.149390 0.720584 0.793988
O O11 0.018414 0.000000 0.824316
O O12 0.589758 0.000000 0.034473
O O13 0.750000 0.250000 0.000000
O O14 0.642636 0.268584 0.965433
O O15 0.373077 0.718365 0.300828
O O16 0.605126 0.714733 0.259885
O O17 0.477033 0.000000 0.291799
O O18 0.278359 0.733306 0.146635
O O19 0.245461 0.000000 0.104922
O O20 0.751545 0.000000 0.678730
O O21 0.735374 0.000000 0.222932
#
# Coordination Sequence:
#
# PCOD9196078 Si02
#       8
#     8   8   8   8   8   8   8   8
#     4  10  20  35  56  81 108 139 174 216 266 316
#     4   9  17  31  54  83 110 136 171 213 259 316
#     4   9  19  36  55  78 109 142 174 214 265 317
#     4   9  17  31  53  81 110 139 172 213 263 319
#     4  10  22  39  55  75 105 141 181 222 262 309
#     4   9  19  35  54  77 107 138 170 214 266 314
#     4   9  19  36  56  78 108 141 172 213 265 315
#     4  10  22  38  55  76 104 140 183 223 260 309
#
# _framework density 26.089375
#
# number of rings (size 3 to 8) (size 9 to 14) (size 15 to 20)
#    0.000    2.625    0.000    1.875    0.000    8.000 
#    0.000    2.500    0.000    0.000    0.000    0.000 
#    0.000    0.000    0.000    0.000    0.000    0.000 
#
# Total GULP energy -178666.800343 kJ/mol
# GULP energy per Si atom -5583.337511 kJ/mol
# Density = 2.602999 g / cm^3
# Si number density = 26.089375 Si / 1000 Ang^3
#
#
#
# Elastic Constant Matrix: (Units=GPa)
#
#
# Indices 1 2 3 4 5 6 
#
# 1 183.3144 9.8461 24.2279 -0.0002 -11.0456 -0.0011
# 2 9.8461 79.2749 11.3401 -0.0032 -6.8993 0.0006
# 3 24.2279 11.3401 36.3837 -0.0017 19.1607 -0.0017
# 4 -0.0002 -0.0032 -0.0017 25.0625 -0.0009 9.5356
# 5 -11.0456 -6.8993 19.1607 -0.0009 35.8730 -0.0009
# 6 -0.0011 0.0006 -0.0017 9.5356 -0.0009 5.7795
#
#
#
# Elastic Compliance Matrix: (Units=1/GPa)
#
#
# Indices 1 2 3 4 5 6 
#
# 1 0.006950 0.000962 -0.008560 0.000000 0.006897 0.000000
# 2 0.000962 0.014560 -0.009474 0.000007 0.008157 -0.000014
# 3 -0.008560 -0.009474 0.053548 -0.000007 -0.033059 0.000021
# 4 0.000000 0.000007 -0.000007 0.107185 0.000003 -0.176845
# 5 0.006897 0.008157 -0.033059 0.000003 0.049226 -0.000006
# 6 0.000000 -0.000014 0.000021 -0.176845 -0.000006 0.464804
#
#
# Mechanical properties :
#
#
# Convention : Reuss Voigt Hill
#
# Bulk Modulus (GPa) = 24.44209 43.31125 33.87667
# Shear Modulus (GPa) = 6.71992 30.24693 18.48343
#
# Velocity S-wave (km/s) = 1.60665 3.40863 2.66459
# Velocity P-wave (km/s) = 3.58200 5.66823 4.74128
#
# Compressibility (1/GPa) = 0.04091304
#
# Stress axis : x y z
#
# Youngs Moduli (GPa) = 143.87586 68.68132 18.67488
#
# Poissons Ratio (x) = -0.06604 0.15986
# Poissons Ratio (y) = -0.13834 0.17692
# Poissons Ratio (z) = 1.23162 0.65068
#
# Static dielectric constant tensor:
#      x y z
#    x 2.072310 0.000000 -0.066800 
#    y 0.000000 2.018560 0.000000 
#    z -0.066800 0.000000 2.189360 
# 
# From -- ./inp_files/375443.got.cif
#   From: 2010.05.17/outbox.cif.g08.bks.cpg/sg12_188_cif.got.tgz:375443.got - 2010.06.03 13:09:07.
