data_PCOD9196694
_publ_section_title
;
Structure prediction by ZEFSAII (Michael W. Deem and Ramdas Pophale) SiO2 
 PCOD9196694
Probable space group: C 2/M
;
_chemical_formula_sum "Si O2"
_cell_formula_units_Z 40
_cell_length_a 25.243280
_cell_length_b 9.000375
_cell_length_c 28.501605
_cell_angle_alpha 90.000000
_cell_angle_beta 20.017240
_cell_angle_gamma 90.000000
_cell_volume 2216.594518
_symmetry_space_group_name_H-M "C 2/M"
_symmetry_group_IT_number 12
_symmetry_cell_setting 'monoclinic'
loop_
_space_group_symop_operation_xyz
x,y,z
-x,y,-z
-x,-y,-z
x,-y,z
1/2+x,1/2+y,z
1/2-x,1/2+y,-z
1/2-x,1/2-y,-z
1/2+x,1/2-y,z
loop_
_atom_site_type_symbol
_atom_site_label
_atom_site_fract_x
_atom_site_fract_y
_atom_site_fract_z
Si Si1 0.450160 0.677588 0.489309
Si Si2 0.085837 0.327521 0.289136
Si Si3 0.361510 0.678639 0.288179
Si Si4 0.008031 0.176187 0.722462
Si Si5 0.699439 0.674374 0.970777
O O1 0.500000 0.723872 0.500000
O O2 0.446529 0.500000 0.490399
O O3 0.565741 0.739083 0.353434
O O4 0.283101 0.742355 0.614742
O O5 0.050722 0.500000 0.326120
O O6 0.973138 0.262215 0.342222
O O7 0.251736 0.315002 0.124899
O O8 0.342515 0.500000 0.301357
O O9 0.383305 0.718595 0.324853
O O10 0.524917 0.715740 0.127436
O O11 0.832251 0.223380 0.883197
O O12 0.016057 0.000000 0.708455
O O13 0.722033 0.500000 0.965123
#
# Coordination Sequence:
#
# PCOD9196694 Si02
#       5
#     8   8   8   8   8
#     4  11  25  42  57  76 104 141 188 236 277 319
#     4   9  19  36  58  81 111 147 178 218 271 324
#     4  10  20  35  57  85 114 146 183 218 264 325
#     4   9  17  30  55  87 118 145 174 216 266 320
#     4   8  17  33  54  85 117 144 177 214 263 328
#
# _framework density 18.045701000000001
#
# number of rings (size 3 to 8) (size 9 to 14) (size 15 to 20)
#    1.200    1.400    0.000    1.800    0.000    4.800 
#    0.000    1.000    0.000    6.000    0.000    0.000 
#    0.000    0.000    0.000    0.000    0.000    0.000 
#
# Total GULP energy -111378.705536 kJ/mol
# GULP energy per Si atom -5568.935277 kJ/mol
# Density = 1.800463 g / cm^3
# Si number density = 18.045701 Si / 1000 Ang^3
#
#
#
# Elastic Constant Matrix: (Units=GPa)
#
#
# Indices 1 2 3 4 5 6 
#
# 1 27.9982 -27.4373 -122.4906 -0.0084 49.1722 0.0191
# 2 -27.4373 -7.5254 -89.1776 0.0072 25.4441 0.0076
# 3 -122.4906 -89.1776 -162.6867 -0.0156 71.1287 0.0288
# 4 -0.0084 0.0072 -0.0156 26.0017 -0.0004 3.2941
# 5 49.1722 25.4441 71.1287 -0.0004 2.8561 -0.0058
# 6 0.0191 0.0076 0.0288 3.2941 -0.0058 25.5673
#
#
#
# Elastic Compliance Matrix: (Units=1/GPa)
#
#
# Indices 1 2 3 4 5 6 
#
# 1 0.012565 -0.013266 -0.003794 0.000006 -0.003670 -0.000003
# 2 -0.013266 0.041818 -0.006390 -0.000021 0.014971 0.000011
# 3 -0.003794 -0.006390 0.004513 0.000003 0.009838 0.000001
# 4 0.000006 -0.000021 0.000003 0.039097 0.000002 -0.005037
# 5 -0.003670 0.014971 0.009838 0.000002 0.034950 -0.000005
# 6 -0.000003 0.000011 0.000001 -0.005037 -0.000005 0.039762
#
#
# Mechanical properties :
#
#
# Convention : Reuss Voigt Hill
#
# Bulk Modulus (GPa) = 83.34128 -68.93608 7.20260
# Shear Modulus (GPa) = 22.36103 17.34446 19.85275
#
# Velocity S-wave (km/s) = 3.52395 3.10359 3.32043
# Velocity P-wave (km/s) = 7.92725 5.04388 4.32439
#
# Compressibility (1/GPa) = 0.01199886
#
# Stress axis : x y z
#
# Youngs Moduli (GPa) = 79.58427 23.91287 221.56547
#
# Poissons Ratio (x) = 0.31722 0.84057
# Poissons Ratio (y) = 1.05575 1.41572
# Poissons Ratio (z) = 0.30192 0.15279
#
# Static dielectric constant tensor:
#      x y z
#    x 1.621280 0.000000 0.038590 
#    y 0.000000 1.599970 0.000000 
#    z 0.038590 0.000000 1.644210 
# 
# From -- ./inp_files/162523.got.cif
#   From: 2010.05.17/outbox.cif.g08.bks.cpg/sg12_82_cif.got.tgz:162523.got - 2010.06.03 13:09:07.
