data_PCOD9196364
_publ_section_title
;
Structure prediction by ZEFSAII (Michael W. Deem and Ramdas Pophale) SiO2 
 PCOD9196364
Probable space group: C 2/M
;
_chemical_formula_sum "Si O2"
_cell_formula_units_Z 64
_cell_length_a 17.083007
_cell_length_b 14.106715
_cell_length_c 15.120209
_cell_angle_alpha 90.000000
_cell_angle_beta 90.942556
_cell_angle_gamma 90.000000
_cell_volume 3643.252211
_symmetry_space_group_name_H-M "C 2/M"
_symmetry_group_IT_number 12
_symmetry_cell_setting 'monoclinic'
loop_
_space_group_symop_operation_xyz
x,y,z
-x,y,-z
-x,-y,-z
x,-y,z
1/2+x,1/2+y,z
1/2-x,1/2+y,-z
1/2-x,1/2-y,-z
1/2+x,1/2-y,z
loop_
_atom_site_type_symbol
_atom_site_label
_atom_site_fract_x
_atom_site_fract_y
_atom_site_fract_z
Si Si1 0.497075 0.611030 0.166160
Si Si2 0.168717 0.111389 0.100132
Si Si3 0.949699 0.391937 0.409353
Si Si4 0.061150 0.249236 0.312946
Si Si5 0.409779 0.392379 0.526997
Si Si6 0.222711 0.732807 0.234196
Si Si7 0.822695 0.886411 0.098809
Si Si8 0.811774 0.754871 0.421312
O O1 0.494588 0.500000 0.192192
O O2 0.574151 0.622280 0.106399
O O3 0.514202 0.677545 0.249405
O O4 0.413857 0.635139 0.121692
O O5 0.209251 0.170712 0.178373
O O6 0.185117 0.000000 0.111030
O O7 0.194053 0.142312 0.002709
O O8 0.935793 0.500000 0.380005
O O9 0.870346 0.334302 0.425467
O O10 0.000000 0.394482 0.500000
O O11 0.002576 0.329429 0.345174
O O12 0.094523 0.183426 0.393276
O O13 0.135030 0.293938 0.263480
O O14 0.500000 0.394425 0.500000
O O15 0.385637 0.500000 0.550209
O O16 0.361363 0.349310 0.444507
O O17 0.266474 0.662157 0.168707
O O18 0.272218 0.742908 0.324784
O O19 0.814592 0.000000 0.103378
O O20 0.750000 0.750000 0.500000
#
# Coordination Sequence:
#
# PCOD9196364 Si02
#       8
#     8   8   8   8   8   8   8   8
#     4   9  18  32  58  86 109 142 181 230 289 340
#     4   9  19  37  58  82 112 148 187 230 282 343
#     4  11  22  38  57  73 101 151 198 231 270 324
#     4  11  19  39  55  78 114 148 192 232 270 336
#     4  11  22  37  61  82 109 149 188 233 288 334
#     4  11  23  34  58  81 116 150 186 230 280 336
#     4  10  20  35  56  85 117 143 182 235 289 339
#     4  12  22  40  56  82 118 147 188 239 279 333
#
# _framework density 17.566721999999999
#
# number of rings (size 3 to 8) (size 9 to 14) (size 15 to 20)
#    0.000    1.500    3.750    1.875    0.000    4.000 
#    0.000    0.000    0.000    0.000    0.000    0.000 
#    0.000   14.000    0.000    0.000    0.000    0.000 
#
# Total GULP energy -178552.509485 kJ/mol
# GULP energy per Si atom -5579.765921 kJ/mol
# Density = 1.752674 g / cm^3
# Si number density = 17.566722 Si / 1000 Ang^3
#
#
#
# Elastic Constant Matrix: (Units=GPa)
#
#
# Indices 1 2 3 4 5 6 
#
# 1 90.4302 52.4904 57.4349 0.0000 -3.5596 0.0000
# 2 52.4904 90.5510 52.4327 0.0000 -11.8475 0.0000
# 3 57.4349 52.4327 125.7722 0.0000 -6.7568 0.0000
# 4 0.0000 0.0000 0.0000 -33.0400 0.0000 30.6220
# 5 -3.5596 -11.8475 -6.7568 0.0000 25.8855 0.0000
# 6 0.0000 0.0000 0.0000 30.6220 0.0000 2.3379
#
#
#
# Elastic Compliance Matrix: (Units=1/GPa)
#
#
# Indices 1 2 3 4 5 6 
#
# 1 0.019269 -0.008349 -0.005458 0.000000 -0.002596 0.000000
# 2 -0.008349 0.018885 -0.003710 0.000000 0.006527 0.000000
# 3 -0.005458 -0.003710 0.012027 0.000000 0.000691 0.000000
# 4 0.000000 0.000000 0.000000 -0.002303 0.000000 0.030171
# 5 -0.002596 0.006527 0.000691 0.000000 0.041442 0.000000
# 6 0.000000 0.000000 0.000000 0.030171 0.000000 0.032553
#
#
# Mechanical properties :
#
#
# Convention : Reuss Voigt Hill
#
# Bulk Modulus (GPa) = 66.01760 70.16326 68.09043
# Shear Modulus (GPa) = 30.87254 8.66306 19.76780
#
# Velocity S-wave (km/s) = 4.19674 2.22311 3.35819
# Velocity P-wave (km/s) = 7.81960 6.82769 7.34042
#
# Compressibility (1/GPa) = 0.01514748
#
# Stress axis : x y z
#
# Youngs Moduli (GPa) = 51.89716 52.95136 83.14551
#
# Poissons Ratio (x) = 0.44208 0.45383
# Poissons Ratio (y) = 0.43328 0.30845
# Poissons Ratio (z) = 0.28327 0.19644
#
# Static dielectric constant tensor:
#      x y z
#    x 1.604760 0.000000 -0.005850 
#    y 0.000000 1.588400 0.000000 
#    z -0.005850 0.000000 1.607460 
# 
# From -- ./inp_files/224758.got.cif
#   From: 2010.05.17/outbox.cif.g08.bks.cpg/sg12_113_cif.got.tgz:224758.got - 2010.06.03 13:09:07.
