data_PCOD9196480
_publ_section_title
;
Structure prediction by ZEFSAII (Michael W. Deem and Ramdas Pophale) SiO2 
 PCOD9196480
Probable space group: C 2/M
;
_chemical_formula_sum "Si O2"
_cell_formula_units_Z 64
_cell_length_a 15.898867
_cell_length_b 7.658597
_cell_length_c 20.574905
_cell_angle_alpha 90.000000
_cell_angle_beta 71.485555
_cell_angle_gamma 90.000000
_cell_volume 2375.599173
_symmetry_space_group_name_H-M "C 2/M"
_symmetry_group_IT_number 12
_symmetry_cell_setting 'monoclinic'
loop_
_space_group_symop_operation_xyz
x,y,z
-x,y,-z
-x,-y,-z
x,-y,z
1/2+x,1/2+y,z
1/2-x,1/2+y,-z
1/2-x,1/2-y,-z
1/2+x,1/2-y,z
loop_
_atom_site_type_symbol
_atom_site_label
_atom_site_fract_x
_atom_site_fract_y
_atom_site_fract_z
Si Si1 0.385950 0.697729 0.512777
Si Si2 0.093291 0.699181 0.356959
Si Si3 0.073401 0.790324 0.857835
Si Si4 0.664668 0.202078 0.108301
Si Si5 0.726260 0.215686 0.226213
Si Si6 0.532939 0.289287 0.729699
Si Si7 0.312596 0.287399 0.398626
Si Si8 0.865372 0.292281 0.021428
O O1 0.404873 0.500000 0.492503
O O2 0.441127 0.739084 0.564835
O O3 0.370652 0.783187 0.445950
O O4 0.285709 0.716254 0.567112
O O5 0.115093 0.500000 0.365328
O O6 0.181204 0.780271 0.302952
O O7 0.026980 0.712966 0.312733
O O8 0.173441 0.735293 0.812814
O O9 0.018471 0.730005 0.807815
O O10 0.069023 0.732879 0.933898
O O11 0.069529 0.000000 0.859367
O O12 0.667315 0.280826 0.179496
O O13 0.770290 0.209976 0.063896
O O14 0.640123 0.000000 0.120327
O O15 0.615761 0.277100 0.056441
O O16 0.724509 0.000000 0.226734
O O17 0.523879 0.500000 0.730102
O O18 0.632601 0.249705 0.679858
O O19 0.305219 0.500000 0.403627
O O20 0.852480 0.500000 0.018115
#
# Coordination Sequence:
#
# PCOD9196480 Si02
#       8
#     8   8   8   8   8   8   8   8
#     4  10  20  35  57  82 105 129 162 205 249 296
#     4  11  22  35  52  74 103 136 170 209 250 293
#     4   9  17  31  51  70  93 128 164 200 246 300
#     4   8  14  26  43  64  93 127 160 194 239 294
#     4   8  15  30  51  71  92 126 168 202 239 292
#     4  10  21  37  54  72  99 136 174 207 245 295
#     4   9  19  37  59  79 101 132 167 203 245 295
#     4   9  15  23  41  70  98 120 151 201 249 289
#
# _framework density 26.940573000000001
#
# number of rings (size 3 to 8) (size 9 to 14) (size 15 to 20)
#    0.000    2.750    0.000    2.625    0.000    4.500 
#    0.000   10.000    0.000    0.750    0.000    5.250 
#    0.000    0.000    0.000    0.000    0.000    0.000 
#
# Total GULP energy -178750.552324 kJ/mol
# GULP energy per Si atom -5585.954760 kJ/mol
# Density = 2.687926 g / cm^3
# Si number density = 26.940573 Si / 1000 Ang^3
#
#
#
# Elastic Constant Matrix: (Units=GPa)
#
#
# Indices 1 2 3 4 5 6 
#
# 1 72.6375 -3.7865 10.2643 0.0000 26.6562 0.0000
# 2 -3.7865 67.1880 9.2939 0.0000 -2.7682 -0.0001
# 3 10.2643 9.2939 243.8239 0.0000 23.7988 0.0000
# 4 0.0000 0.0000 0.0000 23.1382 0.0000 3.2423
# 5 26.6562 -2.7682 23.7988 0.0000 58.6370 0.0000
# 6 0.0000 -0.0001 0.0000 3.2423 0.0000 22.8434
#
#
#
# Elastic Compliance Matrix: (Units=1/GPa)
#
#
# Indices 1 2 3 4 5 6 
#
# 1 0.016550 0.000622 0.000012 0.000000 -0.007499 0.000000
# 2 0.000622 0.015040 -0.000668 0.000000 0.000698 0.000000
# 3 0.000012 -0.000668 0.004300 0.000000 -0.001782 0.000000
# 4 0.000000 0.000000 0.000000 0.044096 0.000000 -0.006259
# 5 -0.007499 0.000698 -0.001782 0.000000 0.021219 0.000000
# 6 0.000000 0.000000 0.000000 -0.006259 0.000000 0.044665
#
#
# Mechanical properties :
#
#
# Convention : Reuss Voigt Hill
#
# Bulk Modulus (GPa) = 27.91598 46.13251 37.02425
# Shear Modulus (GPa) = 31.67012 45.44892 38.55952
#
# Velocity S-wave (km/s) = 3.43236 4.11177 3.78733
# Velocity P-wave (km/s) = 5.10810 6.30105 5.73567
#
# Compressibility (1/GPa) = 0.03582177
#
# Stress axis : x y z
#
# Youngs Moduli (GPa) = 60.42423 66.49030 232.54603
#
# Poissons Ratio (x) = -0.04137 -0.00268
# Poissons Ratio (y) = -0.03759 0.15525
# Poissons Ratio (z) = -0.00070 0.04439
#
# Static dielectric constant tensor:
#      x y z
#    x 2.271870 0.000000 0.053990 
#    y 0.000000 1.983860 0.000000 
#    z 0.053990 0.000000 2.149540 
# 
# From -- ./inp_files/314134.got.cif
#   From: 2010.05.17/outbox.cif.g08.bks.cpg/sg12_158_cif.got.tgz:314134.got - 2010.06.03 13:09:07.
