data_PCOD9196375
_publ_section_title
;
Structure prediction by ZEFSAII (Michael W. Deem and Ramdas Pophale) SiO2 
 PCOD9196375
Probable space group: C 2/M
;
_chemical_formula_sum "Si O2"
_cell_formula_units_Z 56
_cell_length_a 24.456864
_cell_length_b 8.516105
_cell_length_c 16.085717
_cell_angle_alpha 90.000000
_cell_angle_beta 55.871751
_cell_angle_gamma 90.000000
_cell_volume 2773.314561
_symmetry_space_group_name_H-M "C 2/M"
_symmetry_group_IT_number 12
_symmetry_cell_setting 'monoclinic'
loop_
_space_group_symop_operation_xyz
x,y,z
-x,y,-z
-x,-y,-z
x,-y,z
1/2+x,1/2+y,z
1/2-x,1/2+y,-z
1/2-x,1/2-y,-z
1/2+x,1/2-y,z
loop_
_atom_site_type_symbol
_atom_site_label
_atom_site_fract_x
_atom_site_fract_y
_atom_site_fract_z
Si Si1 0.795509 0.313719 0.387044
Si Si2 0.432266 0.690155 0.013847
Si Si3 0.206351 0.189892 0.792609
Si Si4 0.574741 0.311383 0.644084
Si Si5 0.834063 0.312471 0.771961
Si Si6 0.577099 0.312122 0.451622
Si Si7 0.433699 0.811068 0.825422
O O1 0.791430 0.500000 0.389814
O O2 0.750000 0.250000 0.500000
O O3 0.775222 0.249367 0.314444
O O4 0.869962 0.258352 0.342969
O O5 0.432869 0.500000 0.011173
O O6 0.367218 0.740744 0.119659
O O7 0.500000 0.742175 0.000000
O O8 0.428387 0.751690 0.923654
O O9 0.260615 0.245513 0.813329
O O10 0.207088 0.000000 0.790202
O O11 0.575425 0.500000 0.649675
O O12 0.591598 0.267886 0.534448
O O13 0.502162 0.250996 0.728466
O O14 0.829873 0.500000 0.784339
O O15 0.878438 0.273099 0.653868
O O16 0.873081 0.252883 0.819457
O O17 0.500000 0.279537 0.500000
O O18 0.586837 0.500000 0.434855
O O19 0.434860 0.000000 0.823100
#
# Coordination Sequence:
#
# PCOD9196375 Si02
#       7
#     8   8   8   8   8   8   8
#     4  12  25  41  62  91 125 161 203 249 301 359
#     4  10  22  41  65  89 115 154 205 257 310 364
#     4  10  22  42  64  88 122 163 205 251 305 363
#     4  11  22  38  61  88 121 160 204 253 306 361
#     4  10  22  38  58  87 124 162 200 246 303 365
#     4  10  20  35  56  85 118 156 201 247 293 351
#     4  11  23  38  59  90 123 156 200 251 305 363
#
# _framework density 20.192444999999999
#
# number of rings (size 3 to 8) (size 9 to 14) (size 15 to 20)
#    0.000    1.429    1.429    3.857    0.000    7.429 
#    0.000    0.000    0.000    0.000    0.000    0.000 
#    0.000    0.000    0.000    0.000    0.000    0.000 
#
# Total GULP energy -156567.694121 kJ/mol
# GULP energy per Si atom -5591.703361 kJ/mol
# Density = 2.014649 g / cm^3
# Si number density = 20.192445 Si / 1000 Ang^3
#
#
#
# Elastic Constant Matrix: (Units=GPa)
#
#
# Indices 1 2 3 4 5 6 
#
# 1 170.7519 25.9230 63.9237 0.0000 5.5669 0.0000
# 2 25.9230 22.0132 17.9186 0.0000 1.3201 0.0000
# 3 63.9237 17.9186 112.6483 0.0000 10.5020 0.0000
# 4 0.0000 0.0000 0.0000 29.1568 0.0000 5.1020
# 5 5.5669 1.3201 10.5020 0.0000 33.5431 0.0000
# 6 0.0000 0.0000 0.0000 5.1020 0.0000 18.0976
#
#
#
# Elastic Compliance Matrix: (Units=1/GPa)
#
#
# Indices 1 2 3 4 5 6 
#
# 1 0.008229 -0.006765 -0.003596 0.000000 0.000026 0.000000
# 2 -0.006765 0.057755 -0.005399 0.000000 0.000540 0.000000
# 3 -0.003596 -0.005399 0.012053 0.000000 -0.002964 0.000000
# 4 0.000000 0.000000 0.000000 0.036077 0.000000 -0.010171
# 5 0.000026 0.000540 -0.002964 0.000000 0.030715 0.000000
# 6 0.000000 0.000000 0.000000 -0.010171 0.000000 0.058123
#
#
# Mechanical properties :
#
#
# Convention : Reuss Voigt Hill
#
# Bulk Modulus (GPa) = 21.49681 57.88268 39.68974
# Shear Modulus (GPa) = 20.00184 29.33604 24.66894
#
# Velocity S-wave (km/s) = 3.15073 3.81573 3.49906
# Velocity P-wave (km/s) = 4.88930 6.93835 6.00192
#
# Compressibility (1/GPa) = 0.04651854
#
# Stress axis : x y z
#
# Youngs Moduli (GPa) = 121.52432 17.31437 82.96805
#
# Poissons Ratio (x) = 0.11713 0.29835
# Poissons Ratio (y) = 0.82209 0.44790
# Poissons Ratio (z) = 0.43699 0.09347
#
# Static dielectric constant tensor:
#      x y z
#    x 1.741170 0.000000 -0.002080 
#    y 0.000000 1.687640 0.000000 
#    z -0.002080 0.000000 1.674960 
# 
# From -- ./inp_files/238423.got.cif
#   From: 2010.05.17/outbox.cif.g08.bks.cpg/sg12_120_cif.got.tgz:238423.got - 2010.06.03 13:09:07.
