data_PCOD9196520
_publ_section_title
;
Structure prediction by ZEFSAII (Michael W. Deem and Ramdas Pophale) SiO2 
 PCOD9196520
Probable space group: C 2/M
;
_chemical_formula_sum "Si O2"
_cell_formula_units_Z 40
_cell_length_a 13.472550
_cell_length_b 11.220294
_cell_length_c 15.246184
_cell_angle_alpha 90.000000
_cell_angle_beta 124.962805
_cell_angle_gamma 90.000000
_cell_volume 1888.760938
_symmetry_space_group_name_H-M "C 2/M"
_symmetry_group_IT_number 12
_symmetry_cell_setting 'monoclinic'
loop_
_space_group_symop_operation_xyz
x,y,z
-x,y,-z
-x,-y,-z
x,-y,z
1/2+x,1/2+y,z
1/2-x,1/2+y,-z
1/2-x,1/2-y,-z
1/2+x,1/2-y,z
loop_
_atom_site_type_symbol
_atom_site_label
_atom_site_fract_x
_atom_site_fract_y
_atom_site_fract_z
Si Si1 0.129674 0.692651 0.549421
Si Si2 0.615155 0.363612 0.859820
Si Si3 0.743719 0.363170 0.747270
Si Si4 0.978020 0.636493 0.092951
Si Si5 0.385263 0.374019 0.615887
O O1 0.162621 0.777525 0.647822
O O2 0.254258 0.624809 0.595274
O O3 0.111776 0.769764 0.452493
O O4 0.000000 0.632618 0.500000
O O5 0.628567 0.500000 0.903631
O O6 0.717614 0.345453 0.837435
O O7 0.602024 0.248076 0.915176
O O8 0.490814 0.364530 0.740539
O O9 0.711498 0.500000 0.712570
O O10 0.885982 0.348934 0.799097
O O11 0.935727 0.500000 0.092749
O O12 0.000000 0.640912 0.000000
O O13 0.401844 0.500000 0.576570
#
# Coordination Sequence:
#
# PCOD9196520 Si02
#       5
#     8   8   8   8   8
#     4  11  20  33  54  79 111 148 187 220 270 329
#     4  10  20  37  59  84 113 145 187 233 276 327
#     4  10  20  35  57  82 112 148 185 226 273 331
#     4  10  22  41  61  82 111 146 185 231 284 337
#     4  10  21  34  51  79 113 147 185 229 270 322
#
# _framework density 21.177906
#
# number of rings (size 3 to 8) (size 9 to 14) (size 15 to 20)
#    0.000    1.800    4.000    0.600    0.000    2.400 
#    0.000    2.000    0.000    0.000    0.000    0.000 
#    0.000    0.000    0.000    0.000    0.000    0.000 
#
# Total GULP energy -111560.649181 kJ/mol
# GULP energy per Si atom -5578.032459 kJ/mol
# Density = 2.112970 g / cm^3
# Si number density = 21.177906 Si / 1000 Ang^3
#
#
#
# Elastic Constant Matrix: (Units=GPa)
#
#
# Indices 1 2 3 4 5 6 
#
# 1 106.0511 43.8385 7.5249 0.0000 12.0053 0.0000
# 2 43.8385 145.9938 25.6497 0.0000 -21.2508 0.0000
# 3 7.5249 25.6497 48.3512 0.0000 7.3132 0.0000
# 4 0.0000 0.0000 0.0000 169.3775 0.0000 -18.3712
# 5 12.0053 -21.2508 7.3132 0.0000 34.4222 0.0000
# 6 0.0000 0.0000 0.0000 -18.3712 0.0000 12.1293
#
#
#
# Elastic Compliance Matrix: (Units=1/GPa)
#
#
# Indices 1 2 3 4 5 6 
#
# 1 0.012348 -0.005230 0.002059 0.000000 -0.007973 0.000000
# 2 -0.005230 0.011031 -0.006554 0.000000 0.010027 0.000000
# 3 0.002059 -0.006554 0.025375 0.000000 -0.010155 0.000000
# 4 0.000000 0.000000 0.000000 0.007065 0.000000 0.010700
# 5 -0.007973 0.010027 -0.010155 0.000000 0.040179 0.000000
# 6 0.000000 0.000000 0.000000 0.010700 0.000000 0.098651
#
#
# Mechanical properties :
#
#
# Convention : Reuss Voigt Hill
#
# Bulk Modulus (GPa) = 34.12744 50.49140 42.30942
# Shear Modulus (GPa) = 22.33465 58.07801 40.20633
#
# Velocity S-wave (km/s) = 3.25102 5.24246 4.36191
# Velocity P-wave (km/s) = 5.49925 7.78061 6.73720
#
# Compressibility (1/GPa) = 0.02930194
#
# Stress axis : x y z
#
# Youngs Moduli (GPa) = 80.98640 90.65322 39.40934
#
# Poissons Ratio (x) = 0.47411 -0.08113
# Poissons Ratio (y) = 0.42355 0.25831
# Poissons Ratio (z) = -0.16672 0.59418
#
# Static dielectric constant tensor:
#      x y z
#    x 1.799550 0.000000 0.030400 
#    y 0.000000 1.801180 0.000000 
#    z 0.030400 0.000000 1.741750 
# 
# From -- ./inp_files/140784.got.cif
#   From: 2010.05.17/outbox.cif.g08.bks.cpg/sg12_71_cif.got.tgz:140784.got - 2010.06.03 13:09:07.
