data_PCOD9196382
_publ_section_title
;
Structure prediction by ZEFSAII (Michael W. Deem and Ramdas Pophale) SiO2 
 PCOD9196382
Probable space group: C 2/M
;
_chemical_formula_sum "Si O2"
_cell_formula_units_Z 56
_cell_length_a 7.998450
_cell_length_b 21.044308
_cell_length_c 17.494064
_cell_angle_alpha 90.000000
_cell_angle_beta 122.455433
_cell_angle_gamma 90.000000
_cell_volume 2484.708307
_symmetry_space_group_name_H-M "C 2/M"
_symmetry_group_IT_number 12
_symmetry_cell_setting 'monoclinic'
loop_
_space_group_symop_operation_xyz
x,y,z
-x,y,-z
-x,-y,-z
x,-y,z
1/2+x,1/2+y,z
1/2-x,1/2+y,-z
1/2-x,1/2-y,-z
1/2+x,1/2-y,z
loop_
_atom_site_type_symbol
_atom_site_label
_atom_site_fract_x
_atom_site_fract_y
_atom_site_fract_z
Si Si1 0.718225 0.146581 0.888669
Si Si2 0.484040 0.302676 0.672188
Si Si3 0.586187 0.071886 0.708506
Si Si4 0.038952 0.685532 0.596757
Si Si5 0.853735 0.729856 0.865575
Si Si6 0.722913 0.114123 0.053835
Si Si7 0.519798 0.431113 0.739316
O O1 0.642151 0.098136 0.805938
O O2 0.874808 0.196481 0.891693
O O3 0.532581 0.191754 0.869388
O O4 0.787907 0.111239 0.982263
O O5 0.275077 0.304703 0.663801
O O6 0.453945 0.254976 0.595079
O O7 0.658633 0.273473 0.765437
O O8 0.543716 0.376398 0.681849
O O9 0.471537 0.129275 0.637061
O O10 0.792510 0.067268 0.711642
O O11 0.502781 0.000000 0.689850
O O12 0.000000 0.667014 0.500000
O O13 0.801137 0.687914 0.926956
O O14 0.854846 0.084856 0.153422
O O15 0.500000 0.086473 0.000000
O O16 0.578750 0.500000 0.724948
#
# Coordination Sequence:
#
# PCOD9196382 Si02
#       7
#     8   8   8   8   8   8   8
#     4  11  21  35  57  86 117 155 195 246 290 332
#     4  10  20  37  62  89 116 149 190 235 284 352
#     4  10  23  40  59  84 114 154 199 238 288 348
#     4  11  22  38  64  92 118 147 185 241 296 349
#     4  10  20  35  56  85 121 151 192 233 291 342
#     4   9  20  34  52  85 121 156 196 237 283 337
#     4   9  20  39  59  82 116 160 198 234 283 341
#
# _framework density 22.537856999999999
#
# number of rings (size 3 to 8) (size 9 to 14) (size 15 to 20)
#    0.000    2.000    1.429    1.714    4.000    1.714 
#    0.000    7.143    0.000    0.429    0.000    0.000 
#    0.000    0.000    0.000    0.000    0.000    0.000 
#
# Total GULP energy -156310.610193 kJ/mol
# GULP energy per Si atom -5582.521793 kJ/mol
# Density = 2.248656 g / cm^3
# Si number density = 22.537857 Si / 1000 Ang^3
#
#
#
# Elastic Constant Matrix: (Units=GPa)
#
#
# Indices 1 2 3 4 5 6 
#
# 1 51.4893 12.5579 3.0831 0.0000 1.8898 0.0000
# 2 12.5579 171.1928 46.0839 0.0000 -26.0934 0.0000
# 3 3.0831 46.0839 80.9256 0.0000 -13.4143 0.0000
# 4 0.0000 0.0000 0.0000 2.8967 0.0000 2.3013
# 5 1.8898 -26.0934 -13.4143 0.0000 30.8278 0.0000
# 6 0.0000 0.0000 0.0000 2.3013 0.0000 19.0629
#
#
#
# Elastic Compliance Matrix: (Units=1/GPa)
#
#
# Indices 1 2 3 4 5 6 
#
# 1 0.019991 -0.001856 -0.000181 0.000000 -0.002875 0.000000
# 2 -0.001856 0.007689 -0.003460 0.000000 0.005116 0.000000
# 3 -0.000181 -0.003460 0.014927 0.000000 0.003578 0.000000
# 4 0.000000 0.000000 0.000000 0.381847 0.000000 -0.046096
# 5 -0.002875 0.005116 0.003578 0.000000 0.038502 0.000000
# 6 0.000000 0.000000 0.000000 -0.046096 0.000000 0.058023
#
#
# Mechanical properties :
#
#
# Convention : Reuss Voigt Hill
#
# Bulk Modulus (GPa) = 31.63284 47.45084 39.54184
# Shear Modulus (GPa) = 9.21643 26.68298 17.94971
#
# Velocity S-wave (km/s) = 2.02440 3.44454 2.82516
# Velocity P-wave (km/s) = 4.41929 6.07613 5.31270
#
# Compressibility (1/GPa) = 0.03161272
#
# Stress axis : x y z
#
# Youngs Moduli (GPa) = 50.02368 130.06224 66.99200
#
# Poissons Ratio (x) = 0.24138 0.01215
# Poissons Ratio (y) = 0.09284 0.23177
# Poissons Ratio (z) = 0.00907 0.44996
#
# Static dielectric constant tensor:
#      x y z
#    x 1.913730 0.000000 0.009450 
#    y 0.000000 1.884910 0.000000 
#    z 0.009450 0.000000 1.840820 
# 
# From -- ./inp_files/258219.got.cif
#   From: 2010.05.17/outbox.cif.g08.bks.cpg/sg12_130_cif.got.tgz:258219.got - 2010.06.03 13:09:07.
