data_PCOD9196205
_publ_section_title
;
Structure prediction by ZEFSAII (Michael W. Deem and Ramdas Pophale) SiO2 
 PCOD9196205
Probable space group: C 2/M
;
_chemical_formula_sum "Si O2"
_cell_formula_units_Z 64
_cell_length_a 29.009702
_cell_length_b 10.124433
_cell_length_c 14.782345
_cell_angle_alpha 90.000000
_cell_angle_beta 44.635382
_cell_angle_gamma 90.000000
_cell_volume 3050.428815
_symmetry_space_group_name_H-M "C 2/M"
_symmetry_group_IT_number 12
_symmetry_cell_setting 'monoclinic'
loop_
_space_group_symop_operation_xyz
x,y,z
-x,y,-z
-x,-y,-z
x,-y,z
1/2+x,1/2+y,z
1/2-x,1/2+y,-z
1/2-x,1/2-y,-z
1/2+x,1/2-y,z
loop_
_atom_site_type_symbol
_atom_site_label
_atom_site_fract_x
_atom_site_fract_y
_atom_site_fract_z
Si Si1 0.500545 0.345009 0.196277
Si Si2 0.916773 0.653332 0.437290
Si Si3 0.234119 0.850504 0.878332
Si Si4 0.101497 0.148565 0.796953
Si Si5 0.309438 0.150132 0.213484
Si Si6 0.114314 0.849801 0.158019
Si Si7 0.609234 0.150444 0.319579
Si Si8 0.695797 0.291633 0.503681
O O1 0.486172 0.500000 0.232371
O O2 0.464197 0.250013 0.317262
O O3 0.471356 0.316749 0.137959
O O4 0.576569 0.328332 0.115367
O O5 0.933420 0.500000 0.401663
O O6 0.916012 0.683474 0.544934
O O7 0.844839 0.680511 0.494055
O O8 0.210944 0.735048 0.844779
O O9 0.311643 0.844739 0.784744
O O10 0.220064 0.000000 0.861721
O O11 0.191031 0.837787 0.029044
O O12 0.137367 0.260462 0.805937
O O13 0.142482 0.142022 0.644396
O O14 0.102258 0.000000 0.836231
O O15 0.241626 0.139788 0.365722
O O16 0.332521 0.000000 0.163973
O O17 0.090223 0.749731 0.267319
O O18 0.101025 0.000000 0.205697
O O19 0.589229 0.000000 0.326389
O O20 0.750000 0.250000 0.500000
#
# Coordination Sequence:
#
# PCOD9196205 Si02
#       8
#     8   8   8   8   8   8   8   8
#     4   9  20  38  57  81 112 146 190 232 271 325
#     4  10  20  35  56  82 114 149 181 222 276 333
#     4  10  21  39  59  80 111 148 186 228 278 334
#     4   9  18  33  53  76 109 148 182 222 272 328
#     4  11  21  32  52  84 115 143 182 228 277 329
#     4  10  22  40  61  81 105 146 192 235 280 325
#     4  10  21  37  58  85 113 141 181 231 282 336
#     4   9  18  30  49  78 111 144 179 216 266 324
#
# _framework density 20.980657000000001
#
# number of rings (size 3 to 8) (size 9 to 14) (size 15 to 20)
#    0.000    2.250    1.250    1.125    0.000    9.500 
#    0.000    3.125    0.000    3.750    0.000    0.000 
#    0.000    0.000    0.000    0.000    0.000    0.000 
#
# Total GULP energy -178386.769631 kJ/mol
# GULP energy per Si atom -5574.586551 kJ/mol
# Density = 2.093290 g / cm^3
# Si number density = 20.980657 Si / 1000 Ang^3
#
#
#
# Elastic Constant Matrix: (Units=GPa)
#
#
# Indices 1 2 3 4 5 6 
#
# 1 69.8908 41.2830 4.6093 0.0000 2.4153 0.0000
# 2 41.2830 106.5860 21.2557 0.0001 16.3650 0.0000
# 3 4.6093 21.2557 40.5254 0.0000 5.9818 0.0000
# 4 0.0000 0.0001 0.0000 17.7392 0.0000 3.2579
# 5 2.4153 16.3650 5.9818 0.0000 26.6700 0.0000
# 6 0.0000 0.0000 0.0000 3.2579 0.0000 23.0888
#
#
#
# Elastic Compliance Matrix: (Units=1/GPa)
#
#
# Indices 1 2 3 4 5 6 
#
# 1 0.018874 -0.008085 0.001669 0.000000 0.002877 0.000000
# 2 -0.008085 0.014743 -0.005777 0.000000 -0.007019 0.000000
# 3 0.001669 -0.005777 0.027940 0.000000 -0.002873 0.000000
# 4 0.000000 0.000000 0.000000 0.057872 0.000000 -0.008166
# 5 0.002877 -0.007019 -0.002873 0.000000 0.042186 0.000000
# 6 0.000000 0.000000 0.000000 -0.008166 0.000000 0.044463
#
#
# Mechanical properties :
#
#
# Convention : Reuss Voigt Hill
#
# Bulk Modulus (GPa) = 26.90237 39.03314 32.96776
# Shear Modulus (GPa) = 20.58836 23.48989 22.03912
#
# Velocity S-wave (km/s) = 3.13597 3.34967 3.24458
# Velocity P-wave (km/s) = 5.09536 5.79699 5.45746
#
# Compressibility (1/GPa) = 0.03717145
#
# Stress axis : x y z
#
# Youngs Moduli (GPa) = 52.98248 67.82706 35.79053
#
# Poissons Ratio (x) = 0.54838 -0.05974
# Poissons Ratio (y) = 0.42836 0.20678
# Poissons Ratio (z) = -0.08844 0.39186
#
# Static dielectric constant tensor:
#      x y z
#    x 1.830740 0.000000 -0.040980 
#    y 0.000000 1.710050 0.000000 
#    z -0.040980 0.000000 1.775210 
# 
# From -- ./inp_files/249886.got.cif
#   From: 2010.05.17/outbox.cif.g08.bks.cpg/sg12_125_cif.got.tgz:249886.got - 2010.06.03 13:09:07.
