data_PCOD9196658
_publ_section_title
;
Structure prediction by ZEFSAII (Michael W. Deem and Ramdas Pophale) SiO2 
 PCOD9196658
Probable space group: C 2/M
;
_chemical_formula_sum "Si O2"
_cell_formula_units_Z 64
_cell_length_a 28.324670
_cell_length_b 9.032217
_cell_length_c 19.357891
_cell_angle_alpha 90.000000
_cell_angle_beta 137.021448
_cell_angle_gamma 90.000000
_cell_volume 3376.184631
_symmetry_space_group_name_H-M "C 2/M"
_symmetry_group_IT_number 12
_symmetry_cell_setting 'monoclinic'
loop_
_space_group_symop_operation_xyz
x,y,z
-x,y,-z
-x,-y,-z
x,-y,z
1/2+x,1/2+y,z
1/2-x,1/2+y,-z
1/2-x,1/2-y,-z
1/2+x,1/2-y,z
loop_
_atom_site_type_symbol
_atom_site_label
_atom_site_fract_x
_atom_site_fract_y
_atom_site_fract_z
Si Si1 0.746175 0.325510 0.606973
Si Si2 0.856349 0.674682 0.601469
Si Si3 0.986386 0.677345 0.191438
Si Si4 0.552709 0.677598 0.994999
Si Si5 0.442540 0.168843 0.499522
Si Si6 0.549574 0.323365 0.711219
Si Si7 0.839097 0.823880 0.288313
Si Si8 0.289253 0.323547 0.796152
O O1 0.739471 0.500000 0.613640
O O2 0.805848 0.303145 0.613050
O O3 0.676520 0.262949 0.497451
O O4 0.768873 0.241362 0.699879
O O5 0.855315 0.500000 0.583917
O O6 0.933677 0.716722 0.705887
O O7 0.980015 0.500000 0.186429
O O8 0.942051 0.751389 0.205024
O O9 0.966372 0.739808 0.095672
O O10 0.547135 0.500000 0.978366
O O11 0.631285 0.711155 0.101378
O O12 0.500000 0.718243 0.000000
O O13 0.500000 0.162463 0.500000
O O14 0.481737 0.250872 0.603256
O O15 0.379663 0.257073 0.397864
O O16 0.423620 0.000000 0.497406
O O17 0.541266 0.500000 0.706738
O O18 0.613575 0.292250 0.728006
O O19 0.764288 0.749187 0.207519
O O20 0.833668 0.000000 0.289781
O O21 0.280635 0.500000 0.786773
#
# Coordination Sequence:
#
# PCOD9196658 Si02
#       8
#     8   8   8   8   8   8   8   8
#     4  10  20  35  57  84 116 154 193 236 289 354
#     4   9  20  37  55  82 119 154 190 235 292 354
#     4  11  23  38  61  89 118 154 198 248 299 352
#     4  10  23  44  67  90 117 152 196 246 301 360
#     4   9  17  31  53  81 115 155 196 240 290 343
#     4  10  21  37  57  83 119 159 201 246 291 348
#     4  10  21  37  57  83 117 158 202 246 292 347
#     4  11  23  38  60  87 117 153 194 245 300 355
#
# _framework density 18.956309999999998
#
# number of rings (size 3 to 8) (size 9 to 14) (size 15 to 20)
#    0.000    2.000    0.000    3.000    1.750    5.750 
#    0.000    0.625    0.000    0.000    0.000    0.000 
#    0.000    0.000    0.000    0.000    0.000    0.000 
#
# Total GULP energy -178860.771881 kJ/mol
# GULP energy per Si atom -5589.399121 kJ/mol
# Density = 1.891316 g / cm^3
# Si number density = 18.956310 Si / 1000 Ang^3
#
#
#
# Elastic Constant Matrix: (Units=GPa)
#
#
# Indices 1 2 3 4 5 6 
#
# 1 124.2145 70.9255 86.1390 0.0000 -0.6426 0.0000
# 2 70.9255 93.1038 81.1380 0.0000 0.9837 0.0000
# 3 86.1390 81.1380 136.1539 0.0000 -5.6995 0.0000
# 4 0.0000 0.0000 0.0000 33.3427 0.0000 -3.6745
# 5 -0.6426 0.9837 -5.6995 0.0000 36.3215 0.0000
# 6 0.0000 0.0000 0.0000 -3.6745 0.0000 27.0364
#
#
#
# Elastic Compliance Matrix: (Units=1/GPa)
#
#
# Indices 1 2 3 4 5 6 
#
# 1 0.016364 -0.007118 -0.006131 0.000000 -0.000480 0.000000
# 2 -0.007118 0.025710 -0.010925 0.000000 -0.002536 0.000000
# 3 -0.006131 -0.010925 0.017859 0.000000 0.002990 0.000000
# 4 0.000000 0.000000 0.000000 0.030448 0.000000 0.004138
# 5 -0.000480 -0.002536 0.002990 0.000000 0.028061 0.000000
# 6 0.000000 0.000000 0.000000 0.004138 0.000000 0.037550
#
#
# Mechanical properties :
#
#
# Convention : Reuss Voigt Hill
#
# Bulk Modulus (GPa) = 86.30913 92.20858 89.25885
# Shear Modulus (GPa) = 24.01521 27.02475 25.51998
#
# Velocity S-wave (km/s) = 3.56318 3.77985 3.67311
# Velocity P-wave (km/s) = 7.90934 8.23395 8.07328
#
# Compressibility (1/GPa) = 0.01158626
#
# Stress axis : x y z
#
# Youngs Moduli (GPa) = 61.10914 38.89515 55.99345
#
# Poissons Ratio (x) = 0.27684 0.34332
# Poissons Ratio (y) = 0.43495 0.61171
# Poissons Ratio (z) = 0.37469 0.42492
#
# Static dielectric constant tensor:
#      x y z
#    x 1.699230 0.000000 0.005200 
#    y 0.000000 1.630750 0.000000 
#    z 0.005200 0.000000 1.614650 
# 
# From -- ./inp_files/295830.got.cif
#   From: 2010.05.17/outbox.cif.g08.bks.cpg/sg12_148_cif.got.tgz:295830.got - 2010.06.03 13:09:07.
