data_PCOD9196074
_publ_section_title
;
Structure prediction by ZEFSAII (Michael W. Deem and Ramdas Pophale) SiO2 
 PCOD9196074
Probable space group: C 2/M
;
_chemical_formula_sum "Si O2"
_cell_formula_units_Z 64
_cell_length_a 15.003201
_cell_length_b 9.235452
_cell_length_c 30.751567
_cell_angle_alpha 90.000000
_cell_angle_beta 126.574563
_cell_angle_gamma 90.000000
_cell_volume 3421.915474
_symmetry_space_group_name_H-M "C 2/M"
_symmetry_group_IT_number 12
_symmetry_cell_setting 'monoclinic'
loop_
_space_group_symop_operation_xyz
x,y,z
-x,y,-z
-x,-y,-z
x,-y,z
1/2+x,1/2+y,z
1/2-x,1/2+y,-z
1/2-x,1/2-y,-z
1/2+x,1/2-y,z
loop_
_atom_site_type_symbol
_atom_site_label
_atom_site_fract_x
_atom_site_fract_y
_atom_site_fract_z
Si Si1 0.550245 0.173799 0.637606
Si Si2 0.403179 0.327346 0.172754
Si Si3 0.925047 0.665895 0.041745
Si Si4 0.294693 0.172500 0.555881
Si Si5 0.263205 0.666043 0.936654
Si Si6 0.083312 0.827689 0.150819
Si Si7 0.402178 0.673098 0.438109
Si Si8 0.342114 0.173921 0.239777
O O1 0.420374 0.212127 0.603315
O O2 0.591275 0.248494 0.605770
O O3 0.615444 0.215452 0.700099
O O4 0.559105 0.000000 0.635775
O O5 0.391161 0.500000 0.172321
O O6 0.296202 0.257006 0.118158
O O7 0.508075 0.296651 0.171694
O O8 0.409563 0.254744 0.221673
O O9 0.947848 0.500000 0.036442
O O10 0.827774 0.663628 0.050554
O O11 0.028950 0.741825 0.095033
O O12 0.872097 0.756908 0.987136
O O13 0.250000 0.250000 0.500000
O O14 0.212743 0.205397 0.571475
O O15 0.290155 0.000000 0.546964
O O16 0.283727 0.500000 0.929396
O O17 0.211579 0.792587 0.196177
O O18 0.073476 0.000000 0.139640
O O19 0.500000 0.717877 0.500000
O O20 0.413109 0.500000 0.435107
O O21 0.355455 0.000000 0.238827
#
# Coordination Sequence:
#
# PCOD9196074 Si02
#       8
#     8   8   8   8   8   8   8   8
#     4  10  22  38  57  82 111 145 186 228 269 321
#     4  10  20  35  56  81 107 141 185 231 276 325
#     4   9  16  27  48  79 110 139 179 229 276 327
#     4  10  20  35  56  83 114 146 179 218 267 321
#     4   9  16  28  49  77 109 145 180 220 278 338
#     4   9  19  36  56  76 106 146 183 223 277 335
#     4  10  20  35  56  83 115 147 178 218 270 323
#     4  10  22  40  57  77 109 146 185 228 274 326
#
# _framework density 18.702976
#
# number of rings (size 3 to 8) (size 9 to 14) (size 15 to 20)
#    0.000    2.375    1.250    1.125    0.000    6.250 
#    0.000    0.625    0.000    3.750    0.000    0.000 
#    0.000    0.000    0.000    0.000    0.000    0.000 
#
# Total GULP energy -178715.532035 kJ/mol
# GULP energy per Si atom -5584.860376 kJ/mol
# Density = 1.866041 g / cm^3
# Si number density = 18.702976 Si / 1000 Ang^3
#
#
#
# Elastic Constant Matrix: (Units=GPa)
#
#
# Indices 1 2 3 4 5 6 
#
# 1 76.5529 31.3256 38.2245 0.0000 -0.9115 0.0000
# 2 31.3256 40.3293 29.0908 0.0000 -0.4824 0.0000
# 3 38.2245 29.0908 88.7625 0.0000 -3.6878 0.0000
# 4 0.0000 0.0000 0.0000 31.0320 0.0000 -9.1141
# 5 -0.9115 -0.4824 -3.6878 0.0000 31.0454 0.0000
# 6 0.0000 0.0000 0.0000 -9.1141 0.0000 20.2890
#
#
#
# Elastic Compliance Matrix: (Units=1/GPa)
#
#
# Indices 1 2 3 4 5 6 
#
# 1 0.020570 -0.012552 -0.004751 0.000000 -0.000155 0.000000
# 2 -0.012552 0.040151 -0.007781 0.000000 -0.000669 0.000000
# 3 -0.004751 -0.007781 0.015930 0.000000 0.001632 0.000000
# 4 0.000000 0.000000 0.000000 0.037123 0.000000 0.016676
# 5 -0.000155 -0.000669 0.001632 0.000000 0.032390 0.000000
# 6 0.000000 0.000000 0.000000 0.016676 0.000000 0.056779
#
#
# Mechanical properties :
#
#
# Convention : Reuss Voigt Hill
#
# Bulk Modulus (GPa) = 37.76187 44.76960 41.26573
# Shear Modulus (GPa) = 19.08859 23.60686 21.34773
#
# Velocity S-wave (km/s) = 3.19818 3.55660 3.38214
# Velocity P-wave (km/s) = 5.81996 6.39179 6.11256
#
# Compressibility (1/GPa) = 0.02648174
#
# Stress axis : x y z
#
# Youngs Moduli (GPa) = 48.61560 24.90621 62.77557
#
# Poissons Ratio (x) = 0.31263 0.29822
# Poissons Ratio (y) = 0.61024 0.48846
# Poissons Ratio (z) = 0.23095 0.19380
#
# Static dielectric constant tensor:
#      x y z
#    x 1.661670 0.000000 0.000710 
#    y 0.000000 1.628100 0.000000 
#    z 0.000710 0.000000 1.611910 
# 
# From -- ./inp_files/375684.got.cif
#   From: 2010.05.17/outbox.cif.g08.bks.cpg/sg12_188_cif.got.tgz:375684.got - 2010.06.03 13:09:07.
