data_PCOD9196631
_publ_section_title
;
Structure prediction by ZEFSAII (Michael W. Deem and Ramdas Pophale) SiO2 
 PCOD9196631
Probable space group: C 2/M
;
_chemical_formula_sum "Si O2"
_cell_formula_units_Z 64
_cell_length_a 15.033204
_cell_length_b 8.900017
_cell_length_c 24.034914
_cell_angle_alpha 90.000000
_cell_angle_beta 94.347813
_cell_angle_gamma 90.000000
_cell_volume 3206.515566
_symmetry_space_group_name_H-M "C 2/M"
_symmetry_group_IT_number 12
_symmetry_cell_setting 'monoclinic'
loop_
_space_group_symop_operation_xyz
x,y,z
-x,y,-z
-x,-y,-z
x,-y,z
1/2+x,1/2+y,z
1/2-x,1/2+y,-z
1/2-x,1/2-y,-z
1/2+x,1/2-y,z
loop_
_atom_site_type_symbol
_atom_site_label
_atom_site_fract_x
_atom_site_fract_y
_atom_site_fract_z
Si Si1 0.112696 0.678270 0.598066
Si Si2 0.606327 0.671902 0.991083
Si Si3 0.227848 0.180915 0.313608
Si Si4 0.652201 0.321031 0.487766
Si Si5 0.291252 0.818682 0.195068
Si Si6 0.645263 0.820022 0.106575
Si Si7 0.922627 0.677521 0.628532
Si Si8 0.057826 0.319712 0.876683
O O1 0.117159 0.500000 0.584482
O O2 0.202849 0.721819 0.634129
O O3 0.100872 0.770199 0.540962
O O4 0.028768 0.699605 0.634669
O O5 0.637328 0.500000 0.990537
O O6 0.651791 0.760110 0.043747
O O7 0.500000 0.671856 0.000000
O O8 0.610355 0.749084 0.931350
O O9 0.267663 0.229328 0.256384
O O10 0.133276 0.252499 0.323984
O O11 0.220635 0.000000 0.313457
O O12 0.657399 0.500000 0.483956
O O13 0.750000 0.250000 0.500000
O O14 0.610346 0.253931 0.430028
O O15 0.219163 0.751170 0.149494
O O16 0.389254 0.777792 0.176654
O O17 0.285303 0.000000 0.193278
O O18 0.546040 0.775739 0.124132
O O19 0.651502 0.000000 0.107150
O O20 0.905007 0.500000 0.624761
O O21 0.060180 0.500000 0.882810
#
# Coordination Sequence:
#
# PCOD9196631 Si02
#       8
#     8   8   8   8   8   8   8   8
#     4  10  22  40  62  88 119 155 194 236 288 346
#     4   9  17  31  54  83 114 146 182 227 283 341
#     4  10  22  41  61  81 112 154 195 239 289 340
#     4  12  23  37  61  91 124 157 191 234 289 344
#     4  10  22  39  58  81 110 149 195 237 285 338
#     4  10  20  35  57  84 113 146 186 233 286 341
#     4  11  23  39  62  91 120 153 194 238 287 344
#     4   9  19  36  57  81 112 148 188 231 281 343
#
# _framework density 19.959361999999999
#
# number of rings (size 3 to 8) (size 9 to 14) (size 15 to 20)
#    0.000    1.875    1.250    2.625    0.000    7.000 
#    0.000    2.500    0.000    0.000    0.000    0.000 
#    0.000    0.000    0.000    0.000    0.000    0.000 
#
# Total GULP energy -178803.658004 kJ/mol
# GULP energy per Si atom -5587.614313 kJ/mol
# Density = 1.991393 g / cm^3
# Si number density = 19.959362 Si / 1000 Ang^3
#
#
#
# Elastic Constant Matrix: (Units=GPa)
#
#
# Indices 1 2 3 4 5 6 
#
# 1 58.6090 13.1478 4.0504 0.0000 -20.6491 0.0000
# 2 13.1478 27.3189 6.1738 0.0000 -10.8220 0.0000
# 3 4.0504 6.1738 55.9179 0.0000 -27.0766 0.0000
# 4 0.0000 0.0000 0.0000 28.4960 0.0000 -2.8560
# 5 -20.6491 -10.8220 -27.0766 0.0000 34.6518 0.0000
# 6 0.0000 0.0000 0.0000 -2.8560 0.0000 21.7490
#
#
#
# Elastic Compliance Matrix: (Units=1/GPa)
#
#
# Indices 1 2 3 4 5 6 
#
# 1 0.024608 -0.006109 0.008154 0.000000 0.019128 0.000000
# 2 -0.006109 0.043552 0.000736 0.000000 0.010536 0.000000
# 3 0.008154 0.000736 0.031651 0.000000 0.029821 0.000000
# 4 0.000000 0.000000 0.000000 0.035561 0.000000 0.004670
# 5 0.019128 0.010536 0.029821 0.000000 0.066849 0.000000
# 6 0.000000 0.000000 0.000000 0.004670 0.000000 0.046592
#
#
# Mechanical properties :
#
#
# Convention : Reuss Voigt Hill
#
# Bulk Modulus (GPa) = 9.48999 20.95442 15.22221
# Shear Modulus (GPa) = 17.96130 24.87761 21.41946
#
# Velocity S-wave (km/s) = 3.00308 3.53429 3.27946
# Velocity P-wave (km/s) = 4.09751 5.21309 4.68860
#
# Compressibility (1/GPa) = 0.10537418
#
# Stress axis : x y z
#
# Youngs Moduli (GPa) = 40.63691 22.96094 31.59419
#
# Poissons Ratio (x) = 0.14026 -0.25762
# Poissons Ratio (y) = 0.24824 -0.02325
# Poissons Ratio (z) = -0.33135 -0.01690
#
# Static dielectric constant tensor:
#      x y z
#    x 1.737320 0.000000 -0.042440 
#    y 0.000000 1.667980 0.000000 
#    z -0.042440 0.000000 1.684830 
# 
# From -- ./inp_files/338673.got.cif
#   From: 2010.05.17/outbox.cif.g08.bks.cpg/sg12_170_cif.got.tgz:338673.got - 2010.06.03 13:09:07.
