data_PCOD9196563
_publ_section_title
;
Structure prediction by ZEFSAII (Michael W. Deem and Ramdas Pophale) SiO2 
 PCOD9196563
Probable space group: C 2/M
;
_chemical_formula_sum "Si O2"
_cell_formula_units_Z 64
_cell_length_a 8.892558
_cell_length_b 18.859640
_cell_length_c 30.365294
_cell_angle_alpha 90.000000
_cell_angle_beta 137.065399
_cell_angle_gamma 90.000000
_cell_volume 3468.875610
_symmetry_space_group_name_H-M "C 2/M"
_symmetry_group_IT_number 12
_symmetry_cell_setting 'monoclinic'
loop_
_space_group_symop_operation_xyz
x,y,z
-x,y,-z
-x,-y,-z
x,-y,z
1/2+x,1/2+y,z
1/2-x,1/2+y,-z
1/2-x,1/2-y,-z
1/2+x,1/2-y,z
loop_
_atom_site_type_symbol
_atom_site_label
_atom_site_fract_x
_atom_site_fract_y
_atom_site_fract_z
Si Si1 0.150554 0.172274 0.688754
Si Si2 0.442011 0.417177 0.804672
Si Si3 0.206783 0.827726 0.311246
Si Si4 0.601229 0.672755 0.068443
Si Si5 0.509431 0.582757 0.575667
Si Si6 0.368904 0.917243 0.575667
Si Si7 0.259017 0.172754 0.931557
Si Si8 0.581349 0.917177 0.804672
O O1 0.233049 0.250000 0.693219
O O2 0.041133 0.133904 0.623342
O O3 0.357609 0.124939 0.748152
O O4 0.976026 0.177761 0.690410
O O5 0.481404 0.500000 0.804429
O O6 0.383150 0.375060 0.748152
O O7 0.647430 0.380792 0.873442
O O8 0.235611 0.411659 0.794245
O O9 0.424422 0.866096 0.376658
O O10 0.707912 0.750000 0.083165
O O11 0.405475 0.679380 0.062190
O O12 0.780221 0.619208 0.126558
O O13 0.500000 0.649721 0.000000
O O14 0.509468 0.500000 0.589531
O O15 0.287666 0.595684 0.500000
O O16 0.712288 0.591712 0.584915
O O17 0.438186 0.000000 0.589531
O O18 0.500000 0.149720 0.000000
O O19 0.540743 0.000000 0.804430
#
# Coordination Sequence:
#
# PCOD9196563 Si02
#       8
#     8   8   8   8   8   8   8   8
#     4  12  25  39  58  84 114 150 191 236 284 333
#     4  10  22  40  60  83 114 150 187 231 284 339
#     4  12  25  39  58  84 114 150 191 236 284 333
#     4  10  20  35  57  83 112 148 187 229 278 331
#     4   9  19  38  63  88 116 151 187 226 278 337
#     4   9  19  38  63  88 116 151 187 226 278 337
#     4  10  20  35  57  83 112 148 187 229 278 331
#     4  10  22  40  60  83 114 150 187 231 284 339
#
# _framework density 18.449781999999999
#
# number of rings (size 3 to 8) (size 9 to 14) (size 15 to 20)
#    0.000    1.750    0.000    6.000    0.000    9.500 
#    0.000    1.250    0.000    0.000    0.000    0.000 
#    0.000    0.000    0.000    0.000    0.000    0.000 
#
# Total GULP energy -178875.686391 kJ/mol
# GULP energy per Si atom -5589.865200 kJ/mol
# Density = 1.840779 g / cm^3
# Si number density = 18.449782 Si / 1000 Ang^3
#
#
#
# Elastic Constant Matrix: (Units=GPa)
#
#
# Indices 1 2 3 4 5 6 
#
# 1 93.3109 94.2076 87.7584 0.0000 -0.7904 0.0000
# 2 94.2076 165.7156 121.3222 0.0000 -0.3247 0.0000
# 3 87.7584 121.3222 131.2692 0.0000 0.3362 0.0000
# 4 0.0000 0.0000 0.0000 39.4043 0.0000 -0.1490
# 5 -0.7904 -0.3247 0.3362 0.0000 35.7849 0.0000
# 6 0.0000 0.0000 0.0000 -0.1490 0.0000 26.9599
#
#
#
# Elastic Compliance Matrix: (Units=1/GPa)
#
#
# Indices 1 2 3 4 5 6 
#
# 1 0.031829 -0.007771 -0.014098 0.000000 0.000765 0.000000
# 2 -0.007771 0.020563 -0.013810 0.000000 0.000145 0.000000
# 3 -0.014098 -0.013810 0.029808 0.000000 -0.000717 0.000000
# 4 0.000000 0.000000 0.000000 0.025379 0.000000 0.000140
# 5 0.000765 0.000145 -0.000717 0.000000 0.027970 0.000000
# 6 0.000000 0.000000 0.000000 0.000140 0.000000 0.037093
#
#
# Mechanical properties :
#
#
# Convention : Reuss Voigt Hill
#
# Bulk Modulus (GPa) = 92.23932 110.76356 101.50144
# Shear Modulus (GPa) = 20.19289 26.23030 23.21160
#
# Velocity S-wave (km/s) = 3.31188 3.77465 3.55081
# Velocity P-wave (km/s) = 8.04538 8.89735 8.48207
#
# Compressibility (1/GPa) = 0.01084136
#
# Stress axis : x y z
#
# Youngs Moduli (GPa) = 31.41838 48.63157 33.54817
#
# Poissons Ratio (x) = 0.37793 0.47296
# Poissons Ratio (y) = 0.24416 0.46328
# Poissons Ratio (z) = 0.44294 0.67158
#
# Static dielectric constant tensor:
#      x y z
#    x 1.617060 0.000000 -0.000030 
#    y 0.000000 1.605540 0.000000 
#    z -0.000030 0.000000 1.619680 
# 
# From -- ./inp_files/372969.got.cif
#   From: 2010.05.17/outbox.cif.g08.bks.cpg/sg12_187_cif.got.tgz:372969.got - 2010.06.03 13:09:07.
