data_PCOD9196102
_publ_section_title
;
Structure prediction by ZEFSAII (Michael W. Deem and Ramdas Pophale) SiO2 
 PCOD9196102
Probable space group: C 2/M
;
_chemical_formula_sum "Si O2"
_cell_formula_units_Z 56
_cell_length_a 18.556527
_cell_length_b 8.739186
_cell_length_c 29.714417
_cell_angle_alpha 90.000000
_cell_angle_beta 141.046868
_cell_angle_gamma 90.000000
_cell_volume 3029.476792
_symmetry_space_group_name_H-M "C 2/M"
_symmetry_group_IT_number 12
_symmetry_cell_setting 'monoclinic'
loop_
_space_group_symop_operation_xyz
x,y,z
-x,y,-z
-x,-y,-z
x,-y,z
1/2+x,1/2+y,z
1/2-x,1/2+y,-z
1/2-x,1/2-y,-z
1/2+x,1/2-y,z
loop_
_atom_site_type_symbol
_atom_site_label
_atom_site_fract_x
_atom_site_fract_y
_atom_site_fract_z
Si Si1 0.419085 0.176477 0.505286
Si Si2 0.376376 0.315111 0.068420
Si Si3 0.808483 0.316394 0.212903
Si Si4 0.545715 0.686540 0.070881
Si Si5 0.035061 0.184746 0.789713
Si Si6 0.112476 0.181261 0.654336
Si Si7 0.770055 0.814597 0.651726
O O1 0.500000 0.178255 0.500000
O O2 0.486614 0.271904 0.575130
O O3 0.297473 0.231148 0.426610
O O4 0.410168 0.000000 0.515797
O O5 0.371195 0.500000 0.064542
O O6 0.461236 0.264088 0.069762
O O7 0.426210 0.270899 0.141262
O O8 0.250000 0.250000 0.000000
O O9 0.809945 0.500000 0.214926
O O10 0.676266 0.265612 0.143010
O O11 0.882443 0.258026 0.206980
O O12 0.859702 0.252778 0.284030
O O13 0.545189 0.500000 0.070475
O O14 0.500000 0.737142 0.000000
O O15 0.902814 0.228076 0.717175
O O16 0.042092 0.000000 0.789801
O O17 0.202817 0.246279 0.661655
O O18 0.121971 0.000000 0.660937
O O19 0.761016 0.000000 0.650309
#
# Coordination Sequence:
#
# PCOD9196102 Si02
#       7
#     8   8   8   8   8   8   8
#     4   8  15  30  53  79 105 137 179 222 266 320
#     4  10  20  35  56  81 110 142 176 218 267 318
#     4  11  22  37  57  78 105 143 185 225 269 324
#     4   9  18  34  57  82 106 137 178 219 261 315
#     4  10  21  37  55  78 110 144 180 226 276 318
#     4  11  21  33  53  81 112 142 177 223 271 321
#     4   9  18  35  58  80 106 142 181 222 270 323
#
# _framework density 18.485040000000001
#
# number of rings (size 3 to 8) (size 9 to 14) (size 15 to 20)
#    0.000    2.286    0.000    4.286    0.000    7.143 
#    0.000    3.571    0.000    3.857    0.000    0.000 
#    0.000    0.000    0.000    0.000    0.000    0.000 
#
# Total GULP energy -156295.809146 kJ/mol
# GULP energy per Si atom -5581.993184 kJ/mol
# Density = 1.844297 g / cm^3
# Si number density = 18.485040 Si / 1000 Ang^3
#
#
#
# Elastic Constant Matrix: (Units=GPa)
#
#
# Indices 1 2 3 4 5 6 
#
# 1 147.9783 39.5546 112.1083 0.0000 0.4453 0.0000
# 2 39.5546 29.7514 46.5128 0.0000 -0.7650 0.0000
# 3 112.1083 46.5128 210.0038 0.0000 5.7172 0.0000
# 4 0.0000 0.0000 0.0000 18.6530 0.0000 -3.6704
# 5 0.4453 -0.7650 5.7172 0.0000 32.2505 0.0000
# 6 0.0000 0.0000 0.0000 -3.6704 0.0000 24.6820
#
#
#
# Elastic Compliance Matrix: (Units=1/GPa)
#
#
# Indices 1 2 3 4 5 6 
#
# 1 0.012996 -0.009793 -0.004781 0.000000 0.000436 0.000000
# 2 -0.009793 0.059137 -0.007950 0.000000 0.002947 0.000000
# 3 -0.004781 -0.007950 0.009122 0.000000 -0.001740 0.000000
# 4 0.000000 0.000000 0.000000 0.055227 0.000000 0.008213
# 5 0.000436 0.002947 -0.001740 0.000000 0.031380 0.000000
# 6 0.000000 0.000000 0.000000 0.008213 0.000000 0.041737
#
#
# Mechanical properties :
#
#
# Convention : Reuss Voigt Hill
#
# Bulk Modulus (GPa) = 27.61892 87.12052 57.36972
# Shear Modulus (GPa) = 18.74666 27.75430 23.25048
#
# Velocity S-wave (km/s) = 3.18803 3.87905 3.55039
# Velocity P-wave (km/s) = 5.34089 8.20337 6.92172
#
# Compressibility (1/GPa) = 0.03620707
#
# Stress axis : x y z
#
# Youngs Moduli (GPa) = 76.94770 16.90996 109.62386
#
# Poissons Ratio (x) = 0.16560 0.52406
# Poissons Ratio (y) = 0.75355 0.87154
# Poissons Ratio (z) = 0.36785 0.13444
#
# Static dielectric constant tensor:
#      x y z
#    x 1.605760 0.000000 0.009760 
#    y 0.000000 1.626890 0.000000 
#    z 0.009760 0.000000 1.641860 
# 
# From -- ./inp_files/363118.got.cif
#   From: 2010.05.17/outbox.cif.g08.bks.cpg/sg12_182_cif.got.tgz:363118.got - 2010.06.03 13:09:07.
