data_PCOD9196983
_publ_section_title
;
Structure prediction by ZEFSAII (Michael W. Deem and Ramdas Pophale) SiO2 
 PCOD9196983
Probable space group: C 2/M
;
_chemical_formula_sum "Si O2"
_cell_formula_units_Z 36
_cell_length_a 19.011917
_cell_length_b 11.603186
_cell_length_c 8.950748
_cell_angle_alpha 90.000000
_cell_angle_beta 83.751710
_cell_angle_gamma 90.000000
_cell_volume 1962.794860
_symmetry_space_group_name_H-M "C 2/M"
_symmetry_group_IT_number 12
_symmetry_cell_setting 'monoclinic'
loop_
_space_group_symop_operation_xyz
x,y,z
-x,y,-z
-x,-y,-z
x,-y,z
1/2+x,1/2+y,z
1/2-x,1/2+y,-z
1/2-x,1/2-y,-z
1/2+x,1/2-y,z
loop_
_atom_site_type_symbol
_atom_site_label
_atom_site_fract_x
_atom_site_fract_y
_atom_site_fract_z
Si Si1 0.334065 0.249680 0.975619
Si Si2 0.607089 0.000000 0.015860
Si Si3 0.056246 0.865732 0.868483
Si Si4 0.075276 0.132529 0.307297
Si Si5 0.028246 0.500000 0.738554
Si Si6 0.000000 0.307247 0.500000
O O1 0.370483 0.324770 0.833725
O O2 0.250000 0.250000 0.000000
O O3 0.372114 0.297337 0.118252
O O4 0.354623 0.117353 0.951887
O O5 0.592416 0.000000 0.840885
O O6 0.537279 0.000000 0.133076
O O7 0.006266 0.866998 0.736070
O O8 0.069848 0.000000 0.904234
O O9 0.000000 0.813962 0.000000
O O10 0.066706 0.228164 0.436249
O O11 0.091036 0.000000 0.346024
O O12 0.022040 0.610464 0.632596
#
# Coordination Sequence:
#
# PCOD9196983 Si02
#       6
#     8   4   8   8   4   4
#     4  11  22  33  55  85 117 149 190 237 281 338
#     4  11  22  38  56  88 113 153 186 233 291 338
#     4   8  16  32  53  76 108 141 185 234 278 314
#     4  10  20  35  58  85 113 150 189 241 282 333
#     4  10  22  36  62  86 118 144 188 238 287 343
#     4  11  19  36  58  94 111 147 188 240 288 339
#
# _framework density 18.341194999999999
#
# number of rings (size 3 to 8) (size 9 to 14) (size 15 to 20)
#    0.000    2.000    2.222    3.667    9.333    0.000 
#    0.000    0.000    0.000    5.333    0.000    0.000 
#    0.000    0.000    0.000    0.000    0.000    0.000 
#
# Total GULP energy -100215.438969 kJ/mol
# GULP energy per Si atom -5567.524387 kJ/mol
# Density = 1.829945 g / cm^3
# Si number density = 18.341195 Si / 1000 Ang^3
#
#
#
# Elastic Constant Matrix: (Units=GPa)
#
#
# Indices 1 2 3 4 5 6 
#
# 1 105.2340 37.7845 14.8490 0.0000 -8.9637 0.0000
# 2 37.7845 143.9247 33.6279 0.0000 -11.3094 0.0000
# 3 14.8490 33.6279 76.5532 0.0000 -7.9594 0.0000
# 4 0.0000 0.0000 0.0000 28.2093 0.0000 -6.4215
# 5 -8.9637 -11.3094 -7.9594 0.0000 13.0649 0.0000
# 6 0.0000 0.0000 0.0000 -6.4215 0.0000 -53.8686
#
#
#
# Elastic Compliance Matrix: (Units=1/GPa)
#
#
# Indices 1 2 3 4 5 6 
#
# 1 0.010847 -0.002317 -0.000556 0.000000 0.005098 0.000000
# 2 -0.002317 0.008549 -0.002884 0.000000 0.004053 0.000000
# 3 -0.000556 -0.002884 0.015095 0.000000 0.006318 0.000000
# 4 0.000000 0.000000 0.000000 0.034513 0.000000 -0.004114
# 5 0.005098 0.004053 0.006318 0.000000 0.087395 0.000000
# 6 0.000000 0.000000 0.000000 -0.004114 0.000000 -0.018073
#
#
# Mechanical properties :
#
#
# Convention : Reuss Voigt Hill
#
# Bulk Modulus (GPa) = 43.52526 55.35939 49.44233
# Shear Modulus (GPa) = 31.74608 13.44447 22.59528
#
# Velocity S-wave (km/s) = 4.16488 2.71037 3.51371
# Velocity P-wave (km/s) = 6.84914 6.32799 6.59371
#
# Compressibility (1/GPa) = 0.02297517
#
# Stress axis : x y z
#
# Youngs Moduli (GPa) = 92.18865 116.97476 66.24889
#
# Poissons Ratio (x) = 0.27106 0.03684
# Poissons Ratio (y) = 0.21362 0.19109
# Poissons Ratio (z) = 0.05127 0.33740
#
# Static dielectric constant tensor:
#      x y z
#    x 1.647600 0.000000 0.046320 
#    y 0.000000 1.678950 0.000000 
#    z 0.046320 0.000000 1.717740 
# 
# From -- ./inp_files/70865.got.cif
#   From: 2010.05.17/outbox.cif.g08.bks.cpg/sg12_36_cif.got.tgz:70865.got - 2010.06.03 13:09:07.
