data_PCOD9196809
_publ_section_title
;
Structure prediction by ZEFSAII (Michael W. Deem and Ramdas Pophale) SiO2 
 PCOD9196809
Probable space group: C 2/M
;
_chemical_formula_sum "Si O2"
_cell_formula_units_Z 48
_cell_length_a 17.069933
_cell_length_b 14.387560
_cell_length_c 9.959464
_cell_angle_alpha 90.000000
_cell_angle_beta 123.714988
_cell_angle_gamma 90.000000
_cell_volume 2034.597565
_symmetry_space_group_name_H-M "C 2/M"
_symmetry_group_IT_number 12
_symmetry_cell_setting 'monoclinic'
loop_
_space_group_symop_operation_xyz
x,y,z
-x,y,-z
-x,-y,-z
x,-y,z
1/2+x,1/2+y,z
1/2-x,1/2+y,-z
1/2-x,1/2-y,-z
1/2+x,1/2-y,z
loop_
_atom_site_type_symbol
_atom_site_label
_atom_site_fract_x
_atom_site_fract_y
_atom_site_fract_z
Si Si1 0.857389 0.101855 0.555585
Si Si2 0.279012 0.106542 0.800585
Si Si3 0.926949 0.703175 0.549837
Si Si4 0.894715 0.106533 0.903480
Si Si5 0.211652 0.301273 0.801240
Si Si6 0.937987 0.389931 0.135064
O O1 0.755608 0.111897 0.386500
O O2 0.920104 0.186997 0.566647
O O3 0.859070 0.104788 0.716711
O O4 0.893661 0.000000 0.549087
O O5 0.218669 0.189250 0.811095
O O6 0.259094 0.000000 0.826820
O O7 0.388397 0.122864 0.942680
O O8 0.829608 0.674359 0.386335
O O9 0.000000 0.682732 0.500000
O O10 0.966549 0.657034 0.721953
O O11 0.817289 0.161436 0.912543
O O12 0.901141 0.000000 0.959250
O O13 0.000000 0.146318 0.000000
O O14 0.142745 0.347674 0.842966
O O15 0.948251 0.500000 0.165806
#
# Coordination Sequence:
#
# PCOD9196809 Si02
#       6
#     8   8   8   8   8   8
#     4   9  19  38  58  79 113 147 186 235 277 325
#     4   9  19  35  56  83 114 146 181 227 278 332
#     4   9  20  34  55  88 114 144 186 223 280 338
#     4  10  22  38  57  84 110 145 193 236 275 322
#     4  10  20  36  60  82 111 152 184 229 281 328
#     4  10  20  35  57  87 118 144 182 229 278 337
#
# _framework density 23.591888999999998
#
# number of rings (size 3 to 8) (size 9 to 14) (size 15 to 20)
#    0.000    2.500    0.000    1.000    2.333    6.667 
#    0.000    2.500    0.000    1.500    0.000    0.000 
#    0.000    0.000    0.000    0.000    0.000    0.000 
#
# Total GULP energy -133897.054007 kJ/mol
# GULP energy per Si atom -5579.043917 kJ/mol
# Density = 2.353819 g / cm^3
# Si number density = 23.591889 Si / 1000 Ang^3
#
#
#
# Elastic Constant Matrix: (Units=GPa)
#
#
# Indices 1 2 3 4 5 6 
#
# 1 43.0463 23.0099 29.9596 0.0000 14.4567 0.0000
# 2 23.0099 79.5756 64.4628 0.0000 12.7631 0.0000
# 3 29.9596 64.4628 190.0547 0.0000 8.9351 0.0000
# 4 0.0000 0.0000 0.0000 35.6990 0.0000 6.3695
# 5 14.4567 12.7631 8.9351 0.0000 35.8756 0.0000
# 6 0.0000 0.0000 0.0000 6.3695 0.0000 -4.1841
#
#
#
# Elastic Compliance Matrix: (Units=1/GPa)
#
#
# Indices 1 2 3 4 5 6 
#
# 1 0.031288 -0.005268 -0.002672 0.000000 -0.010068 0.000000
# 2 -0.005268 0.019056 -0.005478 0.000000 -0.003292 0.000000
# 3 -0.002672 -0.005478 0.007486 0.000000 0.001161 0.000000
# 4 0.000000 0.000000 0.000000 0.022029 0.000000 0.033534
# 5 -0.010068 -0.003292 0.001161 0.000000 0.032813 0.000000
# 6 0.000000 0.000000 0.000000 0.033534 0.000000 -0.187949
#
#
# Mechanical properties :
#
#
# Convention : Reuss Voigt Hill
#
# Bulk Modulus (GPa) = 32.26432 60.83792 46.55112
# Shear Modulus (GPa) = -131.19656 26.49438 -52.35109
#
# Velocity S-wave (km/s) = -7.46536 3.35480 -4.71577
# Velocity P-wave (km/s) = 7.78480 6.39139 3.14271
#
# Compressibility (1/GPa) = 0.03099399
#
# Stress axis : x y z
#
# Youngs Moduli (GPa) = 31.96148 52.47794 133.57647
#
# Poissons Ratio (x) = 0.27643 0.35693
# Poissons Ratio (y) = 0.16836 0.73175
# Poissons Ratio (z) = 0.08540 0.28748
#
# Static dielectric constant tensor:
#      x y z
#    x 1.862800 0.000000 -0.007950 
#    y 0.000000 1.892770 0.000000 
#    z -0.007950 0.000000 1.983110 
# 
# From -- ./inp_files/167633.got.cif
#   From: 2010.05.17/outbox.cif.g08.bks.cpg/sg12_84_cif.got.tgz:167633.got - 2010.06.03 13:09:07.
