data_PCOD9196857
_publ_section_title
;
Structure prediction by ZEFSAII (Michael W. Deem and Ramdas Pophale) SiO2 
 PCOD9196857
Probable space group: C 2/M
;
_chemical_formula_sum "Si O2"
_cell_formula_units_Z 52
_cell_length_a 9.334894
_cell_length_b 17.690716
_cell_length_c 16.411466
_cell_angle_alpha 90.000000
_cell_angle_beta 73.121932
_cell_angle_gamma 90.000000
_cell_volume 2593.462570
_symmetry_space_group_name_H-M "C 2/M"
_symmetry_group_IT_number 12
_symmetry_cell_setting 'monoclinic'
loop_
_space_group_symop_operation_xyz
x,y,z
-x,y,-z
-x,-y,-z
x,-y,z
1/2+x,1/2+y,z
1/2-x,1/2+y,-z
1/2-x,1/2-y,-z
1/2+x,1/2-y,z
loop_
_atom_site_type_symbol
_atom_site_label
_atom_site_fract_x
_atom_site_fract_y
_atom_site_fract_z
Si Si1 0.420212 0.294899 0.719149
Si Si2 0.795392 0.080583 0.063134
Si Si3 0.798014 0.589024 0.324450
Si Si4 0.952824 0.615408 0.136714
Si Si5 0.274099 0.500000 0.913385
Si Si6 0.610039 0.202108 0.556060
Si Si7 0.626492 0.283275 0.836357
O O1 0.343649 0.368331 0.692220
O O2 0.520757 0.253313 0.635758
O O3 0.518765 0.311502 0.782161
O O4 0.284792 0.240336 0.769512
O O5 0.614626 0.086722 0.083467
O O6 0.849150 0.153875 0.100031
O O7 0.821634 0.000000 0.103783
O O8 0.848532 0.064942 0.962599
O O9 0.776156 0.500000 0.334875
O O10 0.931228 0.605940 0.237751
O O11 0.834014 0.629347 0.403422
O O12 0.821781 0.565574 0.119441
O O13 0.936313 0.703791 0.119840
O O14 0.500000 0.183275 0.500000
O O15 0.750000 0.250000 0.500000
#
# Coordination Sequence:
#
# PCOD9196857 Si02
#       7
#     8   8   8   8   4   8   8
#     4  11  21  40  62  95 120 167 206 250 310 370
#     4  10  20  35  57  90 124 161 208 262 307 355
#     4  11  23  38  65  93 124 163 208 254 311 376
#     4  11  18  36  63  88 122 167 213 248 305 380
#     4  10  21  36  60  91 129 168 206 261 322 353
#     4  12  22  40  66  92 127 162 200 258 314 369
#     4  11  21  36  64  90 125 160 221 253 298 377
#
# _framework density 20.050414
#
# number of rings (size 3 to 8) (size 9 to 14) (size 15 to 20)
#    0.462    0.615    7.692    0.923    0.000    1.538 
#    0.000    1.538    0.000    7.385    0.000    0.000 
#    0.000    0.000    0.000    0.000    0.000    0.000 
#
# Total GULP energy -144752.691241 kJ/mol
# GULP energy per Si atom -5567.411202 kJ/mol
# Density = 2.000478 g / cm^3
# Si number density = 20.050414 Si / 1000 Ang^3
#
#
#
# Elastic Constant Matrix: (Units=GPa)
#
#
# Indices 1 2 3 4 5 6 
#
# 1 86.3377 42.9465 38.5429 0.0000 8.1928 0.0000
# 2 42.9465 182.1555 51.2665 0.0000 21.2467 0.0000
# 3 38.5429 51.2665 78.8487 0.0000 25.7345 0.0000
# 4 0.0000 0.0000 0.0000 36.8061 0.0000 21.5102
# 5 8.1928 21.2467 25.7345 0.0000 50.8525 0.0000
# 6 0.0000 0.0000 0.0000 21.5102 0.0000 23.0475
#
#
#
# Elastic Compliance Matrix: (Units=1/GPa)
#
#
# Indices 1 2 3 4 5 6 
#
# 1 0.015438 -0.001910 -0.006892 0.000000 0.001798 0.000000
# 2 -0.001910 0.006977 -0.003296 0.000000 -0.000939 0.000000
# 3 -0.006892 -0.003296 0.020822 0.000000 -0.008050 0.000000
# 4 0.000000 0.000000 0.000000 0.059771 0.000000 -0.055784
# 5 0.001798 -0.000939 -0.008050 0.000000 0.023841 0.000000
# 6 0.000000 0.000000 0.000000 -0.055784 0.000000 0.095451
#
#
# Mechanical properties :
#
#
# Convention : Reuss Voigt Hill
#
# Bulk Modulus (GPa) = 52.51714 68.09485 60.30600
# Shear Modulus (GPa) = 19.77502 36.44697 28.11100
#
# Velocity S-wave (km/s) = 3.14389 4.26815 3.74841
# Velocity P-wave (km/s) = 6.27918 7.63708 6.99118
#
# Compressibility (1/GPa) = 0.01904140
#
# Stress axis : x y z
#
# Youngs Moduli (GPa) = 64.77327 143.31854 48.02660
#
# Poissons Ratio (x) = 0.27374 0.33099
# Poissons Ratio (y) = 0.12372 0.15832
# Poissons Ratio (z) = 0.44640 0.47244
#
# Static dielectric constant tensor:
#      x y z
#    x 1.750860 0.000000 -0.014720 
#    y 0.000000 1.688860 0.000000 
#    z -0.014720 0.000000 1.721150 
# 
# From -- ./inp_files/256598.got.cif
#   From: 2010.05.17/outbox.cif.g08.bks.cpg/sg12_129_cif.got.tgz:256598.got - 2010.06.03 13:09:07.
