data_PCOD9196777
_publ_section_title
;
Structure prediction by ZEFSAII (Michael W. Deem and Ramdas Pophale) SiO2 
 PCOD9196777
Probable space group: C 2/M
;
_chemical_formula_sum "Si O2"
_cell_formula_units_Z 48
_cell_length_a 28.669257
_cell_length_b 8.956719
_cell_length_c 10.453250
_cell_angle_alpha 90.000000
_cell_angle_beta 90.026234
_cell_angle_gamma 90.000000
_cell_volume 2684.211166
_symmetry_space_group_name_H-M "C 2/M"
_symmetry_group_IT_number 12
_symmetry_cell_setting 'monoclinic'
loop_
_space_group_symop_operation_xyz
x,y,z
-x,y,-z
-x,-y,-z
x,-y,z
1/2+x,1/2+y,z
1/2-x,1/2+y,-z
1/2-x,1/2-y,-z
1/2+x,1/2-y,z
loop_
_atom_site_type_symbol
_atom_site_label
_atom_site_fract_x
_atom_site_fract_y
_atom_site_fract_z
Si Si1 0.054332 0.179740 0.489276
Si Si2 0.804008 0.177893 0.859743
Si Si3 0.196282 0.677746 0.860090
Si Si4 0.607953 0.178215 0.251791
Si Si5 0.391962 0.321789 0.249375
Si Si6 0.945453 0.321732 0.012636
O O1 0.079439 0.256521 0.370169
O O2 0.081511 0.217319 0.619844
O O3 0.000000 0.223358 0.500000
O O4 0.055957 0.000000 0.472723
O O5 0.750076 0.206968 0.823836
O O6 0.841280 0.248533 0.764169
O O7 0.810627 0.000000 0.868588
O O8 0.811354 0.250058 0.999919
O O9 0.189608 0.500000 0.870598
O O10 0.158592 0.746702 0.764858
O O11 0.611949 0.000000 0.262477
O O12 0.580388 0.212736 0.120218
O O13 0.387233 0.500000 0.242947
O O14 0.421993 0.264206 0.129395
O O15 0.940969 0.500000 0.035482
O O16 0.000000 0.285964 0.000000
#
# Coordination Sequence:
#
# PCOD9196777 Si02
#       6
#     8   8   8   8   8   8
#     4  10  23  42  60  81 115 157 198 240 287 343
#     4  10  20  35  58  86 117 152 188 233 288 344
#     4  10  20  35  57  86 118 151 188 234 289 344
#     4  11  22  36  58  87 116 152 193 236 289 344
#     4  11  22  36  58  86 113 151 195 237 290 344
#     4  10  21  36  55  82 115 147 186 240 292 342
#
# _framework density 17.882348
#
# number of rings (size 3 to 8) (size 9 to 14) (size 15 to 20)
#    0.000    1.667    1.667    3.000    0.000    4.667 
#    0.000    0.833    0.000    0.000    0.000    0.000 
#    0.000    0.000    0.000    0.000    0.000    0.000 
#
# Total GULP energy -134103.787432 kJ/mol
# GULP energy per Si atom -5587.657810 kJ/mol
# Density = 1.784165 g / cm^3
# Si number density = 17.882348 Si / 1000 Ang^3
#
#
#
# Elastic Constant Matrix: (Units=GPa)
#
#
# Indices 1 2 3 4 5 6 
#
# 1 170.9882 73.9271 88.0609 0.0000 -4.1655 0.0000
# 2 73.9271 64.1421 68.8043 0.0000 -1.3518 0.0000
# 3 88.0609 68.8043 122.9716 0.0000 -9.4729 0.0000
# 4 0.0000 0.0000 0.0000 27.6035 0.0000 -4.4694
# 5 -4.1655 -1.3518 -9.4729 0.0000 33.9221 0.0000
# 6 0.0000 0.0000 0.0000 -4.4694 0.0000 30.0312
#
#
#
# Elastic Compliance Matrix: (Units=1/GPa)
#
#
# Indices 1 2 3 4 5 6 
#
# 1 0.011879 -0.011487 -0.002047 0.000000 0.000429 0.000000
# 2 -0.011487 0.050829 -0.020610 0.000000 -0.005140 0.000000
# 3 -0.002047 -0.020610 0.021509 0.000000 0.004934 0.000000
# 4 0.000000 0.000000 0.000000 0.037122 0.000000 0.005525
# 5 0.000429 -0.005140 0.004934 0.000000 0.030705 0.000000
# 6 0.000000 0.000000 0.000000 0.005525 0.000000 0.034121
#
#
# Mechanical properties :
#
#
# Convention : Reuss Voigt Hill
#
# Bulk Modulus (GPa) = 62.77132 91.07629 76.92380
# Shear Modulus (GPa) = 19.24839 26.79867 23.02353
#
# Velocity S-wave (km/s) = 3.28440 3.87539 3.59207
# Velocity P-wave (km/s) = 7.04000 8.43008 7.76620
#
# Compressibility (1/GPa) = 0.01593084
#
# Stress axis : x y z
#
# Youngs Moduli (GPa) = 84.17985 19.67375 46.49234
#
# Poissons Ratio (x) = 0.22600 0.09515
# Poissons Ratio (y) = 0.96699 0.95819
# Poissons Ratio (z) = 0.17228 0.40547
#
# Static dielectric constant tensor:
#      x y z
#    x 1.619620 0.000000 0.010770 
#    y 0.000000 1.595280 0.000000 
#    z 0.010770 0.000000 1.570730 
# 
# From -- ./inp_files/108678.got.cif
#   From: 2010.05.17/outbox.cif.g08.bks.cpg/sg12_55_cif.got.tgz:108678.got - 2010.06.03 13:09:07.
