data_PCOD9196763
_publ_section_title
;
Structure prediction by ZEFSAII (Michael W. Deem and Ramdas Pophale) SiO2 
 PCOD9196763
Probable space group: C 2/M
;
_chemical_formula_sum "Si O2"
_cell_formula_units_Z 48
_cell_length_a 19.113954
_cell_length_b 10.799640
_cell_length_c 12.427578
_cell_angle_alpha 90.000000
_cell_angle_beta 113.151983
_cell_angle_gamma 90.000000
_cell_volume 2358.748252
_symmetry_space_group_name_H-M "C 2/M"
_symmetry_group_IT_number 12
_symmetry_cell_setting 'monoclinic'
loop_
_space_group_symop_operation_xyz
x,y,z
-x,y,-z
-x,-y,-z
x,-y,z
1/2+x,1/2+y,z
1/2-x,1/2+y,-z
1/2-x,1/2-y,-z
1/2+x,1/2-y,z
loop_
_atom_site_type_symbol
_atom_site_label
_atom_site_fract_x
_atom_site_fract_y
_atom_site_fract_z
Si Si1 0.693185 0.229125 0.621343
Si Si2 0.843476 0.357437 0.630138
Si Si3 0.514944 0.855421 0.774914
Si Si4 0.849445 0.637595 0.990505
Si Si5 0.239151 0.867593 0.132711
Si Si6 0.558180 0.638903 0.634985
O O1 0.775282 0.274044 0.631251
O O2 0.650151 0.170180 0.493807
O O3 0.709463 0.139654 0.730399
O O4 0.641903 0.339249 0.637281
O O5 0.822152 0.500000 0.631254
O O6 0.924881 0.336195 0.734085
O O7 0.565883 0.844003 0.912621
O O8 0.542188 0.750303 0.707981
O O9 0.524984 0.000000 0.743901
O O10 0.843185 0.500000 0.936956
O O11 0.795408 0.638202 0.064310
O O12 0.817025 0.750800 0.902900
O O13 0.198428 0.000000 0.103375
O O14 0.500000 0.647510 0.500000
O O15 0.551598 0.500000 0.677899
#
# Coordination Sequence:
#
# PCOD9196763 Si02
#       6
#     8   8   8   8   8   8
#     4  11  21  37  57  83 118 155 189 232 282 345
#     4  10  22  37  57  83 114 154 193 232 283 338
#     4  10  20  38  60  84 113 148 193 239 283 335
#     4   9  19  35  57  85 114 144 188 241 288 334
#     4  10  20  35  57  86 115 148 191 235 286 340
#     4  11  22  35  54  85 119 151 188 233 287 343
#
# _framework density 20.349778000000001
#
# number of rings (size 3 to 8) (size 9 to 14) (size 15 to 20)
#    0.000    1.833    3.333    1.000    0.000    3.000 
#    0.000    1.667    0.000    4.000    0.000    0.000 
#    0.000    0.000    0.000    0.000    0.000    0.000 
#
# Total GULP energy -133942.045359 kJ/mol
# GULP energy per Si atom -5580.918557 kJ/mol
# Density = 2.030346 g / cm^3
# Si number density = 20.349778 Si / 1000 Ang^3
#
#
#
# Elastic Constant Matrix: (Units=GPa)
#
#
# Indices 1 2 3 4 5 6 
#
# 1 52.6362 30.4048 18.4561 0.0000 20.6145 0.0000
# 2 30.4048 105.2608 33.4997 0.0000 17.9154 0.0000
# 3 18.4561 33.4997 38.7897 0.0000 17.7169 0.0000
# 4 0.0000 0.0000 0.0000 13.8358 0.0000 8.5834
# 5 20.6145 17.9154 17.7169 0.0000 32.1233 0.0000
# 6 0.0000 0.0000 0.0000 8.5834 0.0000 16.2788
#
#
#
# Elastic Compliance Matrix: (Units=1/GPa)
#
#
# Indices 1 2 3 4 5 6 
#
# 1 0.028244 -0.004880 -0.002925 0.000000 -0.013790 0.000000
# 2 -0.004880 0.013993 -0.010198 0.000000 0.000952 0.000000
# 3 -0.002925 -0.010198 0.043476 0.000000 -0.016413 0.000000
# 4 0.000000 0.000000 0.000000 0.107412 0.000000 -0.056636
# 5 -0.013790 0.000952 -0.016413 0.000000 0.048501 0.000000
# 6 0.000000 0.000000 0.000000 -0.056636 0.000000 0.091292
#
#
# Mechanical properties :
#
#
# Convention : Reuss Voigt Hill
#
# Bulk Modulus (GPa) = 20.11827 40.15642 30.13734
# Shear Modulus (GPa) = 12.97040 20.06931 16.51986
#
# Velocity S-wave (km/s) = 2.52736 3.14382 2.85229
# Velocity P-wave (km/s) = 4.29237 5.74056 5.06846
#
# Compressibility (1/GPa) = 0.04970607
#
# Stress axis : x y z
#
# Youngs Moduli (GPa) = 35.40617 71.46247 23.00140
#
# Poissons Ratio (x) = 0.34876 0.06728
# Poissons Ratio (y) = 0.17279 0.23456
# Poissons Ratio (z) = 0.10357 0.72876
#
# Static dielectric constant tensor:
#      x y z
#    x 1.723510 0.000000 -0.010370 
#    y 0.000000 1.724910 0.000000 
#    z -0.010370 0.000000 1.727330 
# 
# From -- ./inp_files/154295.got.cif
#   From: 2010.05.17/outbox.cif.g08.bks.cpg/sg12_78_cif.got.tgz:154295.got - 2010.06.03 13:09:07.
