data_PCOD9196249
_publ_section_title
;
Structure prediction by ZEFSAII (Michael W. Deem and Ramdas Pophale) SiO2 
 PCOD9196249
Probable space group: C 2/M
;
_chemical_formula_sum "Si O2"
_cell_formula_units_Z 56
_cell_length_a 21.332584
_cell_length_b 9.075640
_cell_length_c 15.624749
_cell_angle_alpha 90.000000
_cell_angle_beta 93.000644
_cell_angle_gamma 90.000000
_cell_volume 3020.910960
_symmetry_space_group_name_H-M "C 2/M"
_symmetry_group_IT_number 12
_symmetry_cell_setting 'monoclinic'
loop_
_space_group_symop_operation_xyz
x,y,z
-x,y,-z
-x,-y,-z
x,-y,z
1/2+x,1/2+y,z
1/2-x,1/2+y,-z
1/2-x,1/2-y,-z
1/2+x,1/2-y,z
loop_
_atom_site_type_symbol
_atom_site_label
_atom_site_fract_x
_atom_site_fract_y
_atom_site_fract_z
Si Si1 0.815160 0.326273 0.980051
Si Si2 0.467708 0.823876 0.407508
Si Si3 0.441549 0.677461 0.058363
Si Si4 0.343161 0.326658 0.449555
Si Si5 0.700312 0.827952 0.388940
Si Si6 0.509659 0.325495 0.236536
Si Si7 0.864223 0.670630 0.795356
O O1 0.812914 0.500000 0.000261
O O2 0.825807 0.310058 0.879133
O O3 0.750000 0.250000 0.000000
O O4 0.876747 0.254035 0.027381
O O5 0.500000 0.779020 0.500000
O O6 0.396842 0.765324 0.407512
O O7 0.499086 0.756130 0.325463
O O8 0.470306 0.000000 0.402697
O O9 0.434862 0.500000 0.050498
O O10 0.460552 0.712672 0.157587
O O11 0.500000 0.720153 0.000000
O O12 0.357157 0.500000 0.446034
O O13 0.336873 0.272705 0.546949
O O14 0.274333 0.300341 0.404843
O O15 0.677567 0.805417 0.291435
O O16 0.689117 0.000000 0.411395
O O17 0.506677 0.500000 0.250420
O O18 0.576950 0.278229 0.204692
O O19 0.886860 0.500000 0.794677
#
# Coordination Sequence:
#
# PCOD9196249 Si02
#       7
#     8   8   8   8   8   8   8
#     4  11  24  40  62  91 124 161 203 254 309 368
#     4  11  24  40  57  81 119 159 195 242 298 354
#     4  10  21  41  65  89 122 160 200 252 312 370
#     4  10  20  35  56  83 113 149 195 241 289 348
#     4   9  19  36  57  80 112 152 190 234 294 354
#     4  11  23  38  62  91 117 153 200 250 300 357
#     4  10  21  38  59  84 115 152 194 239 294 361
#
# _framework density 18.537455999999999
#
# number of rings (size 3 to 8) (size 9 to 14) (size 15 to 20)
#    0.000    1.714    1.429    2.571    0.000    8.857 
#    0.000    2.857    0.000    0.000    0.000    0.000 
#    0.000    0.000    0.000    0.000    0.000    0.000 
#
# Total GULP energy -156417.764439 kJ/mol
# GULP energy per Si atom -5586.348730 kJ/mol
# Density = 1.849526 g / cm^3
# Si number density = 18.537456 Si / 1000 Ang^3
#
#
#
# Elastic Constant Matrix: (Units=GPa)
#
#
# Indices 1 2 3 4 5 6 
#
# 1 96.2615 48.6272 40.4713 0.0000 -3.2668 0.0000
# 2 48.6272 54.8604 46.2077 0.0000 0.6697 0.0000
# 3 40.4713 46.2077 90.2242 0.0000 6.8202 0.0000
# 4 0.0000 0.0000 0.0000 27.7310 0.0000 -4.8120
# 5 -3.2668 0.6697 6.8202 0.0000 25.5904 0.0000
# 6 0.0000 0.0000 0.0000 -4.8120 0.0000 35.5620
#
#
#
# Elastic Compliance Matrix: (Units=1/GPa)
#
#
# Indices 1 2 3 4 5 6 
#
# 1 0.019021 -0.016748 -0.000175 0.000000 0.002913 0.000000
# 2 -0.016748 0.047133 -0.016708 0.000000 0.001082 0.000000
# 3 -0.000175 -0.016708 0.020092 0.000000 -0.004940 0.000000
# 4 0.000000 0.000000 0.000000 0.036928 0.000000 0.004997
# 5 0.002913 0.001082 -0.004940 0.000000 0.040737 0.000000
# 6 0.000000 0.000000 0.000000 0.004997 0.000000 0.028796
#
#
# Mechanical properties :
#
#
# Convention : Reuss Voigt Hill
#
# Bulk Modulus (GPa) = 52.67537 56.88426 54.77982
# Shear Modulus (GPa) = 18.77593 24.84600 21.81097
#
# Velocity S-wave (km/s) = 3.18601 3.66500 3.43387
# Velocity P-wave (km/s) = 6.48163 6.97584 6.73327
#
# Compressibility (1/GPa) = 0.01898420
#
# Stress axis : x y z
#
# Youngs Moduli (GPa) = 52.57259 21.21653 49.77044
#
# Poissons Ratio (x) = 0.35534 0.00871
# Poissons Ratio (y) = 0.88051 0.83156
# Poissons Ratio (z) = 0.00920 0.35448
#
# Static dielectric constant tensor:
#      x y z
#    x 1.618300 0.000000 0.008930 
#    y 0.000000 1.627390 0.000000 
#    z 0.008930 0.000000 1.630570 
# 
# From -- ./inp_files/231049.got.cif
#   From: 2010.05.17/outbox.cif.g08.bks.cpg/sg12_116_cif.got.tgz:231049.got - 2010.06.03 13:09:07.
