data_PCOD9196378
_publ_section_title
;
Structure prediction by ZEFSAII (Michael W. Deem and Ramdas Pophale) SiO2 
 PCOD9196378
Probable space group: C 2/M
;
_chemical_formula_sum "Si O2"
_cell_formula_units_Z 48
_cell_length_a 23.688296
_cell_length_b 7.974031
_cell_length_c 12.414780
_cell_angle_alpha 90.000000
_cell_angle_beta 68.020184
_cell_angle_gamma 90.000000
_cell_volume 2174.595128
_symmetry_space_group_name_H-M "C 2/M"
_symmetry_group_IT_number 12
_symmetry_cell_setting 'monoclinic'
loop_
_space_group_symop_operation_xyz
x,y,z
-x,y,-z
-x,-y,-z
x,-y,z
1/2+x,1/2+y,z
1/2-x,1/2+y,-z
1/2-x,1/2-y,-z
1/2+x,1/2-y,z
loop_
_atom_site_type_symbol
_atom_site_label
_atom_site_fract_x
_atom_site_fract_y
_atom_site_fract_z
Si Si1 0.070200 0.205704 0.458439
Si Si2 0.293147 0.695604 0.237878
Si Si3 0.390518 0.301427 0.337359
Si Si4 0.828198 0.804671 0.774748
Si Si5 0.644077 0.195599 0.022707
Si Si6 0.992458 0.701495 0.879603
O O1 0.099697 0.265187 0.549486
O O2 0.112158 0.260484 0.329453
O O3 0.000000 0.258066 0.500000
O O4 0.070769 0.000000 0.458280
O O5 0.280821 0.500000 0.266865
O O6 0.335546 0.766357 0.303160
O O7 0.229386 0.785010 0.262209
O O8 0.330346 0.711536 0.099430
O O9 0.379489 0.500000 0.354900
O O10 0.453796 0.278117 0.228594
O O11 0.817661 0.714464 0.895734
O O12 0.836297 0.000000 0.794107
O O13 0.575894 0.254175 0.101057
O O14 0.640749 0.000000 0.994381
O O15 0.997088 0.500000 0.865160
O O16 0.000000 0.743199 0.000000
#
# Coordination Sequence:
#
# PCOD9196378 Si02
#       6
#     8   8   8   8   8   8
#     4   9  19  38  62  87 115 147 188 239 289 341
#     4  11  23  38  57  85 120 153 194 242 289 340
#     4  10  21  37  60  88 117 153 197 240 281 338
#     4  11  23  39  61  85 114 154 197 237 288 345
#     4  11  22  38  60  85 119 155 193 239 290 345
#     4  10  20  35  56  85 119 151 185 232 291 343
#
# _framework density 22.073074999999999
#
# number of rings (size 3 to 8) (size 9 to 14) (size 15 to 20)
#    0.000    1.667    1.667    3.000    0.000    4.333 
#    0.000    1.667    0.000    4.500    0.000    0.000 
#    0.000    0.000    0.000    0.000    0.000    0.000 
#
# Total GULP energy -134173.211621 kJ/mol
# GULP energy per Si atom -5590.550484 kJ/mol
# Density = 2.202284 g / cm^3
# Si number density = 22.073075 Si / 1000 Ang^3
#
#
#
# Elastic Constant Matrix: (Units=GPa)
#
#
# Indices 1 2 3 4 5 6 
#
# 1 111.3208 -3.0554 27.3913 0.0000 10.1972 0.0000
# 2 -3.0554 26.3737 -7.5974 0.0000 4.4392 0.0000
# 3 27.3913 -7.5974 73.0183 0.0000 23.1679 0.0000
# 4 0.0000 0.0000 0.0000 4.2315 0.0000 0.7340
# 5 10.1972 4.4392 23.1679 0.0000 32.5765 0.0000
# 6 0.0000 0.0000 0.0000 0.7340 0.0000 23.1904
#
#
#
# Elastic Compliance Matrix: (Units=1/GPa)
#
#
# Indices 1 2 3 4 5 6 
#
# 1 0.009907 0.000257 -0.003480 0.000000 -0.000661 0.000000
# 2 0.000257 0.042159 0.007928 0.000000 -0.011463 0.000000
# 3 -0.003480 0.007928 0.020433 0.000000 -0.014523 0.000000
# 4 0.000000 0.000000 0.000000 0.237625 0.000000 -0.007521
# 5 -0.000661 -0.011463 -0.014523 0.000000 0.042794 0.000000
# 6 0.000000 0.000000 0.000000 -0.007521 0.000000 0.043359
#
#
# Mechanical properties :
#
#
# Convention : Reuss Voigt Hill
#
# Bulk Modulus (GPa) = 12.20879 27.13222 19.67050
# Shear Modulus (GPa) = 12.07227 24.93132 18.50179
#
# Velocity S-wave (km/s) = 2.34118 3.36443 2.89832
# Velocity P-wave (km/s) = 3.58486 5.23557 4.48678
#
# Compressibility (1/GPa) = 0.08190821
#
# Stress axis : x y z
#
# Youngs Moduli (GPa) = 100.93967 23.71945 48.93952
#
# Poissons Ratio (x) = -0.00609 0.17030
# Poissons Ratio (y) = -0.02590 -0.38797
# Poissons Ratio (z) = 0.35126 -0.18804
#
# Static dielectric constant tensor:
#      x y z
#    x 1.832700 0.000000 0.015470 
#    y 0.000000 1.778090 0.000000 
#    z 0.015470 0.000000 1.776310 
# 
# From -- ./inp_files/172911.got.cif
#   From: 2010.05.17/outbox.cif.g08.bks.cpg/sg12_87_cif.got.tgz:172911.got - 2010.06.03 13:09:07.
