data_PCOD9196147
_publ_section_title
;
Structure prediction by ZEFSAII (Michael W. Deem and Ramdas Pophale) SiO2 
 PCOD9196147
Probable space group: C 2/M
;
_chemical_formula_sum "Si O2"
_cell_formula_units_Z 56
_cell_length_a 31.022549
_cell_length_b 9.341892
_cell_length_c 11.251292
_cell_angle_alpha 90.000000
_cell_angle_beta 113.517151
_cell_angle_gamma 90.000000
_cell_volume 2989.895116
_symmetry_space_group_name_H-M "C 2/M"
_symmetry_group_IT_number 12
_symmetry_cell_setting 'monoclinic'
loop_
_space_group_symop_operation_xyz
x,y,z
-x,y,-z
-x,-y,-z
x,-y,z
1/2+x,1/2+y,z
1/2-x,1/2+y,-z
1/2-x,1/2-y,-z
1/2+x,1/2-y,z
loop_
_atom_site_type_symbol
_atom_site_label
_atom_site_fract_x
_atom_site_fract_y
_atom_site_fract_z
Si Si1 0.871646 0.167042 0.937260
Si Si2 0.202844 0.163542 0.959241
Si Si3 0.796681 0.164300 0.656591
Si Si4 0.805568 0.667199 0.428580
Si Si5 0.371441 0.663984 0.333118
Si Si6 0.031544 0.327833 0.919825
Si Si7 0.464528 0.827798 0.350902
O O1 0.844377 0.169028 0.783275
O O2 0.881353 0.000000 0.979459
O O3 0.832648 0.226702 0.983682
O O4 0.918337 0.256838 0.999949
O O5 0.171620 0.161109 0.806909
O O6 0.213809 0.000000 0.006761
O O7 0.250000 0.250000 0.000000
O O8 0.800529 0.279985 0.557873
O O9 0.748294 0.190846 0.677397
O O10 0.791387 0.000000 0.604364
O O11 0.815822 0.500000 0.428590
O O12 0.847769 0.755008 0.417050
O O13 0.384650 0.500000 0.375035
O O14 0.415840 0.746486 0.326161
O O15 0.034257 0.500000 0.925635
O O16 0.018657 0.290780 0.766628
O O17 0.000000 0.284585 0.000000
O O18 0.500000 0.794915 0.500000
O O19 0.457080 0.000000 0.344301
#
# Coordination Sequence:
#
# PCOD9196147 Si02
#       7
#     8   8   8   8   8   8   8
#     4  10  20  37  58  83 116 151 191 239 294 353
#     4  10  21  35  55  85 120 155 192 236 287 349
#     4   9  19  35  55  81 117 156 196 242 290 350
#     4  10  20  35  56  81 116 159 199 240 290 352
#     4  11  22  37  58  85 118 152 194 245 296 356
#     4  10  22  40  61  86 116 151 198 255 308 365
#     4  10  22  41  63  86 116 156 201 253 312 371
#
# _framework density 18.729754
#
# number of rings (size 3 to 8) (size 9 to 14) (size 15 to 20)
#    0.000    2.000    1.429    1.714    0.000    5.714 
#    0.000    1.429    0.000    0.000    0.000    0.000 
#    0.000    0.000    0.000    0.000    0.000    0.000 
#
# Total GULP energy -156009.515468 kJ/mol
# GULP energy per Si atom -5571.768410 kJ/mol
# Density = 1.868712 g / cm^3
# Si number density = 18.729754 Si / 1000 Ang^3
#
#
#
# Elastic Constant Matrix: (Units=GPa)
#
#
# Indices 1 2 3 4 5 6 
#
# 1 149.1606 53.3210 58.2624 0.0000 -7.9188 0.0000
# 2 53.3210 45.2194 32.8678 0.0000 -0.6111 0.0000
# 3 58.2624 32.8678 64.4369 0.0000 -5.3145 0.0000
# 4 0.0000 0.0000 0.0000 12.8699 0.0000 -2.8009
# 5 -7.9188 -0.6111 -5.3145 0.0000 25.1173 0.0000
# 6 0.0000 0.0000 0.0000 -2.8009 0.0000 29.5807
#
#
#
# Elastic Compliance Matrix: (Units=1/GPa)
#
#
# Indices 1 2 3 4 5 6 
#
# 1 0.013168 -0.011115 -0.006022 0.000000 0.002607 0.000000
# 2 -0.011115 0.044749 -0.013205 0.000000 -0.005210 0.000000
# 3 -0.006022 -0.013205 0.028005 0.000000 0.003706 0.000000
# 4 0.000000 0.000000 0.000000 0.079336 0.000000 0.007512
# 5 0.002607 -0.005210 0.003706 0.000000 0.041292 0.000000
# 6 0.000000 0.000000 0.000000 0.007512 0.000000 0.034517
#
#
# Mechanical properties :
#
#
# Convention : Reuss Voigt Hill
#
# Bulk Modulus (GPa) = 39.62256 60.85771 50.24014
# Shear Modulus (GPa) = 16.12059 21.13796 18.62927
#
# Velocity S-wave (km/s) = 2.93694 3.36307 3.15721
# Velocity P-wave (km/s) = 5.71853 6.90242 6.33818
#
# Compressibility (1/GPa) = 0.02523815
#
# Stress axis : x y z
#
# Youngs Moduli (GPa) = 75.94156 22.34711 35.70821
#
# Poissons Ratio (x) = 0.24839 0.21502
# Poissons Ratio (y) = 0.84410 0.47152
# Poissons Ratio (z) = 0.45729 0.29509
#
# Static dielectric constant tensor:
#      x y z
#    x 1.648100 0.000000 0.000430 
#    y 0.000000 1.645710 0.000000 
#    z 0.000430 0.000000 1.756970 
# 
# From -- ./inp_files/180725.got.cif
#   From: 2010.05.17/outbox.cif.g08.bks.cpg/sg12_91_cif.got.tgz:180725.got - 2010.06.03 13:09:07.
