data_PCOD9196575
_publ_section_title
;
Structure prediction by ZEFSAII (Michael W. Deem and Ramdas Pophale) SiO2 
 PCOD9196575
Probable space group: C 2/M
;
_chemical_formula_sum "Si O2"
_cell_formula_units_Z 56
_cell_length_a 8.618135
_cell_length_b 17.836695
_cell_length_c 28.519038
_cell_angle_alpha 90.000000
_cell_angle_beta 140.783747
_cell_angle_gamma 90.000000
_cell_volume 2771.729051
_symmetry_space_group_name_H-M "C 2/M"
_symmetry_group_IT_number 12
_symmetry_cell_setting 'monoclinic'
loop_
_space_group_symop_operation_xyz
x,y,z
-x,y,-z
-x,-y,-z
x,-y,z
1/2+x,1/2+y,z
1/2-x,1/2+y,-z
1/2-x,1/2-y,-z
1/2+x,1/2-y,z
loop_
_atom_site_type_symbol
_atom_site_label
_atom_site_fract_x
_atom_site_fract_y
_atom_site_fract_z
Si Si1 0.352081 0.852389 0.421816
Si Si2 0.339794 0.915043 0.009492
Si Si3 0.331288 0.650166 0.860872
Si Si4 0.523463 0.813699 0.136921
Si Si5 0.780898 0.310448 0.576529
Si Si6 0.013774 0.084364 0.736272
Si Si7 0.587536 0.085998 0.713620
O O1 0.500000 0.887336 0.500000
O O2 0.223223 0.777278 0.411396
O O3 0.548646 0.826387 0.428480
O O4 0.154070 0.902499 0.348757
O O5 0.058849 0.900328 0.930078
O O6 0.371580 0.000000 0.035052
O O7 0.500000 0.907646 0.000000
O O8 0.427676 0.854823 0.067844
O O9 0.435355 0.726212 0.862316
O O10 0.171994 0.673301 0.868129
O O11 0.164367 0.608832 0.783575
O O12 0.776788 0.853801 0.210720
O O13 0.500000 0.331322 0.500000
O O14 0.890405 0.358326 0.644846
O O15 0.830634 0.091692 0.737792
O O16 0.116392 0.000000 0.760308
O O17 0.503050 0.000000 0.691604
#
# Coordination Sequence:
#
# PCOD9196575 Si02
#       7
#     8   8   8   8   8   8   8
#     4  10  20  35  57  83 113 151 194 241 291 346
#     4  11  24  43  66  91 123 159 192 235 292 347
#     4  12  25  41  63  90 120 155 198 244 289 343
#     4  12  25  41  63  90 120 155 198 244 289 343
#     4  10  20  35  57  83 113 151 194 241 291 346
#     4  10  22  40  60  85 119 156 194 240 296 352
#     4  10  22  40  60  85 119 156 194 240 296 352
#
# _framework density 20.203996
#
# number of rings (size 3 to 8) (size 9 to 14) (size 15 to 20)
#    0.000    1.286    0.000    6.857    0.000   10.286 
#    0.000    0.000    0.000    0.000    0.000    0.000 
#    0.000    0.000    0.000    0.000    0.000    0.000 
#
# Total GULP energy -156667.991976 kJ/mol
# GULP energy per Si atom -5595.285428 kJ/mol
# Density = 2.015801 g / cm^3
# Si number density = 20.203996 Si / 1000 Ang^3
#
#
#
# Elastic Constant Matrix: (Units=GPa)
#
#
# Indices 1 2 3 4 5 6 
#
# 1 45.7898 -3.2937 3.7679 -0.0023 -3.4990 0.0007
# 2 -3.2937 37.9510 -1.6021 0.0014 0.2400 -0.0005
# 3 3.7679 -1.6021 72.8843 -0.0031 -10.7357 0.0011
# 4 -0.0023 0.0014 -0.0031 372.4933 -0.0021 -113.5114
# 5 -3.4990 0.2400 -10.7357 -0.0021 26.4884 0.0008
# 6 0.0007 -0.0005 0.0011 -113.5114 0.0008 64.7773
#
#
#
# Elastic Compliance Matrix: (Units=1/GPa)
#
#
# Indices 1 2 3 4 5 6 
#
# 1 0.022234 0.001883 -0.000721 0.000000 0.002628 0.000000
# 2 0.001883 0.026534 0.000518 0.000000 0.000218 0.000000
# 3 -0.000721 0.000518 0.014628 0.000000 0.005829 0.000000
# 4 0.000000 0.000000 0.000000 0.005761 0.000000 0.010095
# 5 0.002628 0.000218 0.005829 0.000000 0.040460 0.000000
# 6 0.000000 0.000000 0.000000 0.010095 0.000000 0.033127
#
#
# Mechanical properties :
#
#
# Convention : Reuss Voigt Hill
#
# Bulk Modulus (GPa) = 14.98010 17.15213 16.06611
# Shear Modulus (GPa) = 30.93367 103.26866 67.10117
#
# Velocity S-wave (km/s) = 3.91713 7.15709 5.76922
# Velocity P-wave (km/s) = 5.28101 8.76393 7.23518
#
# Compressibility (1/GPa) = 0.06675523
#
# Stress axis : x y z
#
# Youngs Moduli (GPa) = 44.97523 37.68794 68.36403
#
# Poissons Ratio (x) = -0.07095 0.04929
# Poissons Ratio (y) = -0.08467 -0.03542
# Poissons Ratio (z) = 0.03243 -0.01953
#
# Static dielectric constant tensor:
#      x y z
#    x 1.692730 0.000000 -0.007270 
#    y 0.000000 1.679690 0.000000 
#    z -0.007270 0.000000 1.696510 
# 
# From -- ./inp_files/257147.got.cif
#   From: 2010.05.17/outbox.cif.g08.bks.cpg/sg12_129_cif.got.tgz:257147.got - 2010.06.03 13:09:07.
