data_PCOD9196351
_publ_section_title
;
Structure prediction by ZEFSAII (Michael W. Deem and Ramdas Pophale) SiO2 
 PCOD9196351
Probable space group: C 2/M
;
_chemical_formula_sum "Si O2"
_cell_formula_units_Z 48
_cell_length_a 9.794646
_cell_length_b 21.195104
_cell_length_c 20.576756
_cell_angle_alpha 90.000000
_cell_angle_beta 145.637524
_cell_angle_gamma 90.000000
_cell_volume 2411.063234
_symmetry_space_group_name_H-M "C 2/M"
_symmetry_group_IT_number 12
_symmetry_cell_setting 'monoclinic'
loop_
_space_group_symop_operation_xyz
x,y,z
-x,y,-z
-x,-y,-z
x,-y,z
1/2+x,1/2+y,z
1/2-x,1/2+y,-z
1/2-x,1/2-y,-z
1/2+x,1/2-y,z
loop_
_atom_site_type_symbol
_atom_site_label
_atom_site_fract_x
_atom_site_fract_y
_atom_site_fract_z
Si Si1 0.631075 0.259792 0.760000
Si Si2 0.866739 0.705722 0.100834
Si Si3 0.977079 0.573537 0.188271
Si Si4 0.742155 0.132794 0.627634
Si Si5 0.025920 0.372042 0.348994
Si Si6 0.050972 0.929758 0.410227
O O1 0.719161 0.231486 0.863320
O O2 0.453721 0.316418 0.708149
O O3 0.494366 0.202082 0.672615
O O4 0.847647 0.281819 0.798850
O O5 0.842760 0.629183 0.094727
O O6 0.750000 0.750000 0.000000
O O7 0.911995 0.500000 0.149934
O O8 0.955578 0.590823 0.256139
O O9 0.266343 0.581115 0.291043
O O10 0.500000 0.161231 0.500000
O O11 0.662767 0.112168 0.667755
O O12 0.826684 0.078176 0.612161
O O13 0.294228 0.386699 0.480529
O O14 0.084675 0.000000 0.448902
#
# Coordination Sequence:
#
# PCOD9196351 Si02
#       6
#     8   8   8   8   8   8
#     4  11  21  39  58  88 118 153 199 251 305 355
#     4  11  23  40  66  88 116 153 205 260 313 358
#     4  10  21  38  62  89 121 159 201 250 301 357
#     4  10  21  34  53  85 123 162 196 236 292 353
#     4  10  21  33  56  86 125 157 198 237 292 358
#     4  10  20  35  56  84 122 168 200 232 290 364
#
# _framework density 19.908228999999999
#
# number of rings (size 3 to 8) (size 9 to 14) (size 15 to 20)
#    0.000    1.667    3.333    1.500    0.000   10.333 
#    0.000    0.000    0.000   12.000    0.000    0.000 
#    0.000    0.000    0.000    0.000    0.000    0.000 
#
# Total GULP energy -133855.555760 kJ/mol
# GULP energy per Si atom -5577.314823 kJ/mol
# Density = 1.986292 g / cm^3
# Si number density = 19.908229 Si / 1000 Ang^3
#
#
#
# Elastic Constant Matrix: (Units=GPa)
#
#
# Indices 1 2 3 4 5 6 
#
# 1 92.7485 7.3718 -0.9270 0.0004 -5.9666 0.0001
# 2 7.3718 121.4959 28.4991 -0.0002 -7.5853 -0.0001
# 3 -0.9270 28.4991 28.2184 0.0008 -4.7304 0.0009
# 4 0.0004 -0.0002 0.0008 31.7771 0.0004 -1.9639
# 5 -5.9666 -7.5853 -4.7304 0.0004 23.9286 0.0003
# 6 0.0001 -0.0001 0.0009 -1.9639 0.0003 23.2975
#
#
#
# Elastic Compliance Matrix: (Units=1/GPa)
#
#
# Indices 1 2 3 4 5 6 
#
# 1 0.011052 -0.000905 0.001749 0.000000 0.002815 0.000000
# 2 -0.000905 0.010900 -0.010856 0.000000 0.001083 0.000000
# 3 0.001749 -0.010856 0.047531 -0.000001 0.006391 -0.000002
# 4 0.000000 0.000000 -0.000001 0.031634 -0.000001 0.002667
# 5 0.002815 0.001083 0.006391 -0.000001 0.044100 -0.000001
# 6 0.000000 0.000000 -0.000002 0.002667 -0.000001 0.043148
#
#
# Mechanical properties :
#
#
# Convention : Reuss Voigt Hill
#
# Bulk Modulus (GPa) = 20.21904 34.70561 27.46233
# Shear Modulus (GPa) = 22.23449 29.63523 25.93486
#
# Velocity S-wave (km/s) = 3.34555 3.86241 3.61324
# Velocity P-wave (km/s) = 5.01017 6.11242 5.58853
#
# Compressibility (1/GPa) = 0.04945832
#
# Stress axis : x y z
#
# Youngs Moduli (GPa) = 90.47855 91.74439 21.03889
#
# Poissons Ratio (x) = 0.08304 -0.03680
# Poissons Ratio (y) = 0.08190 0.22841
# Poissons Ratio (z) = -0.15825 0.99601
#
# Static dielectric constant tensor:
#      x y z
#    x 1.713040 0.000000 -0.002670 
#    y 0.000000 1.714630 0.000000 
#    z -0.002670 0.000000 1.719240 
# 
# From -- ./inp_files/132436.got.cif
#   From: 2010.05.17/outbox.cif.g08.bks.cpg/sg12_67_cif.got.tgz:132436.got - 2010.06.03 13:09:07.
