data_PCOD9196816
_publ_section_title
;
Structure prediction by ZEFSAII (Michael W. Deem and Ramdas Pophale) SiO2 
 PCOD9196816
Probable space group: C 2/M
;
_chemical_formula_sum "Si O2"
_cell_formula_units_Z 52
_cell_length_a 14.607684
_cell_length_b 16.260019
_cell_length_c 17.358749
_cell_angle_alpha 90.000000
_cell_angle_beta 39.595436
_cell_angle_gamma 90.000000
_cell_volume 2627.891445
_symmetry_space_group_name_H-M "C 2/M"
_symmetry_group_IT_number 12
_symmetry_cell_setting 'monoclinic'
loop_
_space_group_symop_operation_xyz
x,y,z
-x,y,-z
-x,-y,-z
x,-y,z
1/2+x,1/2+y,z
1/2-x,1/2+y,-z
1/2-x,1/2-y,-z
1/2+x,1/2-y,z
loop_
_atom_site_type_symbol
_atom_site_label
_atom_site_fract_x
_atom_site_fract_y
_atom_site_fract_z
Si Si1 0.740664 0.909843 0.231417
Si Si2 0.151358 0.768949 0.946026
Si Si3 0.244877 0.746448 0.594447
Si Si4 0.213718 0.908221 0.158050
Si Si5 0.994347 0.858048 0.179614
Si Si6 0.332342 0.591749 0.629469
Si Si7 0.500000 0.853633 0.500000
O O1 0.750457 0.831075 0.168479
O O2 0.880506 0.903254 0.197007
O O3 0.596925 0.903029 0.376066
O O4 0.746073 0.000000 0.189450
O O5 0.204534 0.675465 0.918259
O O6 0.000000 0.764717 0.000000
O O7 0.114358 0.814627 0.049210
O O8 0.250000 0.750000 0.500000
O O9 0.101874 0.789741 0.716844
O O10 0.252685 0.658290 0.629717
O O11 0.383319 0.796565 0.534051
O O12 0.182329 0.896050 0.269292
O O13 0.072368 0.908217 0.196079
O O14 0.281587 0.000000 0.105617
O O15 0.500000 0.596923 0.500000
O O16 0.280745 0.500000 0.644989
#
# Coordination Sequence:
#
# PCOD9196816 Si02
#       7
#     8   8   8   8   8   8   4
#     4  10  21  38  62  87 123 162 199 252 308 365
#     4  10  22  39  59  88 120 159 205 252 309 367
#     4  11  22  38  65  86 121 166 199 248 310 365
#     4  11  22  38  62  87 121 162 204 254 308 362
#     4  10  22  37  59  90 121 156 210 253 295 371
#     4  10  20  35  57  87 120 156 204 253 300 359
#     4  10  21  38  59  92 122 152 209 246 302 366
#
# _framework density 19.787728999999999
#
# number of rings (size 3 to 8) (size 9 to 14) (size 15 to 20)
#    0.000    1.692    0.769    4.846    2.154    3.692 
#    0.000    4.615    0.000    0.000    0.000    0.000 
#    0.000    0.000    0.000    0.000    0.000    0.000 
#
# Total GULP energy -145071.747147 kJ/mol
# GULP energy per Si atom -5579.682583 kJ/mol
# Density = 1.974269 g / cm^3
# Si number density = 19.787729 Si / 1000 Ang^3
#
#
#
# Elastic Constant Matrix: (Units=GPa)
#
#
# Indices 1 2 3 4 5 6 
#
# 1 67.1853 40.9703 20.8802 -0.0001 22.6222 0.0000
# 2 40.9703 161.2834 52.3465 -0.0001 9.1802 0.0000
# 3 20.8802 52.3465 99.2892 -0.0002 8.3894 0.0000
# 4 -0.0001 -0.0001 -0.0002 -53.1540 0.0002 -12.2360
# 5 22.6222 9.1802 8.3894 0.0002 23.9728 0.0000
# 6 0.0000 0.0000 0.0000 -12.2360 0.0000 20.3459
#
#
#
# Elastic Compliance Matrix: (Units=1/GPa)
#
#
# Indices 1 2 3 4 5 6 
#
# 1 0.025564 -0.004950 -0.000915 0.000000 -0.021908 0.000000
# 2 -0.004950 0.008493 -0.003665 0.000000 0.002701 0.000000
# 3 -0.000915 -0.003665 0.012371 0.000000 -0.002062 0.000000
# 4 0.000000 0.000000 0.000000 -0.016525 0.000000 -0.009938
# 5 -0.021908 0.002701 -0.002062 0.000000 0.062074 0.000000
# 6 0.000000 0.000000 0.000000 -0.009938 0.000000 0.043173
#
#
# Mechanical properties :
#
#
# Convention : Reuss Voigt Hill
#
# Bulk Modulus (GPa) = 36.54003 61.79468 49.16735
# Shear Modulus (GPa) = 30.61235 12.47034 21.54134
#
# Velocity S-wave (km/s) = 3.93751 2.51311 3.30301
# Velocity P-wave (km/s) = 6.25924 6.30219 6.28075
#
# Compressibility (1/GPa) = 0.02736725
#
# Stress axis : x y z
#
# Youngs Moduli (GPa) = 39.11796 117.73735 80.83682
#
# Poissons Ratio (x) = 0.58278 0.07399
# Poissons Ratio (y) = 0.19363 0.29628
# Poissons Ratio (z) = 0.03580 0.43153
#
# Static dielectric constant tensor:
#      x y z
#    x 1.685810 0.000000 -0.010650 
#    y 0.000000 1.719720 0.000000 
#    z -0.010650 0.000000 1.665900 
# 
# From -- ./inp_files/270574.got.cif
#   From: 2010.05.17/outbox.cif.g08.bks.cpg/sg12_136_cif.got.tgz:270574.got - 2010.06.03 13:09:07.
