data_PCOD9196847
_publ_section_title
;
Structure prediction by ZEFSAII (Michael W. Deem and Ramdas Pophale) SiO2 
 PCOD9196847
Probable space group: C 2/M
;
_chemical_formula_sum "Si O2"
_cell_formula_units_Z 48
_cell_length_a 26.039815
_cell_length_b 13.958235
_cell_length_c 10.847590
_cell_angle_alpha 90.000000
_cell_angle_beta 27.753307
_cell_angle_gamma 90.000000
_cell_volume 1836.013280
_symmetry_space_group_name_H-M "C 2/M"
_symmetry_group_IT_number 12
_symmetry_cell_setting 'monoclinic'
loop_
_space_group_symop_operation_xyz
x,y,z
-x,y,-z
-x,-y,-z
x,-y,z
1/2+x,1/2+y,z
1/2-x,1/2+y,-z
1/2-x,1/2-y,-z
1/2+x,1/2-y,z
loop_
_atom_site_type_symbol
_atom_site_label
_atom_site_fract_x
_atom_site_fract_y
_atom_site_fract_z
Si Si1 0.754550 0.111854 0.954242
Si Si2 0.162724 0.107356 0.616263
Si Si3 0.526465 0.394164 0.650576
Si Si4 0.375888 0.183229 0.251666
Si Si5 0.940880 0.701662 0.759270
Si Si6 0.148813 0.612734 0.433973
O O1 0.679200 0.162491 0.013355
O O2 0.719315 0.144019 0.165170
O O3 0.725554 0.000000 0.009965
O O4 0.882239 0.120037 0.650732
O O5 0.098685 0.108476 0.622378
O O6 0.294303 0.127074 0.334381
O O7 0.121852 0.202303 0.774513
O O8 0.143761 0.000000 0.709395
O O9 0.476133 0.500000 0.745439
O O10 0.445764 0.305859 0.809443
O O11 0.325952 0.168084 0.494622
O O12 0.500000 0.146409 0.000000
O O13 0.000000 0.703077 0.500000
O O14 0.021911 0.635426 0.667809
O O15 0.164575 0.500000 0.420884
#
# Coordination Sequence:
#
# PCOD9196847 Si02
#       6
#     8   8   8   8   8   8
#     4   9  20  38  63  91 123 161 196 245 309 365
#     4  10  23  43  64  92 125 158 201 254 305 363
#     4  10  21  39  63  90 123 162 201 243 304 368
#     4  11  24  42  65  92 120 160 208 254 303 356
#     4  10  20  35  57  89 124 158 200 246 294 355
#     4  10  20  36  58  90 125 153 197 252 300 353
#
# _framework density 26.143602000000001
#
# number of rings (size 3 to 8) (size 9 to 14) (size 15 to 20)
#    0.000    2.000    1.667    1.000    2.333    6.667 
#    0.000    1.667    0.000    2.000    0.000    0.000 
#    0.000    0.000    0.000    0.000    0.000    0.000 
#
# Total GULP energy -134516.289540 kJ/mol
# GULP energy per Si atom -5604.845397 kJ/mol
# Density = 2.608410 g / cm^3
# Si number density = 26.143602 Si / 1000 Ang^3
#
#
#
# Elastic Constant Matrix: (Units=GPa)
#
#
# Indices 1 2 3 4 5 6 
#
# 1 125.5344 49.4025 41.4989 0.0000 1.3618 0.0000
# 2 49.4025 99.5521 18.9033 0.0000 -5.5301 0.0000
# 3 41.4989 18.9033 76.8157 0.0000 -1.6008 0.0000
# 4 0.0000 0.0000 0.0000 -4.6857 0.0000 -7.6424
# 5 1.3618 -5.5301 -1.6008 0.0000 47.1362 0.0000
# 6 0.0000 0.0000 0.0000 -7.6424 0.0000 34.8325
#
#
#
# Elastic Compliance Matrix: (Units=1/GPa)
#
#
# Indices 1 2 3 4 5 6 
#
# 1 0.011557 -0.004831 -0.005077 0.000000 -0.001073 0.000000
# 2 -0.004831 0.012619 -0.000462 0.000000 0.001604 0.000000
# 3 -0.005077 -0.000462 0.015888 0.000000 0.000632 0.000000
# 4 0.000000 0.000000 0.000000 -0.157172 0.000000 -0.034484
# 5 -0.001073 0.001604 0.000632 0.000000 0.021456 0.000000
# 6 0.000000 0.000000 0.000000 -0.034484 0.000000 0.021143
#
#
# Mechanical properties :
#
#
# Convention : Reuss Voigt Hill
#
# Bulk Modulus (GPa) = 51.74928 57.94574 54.84751
# Shear Modulus (GPa) = -105.64577 28.26310 -38.69133
#
# Velocity S-wave (km/s) = -6.36377 3.29153 -3.85119
# Velocity P-wave (km/s) = 5.84461 6.05459 1.11772
#
# Compressibility (1/GPa) = 0.01932394
#
# Stress axis : x y z
#
# Youngs Moduli (GPa) = 86.52734 79.24499 62.94068
#
# Poissons Ratio (x) = 0.38281 0.31956
# Poissons Ratio (y) = 0.41799 0.02909
# Poissons Ratio (z) = 0.43931 0.03663
#
# Static dielectric constant tensor:
#      x y z
#    x 2.013920 0.000000 0.023220 
#    y 0.000000 2.005210 0.000000 
#    z 0.023220 0.000000 2.091690 
# 
# From -- ./inp_files/183684.got.cif
#   From: 2010.05.17/outbox.cif.g08.bks.cpg/sg12_92_cif.got.tgz:183684.got - 2010.06.03 13:09:07.
