data_PCOD9196551
_publ_section_title
;
Structure prediction by ZEFSAII (Michael W. Deem and Ramdas Pophale) SiO2 
 PCOD9196551
Probable space group: C 2/M
;
_chemical_formula_sum "Si O2"
_cell_formula_units_Z 56
_cell_length_a 18.141130
_cell_length_b 7.726266
_cell_length_c 19.264981
_cell_angle_alpha 90.000000
_cell_angle_beta 76.704379
_cell_angle_gamma 90.000000
_cell_volume 2627.865259
_symmetry_space_group_name_H-M "C 2/M"
_symmetry_group_IT_number 12
_symmetry_cell_setting 'monoclinic'
loop_
_space_group_symop_operation_xyz
x,y,z
-x,y,-z
-x,-y,-z
x,-y,z
1/2+x,1/2+y,z
1/2-x,1/2+y,-z
1/2-x,1/2-y,-z
1/2+x,1/2-y,z
loop_
_atom_site_type_symbol
_atom_site_label
_atom_site_fract_x
_atom_site_fract_y
_atom_site_fract_z
Si Si1 0.554774 0.701942 0.136717
Si Si2 0.761539 0.711600 0.286565
Si Si3 0.408125 0.712536 0.717503
Si Si4 0.615400 0.798093 0.851352
Si Si5 0.334313 0.292765 0.006588
Si Si6 0.811483 0.706548 0.428355
Si Si7 0.981925 0.795933 0.427806
O O1 0.576391 0.500000 0.136139
O O2 0.570157 0.774211 0.210146
O O3 0.466657 0.713487 0.137363
O O4 0.606381 0.775373 0.063807
O O5 0.761392 0.500000 0.285988
O O6 0.677055 0.764307 0.283697
O O7 0.823849 0.770325 0.217355
O O8 0.783788 0.768855 0.358945
O O9 0.410917 0.500000 0.717591
O O10 0.466738 0.774077 0.646018
O O11 0.647960 0.780265 0.921478
O O12 0.603713 0.000000 0.838355
O O13 0.342431 0.500000 0.010493
O O14 0.250000 0.250000 0.000000
O O15 0.818551 0.500000 0.422991
O O16 0.750000 0.750000 0.500000
O O17 0.893708 0.777750 0.429870
O O18 0.000000 0.721199 0.500000
O O19 0.000568 0.000000 0.427383
#
# Coordination Sequence:
#
# PCOD9196551 Si02
#       7
#     8   8   8   8   8   8   8
#     4  10  21  37  57  81 111 148 187 228 277 333
#     4   9  19  36  57  82 112 148 187 229 280 334
#     4   9  17  33  57  80 106 144 188 229 272 330
#     4  11  22  37  59  85 114 148 187 231 280 334
#     4  11  23  39  59  83 113 149 190 235 283 335
#     4  11  22  37  58  83 114 149 187 232 280 333
#     4  10  20  35  57  83 111 146 187 230 279 334
#
# _framework density 21.310072999999999
#
# number of rings (size 3 to 8) (size 9 to 14) (size 15 to 20)
#    0.000    1.857    0.000    4.286    0.000    7.714 
#    0.000    2.143    0.000    3.429    0.000    0.000 
#    0.000    0.000    0.000    0.000    0.000    0.000 
#
# Total GULP energy -156530.847358 kJ/mol
# GULP energy per Si atom -5590.387406 kJ/mol
# Density = 2.126157 g / cm^3
# Si number density = 21.310073 Si / 1000 Ang^3
#
#
#
# Elastic Constant Matrix: (Units=GPa)
#
#
# Indices 1 2 3 4 5 6 
#
# 1 148.1446 -32.2621 100.2291 0.0000 -2.7109 0.0000
# 2 -32.2621 31.0617 -9.5578 0.0000 -1.3356 0.0000
# 3 100.2291 -9.5578 227.0523 0.0000 -6.2387 0.0000
# 4 0.0000 0.0000 0.0000 8.0281 0.0000 -2.9869
# 5 -2.7109 -1.3356 -6.2387 0.0000 49.0607 0.0000
# 6 0.0000 0.0000 0.0000 -2.9869 0.0000 23.2473
#
#
#
# Elastic Compliance Matrix: (Units=1/GPa)
#
#
# Indices 1 2 3 4 5 6 
#
# 1 0.012786 0.011714 -0.005141 0.000000 0.000372 0.000000
# 2 0.011714 0.043405 -0.003305 0.000000 0.001409 0.000000
# 3 -0.005141 -0.003305 0.006547 0.000000 0.000459 0.000000
# 4 0.000000 0.000000 0.000000 0.130816 0.000000 0.016808
# 5 0.000372 0.001409 0.000459 0.000000 0.020500 0.000000
# 6 0.000000 0.000000 0.000000 0.016808 0.000000 0.045175
#
#
# Mechanical properties :
#
#
# Convention : Reuss Voigt Hill
#
# Bulk Modulus (GPa) = 14.43534 58.11968 36.27751
# Shear Modulus (GPa) = 18.13012 39.25717 28.69364
#
# Velocity S-wave (km/s) = 2.91997 4.29673 3.67343
# Velocity P-wave (km/s) = 4.26110 7.20752 5.92053
#
# Compressibility (1/GPa) = 0.06927443
#
# Stress axis : x y z
#
# Youngs Moduli (GPa) = 78.20882 23.03896 152.73817
#
# Poissons Ratio (x) = -0.26989 0.78523
# Poissons Ratio (y) = -0.91618 0.50486
# Poissons Ratio (z) = 0.40207 0.07615
#
# Static dielectric constant tensor:
#      x y z
#    x 1.693740 0.000000 0.010400 
#    y 0.000000 1.779500 0.000000 
#    z 0.010400 0.000000 1.765630 
# 
# From -- ./inp_files/275201.got.cif
#   From: 2010.05.17/outbox.cif.g08.bks.cpg/sg12_138_cif.got.tgz:275201.got - 2010.06.03 13:09:07.
