data_PCOD9196683
_publ_section_title
;
Structure prediction by ZEFSAII (Michael W. Deem and Ramdas Pophale) SiO2 
 PCOD9196683
Probable space group: C 2/M
;
_chemical_formula_sum "Si O2"
_cell_formula_units_Z 48
_cell_length_a 30.963364
_cell_length_b 8.932750
_cell_length_c 9.672989
_cell_angle_alpha 90.000000
_cell_angle_beta 90.595583
_cell_angle_gamma 90.000000
_cell_volume 2675.288039
_symmetry_space_group_name_H-M "C 2/M"
_symmetry_group_IT_number 12
_symmetry_cell_setting 'monoclinic'
loop_
_space_group_symop_operation_xyz
x,y,z
-x,y,-z
-x,-y,-z
x,-y,z
1/2+x,1/2+y,z
1/2-x,1/2+y,-z
1/2-x,1/2-y,-z
1/2+x,1/2-y,z
loop_
_atom_site_type_symbol
_atom_site_label
_atom_site_fract_x
_atom_site_fract_y
_atom_site_fract_z
Si Si1 0.997543 0.678835 0.661461
Si Si2 0.421770 0.679117 0.836736
Si Si3 0.749042 0.319934 0.650791
Si Si4 0.072606 0.178363 0.841018
Si Si5 0.327181 0.320123 0.146920
Si Si6 0.171422 0.320451 0.150244
O O1 0.993485 0.500000 0.671758
O O2 0.956910 0.755326 0.734513
O O3 0.000000 0.719710 0.500000
O O4 0.040151 0.733281 0.742982
O O5 0.419107 0.500000 0.824427
O O6 0.374675 0.749836 0.812443
O O7 0.434682 0.712653 0.996739
O O8 0.748581 0.500000 0.638919
O O9 0.750000 0.250000 0.500000
O O10 0.706594 0.275935 0.736573
O O11 0.791194 0.277889 0.741194
O O12 0.122978 0.212195 0.814076
O O13 0.065860 0.000000 0.822404
O O14 0.324157 0.500000 0.125437
O O15 0.317307 0.240181 0.001858
O O16 0.168025 0.500000 0.146311
#
# Coordination Sequence:
#
# PCOD9196683 Si02
#       6
#     8   8   8   8   8   8
#     4  11  24  38  53  79 114 146 178 221 272 324
#     4  10  21  38  60  83 107 140 183 226 269 323
#     4  10  22  37  54  80 114 149 185 225 269 321
#     4   9  19  36  58  82 106 137 182 228 268 320
#     4   9  19  37  58  81 109 142 183 227 269 321
#     4  10  20  35  57  85 112 140 180 228 274 320
#
# _framework density 17.941993
#
# number of rings (size 3 to 8) (size 9 to 14) (size 15 to 20)
#    0.000    2.167    0.000    3.500    0.000   10.000 
#    0.000    3.333    0.000    0.000    0.000    0.000 
#    0.000    0.000    0.000    0.000    0.000    0.000 
#
# Total GULP energy -134044.208180 kJ/mol
# GULP energy per Si atom -5585.175341 kJ/mol
# Density = 1.790116 g / cm^3
# Si number density = 17.941993 Si / 1000 Ang^3
#
#
#
# Elastic Constant Matrix: (Units=GPa)
#
#
# Indices 1 2 3 4 5 6 
#
# 1 138.3273 61.4184 129.9264 0.0000 -16.6432 0.0000
# 2 61.4184 47.4972 67.3166 0.0000 -9.3362 0.0000
# 3 129.9264 67.3166 161.3279 0.0000 -20.4029 0.0000
# 4 0.0000 0.0000 0.0000 35.6434 0.0000 0.7193
# 5 -16.6432 -9.3362 -20.4029 0.0000 -9.3968 0.0000
# 6 0.0000 0.0000 0.0000 0.7193 0.0000 31.2819
#
#
#
# Elastic Compliance Matrix: (Units=1/GPa)
#
#
# Indices 1 2 3 4 5 6 
#
# 1 0.032241 -0.011957 -0.020944 0.000000 0.000252 0.000000
# 2 -0.011957 0.055810 -0.014116 0.000000 -0.003622 0.000000
# 3 -0.020944 -0.014116 0.027790 0.000000 -0.009220 0.000000
# 4 0.000000 0.000000 0.000000 0.028069 0.000000 -0.000645
# 5 0.000252 -0.003622 -0.009220 0.000000 -0.083248 0.000000
# 6 0.000000 0.000000 0.000000 -0.000645 0.000000 0.031982
#
#
# Mechanical properties :
#
#
# Convention : Reuss Voigt Hill
#
# Bulk Modulus (GPa) = 45.85848 96.05282 70.95565
# Shear Modulus (GPa) = 25.78036 17.40511 21.59273
#
# Velocity S-wave (km/s) = 3.79472 3.11798 3.47288
# Velocity P-wave (km/s) = 6.69438 8.16173 7.46420
#
# Compressibility (1/GPa) = 0.02180622
#
# Stress axis : x y z
#
# Youngs Moduli (GPa) = 31.01655 17.91805 35.98423
#
# Poissons Ratio (x) = 0.21425 0.75366
# Poissons Ratio (y) = 0.37088 0.50794
# Poissons Ratio (z) = 0.64961 0.25292
#
# Static dielectric constant tensor:
#      x y z
#    x 1.604290 0.000000 -0.005100 
#    y 0.000000 1.599150 0.000000 
#    z -0.005100 0.000000 1.580690 
# 
# From -- ./inp_files/108696.got.cif
#   From: 2010.05.17/outbox.cif.g08.bks.cpg/sg12_55_cif.got.tgz:108696.got - 2010.06.03 13:09:07.
