data_PCOD9196412
_publ_section_title
;
Structure prediction by ZEFSAII (Michael W. Deem and Ramdas Pophale) SiO2 
 PCOD9196412
Probable space group: C 2/M
;
_chemical_formula_sum "Si O2"
_cell_formula_units_Z 64
_cell_length_a 15.016222
_cell_length_b 14.725789
_cell_length_c 17.289786
_cell_angle_alpha 90.000000
_cell_angle_beta 119.600670
_cell_angle_gamma 90.000000
_cell_volume 3324.245123
_symmetry_space_group_name_H-M "C 2/M"
_symmetry_group_IT_number 12
_symmetry_cell_setting 'monoclinic'
loop_
_space_group_symop_operation_xyz
x,y,z
-x,y,-z
-x,-y,-z
x,-y,z
1/2+x,1/2+y,z
1/2-x,1/2+y,-z
1/2-x,1/2-y,-z
1/2+x,1/2-y,z
loop_
_atom_site_type_symbol
_atom_site_label
_atom_site_fract_x
_atom_site_fract_y
_atom_site_fract_z
Si Si1 0.622451 0.395923 0.558370
Si Si2 0.668348 0.397127 0.189052
Si Si3 0.209835 0.100987 0.023053
Si Si4 0.326355 0.211035 0.357539
Si Si5 0.002244 0.604863 0.651925
Si Si6 0.449781 0.103127 0.146728
Si Si7 0.978034 0.786086 0.082185
Si Si8 0.219142 0.605620 0.506289
O O1 0.500000 0.385966 0.500000
O O2 0.645463 0.500000 0.591159
O O3 0.665462 0.318960 0.633180
O O4 0.679031 0.380642 0.500473
O O5 0.682958 0.500000 0.224070
O O6 0.689105 0.397825 0.106282
O O7 0.745596 0.328432 0.262420
O O8 0.553927 0.360707 0.150420
O O9 0.331581 0.109179 0.068789
O O10 0.179336 0.000000 0.981897
O O11 0.137781 0.177929 0.956043
O O12 0.435304 0.169906 0.377961
O O13 0.293762 0.170677 0.426451
O O14 0.024554 0.500000 0.639558
O O15 0.880891 0.618887 0.590739
O O16 0.039148 0.615819 0.756078
O O17 0.501710 0.188102 0.127837
O O18 0.486089 0.000000 0.145341
O O19 0.000000 0.782380 0.000000
O O20 0.217339 0.500000 0.531288
#
# Coordination Sequence:
#
# PCOD9196412 Si02
#       8
#     8   8   8   8   8   8   8   8
#     4  10  23  42  58  78 115 161 203 234 275 340
#     4  10  20  35  56  87 117 142 181 242 301 343
#     4   9  17  35  59  81 109 145 186 236 297 351
#     4  12  21  35  61  87 116 149 196 244 292 339
#     4  10  20  35  57  88 119 145 186 245 302 342
#     4  10  20  35  57  83 115 152 188 237 292 346
#     4  10  21  35  55  82 112 152 195 232 285 356
#     4  10  21  36  59  87 114 150 194 238 285 341
#
# _framework density 19.252492
#
# number of rings (size 3 to 8) (size 9 to 14) (size 15 to 20)
#    0.000    1.875    1.250    3.375    1.750    2.750 
#    0.000    0.000    0.000    1.500    0.000    0.000 
#    0.000    0.000    0.000    0.000    0.000    0.000 
#
# Total GULP energy -178590.226467 kJ/mol
# GULP energy per Si atom -5580.944577 kJ/mol
# Density = 1.920867 g / cm^3
# Si number density = 19.252492 Si / 1000 Ang^3
#
#
#
# Elastic Constant Matrix: (Units=GPa)
#
#
# Indices 1 2 3 4 5 6 
#
# 1 66.0540 23.0572 11.7364 0.0000 8.3711 0.0000
# 2 23.0572 123.0952 29.5507 0.0000 -9.2170 0.0000
# 3 11.7364 29.5507 23.2370 0.0000 2.5825 0.0000
# 4 0.0000 0.0000 0.0000 21.5779 0.0000 -22.6707
# 5 8.3711 -9.2170 2.5825 0.0000 12.4340 0.0000
# 6 0.0000 0.0000 0.0000 -22.6707 0.0000 -25.3594
#
#
#
# Elastic Compliance Matrix: (Units=1/GPa)
#
#
# Indices 1 2 3 4 5 6 
#
# 1 0.018958 -0.004020 -0.002777 0.000000 -0.015166 0.000000
# 2 -0.004020 0.014617 -0.018490 0.000000 0.017382 0.000000
# 3 -0.002777 -0.018490 0.070904 0.000000 -0.026563 0.000000
# 4 0.000000 0.000000 0.000000 0.023898 0.000000 -0.021364
# 5 -0.015166 0.017382 -0.026563 0.000000 0.109037 0.000000
# 6 0.000000 0.000000 0.000000 -0.021364 0.000000 -0.020334
#
#
# Mechanical properties :
#
#
# Convention : Reuss Voigt Hill
#
# Bulk Modulus (GPa) = 18.55155 37.89719 28.22437
# Shear Modulus (GPa) = 17.50565 11.59996 14.55281
#
# Velocity S-wave (km/s) = 3.01868 2.45729 2.75233
# Velocity P-wave (km/s) = 4.66977 5.27049 4.97919
#
# Compressibility (1/GPa) = 0.05390387
#
# Stress axis : x y z
#
# Youngs Moduli (GPa) = 52.74871 68.41301 14.10359
#
# Poissons Ratio (x) = 0.27501 0.03917
# Poissons Ratio (y) = 0.21204 0.26078
# Poissons Ratio (z) = 0.14651 1.26497
#
# Static dielectric constant tensor:
#      x y z
#    x 1.684090 0.000000 0.024550 
#    y 0.000000 1.690130 0.000000 
#    z 0.024550 0.000000 1.647230 
# 
# From -- ./inp_files/270309.got.cif
#   From: 2010.05.17/outbox.cif.g08.bks.cpg/sg12_136_cif.got.tgz:270309.got - 2010.06.03 13:09:07.
