data_PCOD9196627
_publ_section_title
;
Structure prediction by ZEFSAII (Michael W. Deem and Ramdas Pophale) SiO2 
 PCOD9196627
Probable space group: C 2/M
;
_chemical_formula_sum "Si O2"
_cell_formula_units_Z 56
_cell_length_a 19.464933
_cell_length_b 9.520072
_cell_length_c 17.046761
_cell_angle_alpha 90.000000
_cell_angle_beta 121.990682
_cell_angle_gamma 90.000000
_cell_volume 2679.166030
_symmetry_space_group_name_H-M "C 2/M"
_symmetry_group_IT_number 12
_symmetry_cell_setting 'monoclinic'
loop_
_space_group_symop_operation_xyz
x,y,z
-x,y,-z
-x,-y,-z
x,-y,z
1/2+x,1/2+y,z
1/2-x,1/2+y,-z
1/2-x,1/2-y,-z
1/2+x,1/2-y,z
loop_
_atom_site_type_symbol
_atom_site_label
_atom_site_fract_x
_atom_site_fract_y
_atom_site_fract_z
Si Si1 0.326315 0.839787 0.950949
Si Si2 0.424491 0.666295 0.897635
Si Si3 0.301874 0.839115 0.357131
Si Si4 0.416413 0.333937 0.323875
Si Si5 0.384626 0.335659 0.704307
Si Si6 0.573457 0.165039 0.424840
Si Si7 0.863546 0.841070 0.119068
O O1 0.350314 0.751275 0.889605
O O2 0.230466 0.838621 0.909954
O O3 0.352573 0.000000 0.957687
O O4 0.368402 0.767266 0.051356
O O5 0.407416 0.500000 0.891005
O O6 0.436630 0.699121 0.813437
O O7 0.500000 0.696196 0.000000
O O8 0.336676 0.730767 0.315176
O O9 0.208461 0.822904 0.323778
O O10 0.356390 0.821111 0.468059
O O11 0.313314 0.000000 0.335551
O O12 0.422057 0.500000 0.342208
O O13 0.493149 0.248381 0.401513
O O14 0.413385 0.313092 0.227936
O O15 0.399225 0.500000 0.691592
O O16 0.399286 0.235933 0.639922
O O17 0.555626 0.000000 0.404578
O O18 0.881876 0.000000 0.101838
#
# Coordination Sequence:
#
# PCOD9196627 Si02
#       7
#     8   8   8   8   8   8   8
#     4  10  20  35  57  84 112 147 194 240 284 338
#     4  10  22  38  57  82 116 154 190 234 288 343
#     4  10  22  41  63  88 120 157 199 248 300 354
#     4  11  23  38  61  89 120 158 200 244 295 356
#     4  10  22  41  64  88 117 160 205 242 293 360
#     4  11  24  40  60  89 124 157 195 250 305 350
#     4   9  20  37  56  81 115 152 189 235 288 343
#
# _framework density 20.902027
#
# number of rings (size 3 to 8) (size 9 to 14) (size 15 to 20)
#    0.000    1.857    0.000    3.000    2.000    6.000 
#    0.000    0.000    0.000    0.000    0.000    0.000 
#    0.000    0.000    0.000    0.000    0.000    0.000 
#
# Total GULP energy -156611.691276 kJ/mol
# GULP energy per Si atom -5593.274688 kJ/mol
# Density = 2.085445 g / cm^3
# Si number density = 20.902027 Si / 1000 Ang^3
#
#
#
# Elastic Constant Matrix: (Units=GPa)
#
#
# Indices 1 2 3 4 5 6 
#
# 1 55.4372 32.1331 12.7498 0.0000 -5.6786 0.0000
# 2 32.1331 69.9020 43.3220 0.0000 -9.0966 0.0000
# 3 12.7498 43.3220 86.4279 0.0000 1.6935 0.0000
# 4 0.0000 0.0000 0.0000 24.5797 0.0000 -11.1290
# 5 -5.6786 -9.0966 1.6935 0.0000 36.9512 0.0000
# 6 0.0000 0.0000 0.0000 -11.1290 0.0000 33.5098
#
#
#
# Elastic Compliance Matrix: (Units=1/GPa)
#
#
# Indices 1 2 3 4 5 6 
#
# 1 0.025130 -0.013333 0.002967 0.000000 0.000444 0.000000
# 2 -0.013333 0.029049 -0.012705 0.000000 0.005684 0.000000
# 3 0.002967 -0.012705 0.017569 0.000000 -0.003477 0.000000
# 4 0.000000 0.000000 0.000000 0.047884 0.000000 0.015903
# 5 0.000444 0.005684 -0.003477 0.000000 0.028690 0.000000
# 6 0.000000 0.000000 0.000000 0.015903 0.000000 0.035124
#
#
# Mechanical properties :
#
#
# Convention : Reuss Voigt Hill
#
# Bulk Modulus (GPa) = 39.05367 43.13076 41.09222
# Shear Modulus (GPa) = 20.99764 27.24562 24.12163
#
# Velocity S-wave (km/s) = 3.17294 3.61431 3.40079
# Velocity P-wave (km/s) = 5.66993 6.17229 5.92644
#
# Compressibility (1/GPa) = 0.02560579
#
# Stress axis : x y z
#
# Youngs Moduli (GPa) = 39.79352 34.42508 56.91801
#
# Poissons Ratio (x) = 0.45900 -0.16890
# Poissons Ratio (y) = 0.53057 0.72315
# Poissons Ratio (z) = -0.11808 0.43737
#
# Static dielectric constant tensor:
#      x y z
#    x 1.771660 0.000000 0.030410 
#    y 0.000000 1.697800 0.000000 
#    z 0.030410 0.000000 1.752290 
# 
# From -- ./inp_files/280985.got.cif
#   From: 2010.05.17/outbox.cif.g08.bks.cpg/sg12_141_cif.got.tgz:280985.got - 2010.06.03 13:09:07.
