data_PCOD9196497
_publ_section_title
;
Structure prediction by ZEFSAII (Michael W. Deem and Ramdas Pophale) SiO2 
 PCOD9196497
Probable space group: C 2/M
;
_chemical_formula_sum "Si O2"
_cell_formula_units_Z 48
_cell_length_a 17.318674
_cell_length_b 13.917472
_cell_length_c 15.972055
_cell_angle_alpha 90.000000
_cell_angle_beta 45.298690
_cell_angle_gamma 90.000000
_cell_volume 2736.358920
_symmetry_space_group_name_H-M "C 2/M"
_symmetry_group_IT_number 12
_symmetry_cell_setting 'monoclinic'
loop_
_space_group_symop_operation_xyz
x,y,z
-x,y,-z
-x,-y,-z
x,-y,z
1/2+x,1/2+y,z
1/2-x,1/2+y,-z
1/2-x,1/2-y,-z
1/2+x,1/2-y,z
loop_
_atom_site_type_symbol
_atom_site_label
_atom_site_fract_x
_atom_site_fract_y
_atom_site_fract_z
Si Si1 0.793388 0.698794 0.600646
Si Si2 0.439813 0.306061 0.290386
Si Si3 0.080572 0.111806 0.517870
Si Si4 0.563872 0.614823 0.036873
Si Si5 0.283073 0.888922 0.786868
Si Si6 0.533203 0.890988 0.648987
O O1 0.685523 0.669358 0.633250
O O2 0.823718 0.810435 0.565645
O O3 0.774844 0.675349 0.711149
O O4 0.895096 0.638918 0.486448
O O5 0.472486 0.357578 0.352607
O O6 0.512580 0.336074 0.156808
O O7 0.442807 0.191923 0.302883
O O8 0.000000 0.124469 0.500000
O O9 0.112814 0.000000 0.496443
O O10 0.552174 0.500000 0.056787
O O11 0.500000 0.640593 0.000000
O O12 0.690415 0.637255 0.924153
O O13 0.405495 0.884813 0.726259
O O14 0.260298 0.000000 0.779381
O O15 0.559337 0.000000 0.653466
#
# Coordination Sequence:
#
# PCOD9196497 Si02
#       6
#     8   8   8   8   8   8
#     4  11  20  33  56  83 110 140 177 223 273 320
#     4  11  22  35  57  83 108 143 181 221 268 319
#     4  10  21  36  53  77 111 146 179 216 262 320
#     4  10  20  36  57  82 109 136 178 231 273 313
#     4  10  20  35  57  82 108 140 178 226 276 316
#     4  10  21  35  52  79 112 144 177 217 270 326
#
# _framework density 17.541558999999999
#
# number of rings (size 3 to 8) (size 9 to 14) (size 15 to 20)
#    0.000    1.667    1.667    5.500    0.000    6.000 
#    0.000    0.000    0.000    1.500    0.000    0.000 
#    0.000    0.000    0.000    0.000    0.000    0.000 
#
# Total GULP energy -133923.544773 kJ/mol
# GULP energy per Si atom -5580.147699 kJ/mol
# Density = 1.750163 g / cm^3
# Si number density = 17.541559 Si / 1000 Ang^3
#
#
#
# Elastic Constant Matrix: (Units=GPa)
#
#
# Indices 1 2 3 4 5 6 
#
# 1 47.9252 4.5215 42.2626 0.0000 -3.7734 0.0000
# 2 4.5215 57.3392 46.4388 0.0000 -4.1106 0.0000
# 3 42.2626 46.4388 134.7180 0.0000 2.5480 0.0000
# 4 0.0000 0.0000 0.0000 19.9836 0.0000 0.9015
# 5 -3.7734 -4.1106 2.5480 0.0000 28.2312 0.0000
# 6 0.0000 0.0000 0.0000 0.9015 0.0000 21.5775
#
#
#
# Elastic Compliance Matrix: (Units=1/GPa)
#
#
# Indices 1 2 3 4 5 6 
#
# 1 0.032247 0.008655 -0.013228 0.000000 0.006764 0.000000
# 2 0.008655 0.027046 -0.012155 0.000000 0.006192 0.000000
# 3 -0.013228 -0.012155 0.015857 0.000000 -0.004969 0.000000
# 4 0.000000 0.000000 0.000000 0.050135 0.000000 -0.002095
# 5 0.006764 0.006192 -0.004969 0.000000 0.037676 0.000000
# 6 0.000000 0.000000 0.000000 -0.002095 0.000000 0.046432
#
#
# Mechanical properties :
#
#
# Convention : Reuss Voigt Hill
#
# Bulk Modulus (GPa) = 23.98459 47.38091 35.68275
# Shear Modulus (GPa) = 19.47447 23.74243 21.60845
#
# Velocity S-wave (km/s) = 3.33557 3.68298 3.51357
# Velocity P-wave (km/s) = 5.34204 6.71975 6.07011
#
# Compressibility (1/GPa) = 0.04169344
#
# Stress axis : x y z
#
# Youngs Moduli (GPa) = 31.01110 36.97396 63.06515
#
# Poissons Ratio (x) = -0.32001 0.83420
# Poissons Ratio (y) = -0.26840 0.76658
# Poissons Ratio (z) = 0.41020 0.44943
#
# Static dielectric constant tensor:
#      x y z
#    x 1.615100 0.000000 -0.016130 
#    y 0.000000 1.600490 0.000000 
#    z -0.016130 0.000000 1.584260 
# 
# From -- ./inp_files/166871.got.cif
#   From: 2010.05.17/outbox.cif.g08.bks.cpg/sg12_84_cif.got.tgz:166871.got - 2010.06.03 13:09:07.
