data_PCOD9196289
_publ_section_title
;
Structure prediction by ZEFSAII (Michael W. Deem and Ramdas Pophale) SiO2 
 PCOD9196289
Probable space group: C 2/M
;
_chemical_formula_sum "Si O2"
_cell_formula_units_Z 58
_cell_length_a 24.600056
_cell_length_b 9.245211
_cell_length_c 21.933728
_cell_angle_alpha 90.000000
_cell_angle_beta 41.718094
_cell_angle_gamma 90.000000
_cell_volume 3319.642527
_symmetry_space_group_name_H-M "C 2/M"
_symmetry_group_IT_number 12
_symmetry_cell_setting 'monoclinic'
loop_
_space_group_symop_operation_xyz
x,y,z
-x,y,-z
-x,-y,-z
x,-y,z
1/2+x,1/2+y,z
1/2-x,1/2+y,-z
1/2-x,1/2-y,-z
1/2+x,1/2-y,z
loop_
_atom_site_type_symbol
_atom_site_label
_atom_site_fract_x
_atom_site_fract_y
_atom_site_fract_z
Si Si1 0.707224 0.173587 0.593568
Si Si2 0.016471 0.761050 0.593099
Si Si3 0.835097 0.670173 0.720881
Si Si4 0.236137 0.829428 0.917155
Si Si5 0.183260 0.666351 0.402482
Si Si6 0.461144 0.331440 0.284492
Si Si7 0.000000 0.000000 0.500000
Si Si8 0.119858 0.330873 0.102755
O O1 0.750000 0.250000 0.500000
O O2 0.758115 0.228599 0.609067
O O3 0.615989 0.236407 0.671537
O O4 0.708863 0.000000 0.586417
O O5 0.927436 0.688435 0.666992
O O6 0.094538 0.666380 0.508799
O O7 0.032168 0.820734 0.647583
O O8 0.010865 0.877208 0.544249
O O9 0.819384 0.500000 0.731443
O O10 0.771000 0.729004 0.823851
O O11 0.826432 0.722270 0.658798
O O12 0.312320 0.822264 0.900345
O O13 0.213691 0.000000 0.931249
O O14 0.163489 0.737275 0.007092
O O15 0.213591 0.500000 0.377405
O O16 0.451435 0.500000 0.276095
O O17 0.542333 0.262487 0.187760
O O18 0.099201 0.500000 0.111902
#
# Coordination Sequence:
#
# PCOD9196289 Si02
#       8
#     8   8   8   8   8   8   2   8
#     4  12  26  41  60  82 113 153 198 246 290 338
#     4  12  22  34  55  81 122 157 194 233 284 340
#     4  10  20  36  58  85 115 154 193 232 285 348
#     4   9  18  34  55  84 118 152 188 231 284 347
#     4  11  23  38  59  83 116 156 199 241 287 344
#     4  12  24  38  59  85 114 155 195 239 290 342
#     4  12  24  36  46  88 124 164 192 238 278 356
#     4  10  20  35  56  83 117 151 191 237 288 343
#
# _framework density 17.471761999999998
#
# number of rings (size 3 to 8) (size 9 to 14) (size 15 to 20)
#    0.000    1.103    4.828    2.483    0.966    2.759 
#    1.241    0.000    0.000    0.828    0.000    5.793 
#    0.000    0.000    0.000    0.000    0.000    0.000 
#
# Total GULP energy -161585.288224 kJ/mol
# GULP energy per Si atom -5571.906490 kJ/mol
# Density = 1.743200 g / cm^3
# Si number density = 17.471762 Si / 1000 Ang^3
#
#
#
# Elastic Constant Matrix: (Units=GPa)
#
#
# Indices 1 2 3 4 5 6 
#
# 1 77.1233 39.0634 39.4873 0.0000 3.1570 0.0000
# 2 39.0634 117.6055 54.3313 0.0001 -3.7185 -0.0001
# 3 39.4873 54.3313 124.0365 0.0000 6.3679 0.0000
# 4 0.0000 0.0001 0.0000 47.3494 0.0000 -24.1373
# 5 3.1570 -3.7185 6.3679 0.0000 19.4251 0.0000
# 6 0.0000 -0.0001 0.0000 -24.1373 0.0000 48.4963
#
#
#
# Elastic Compliance Matrix: (Units=1/GPa)
#
#
# Indices 1 2 3 4 5 6 
#
# 1 0.016912 -0.004090 -0.003469 0.000000 -0.002394 0.000000
# 2 -0.004090 0.011908 -0.004134 0.000000 0.004300 0.000000
# 3 -0.003469 -0.004134 0.011177 0.000000 -0.003892 0.000000
# 4 0.000000 0.000000 0.000000 0.028300 0.000000 0.014085
# 5 -0.002394 0.004300 -0.003892 0.000000 0.053968 0.000000
# 6 0.000000 0.000000 0.000000 0.014085 0.000000 0.027631
#
#
# Mechanical properties :
#
#
# Convention : Reuss Voigt Hill
#
# Bulk Modulus (GPa) = 60.20872 64.94769 62.57821
# Shear Modulus (GPa) = 27.96098 35.44638 31.70368
#
# Velocity S-wave (km/s) = 4.00478 4.50909 4.26439
# Velocity P-wave (km/s) = 7.47795 8.02264 7.75508
#
# Compressibility (1/GPa) = 0.01660889
#
# Stress axis : x y z
#
# Youngs Moduli (GPa) = 59.12795 83.97978 89.46610
#
# Poissons Ratio (x) = 0.34352 0.31040
# Poissons Ratio (y) = 0.24186 0.36989
# Poissons Ratio (z) = 0.20514 0.34720
#
# Static dielectric constant tensor:
#      x y z
#    x 1.586060 0.000000 0.010080 
#    y 0.000000 1.597160 0.000000 
#    z 0.010080 0.000000 1.609070 
# 
# From -- ./inp_files/324570.got.cif
#   From: 2010.05.17/outbox.cif.g08.bks.cpg/sg12_163_cif.got.tgz:324570.got - 2010.06.03 13:09:07.
