data_PCOD9196010
_publ_section_title
;
Structure prediction by ZEFSAII (Michael W. Deem and Ramdas Pophale) SiO2 
 PCOD9196010
Probable space group: C 2/M
;
_chemical_formula_sum "Si O2"
_cell_formula_units_Z 56
_cell_length_a 19.406457
_cell_length_b 8.381344
_cell_length_c 26.259152
_cell_angle_alpha 90.000000
_cell_angle_beta 40.221555
_cell_angle_gamma 90.000000
_cell_volume 2758.046985
_symmetry_space_group_name_H-M "C 2/M"
_symmetry_group_IT_number 12
_symmetry_cell_setting 'monoclinic'
loop_
_space_group_symop_operation_xyz
x,y,z
-x,y,-z
-x,-y,-z
x,-y,z
1/2+x,1/2+y,z
1/2-x,1/2+y,-z
1/2-x,1/2-y,-z
1/2+x,1/2-y,z
loop_
_atom_site_type_symbol
_atom_site_label
_atom_site_fract_x
_atom_site_fract_y
_atom_site_fract_z
Si Si1 0.841564 0.689483 0.312129
Si Si2 0.080480 0.313749 0.998913
Si Si3 0.088555 0.185505 0.836147
Si Si4 0.710896 0.814418 0.076510
Si Si5 0.958657 0.188832 0.752353
Si Si6 0.812797 0.806698 0.740145
Si Si7 0.888137 0.193508 0.584477
O O1 0.843894 0.500000 0.300963
O O2 0.882390 0.777279 0.238348
O O3 0.717616 0.737088 0.388045
O O4 0.925917 0.731066 0.307964
O O5 0.107047 0.500000 0.976126
O O6 0.010710 0.289590 0.089082
O O7 0.188475 0.216429 0.943192
O O8 0.000000 0.261118 0.000000
O O9 0.194666 0.233503 0.807615
O O10 0.062957 0.000000 0.857485
O O11 0.610691 0.726578 0.158167
O O12 0.686317 0.000000 0.086165
O O13 0.750000 0.750000 0.000000
O O14 0.888150 0.243200 0.744024
O O15 0.973311 0.000000 0.739898
O O16 0.864487 0.762426 0.656461
O O17 0.801251 0.000000 0.748193
O O18 0.000000 0.255606 0.500000
O O19 0.893926 0.000000 0.580578
#
# Coordination Sequence:
#
# PCOD9196010 Si02
#       7
#     8   8   8   8   8   8   8
#     4  10  20  35  56  80 107 141 180 219 264 319
#     4  11  23  38  55  76 105 140 179 225 276 325
#     4  11  21  34  54  78 105 138 180 227 271 320
#     4  12  25  40  57  78 107 143 186 232 279 326
#     4  11  22  37  55  78 111 146 183 225 272 324
#     4   9  19  35  56  81 110 146 182 221 271 323
#     4   8  15  32  59  86 109 139 181 221 260 316
#
# _framework density 20.304223
#
# number of rings (size 3 to 8) (size 9 to 14) (size 15 to 20)
#    0.000    1.714    0.000    6.429    0.000    5.714 
#    0.000    0.714    0.000   10.714    0.000    0.000 
#    0.000    0.000    0.000    0.000    0.000    0.000 
#
# Total GULP energy -156503.238332 kJ/mol
# GULP energy per Si atom -5589.401369 kJ/mol
# Density = 2.025801 g / cm^3
# Si number density = 20.304223 Si / 1000 Ang^3
#
#
#
# Elastic Constant Matrix: (Units=GPa)
#
#
# Indices 1 2 3 4 5 6 
#
# 1 106.7196 12.8095 21.3797 0.0000 -24.2064 -0.0001
# 2 12.8095 29.9208 -5.5978 0.0000 -1.4665 -0.0003
# 3 21.3797 -5.5978 87.6599 0.0000 -25.3111 0.0000
# 4 0.0000 0.0000 0.0000 13.2152 0.0000 -6.1095
# 5 -24.2064 -1.4665 -25.3111 0.0000 27.1836 0.0000
# 6 -0.0001 -0.0003 0.0000 -6.1095 0.0000 31.4311
#
#
#
# Elastic Compliance Matrix: (Units=1/GPa)
#
#
# Indices 1 2 3 4 5 6 
#
# 1 0.012393 -0.004848 -0.000303 0.000000 0.010492 0.000000
# 2 -0.004848 0.036278 0.003854 0.000000 0.001229 0.000000
# 3 -0.000303 0.003854 0.016016 0.000000 0.014851 0.000000
# 4 0.000000 0.000000 0.000000 0.083141 0.000000 0.016161
# 5 0.010492 0.001229 0.014851 0.000000 0.060024 0.000000
# 6 0.000000 0.000000 0.000000 0.016161 0.000000 0.034957
#
#
# Mechanical properties :
#
#
# Convention : Reuss Voigt Hill
#
# Bulk Modulus (GPa) = 16.10473 31.27589 23.69031
# Shear Modulus (GPa) = 18.78991 27.41326 23.10158
#
# Velocity S-wave (km/s) = 3.04537 3.67839 3.37675
# Velocity P-wave (km/s) = 4.50718 5.78600 5.18616
#
# Compressibility (1/GPa) = 0.06209355
#
# Stress axis : x y z
#
# Youngs Moduli (GPa) = 80.69263 27.56473 62.43862
#
# Poissons Ratio (x) = 0.13363 0.01889
# Poissons Ratio (y) = 0.39118 -0.24062
# Poissons Ratio (z) = 0.02441 -0.10623
#
# Static dielectric constant tensor:
#      x y z
#    x 1.772510 0.000000 0.000260 
#    y 0.000000 1.692560 0.000000 
#    z 0.000260 0.000000 1.715480 
# 
# From -- ./inp_files/362970.got.cif
#   From: 2010.05.17/outbox.cif.g08.bks.cpg/sg12_182_cif.got.tgz:362970.got - 2010.06.03 13:09:07.
