data_PCOD9196656
_publ_section_title
;
Structure prediction by ZEFSAII (Michael W. Deem and Ramdas Pophale) SiO2 
 PCOD9196656
Probable space group: C 2/M
;
_chemical_formula_sum "Si O2"
_cell_formula_units_Z 48
_cell_length_a 15.749202
_cell_length_b 17.497726
_cell_length_c 20.116353
_cell_angle_alpha 90.000000
_cell_angle_beta 151.038757
_cell_angle_gamma 90.000000
_cell_volume 2684.294975
_symmetry_space_group_name_H-M "C 2/M"
_symmetry_group_IT_number 12
_symmetry_cell_setting 'monoclinic'
loop_
_space_group_symop_operation_xyz
x,y,z
-x,y,-z
-x,-y,-z
x,-y,z
1/2+x,1/2+y,z
1/2-x,1/2+y,-z
1/2-x,1/2-y,-z
1/2+x,1/2-y,z
loop_
_atom_site_type_symbol
_atom_site_label
_atom_site_fract_x
_atom_site_fract_y
_atom_site_fract_z
Si Si1 0.261758 0.412946 0.020715
Si Si2 0.914793 0.173280 0.802305
Si Si3 0.640237 0.208000 0.043085
Si Si4 0.048347 0.590008 0.299766
Si Si5 0.385821 0.188213 0.303019
Si Si6 0.775571 0.231654 0.439809
O O1 0.248160 0.500000 0.033382
O O2 0.453754 0.395176 0.123369
O O3 0.227764 0.355583 0.057751
O O4 0.113428 0.400286 0.862613
O O5 0.752686 0.154699 0.739542
O O6 0.842563 0.213642 0.686708
O O7 0.032649 0.235481 0.921569
O O8 0.780278 0.258570 0.178936
O O9 0.500000 0.175976 0.000000
O O10 0.091091 0.500000 0.332655
O O11 0.207119 0.644986 0.384496
O O12 0.983176 0.623670 0.326054
O O13 0.524131 0.243587 0.434615
O O14 0.750000 0.250000 0.500000
#
# Coordination Sequence:
#
# PCOD9196656 Si02
#       6
#     8   8   8   8   8   8
#     4  11  21  34  56  85 116 149 184 230 285 335
#     4  11  20  36  59  82 114 146 190 234 275 330
#     4  10  20  36  58  82 110 147 191 238 271 324
#     4  10  20  35  57  84 116 149 184 230 283 338
#     4  10  21  36  57  86 111 149 190 231 278 331
#     4  10  20  36  58  81 109 149 193 228 271 329
#
# _framework density 17.881791
#
# number of rings (size 3 to 8) (size 9 to 14) (size 15 to 20)
#    0.000    1.667    3.333    3.000    0.000    1.000 
#    0.000    9.167    0.000    8.000    0.000    0.000 
#    0.000    0.000    0.000    0.000    0.000    0.000 
#
# Total GULP energy -133884.234441 kJ/mol
# GULP energy per Si atom -5578.509768 kJ/mol
# Density = 1.784109 g / cm^3
# Si number density = 17.881791 Si / 1000 Ang^3
#
#
#
# Elastic Constant Matrix: (Units=GPa)
#
#
# Indices 1 2 3 4 5 6 
#
# 1 35.6646 4.5335 3.0839 0.0008 -0.6344 -0.0017
# 2 4.5335 53.5277 17.1326 0.0009 -1.3906 -0.0011
# 3 3.0839 17.1326 101.2803 0.0051 -2.9338 -0.0003
# 4 0.0008 0.0009 0.0051 22.6299 0.0014 -3.6460
# 5 -0.6344 -1.3906 -2.9338 0.0014 28.6045 -0.0005
# 6 -0.0017 -0.0011 -0.0003 -3.6460 -0.0005 3.2881
#
#
#
# Elastic Compliance Matrix: (Units=1/GPa)
#
#
# Indices 1 2 3 4 5 6 
#
# 1 0.028373 -0.002240 -0.000471 0.000002 0.000472 0.000015
# 2 -0.002240 0.019939 -0.003288 0.000001 0.000582 0.000006
# 3 -0.000471 -0.003288 0.010470 -0.000003 0.000904 -0.000003
# 4 0.000002 0.000001 -0.000003 0.053801 -0.000002 0.059657
# 5 0.000472 0.000582 0.000904 -0.000002 0.035091 0.000004
# 6 0.000015 0.000006 -0.000003 0.059657 0.000004 0.370281
#
#
# Mechanical properties :
#
#
# Convention : Reuss Voigt Hill
#
# Bulk Modulus (GPa) = 21.37479 26.66362 24.01921
# Shear Modulus (GPa) = 9.16510 21.95269 15.55889
#
# Velocity S-wave (km/s) = 2.26639 3.50759 2.95294
# Velocity P-wave (km/s) = 4.33913 5.59890 5.00878
#
# Compressibility (1/GPa) = 0.04678408
#
# Stress axis : x y z
#
# Youngs Moduli (GPa) = 35.24493 50.15274 95.50844
#
# Poissons Ratio (x) = 0.11234 0.04502
# Poissons Ratio (y) = 0.07895 0.31401
# Poissons Ratio (z) = 0.01661 0.16489
#
# Static dielectric constant tensor:
#      x y z
#    x 1.640560 0.000000 0.022330 
#    y 0.000000 1.579990 0.000000 
#    z 0.022330 0.000000 1.626770 
# 
# From -- ./inp_files/61680.got.cif
#   From: 2010.05.17/outbox.cif.g08.bks.cpg/sg12_31_cif.got.tgz:61680.got - 2010.06.03 13:09:07.
