data_PCOD9196344
_publ_section_title
;
Structure prediction by ZEFSAII (Michael W. Deem and Ramdas Pophale) SiO2 
 PCOD9196344
Probable space group: C 2/M
;
_chemical_formula_sum "Si O2"
_cell_formula_units_Z 56
_cell_length_a 30.776518
_cell_length_b 8.780927
_cell_length_c 11.905745
_cell_angle_alpha 90.000000
_cell_angle_beta 115.355533
_cell_angle_gamma 90.000000
_cell_volume 2907.537262
_symmetry_space_group_name_H-M "C 2/M"
_symmetry_group_IT_number 12
_symmetry_cell_setting 'monoclinic'
loop_
_space_group_symop_operation_xyz
x,y,z
-x,y,-z
-x,-y,-z
x,-y,z
1/2+x,1/2+y,z
1/2-x,1/2+y,-z
1/2-x,1/2-y,-z
1/2+x,1/2-y,z
loop_
_atom_site_type_symbol
_atom_site_label
_atom_site_fract_x
_atom_site_fract_y
_atom_site_fract_z
Si Si1 0.018784 0.319294 0.825072
Si Si2 0.361706 0.682207 0.433403
Si Si3 0.818205 0.319507 0.987525
Si Si4 0.719051 0.181284 0.804550
Si Si5 0.597492 0.320183 0.060135
Si Si6 0.406320 0.182027 0.704372
Si Si7 0.548140 0.680976 0.626045
O O1 0.021926 0.500000 0.846675
O O2 0.043906 0.273320 0.736123
O O3 0.962790 0.276030 0.754368
O O4 0.046519 0.236117 0.955700
O O5 0.356691 0.500000 0.428313
O O6 0.313948 0.759136 0.332178
O O7 0.376486 0.740970 0.572061
O O8 0.405781 0.721290 0.397870
O O9 0.825859 0.500000 0.982513
O O10 0.808785 0.287653 0.108691
O O11 0.769775 0.266579 0.870858
O O12 0.862882 0.229186 0.987031
O O13 0.726944 0.000000 0.806137
O O14 0.597355 0.500000 0.075587
O O15 0.608849 0.238123 0.189777
O O16 0.402425 0.000000 0.691650
O O17 0.500000 0.707888 0.500000
O O18 0.550202 0.500000 0.654325
#
# Coordination Sequence:
#
# PCOD9196344 Si02
#       7
#     8   8   8   8   8   8   8
#     4  11  23  38  59  86 117 156 201 247 295 348
#     4  11  22  37  59  87 121 159 199 240 293 351
#     4  10  21  40  65  92 121 152 192 242 293 347
#     4  10  21  38  63  93 123 154 191 237 293 351
#     4  12  25  40  61  86 116 155 199 245 295 350
#     4  11  24  41  59  82 117 158 201 247 293 347
#     4  10  20  35  56  84 119 155 193 240 289 343
#
# _framework density 19.260286000000001
#
# number of rings (size 3 to 8) (size 9 to 14) (size 15 to 20)
#    0.000    1.286    1.429    4.714    0.000    8.857 
#    0.000    0.714    0.000    0.000    0.000    0.000 
#    0.000    0.000    0.000    0.000    0.000    0.000 
#
# Total GULP energy -156645.844804 kJ/mol
# GULP energy per Si atom -5594.494457 kJ/mol
# Density = 1.921645 g / cm^3
# Si number density = 19.260286 Si / 1000 Ang^3
#
#
#
# Elastic Constant Matrix: (Units=GPa)
#
#
# Indices 1 2 3 4 5 6 
#
# 1 20.5082 3.0033 11.5292 0.0000 3.7290 0.0000
# 2 3.0033 24.4532 17.8730 0.0000 0.2192 0.0000
# 3 11.5292 17.8730 93.9219 0.0000 16.8344 0.0000
# 4 0.0000 0.0000 0.0000 35.3393 0.0000 0.2670
# 5 3.7290 0.2192 16.8344 0.0000 23.4231 0.0000
# 6 0.0000 0.0000 0.0000 0.2670 0.0000 26.5871
#
#
#
# Elastic Compliance Matrix: (Units=1/GPa)
#
#
# Indices 1 2 3 4 5 6 
#
# 1 0.052899 -0.002701 -0.005136 0.000000 -0.004705 0.000000
# 2 -0.002701 0.048645 -0.010240 0.000000 0.007334 0.000000
# 3 -0.005136 -0.010240 0.014994 0.000000 -0.009863 0.000000
# 4 0.000000 0.000000 0.000000 0.028299 0.000000 -0.000284
# 5 -0.004705 0.007334 -0.009863 0.000000 0.050462 0.000000
# 6 0.000000 0.000000 0.000000 -0.000284 0.000000 0.037615
#
#
# Mechanical properties :
#
#
# Convention : Reuss Voigt Hill
#
# Bulk Modulus (GPa) = 12.44025 22.63272 17.53648
# Shear Modulus (GPa) = 16.89968 24.16842 20.53405
#
# Velocity S-wave (km/s) = 2.96537 3.54620 3.26871
# Velocity P-wave (km/s) = 4.26586 5.34265 4.83433
#
# Compressibility (1/GPa) = 0.08038425
#
# Stress axis : x y z
#
# Youngs Moduli (GPa) = 18.90377 20.55715 66.69293
#
# Poissons Ratio (x) = 0.05552 0.34256
# Poissons Ratio (y) = 0.05105 0.68294
# Poissons Ratio (z) = 0.09710 0.21051
#
# Static dielectric constant tensor:
#      x y z
#    x 1.663320 0.000000 0.001570 
#    y 0.000000 1.636120 0.000000 
#    z 0.001570 0.000000 1.647820 
# 
# From -- ./inp_files/180851.got.cif
#   From: 2010.05.17/outbox.cif.g08.bks.cpg/sg12_91_cif.got.tgz:180851.got - 2010.06.03 13:09:07.
