data_PCOD9196878
_publ_section_title
;
Structure prediction by ZEFSAII (Michael W. Deem and Ramdas Pophale) SiO2 
 PCOD9196878
Probable space group: C 2/M
;
_chemical_formula_sum "Si O2"
_cell_formula_units_Z 48
_cell_length_a 13.651816
_cell_length_b 13.277903
_cell_length_c 23.698623
_cell_angle_alpha 90.000000
_cell_angle_beta 150.167972
_cell_angle_gamma 90.000000
_cell_volume 2136.979160
_symmetry_space_group_name_H-M "C 2/M"
_symmetry_group_IT_number 12
_symmetry_cell_setting 'monoclinic'
loop_
_space_group_symop_operation_xyz
x,y,z
-x,y,-z
-x,-y,-z
x,-y,z
1/2+x,1/2+y,z
1/2-x,1/2+y,-z
1/2-x,1/2-y,-z
1/2+x,1/2-y,z
loop_
_atom_site_type_symbol
_atom_site_label
_atom_site_fract_x
_atom_site_fract_y
_atom_site_fract_z
Si Si1 0.304277 0.385856 0.156424
Si Si2 0.527513 0.218903 0.625923
Si Si3 0.080750 0.241630 0.131645
Si Si4 0.222989 0.385042 0.981120
Si Si5 0.328611 0.388772 0.367637
Si Si6 0.693598 0.719342 0.379277
O O1 0.246453 0.500000 0.144230
O O2 0.177494 0.302663 0.127691
O O3 0.276947 0.378413 0.075149
O O4 0.532327 0.363791 0.284124
O O5 0.743291 0.180239 0.750151
O O6 0.570634 0.338424 0.636572
O O7 0.393578 0.212180 0.613771
O O8 0.401581 0.182225 0.509482
O O9 0.893653 0.168869 0.030353
O O10 0.983510 0.326727 0.123410
O O11 0.205938 0.500000 0.956549
O O12 0.500000 0.399961 0.500000
O O13 0.243998 0.500000 0.316545
O O14 0.212439 0.295623 0.337025
#
# Coordination Sequence:
#
# PCOD9196878 Si02
#       6
#     8   8   8   8   8   8
#     4  10  20  36  58  82 109 146 188 225 267 325
#     4   9  18  32  51  76 108 141 175 219 269 320
#     4  10  20  35  58  81 108 143 183 227 273 321
#     4  10  21  37  57  82 111 143 183 230 277 323
#     4   9  17  30  50  73  99 135 176 215 259 313
#     4   9  18  33  51  77 111 140 175 224 271 316
#
# _framework density 22.461614000000001
#
# number of rings (size 3 to 8) (size 9 to 14) (size 15 to 20)
#    0.000    2.500    0.000    2.000    0.000    4.667 
#    0.000    8.333    0.000   16.500    0.000    0.000 
#    0.000    0.000    0.000    0.000    0.000    0.000 
#
# Total GULP energy -133785.783948 kJ/mol
# GULP energy per Si atom -5574.407665 kJ/mol
# Density = 2.241049 g / cm^3
# Si number density = 22.461614 Si / 1000 Ang^3
#
#
#
# Elastic Constant Matrix: (Units=GPa)
#
#
# Indices 1 2 3 4 5 6 
#
# 1 82.4056 19.8718 22.1619 0.0001 4.5064 0.0000
# 2 19.8718 67.9729 11.4805 0.0001 11.5305 0.0001
# 3 22.1619 11.4805 129.7495 0.0005 7.1721 0.0002
# 4 0.0001 0.0001 0.0005 12.0872 0.0001 7.9208
# 5 4.5064 11.5305 7.1721 0.0001 34.5184 0.0000
# 6 0.0000 0.0001 0.0002 7.9208 0.0000 13.6921
#
#
#
# Elastic Compliance Matrix: (Units=1/GPa)
#
#
# Indices 1 2 3 4 5 6 
#
# 1 0.013546 -0.003598 -0.001987 0.000000 -0.000154 0.000000
# 2 -0.003598 0.016709 -0.000588 0.000000 -0.004990 0.000000
# 3 -0.001987 -0.000588 0.008167 0.000000 -0.001241 0.000000
# 4 0.000000 0.000000 0.000000 0.133243 0.000000 -0.077080
# 5 -0.000154 -0.004990 -0.001241 0.000000 0.030915 0.000000
# 6 0.000000 0.000000 0.000000 -0.077080 0.000000 0.117625
#
#
# Mechanical properties :
#
#
# Convention : Reuss Voigt Hill
#
# Bulk Modulus (GPa) = 38.34986 43.01737 40.68362
# Shear Modulus (GPa) = 14.65232 27.16714 20.90973
#
# Velocity S-wave (km/s) = 2.55684 3.48155 3.05439
# Velocity P-wave (km/s) = 5.08204 5.94598 5.53090
#
# Compressibility (1/GPa) = 0.02607571
#
# Stress axis : x y z
#
# Youngs Moduli (GPa) = 73.82497 59.84633 122.44172
#
# Poissons Ratio (x) = 0.21535 0.24326
# Poissons Ratio (y) = 0.26565 0.07200
# Poissons Ratio (z) = 0.14667 0.03519
#
# Static dielectric constant tensor:
#      x y z
#    x 1.856460 0.000000 -0.039660 
#    y 0.000000 1.784220 0.000000 
#    z -0.039660 0.000000 1.986420 
# 
# From -- ./inp_files/361294.got.cif
#   From: 2010.05.17/outbox.cif.g08.bks.cpg/sg12_181_cif.got.tgz:361294.got - 2010.06.03 13:09:07.
