data_PCOD9196130
_publ_section_title
;
Structure prediction by ZEFSAII (Michael W. Deem and Ramdas Pophale) SiO2 
 PCOD9196130
Probable space group: C 2/M
;
_chemical_formula_sum "Si O2"
_cell_formula_units_Z 40
_cell_length_a 18.460367
_cell_length_b 10.651681
_cell_length_c 10.118255
_cell_angle_alpha 90.000000
_cell_angle_beta 78.515617
_cell_angle_gamma 90.000000
_cell_volume 1949.758741
_symmetry_space_group_name_H-M "C 2/M"
_symmetry_group_IT_number 12
_symmetry_cell_setting 'monoclinic'
loop_
_space_group_symop_operation_xyz
x,y,z
-x,y,-z
-x,-y,-z
x,-y,z
1/2+x,1/2+y,z
1/2-x,1/2+y,-z
1/2-x,1/2-y,-z
1/2+x,1/2-y,z
loop_
_atom_site_type_symbol
_atom_site_label
_atom_site_fract_x
_atom_site_fract_y
_atom_site_fract_z
Si Si1 0.218352 0.132570 0.587750
Si Si2 0.548310 0.649620 0.358148
Si Si3 0.425648 0.355500 0.196679
Si Si4 0.196314 0.268190 0.212061
Si Si5 0.343368 0.856006 0.062835
O O1 0.250000 0.250000 0.500000
O O2 0.133415 0.145424 0.661049
O O3 0.262168 0.133775 0.710002
O O4 0.229396 0.000000 0.513040
O O5 0.500000 0.696611 0.500000
O O6 0.555902 0.500000 0.370733
O O7 0.503497 0.670930 0.237878
O O8 0.628445 0.709205 0.315838
O O9 0.424800 0.500000 0.143771
O O10 0.397544 0.248798 0.106959
O O11 0.261206 0.169484 0.152055
O O12 0.166142 0.328365 0.088730
O O13 0.365895 0.000000 0.079004
#
# Coordination Sequence:
#
# PCOD9196130 Si02
#       5
#     8   8   8   8   8
#     4  10  20  35  56  81 111 147 187 231 278 329
#     4  10  20  36  58  84 114 149 189 231 277 333
#     4   9  20  37  56  81 113 146 184 232 281 328
#     4  10  21  36  58  84 113 146 187 234 280 327
#     4  10  21  38  60  84 112 148 189 231 278 333
#
# _framework density 20.515360000000001
#
# number of rings (size 3 to 8) (size 9 to 14) (size 15 to 20)
#    0.000    2.200    0.000    2.400    0.000   12.000 
#    0.000    5.000    0.000    4.200    0.000    0.000 
#    0.000    0.000    0.000    0.000    0.000    0.000 
#
# Total GULP energy -111672.292663 kJ/mol
# GULP energy per Si atom -5583.614633 kJ/mol
# Density = 2.046867 g / cm^3
# Si number density = 20.515360 Si / 1000 Ang^3
#
#
#
# Elastic Constant Matrix: (Units=GPa)
#
#
# Indices 1 2 3 4 5 6 
#
# 1 84.2686 11.6270 7.0062 0.0000 -0.1046 0.0000
# 2 11.6270 108.6413 24.5327 0.0000 15.6234 0.0000
# 3 7.0062 24.5327 60.2432 0.0000 -2.4963 0.0000
# 4 0.0000 0.0000 0.0000 18.8996 0.0000 4.6066
# 5 -0.1046 15.6234 -2.4963 0.0000 30.4440 0.0000
# 6 0.0000 0.0000 0.0000 4.6066 0.0000 -2.5248
#
#
#
# Elastic Compliance Matrix: (Units=1/GPa)
#
#
# Indices 1 2 3 4 5 6 
#
# 1 0.012105 -0.001173 -0.000907 0.000000 0.000569 0.000000
# 2 -0.001173 0.011284 -0.004715 0.000000 -0.006181 0.000000
# 3 -0.000907 -0.004715 0.018789 0.000000 0.003957 0.000000
# 4 0.000000 0.000000 0.000000 0.036624 0.000000 0.066822
# 5 0.000569 -0.006181 0.003957 0.000000 0.036346 0.000000
# 6 0.000000 0.000000 0.000000 0.066822 0.000000 -0.274154
#
#
# Mechanical properties :
#
#
# Convention : Reuss Voigt Hill
#
# Bulk Modulus (GPa) = 34.97835 37.72052 36.34944
# Shear Modulus (GPa) = -36.79456 23.36292 -6.71582
#
# Velocity S-wave (km/s) = -4.23958 3.37827 -1.81126
# Velocity P-wave (km/s) = 2.62270 5.80029 3.65820
#
# Compressibility (1/GPa) = 0.02858911
#
# Stress axis : x y z
#
# Youngs Moduli (GPa) = 82.61261 88.62373 53.22329
#
# Poissons Ratio (x) = 0.10392 0.04826
# Poissons Ratio (y) = 0.09687 0.25094
# Poissons Ratio (z) = 0.07490 0.41784
#
# Static dielectric constant tensor:
#      x y z
#    x 1.706490 0.000000 0.012690 
#    y 0.000000 1.714110 0.000000 
#    z 0.012690 0.000000 1.769750 
# 
# From -- ./inp_files/71228.got.cif
#   From: 2010.05.17/outbox.cif.g08.bks.cpg/sg12_36_cif.got.tgz:71228.got - 2010.06.03 13:09:07.
