data_PCOD9196279
_publ_section_title
;
Structure prediction by ZEFSAII (Michael W. Deem and Ramdas Pophale) SiO2 
 PCOD9196279
Probable space group: C 2/M
;
_chemical_formula_sum "Si O2"
_cell_formula_units_Z 64
_cell_length_a 30.552467
_cell_length_b 8.784321
_cell_length_c 14.779110
_cell_angle_alpha 90.000000
_cell_angle_beta 52.771771
_cell_angle_gamma 90.000000
_cell_volume 3158.219850
_symmetry_space_group_name_H-M "C 2/M"
_symmetry_group_IT_number 12
_symmetry_cell_setting 'monoclinic'
loop_
_space_group_symop_operation_xyz
x,y,z
-x,y,-z
-x,-y,-z
x,-y,z
1/2+x,1/2+y,z
1/2-x,1/2+y,-z
1/2-x,1/2-y,-z
1/2+x,1/2-y,z
loop_
_atom_site_type_symbol
_atom_site_label
_atom_site_fract_x
_atom_site_fract_y
_atom_site_fract_z
Si Si1 0.112070 0.682437 0.119985
Si Si2 0.834386 0.673934 0.214002
Si Si3 0.387873 0.681426 0.501218
Si Si4 0.192847 0.673710 0.544745
Si Si5 0.484309 0.184804 0.269625
Si Si6 0.446529 0.185631 0.119658
Si Si7 0.661228 0.183267 0.253822
Si Si8 0.214603 0.179762 0.881768
O O1 0.112707 0.500000 0.105808
O O2 0.128582 0.716399 0.202879
O O3 0.048551 0.731292 0.185078
O O4 0.161530 0.748093 0.996961
O O5 0.827254 0.500000 0.190680
O O6 0.834527 0.668899 0.322149
O O7 0.895229 0.737307 0.123722
O O8 0.790695 0.775804 0.217503
O O9 0.390293 0.500000 0.498532
O O10 0.343252 0.736935 0.482484
O O11 0.446912 0.748926 0.396772
O O12 0.367020 0.742026 0.623905
O O13 0.199924 0.500000 0.504047
O O14 0.250000 0.750000 0.500000
O O15 0.454299 0.231809 0.213754
O O16 0.482879 0.000000 0.276993
O O17 0.443400 0.000000 0.123280
O O18 0.500000 0.233199 0.000000
O O19 0.725036 0.233370 0.162661
O O20 0.661771 0.000000 0.266292
O O21 0.211959 0.000000 0.897602
#
# Coordination Sequence:
#
# PCOD9196279 Si02
#       8
#     8   8   8   8   8   8   8   8
#     4  10  22  41  68  93 116 157 211 261 313 378
#     4  10  20  35  56  83 115 154 197 236 283 352
#     4  12  25  40  61  90 126 168 209 256 312 373
#     4  11  22  38  60  87 121 160 203 253 302 358
#     4  10  20  39  64  89 121 161 206 259 311 367
#     4   9  16  30  55  84 112 146 190 240 293 350
#     4  10  23  43  64  89 120 161 211 261 315 374
#     4  11  23  38  60  91 129 162 195 253 317 371
#
# _framework density 20.264581
#
# number of rings (size 3 to 8) (size 9 to 14) (size 15 to 20)
#    0.000    1.625    1.250    3.750    0.000    7.500 
#    0.000    2.500    0.000    1.500    0.000    0.000 
#    0.000    0.000    0.000    0.000    0.000    0.000 
#
# Total GULP energy -178599.447420 kJ/mol
# GULP energy per Si atom -5581.232732 kJ/mol
# Density = 2.021846 g / cm^3
# Si number density = 20.264581 Si / 1000 Ang^3
#
#
#
# Elastic Constant Matrix: (Units=GPa)
#
#
# Indices 1 2 3 4 5 6 
#
# 1 97.5786 24.0606 27.2662 0.0000 -11.9243 0.0000
# 2 24.0606 39.7467 28.7721 0.0000 -1.6383 -0.0001
# 3 27.2662 28.7721 96.5186 0.0000 -5.2877 0.0000
# 4 0.0000 0.0000 0.0000 24.8604 0.0000 -1.8024
# 5 -11.9243 -1.6383 -5.2877 0.0000 35.5912 0.0000
# 6 0.0000 -0.0001 0.0000 -1.8024 0.0000 23.3864
#
#
#
# Elastic Compliance Matrix: (Units=1/GPa)
#
#
# Indices 1 2 3 4 5 6 
#
# 1 0.012712 -0.006490 -0.001451 0.000000 0.003744 0.000000
# 2 -0.006490 0.035396 -0.008820 0.000000 -0.001855 0.000000
# 3 -0.001451 -0.008820 0.013460 0.000000 0.001108 0.000000
# 4 0.000000 0.000000 0.000000 0.040451 0.000000 0.003118
# 5 0.003744 -0.001855 0.001108 0.000000 0.029431 0.000000
# 6 0.000000 0.000000 0.000000 0.003118 0.000000 0.043000
#
#
# Mechanical properties :
#
#
# Convention : Reuss Voigt Hill
#
# Bulk Modulus (GPa) = 35.65555 43.78243 39.71899
# Shear Modulus (GPa) = 23.00752 27.01726 25.01239
#
# Velocity S-wave (km/s) = 3.37316 3.65530 3.51706
# Velocity P-wave (km/s) = 5.72749 6.28229 6.01130
#
# Compressibility (1/GPa) = 0.02804613
#
# Stress axis : x y z
#
# Youngs Moduli (GPa) = 78.66874 28.25166 74.29154
#
# Poissons Ratio (x) = 0.18336 0.10781
# Poissons Ratio (y) = 0.51057 0.65523
# Poissons Ratio (z) = 0.11416 0.24917
#
# Static dielectric constant tensor:
#      x y z
#    x 1.804240 0.000000 -0.088330 
#    y 0.000000 1.704430 0.000000 
#    z -0.088330 0.000000 1.910430 
# 
# From -- ./inp_files/249897.got.cif
#   From: 2010.05.17/outbox.cif.g08.bks.cpg/sg12_125_cif.got.tgz:249897.got - 2010.06.03 13:09:07.
