data_PCOD9196561
_publ_section_title
;
Structure prediction by ZEFSAII (Michael W. Deem and Ramdas Pophale) SiO2 
 PCOD9196561
Probable space group: C 2/M
;
_chemical_formula_sum "Si O2"
_cell_formula_units_Z 40
_cell_length_a 16.572045
_cell_length_b 10.600194
_cell_length_c 11.272201
_cell_angle_alpha 90.000000
_cell_angle_beta 78.435885
_cell_angle_gamma 90.000000
_cell_volume 1939.957389
_symmetry_space_group_name_H-M "C 2/M"
_symmetry_group_IT_number 12
_symmetry_cell_setting 'monoclinic'
loop_
_space_group_symop_operation_xyz
x,y,z
-x,y,-z
-x,-y,-z
x,-y,z
1/2+x,1/2+y,z
1/2-x,1/2+y,-z
1/2-x,1/2-y,-z
1/2+x,1/2-y,z
loop_
_atom_site_type_symbol
_atom_site_label
_atom_site_fract_x
_atom_site_fract_y
_atom_site_fract_z
Si Si1 0.563915 0.717048 0.886250
Si Si2 0.171417 0.139548 0.649166
Si Si3 0.052944 0.356395 0.259575
Si Si4 0.317114 0.859172 0.979009
Si Si5 0.138093 0.352800 0.471679
O O1 0.634716 0.644875 0.792761
O O2 0.506897 0.770615 0.798787
O O3 0.611922 0.824518 0.946342
O O4 0.500000 0.655867 0.000000
O O5 0.137065 0.253819 0.579017
O O6 0.270092 0.153503 0.612239
O O7 0.151184 0.000000 0.605823
O O8 0.021800 0.500000 0.268024
O O9 0.073767 0.319929 0.387256
O O10 0.137949 0.357635 0.160781
O O11 0.284347 0.000000 0.011609
O O12 0.250000 0.750000 0.000000
O O13 0.125929 0.500000 0.509873
#
# Coordination Sequence:
#
# PCOD9196561 Si02
#       5
#     8   8   8   8   8
#     4  10  21  36  56  84 116 150 187 229 279 334
#     4  10  21  38  59  84 116 148 185 236 285 332
#     4   9  18  35  56  80 112 148 189 233 276 328
#     4  10  20  35  57  83 112 147 187 232 279 330
#     4   9  19  37  61  84 108 147 194 235 277 329
#
# _framework density 20.619008000000001
#
# number of rings (size 3 to 8) (size 9 to 14) (size 15 to 20)
#    0.000    2.400    0.000    1.800    0.000    7.600 
#    0.000   12.000    0.000    0.000    0.000    0.000 
#    0.000    0.000    0.000    0.000    0.000    0.000 
#
# Total GULP energy -111553.078050 kJ/mol
# GULP energy per Si atom -5577.653902 kJ/mol
# Density = 2.057208 g / cm^3
# Si number density = 20.619008 Si / 1000 Ang^3
#
#
#
# Elastic Constant Matrix: (Units=GPa)
#
#
# Indices 1 2 3 4 5 6 
#
# 1 63.0597 37.9998 45.9192 0.0000 1.5364 0.0000
# 2 37.9998 104.7056 50.0960 0.0000 7.1751 0.0000
# 3 45.9192 50.0960 138.5372 0.0000 -17.0889 0.0000
# 4 0.0000 0.0000 0.0000 17.6064 0.0000 10.6795
# 5 1.5364 7.1751 -17.0889 0.0000 47.9829 0.0000
# 6 0.0000 0.0000 0.0000 10.6795 0.0000 -20.8203
#
#
#
# Elastic Compliance Matrix: (Units=1/GPa)
#
#
# Indices 1 2 3 4 5 6 
#
# 1 0.023693 -0.005529 -0.006114 0.000000 -0.002109 0.000000
# 2 -0.005529 0.013382 -0.003380 0.000000 -0.003028 0.000000
# 3 -0.006114 -0.003380 0.011038 0.000000 0.004632 0.000000
# 4 0.000000 0.000000 0.000000 0.043320 0.000000 0.022220
# 5 -0.002109 -0.003028 0.004632 0.000000 0.023011 0.000000
# 6 0.000000 0.000000 0.000000 0.022220 0.000000 -0.036633
#
#
# Mechanical properties :
#
#
# Convention : Reuss Voigt Hill
#
# Bulk Modulus (GPa) = 55.34758 63.81473 59.58116
# Shear Modulus (GPa) = 43.90583 20.43962 32.17272
#
# Velocity S-wave (km/s) = 4.61953 3.15191 3.95440
# Velocity P-wave (km/s) = 7.44008 6.65302 7.05753
#
# Compressibility (1/GPa) = 0.01806764
#
# Stress axis : x y z
#
# Youngs Moduli (GPa) = 42.20569 74.72908 90.59217
#
# Poissons Ratio (x) = 0.41317 0.55391
# Poissons Ratio (y) = 0.23335 0.30618
# Poissons Ratio (z) = 0.25806 0.25257
#
# Static dielectric constant tensor:
#      x y z
#    x 1.758360 0.000000 -0.046390 
#    y 0.000000 1.729920 0.000000 
#    z -0.046390 0.000000 1.745320 
# 
# From -- ./inp_files/140808.got.cif
#   From: 2010.05.17/outbox.cif.g08.bks.cpg/sg12_71_cif.got.tgz:140808.got - 2010.06.03 13:09:07.
