data_PCOD9196185
_publ_section_title
;
Structure prediction by ZEFSAII (Michael W. Deem and Ramdas Pophale) SiO2 
 PCOD9196185
Probable space group: C 2/M
;
_chemical_formula_sum "Si O2"
_cell_formula_units_Z 56
_cell_length_a 19.437564
_cell_length_b 9.093375
_cell_length_c 19.028979
_cell_angle_alpha 90.000000
_cell_angle_beta 62.020462
_cell_angle_gamma 90.000000
_cell_volume 2970.296364
_symmetry_space_group_name_H-M "C 2/M"
_symmetry_group_IT_number 12
_symmetry_cell_setting 'monoclinic'
loop_
_space_group_symop_operation_xyz
x,y,z
-x,y,-z
-x,-y,-z
x,-y,z
1/2+x,1/2+y,z
1/2-x,1/2+y,-z
1/2-x,1/2-y,-z
1/2+x,1/2-y,z
loop_
_atom_site_type_symbol
_atom_site_label
_atom_site_fract_x
_atom_site_fract_y
_atom_site_fract_z
Si Si1 0.667626 0.676583 0.249138
Si Si2 0.934140 0.827404 0.829444
Si Si3 0.172346 0.326505 0.509199
Si Si4 0.174196 0.824572 0.774580
Si Si5 0.095942 0.830122 0.667217
Si Si6 0.914857 0.824635 0.569890
Si Si7 0.980107 0.325389 0.090588
O O1 0.679369 0.500000 0.241951
O O2 0.635627 0.721563 0.188077
O O3 0.746571 0.754130 0.235445
O O4 0.602206 0.704952 0.340264
O O5 0.012422 0.818416 0.744474
O O6 0.952830 0.735695 0.889885
O O7 0.923782 0.000000 0.852123
O O8 0.181688 0.500000 0.501698
O O9 0.250000 0.250000 0.500000
O O10 0.107455 0.277517 0.596987
O O11 0.147378 0.261928 0.446606
O O12 0.158421 0.798643 0.699021
O O13 0.099882 0.754718 0.849422
O O14 0.174250 0.000000 0.784337
O O15 0.105432 0.000000 0.638854
O O16 0.000000 0.784596 0.500000
O O17 0.905409 0.000000 0.563483
O O18 0.971265 0.500000 0.105265
O O19 0.000000 0.297315 0.000000
#
# Coordination Sequence:
#
# PCOD9196185 Si02
#       7
#     8   8   8   8   8   8   8
#     4  10  20  35  56  82 112 145 183 227 274 326
#     4   9  19  36  59  84 109 141 178 217 265 322
#     4  12  24  35  50  74 104 140 184 232 279 324
#     4  10  21  36  57  83 111 146 184 224 271 324
#     4   9  18  35  55  75 102 138 183 229 273 324
#     4  10  21  38  58  78 106 146 187 230 282 332
#     4  10  21  38  61  88 115 142 176 219 266 321
#
# _framework density 18.853337
#
# number of rings (size 3 to 8) (size 9 to 14) (size 15 to 20)
#    0.000    2.000    0.000    4.714    0.000   10.000 
#    0.000    2.143    0.000    0.000    0.000    0.000 
#    0.000    0.000    0.000    0.000    0.000    0.000 
#
# Total GULP energy -156404.377924 kJ/mol
# GULP energy per Si atom -5585.870640 kJ/mol
# Density = 1.881043 g / cm^3
# Si number density = 18.853337 Si / 1000 Ang^3
#
#
#
# Elastic Constant Matrix: (Units=GPa)
#
#
# Indices 1 2 3 4 5 6 
#
# 1 104.1253 36.4196 22.6673 0.0000 25.0325 0.0000
# 2 36.4196 46.6711 38.4631 0.0000 16.5921 -0.0001
# 3 22.6673 38.4631 69.6537 0.0000 21.1424 0.0000
# 4 0.0000 0.0000 0.0000 27.3194 0.0000 2.9941
# 5 25.0325 16.5921 21.1424 0.0000 28.1677 0.0000
# 6 0.0000 -0.0001 0.0000 2.9941 0.0000 30.3856
#
#
#
# Elastic Compliance Matrix: (Units=1/GPa)
#
#
# Indices 1 2 3 4 5 6 
#
# 1 0.015272 -0.012433 0.004911 0.000000 -0.009935 0.000000
# 2 -0.012433 0.051240 -0.023882 0.000000 -0.001208 0.000000
# 3 0.004911 -0.023882 0.029788 0.000000 -0.012655 0.000000
# 4 0.000000 0.000000 0.000000 0.037004 0.000000 -0.003646
# 5 -0.009935 -0.001208 -0.012655 0.000000 0.054541 0.000000
# 6 0.000000 0.000000 0.000000 -0.003646 0.000000 0.033270
#
#
# Mechanical properties :
#
#
# Convention : Reuss Voigt Hill
#
# Bulk Modulus (GPa) = 29.85833 46.17222 38.01527
# Shear Modulus (GPa) = 16.94431 25.36789 21.15610
#
# Velocity S-wave (km/s) = 3.00116 3.67214 3.35347
# Velocity P-wave (km/s) = 5.28023 6.52095 5.93311
#
# Compressibility (1/GPa) = 0.03349149
#
# Stress axis : x y z
#
# Youngs Moduli (GPa) = 65.48119 19.51607 33.57097
#
# Poissons Ratio (x) = 0.24263 -0.16487
# Poissons Ratio (y) = 0.81410 0.80175
# Poissons Ratio (z) = -0.32158 0.46609
#
# Static dielectric constant tensor:
#      x y z
#    x 1.665170 0.000000 -0.005590 
#    y 0.000000 1.625280 0.000000 
#    z -0.005590 0.000000 1.656880 
# 
# From -- ./inp_files/275051.got.cif
#   From: 2010.05.17/outbox.cif.g08.bks.cpg/sg12_138_cif.got.tgz:275051.got - 2010.06.03 13:09:07.
