data_PCOD9196704
_publ_section_title
;
Structure prediction by ZEFSAII (Michael W. Deem and Ramdas Pophale) SiO2 
 PCOD9196704
Probable space group: C 2/M
;
_chemical_formula_sum "Si O2"
_cell_formula_units_Z 64
_cell_length_a 9.038267
_cell_length_b 24.520068
_cell_length_c 14.964830
_cell_angle_alpha 90.000000
_cell_angle_beta 91.897200
_cell_angle_gamma 90.000000
_cell_volume 3314.671501
_symmetry_space_group_name_H-M "C 2/M"
_symmetry_group_IT_number 12
_symmetry_cell_setting 'monoclinic'
loop_
_space_group_symop_operation_xyz
x,y,z
-x,y,-z
-x,-y,-z
x,-y,z
1/2+x,1/2+y,z
1/2-x,1/2+y,-z
1/2-x,1/2-y,-z
1/2+x,1/2-y,z
loop_
_atom_site_type_symbol
_atom_site_label
_atom_site_fract_x
_atom_site_fract_y
_atom_site_fract_z
Si Si1 0.672322 0.609938 0.999854
Si Si2 0.859849 0.657325 0.294295
Si Si3 0.296451 0.937263 0.824951
Si Si4 0.104439 0.226118 0.078562
Si Si5 0.653133 0.061662 0.835014
Si Si6 0.179559 0.309757 0.511798
Si Si7 0.843115 0.226118 0.199826
Si Si8 0.790297 0.639183 0.670108
O O1 0.674474 0.671801 0.037677
O O2 0.771980 0.574868 0.069004
O O3 0.500000 0.593506 0.000000
O O4 0.727361 0.600656 0.900329
O O5 0.798270 0.607147 0.235676
O O6 0.786550 0.667951 0.388752
O O7 0.854616 0.712764 0.237904
O O8 0.033095 0.645957 0.314967
O O9 0.474733 0.934358 0.838873
O O10 0.254643 0.915221 0.725499
O O11 0.251226 0.000000 0.836928
O O12 0.219571 0.268248 0.120846
O O13 0.996437 0.209300 0.157558
O O14 0.000000 0.251278 0.000000
O O15 0.689042 0.000000 0.807881
O O16 0.250000 0.250000 0.500000
O O17 0.236021 0.350345 0.435007
O O18 0.000000 0.304756 0.500000
O O19 0.790947 0.186973 0.277036
#
# Coordination Sequence:
#
# PCOD9196704 Si02
#       8
#     8   8   8   8   8   8   8   8
#     4  11  22  38  56  86 115 146 191 237 282 329
#     4  10  20  36  56  84 114 145 183 233 280 333
#     4  10  22  40  60  81 109 152 198 235 275 332
#     4  11  24  36  51  81 115 155 188 225 278 334
#     4  10  21  39  61  81 108 151 197 234 277 333
#     4  10  20  35  57  85 115 146 180 227 284 342
#     4  12  20  37  56  80 115 152 186 230 277 337
#     4  10  20  36  59  84 113 146 186 232 284 334
#
# _framework density 19.308098000000001
#
# number of rings (size 3 to 8) (size 9 to 14) (size 15 to 20)
#    0.000    1.500    3.750    2.625    0.000    2.000 
#    0.000    0.625    0.000    3.750    0.000    0.000 
#    0.000    4.000    0.000    0.000    0.000    0.000 
#
# Total GULP energy -178715.647028 kJ/mol
# GULP energy per Si atom -5584.863970 kJ/mol
# Density = 1.926415 g / cm^3
# Si number density = 19.308098 Si / 1000 Ang^3
#
#
#
# Elastic Constant Matrix: (Units=GPa)
#
#
# Indices 1 2 3 4 5 6 
#
# 1 21.6931 13.7269 15.1937 0.0000 -13.8278 0.0000
# 2 13.7269 68.1216 45.0091 0.0000 -19.4650 0.0000
# 3 15.1937 45.0091 129.8171 0.0000 -25.9176 0.0000
# 4 0.0000 0.0000 0.0000 20.2219 0.0000 -2.5136
# 5 -13.8278 -19.4650 -25.9176 0.0000 26.5494 0.0000
# 6 0.0000 0.0000 0.0000 -2.5136 0.0000 17.3530
#
#
#
# Elastic Compliance Matrix: (Units=1/GPa)
#
#
# Indices 1 2 3 4 5 6 
#
# 1 0.070166 -0.004690 0.000029 0.000000 0.033134 0.000000
# 2 -0.004690 0.021420 -0.005254 0.000000 0.008133 0.000000
# 3 0.000029 -0.005254 0.010875 0.000000 0.006779 0.000000
# 4 0.000000 0.000000 0.000000 0.050358 0.000000 0.007294
# 5 0.033134 0.008133 0.006779 0.000000 0.067504 0.000000
# 6 0.000000 0.000000 0.000000 0.007294 0.000000 0.058683
#
#
# Mechanical properties :
#
#
# Convention : Reuss Voigt Hill
#
# Bulk Modulus (GPa) = 12.10206 40.83235 26.46720
# Shear Modulus (GPa) = 15.31961 22.53835 18.92898
#
# Velocity S-wave (km/s) = 2.81984 3.42028 3.13447
# Velocity P-wave (km/s) = 4.10895 6.06560 5.18049
#
# Compressibility (1/GPa) = 0.08263059
#
# Stress axis : x y z
#
# Youngs Moduli (GPa) = 14.25193 46.68556 91.95590
#
# Poissons Ratio (x) = 0.21897 -0.00268
# Poissons Ratio (y) = 0.06685 0.48313
# Poissons Ratio (z) = -0.00042 0.24528
#
# Static dielectric constant tensor:
#      x y z
#    x 1.684910 0.000000 -0.002170 
#    y 0.000000 1.673810 0.000000 
#    z -0.002170 0.000000 1.692060 
# 
# From -- ./inp_files/198904.got.cif
#   From: 2010.05.17/outbox.cif.g08.bks.cpg/sg12_100_cif.got.tgz:198904.got - 2010.06.03 13:09:07.
