data_PCOD9196451
_publ_section_title
;
Structure prediction by ZEFSAII (Michael W. Deem and Ramdas Pophale) SiO2 
 PCOD9196451
Probable space group: C 2/M
;
_chemical_formula_sum "Si O2"
_cell_formula_units_Z 48
_cell_length_a 20.388036
_cell_length_b 7.315129
_cell_length_c 14.671803
_cell_angle_alpha 90.000000
_cell_angle_beta 65.264773
_cell_angle_gamma 90.000000
_cell_volume 1987.406911
_symmetry_space_group_name_H-M "C 2/M"
_symmetry_group_IT_number 12
_symmetry_cell_setting 'monoclinic'
loop_
_space_group_symop_operation_xyz
x,y,z
-x,y,-z
-x,-y,-z
x,-y,z
1/2+x,1/2+y,z
1/2-x,1/2+y,-z
1/2-x,1/2-y,-z
1/2+x,1/2-y,z
loop_
_atom_site_type_symbol
_atom_site_label
_atom_site_fract_x
_atom_site_fract_y
_atom_site_fract_z
Si Si1 0.270138 0.776239 0.634129
Si Si2 0.070941 0.712103 0.507597
Si Si3 0.013165 0.221920 0.889181
Si Si4 0.764778 0.207700 0.144112
Si Si5 0.858195 0.778463 0.923169
Si Si6 0.882930 0.220363 0.324602
O O1 0.349964 0.710108 0.562749
O O2 0.250765 0.715843 0.748041
O O3 0.200103 0.718182 0.616816
O O4 0.272005 0.000000 0.630327
O O5 0.073713 0.500000 0.477447
O O6 0.068764 0.721809 0.618148
O O7 0.000000 0.790989 0.500000
O O8 0.941571 0.270352 0.874179
O O9 0.082495 0.281351 0.791423
O O10 0.016678 0.000000 0.892057
O O11 0.000000 0.285305 0.000000
O O12 0.690296 0.208038 0.130752
O O13 0.789903 0.000000 0.146072
O O14 0.822373 0.286340 0.039235
O O15 0.852242 0.000000 0.924988
O O16 0.882932 0.000000 0.323908
#
# Coordination Sequence:
#
# PCOD9196451 Si02
#       6
#     8   8   8   8   8   8
#     4   9  18  34  55  76 100 135 178 213 253 310
#     4  10  22  38  55  76 105 140 176 215 263 315
#     4   9  17  30  51  77 105 135 168 208 257 308
#     4   9  17  30  50  72  98 135 171 204 249 308
#     4   9  17  29  46  73 104 130 165 211 255 298
#     4  10  20  35  57  81 104 134 176 221 259 302
#
# _framework density 24.152073000000001
#
# number of rings (size 3 to 8) (size 9 to 14) (size 15 to 20)
#    0.000    2.667    0.000    1.500    2.333    4.333 
#    0.000    1.667    0.000    4.000    0.000    0.000 
#    0.000    0.000    0.000    0.000    0.000    0.000 
#
# Total GULP energy -134086.466607 kJ/mol
# GULP energy per Si atom -5586.936109 kJ/mol
# Density = 2.409710 g / cm^3
# Si number density = 24.152073 Si / 1000 Ang^3
#
#
#
# Elastic Constant Matrix: (Units=GPa)
#
#
# Indices 1 2 3 4 5 6 
#
# 1 171.6397 1.2675 67.2082 0.0000 -17.1629 0.0000
# 2 1.2675 97.0805 -9.4217 -0.0004 -5.3760 0.0005
# 3 67.2082 -9.4217 105.6148 0.0000 0.5885 0.0000
# 4 0.0000 -0.0004 0.0000 121.1257 0.0000 -117.4830
# 5 -17.1629 -5.3760 0.5885 0.0000 34.4963 0.0000
# 6 0.0000 0.0005 0.0000 -117.4830 0.0000 133.5065
#
#
#
# Elastic Compliance Matrix: (Units=1/GPa)
#
#
# Indices 1 2 3 4 5 6 
#
# 1 0.008352 -0.000399 -0.005373 0.000000 0.004185 0.000000
# 2 -0.000399 0.010499 0.001182 0.000000 0.001418 0.000000
# 3 -0.005373 0.001182 0.013008 0.000000 -0.002711 0.000000
# 4 0.000000 0.000000 0.000000 0.056360 0.000000 0.049596
# 5 0.004185 0.001418 -0.002711 0.000000 0.031338 0.000000
# 6 0.000000 0.000000 0.000000 0.049596 0.000000 0.051133
#
#
# Mechanical properties :
#
#
# Convention : Reuss Voigt Hill
#
# Bulk Modulus (GPa) = 44.09240 54.71589 49.40414
# Shear Modulus (GPa) = 26.67665 78.84443 52.76054
#
# Velocity S-wave (km/s) = 3.32705 5.71978 4.67895
# Velocity P-wave (km/s) = 5.74933 8.14402 7.04911
#
# Compressibility (1/GPa) = 0.02267965
#
# Stress axis : x y z
#
# Youngs Moduli (GPa) = 119.73749 95.24536 76.87355
#
# Poissons Ratio (x) = 0.03798 0.41308
# Poissons Ratio (y) = 0.04775 -0.09090
# Poissons Ratio (z) = 0.64340 -0.11263
#
# Static dielectric constant tensor:
#      x y z
#    x 1.899770 0.000000 -0.010510 
#    y 0.000000 1.986400 0.000000 
#    z -0.010510 0.000000 1.905090 
# 
# From -- ./inp_files/154216.got.cif
#   From: 2010.05.17/outbox.cif.g08.bks.cpg/sg12_78_cif.got.tgz:154216.got - 2010.06.03 13:09:07.
