data_PCOD9196400
_publ_section_title
;
Structure prediction by ZEFSAII (Michael W. Deem and Ramdas Pophale) SiO2 
 PCOD9196400
Probable space group: C 2/M
;
_chemical_formula_sum "Si O2"
_cell_formula_units_Z 64
_cell_length_a 18.290597
_cell_length_b 14.061136
_cell_length_c 18.459462
_cell_angle_alpha 90.000000
_cell_angle_beta 33.557486
_cell_angle_gamma 90.000000
_cell_volume 2624.305769
_symmetry_space_group_name_H-M "C 2/M"
_symmetry_group_IT_number 12
_symmetry_cell_setting 'monoclinic'
loop_
_space_group_symop_operation_xyz
x,y,z
-x,y,-z
-x,-y,-z
x,-y,z
1/2+x,1/2+y,z
1/2-x,1/2+y,-z
1/2-x,1/2-y,-z
1/2+x,1/2-y,z
loop_
_atom_site_type_symbol
_atom_site_label
_atom_site_fract_x
_atom_site_fract_y
_atom_site_fract_z
Si Si1 0.597492 0.707097 0.693152
Si Si2 0.275564 0.896223 0.951978
Si Si3 0.562977 0.101638 0.657753
Si Si4 0.641533 0.239516 0.000843
Si Si5 0.791295 0.759084 0.639717
Si Si6 0.512887 0.389399 0.614233
Si Si7 0.102384 0.604064 0.350043
Si Si8 0.798483 0.389264 0.174327
O O1 0.638691 0.808361 0.623945
O O2 0.722633 0.685909 0.640264
O O3 0.547608 0.641876 0.668430
O O4 0.480770 0.727645 0.847951
O O5 0.432890 0.905653 0.815586
O O6 0.221561 0.838415 0.927689
O O7 0.215355 0.000000 0.009058
O O8 0.261600 0.829888 0.032885
O O9 0.491269 0.120062 0.641215
O O10 0.633336 0.000000 0.598814
O O11 0.619982 0.177903 0.947673
O O12 0.909846 0.815958 0.502525
O O13 0.817443 0.694783 0.689033
O O14 0.699642 0.843858 0.747078
O O15 0.553079 0.500000 0.569294
O O16 0.356690 0.385207 0.723589
O O17 0.169292 0.500000 0.284468
O O18 0.000000 0.594489 0.500000
O O19 0.837578 0.500000 0.140111
#
# Coordination Sequence:
#
# PCOD9196400 Si02
#       8
#     8   8   8   8   8   8   8   8
#     4  11  24  39  59  89 125 163 197 246 310 370
#     4   9  16  29  53  81 109 146 197 253 298 343
#     4   9  18  34  56  81 109 147 197 247 294 347
#     4  10  20  35  56  86 122 157 200 250 306 366
#     4  12  24  40  61  90 130 167 201 246 307 373
#     4  11  24  43  66  90 118 160 212 258 302 356
#     4  10  20  35  59  86 112 150 202 257 304 348
#     4  11  23  41  66  92 121 161 210 259 302 357
#
# _framework density 24.387401000000001
#
# number of rings (size 3 to 8) (size 9 to 14) (size 15 to 20)
#    0.000    1.625    0.000    6.750    0.000    5.000 
#    0.000    1.875    0.000    0.000    0.000    5.250 
#    0.000    0.000    0.000    0.000    0.000    0.000 
#
# Total GULP energy -178673.530175 kJ/mol
# GULP energy per Si atom -5583.547818 kJ/mol
# Density = 2.433189 g / cm^3
# Si number density = 24.387401 Si / 1000 Ang^3
#
#
#
# Elastic Constant Matrix: (Units=GPa)
#
#
# Indices 1 2 3 4 5 6 
#
# 1 71.8274 21.9373 6.7851 -0.0001 -1.8156 0.0001
# 2 21.9373 145.5778 12.6664 0.0000 -4.2584 0.0000
# 3 6.7851 12.6664 79.1756 -0.0001 3.0936 0.0000
# 4 -0.0001 0.0000 -0.0001 26.8153 0.0000 12.6875
# 5 -1.8156 -4.2584 3.0936 0.0000 28.8482 0.0000
# 6 0.0001 0.0000 0.0000 12.6875 0.0000 29.2886
#
#
#
# Elastic Compliance Matrix: (Units=1/GPa)
#
#
# Indices 1 2 3 4 5 6 
#
# 1 0.014674 -0.002108 -0.000948 0.000000 0.000714 0.000000
# 2 -0.002108 0.007307 -0.001030 0.000000 0.001056 0.000000
# 3 -0.000948 -0.001030 0.012939 0.000000 -0.001599 0.000000
# 4 0.000000 0.000000 0.000000 0.046906 0.000000 -0.020319
# 5 0.000714 0.001056 -0.001599 0.000000 0.035037 0.000000
# 6 0.000000 0.000000 0.000000 -0.020319 0.000000 0.042945
#
#
# Mechanical properties :
#
#
# Convention : Reuss Voigt Hill
#
# Bulk Modulus (GPa) = 37.38558 42.15092 39.76825
# Shear Modulus (GPa) = 28.26544 34.00323 31.13434
#
# Velocity S-wave (km/s) = 3.40813 3.73808 3.57691
# Velocity P-wave (km/s) = 5.55430 5.99603 5.77939
#
# Compressibility (1/GPa) = 0.02674828
#
# Stress axis : x y z
#
# Youngs Moduli (GPa) = 68.14944 136.84949 77.28799
#
# Poissons Ratio (x) = 0.28845 0.07328
# Poissons Ratio (y) = 0.14365 0.07958
# Poissons Ratio (z) = 0.06462 0.14091
#
# Static dielectric constant tensor:
#      x y z
#    x 1.996840 0.000000 0.008360 
#    y 0.000000 2.050120 0.000000 
#    z 0.008360 0.000000 2.058060 
# 
# From -- ./inp_files/278129.got.cif
#   From: 2010.05.17/outbox.cif.g08.bks.cpg/sg12_140_cif.got.tgz:278129.got - 2010.06.03 13:09:07.
