data_PCOD9196123
_publ_section_title
;
Structure prediction by ZEFSAII (Michael W. Deem and Ramdas Pophale) SiO2 
 PCOD9196123
Probable space group: C 2/M
;
_chemical_formula_sum "Si O2"
_cell_formula_units_Z 64
_cell_length_a 19.968555
_cell_length_b 8.957589
_cell_length_c 23.723657
_cell_angle_alpha 90.000000
_cell_angle_beta 121.481865
_cell_angle_gamma 90.000000
_cell_volume 3618.840149
_symmetry_space_group_name_H-M "C 2/M"
_symmetry_group_IT_number 12
_symmetry_cell_setting 'monoclinic'
loop_
_space_group_symop_operation_xyz
x,y,z
-x,y,-z
-x,-y,-z
x,-y,z
1/2+x,1/2+y,z
1/2-x,1/2+y,-z
1/2-x,1/2-y,-z
1/2+x,1/2-y,z
loop_
_atom_site_type_symbol
_atom_site_label
_atom_site_fract_x
_atom_site_fract_y
_atom_site_fract_z
Si Si1 0.246281 0.680566 0.320899
Si Si2 0.796304 0.177929 0.468812
Si Si3 0.083907 0.679587 0.803831
Si Si4 0.925386 0.679659 0.798192
Si Si5 0.830745 0.821787 0.055253
Si Si6 0.111536 0.319831 0.686442
Si Si7 0.489880 0.320463 0.060181
Si Si8 0.963569 0.327073 0.546318
O O1 0.249978 0.500000 0.320419
O O2 0.263092 0.726152 0.392970
O O3 0.159796 0.726852 0.261772
O O4 0.313999 0.746789 0.311036
O O5 0.750000 0.250000 0.500000
O O6 0.886293 0.228466 0.513168
O O7 0.789710 0.000000 0.468853
O O8 0.091412 0.500000 0.812244
O O9 0.142689 0.757871 0.872890
O O10 0.102176 0.720669 0.747729
O O11 0.995590 0.718879 0.785446
O O12 0.924902 0.500000 0.803138
O O13 0.949646 0.748848 0.868895
O O14 0.902682 0.784344 0.044626
O O15 0.823580 0.000000 0.054341
O O16 0.750000 0.750000 0.000000
O O17 0.118659 0.500000 0.685343
O O18 0.031768 0.277785 0.618768
O O19 0.499147 0.500000 0.066336
O O20 0.500000 0.271900 0.000000
O O21 0.942708 0.500000 0.550316
O O22 0.000000 0.323728 0.500000
#
# Coordination Sequence:
#
# PCOD9196123 Si02
#       8
#     8   8   8   8   8   8   8   8
#     4  10  22  38  56  80 113 146 180 230 280 326
#     4  11  24  39  58  83 113 148 188 234 283 336
#     4   9  19  36  57  79 106 143 186 222 267 325
#     4   9  19  36  56  78 106 142 181 221 267 319
#     4  10  20  35  56  81 111 142 177 222 271 320
#     4  10  21  36  58  83 109 147 186 227 275 331
#     4   9  19  36  56  79 107 140 177 219 265 314
#     4  10  20  37  60  83 112 146 186 234 282 333
#
# _framework density 17.685224000000002
#
# number of rings (size 3 to 8) (size 9 to 14) (size 15 to 20)
#    0.000    2.250    1.250    0.750    1.750    4.000 
#    0.000    3.750    0.000    0.000    0.000    0.000 
#    0.000    0.000    0.000    0.000    0.000    0.000 
#
# Total GULP energy -178602.020204 kJ/mol
# GULP energy per Si atom -5581.313131 kJ/mol
# Density = 1.764497 g / cm^3
# Si number density = 17.685224 Si / 1000 Ang^3
#
#
#
# Elastic Constant Matrix: (Units=GPa)
#
#
# Indices 1 2 3 4 5 6 
#
# 1 125.7924 45.0776 123.7477 0.0000 -4.3012 0.0000
# 2 45.0776 26.9433 53.3565 0.0000 0.8167 0.0000
# 3 123.7477 53.3565 199.9064 0.0000 3.1026 0.0000
# 4 0.0000 0.0000 0.0000 30.2117 0.0000 1.2255
# 5 -4.3012 0.8167 3.1026 0.0000 37.4355 0.0000
# 6 0.0000 0.0000 0.0000 1.2255 0.0000 32.6937
#
#
#
# Elastic Compliance Matrix: (Units=1/GPa)
#
#
# Indices 1 2 3 4 5 6 
#
# 1 0.027227 -0.025821 -0.010032 0.000000 0.004523 0.000000
# 2 -0.025821 0.103216 -0.011499 0.000000 -0.004266 0.000000
# 3 -0.010032 -0.011499 0.014314 0.000000 -0.002088 0.000000
# 4 0.000000 0.000000 0.000000 0.033150 0.000000 -0.001243
# 5 0.004523 -0.004266 -0.002088 0.000000 0.027498 0.000000
# 6 0.000000 0.000000 0.000000 -0.001243 0.000000 0.030634
#
#
# Mechanical properties :
#
#
# Convention : Reuss Voigt Hill
#
# Bulk Modulus (GPa) = 19.97927 88.55621 54.26774
# Shear Modulus (GPa) = 14.39148 28.76551 21.57850
#
# Velocity S-wave (km/s) = 2.85574 4.03740 3.49684
# Velocity P-wave (km/s) = 4.71119 8.48035 6.85973
#
# Compressibility (1/GPa) = 0.05005187
#
# Stress axis : x y z
#
# Youngs Moduli (GPa) = 36.72891 9.68841 69.86110
#
# Poissons Ratio (x) = 0.25017 0.70086
# Poissons Ratio (y) = 0.94839 0.80332
# Poissons Ratio (z) = 0.36847 0.11141
#
# Static dielectric constant tensor:
#      x y z
#    x 1.569780 0.000000 -0.014620 
#    y 0.000000 1.597820 0.000000 
#    z -0.014620 0.000000 1.572520 
# 
# From -- ./inp_files/346178.got.cif
#   From: 2010.05.17/outbox.cif.g08.bks.cpg/sg12_174_cif.got.tgz:346178.got - 2010.06.03 13:09:07.
