data_PCOD9196050
_publ_section_title
;
Structure prediction by ZEFSAII (Michael W. Deem and Ramdas Pophale) SiO2 
 PCOD9196050
Probable space group: C 2/M
;
_chemical_formula_sum "Si O2"
_cell_formula_units_Z 56
_cell_length_a 24.651002
_cell_length_b 7.500485
_cell_length_c 16.096657
_cell_angle_alpha 90.000000
_cell_angle_beta 122.770576
_cell_angle_gamma 90.000000
_cell_volume 2502.507552
_symmetry_space_group_name_H-M "C 2/M"
_symmetry_group_IT_number 12
_symmetry_cell_setting 'monoclinic'
loop_
_space_group_symop_operation_xyz
x,y,z
-x,y,-z
-x,-y,-z
x,-y,z
1/2+x,1/2+y,z
1/2-x,1/2+y,-z
1/2-x,1/2-y,-z
1/2+x,1/2-y,z
loop_
_atom_site_type_symbol
_atom_site_label
_atom_site_fract_x
_atom_site_fract_y
_atom_site_fract_z
Si Si1 0.460526 0.297107 0.544119
Si Si2 0.693204 0.704621 0.831905
Si Si3 0.563347 0.280838 0.292728
Si Si4 0.709254 0.712595 0.383413
Si Si5 0.823205 0.295667 0.367599
Si Si6 0.834349 0.216918 0.008620
Si Si7 0.527044 0.282445 0.934497
O O1 0.500000 0.213426 0.500000
O O2 0.485679 0.500000 0.572819
O O3 0.461621 0.219200 0.637727
O O4 0.385524 0.300306 0.455850
O O5 0.672501 0.500000 0.806722
O O6 0.676260 0.792918 0.731234
O O7 0.664155 0.776444 0.893892
O O8 0.769871 0.714943 0.911675
O O9 0.564469 0.500000 0.297185
O O10 0.636528 0.219685 0.334624
O O11 0.516775 0.227630 0.179363
O O12 0.702209 0.500000 0.366439
O O13 0.750000 0.750000 0.500000
O O14 0.755268 0.776966 0.346615
O O15 0.828798 0.500000 0.401087
O O16 0.899309 0.271422 0.017517
O O17 0.829825 0.000000 0.005566
O O18 0.526267 0.500000 0.934157
O O19 0.500000 0.221688 0.000000
#
# Coordination Sequence:
#
# PCOD9196050 Si02
#       7
#     8   8   8   8   8   8   8
#     4  10  21  36  58  83 113 151 191 232 276 334
#     4  10  21  36  57  82 112 148 185 228 279 335
#     4   9  18  33  53  80 110 143 184 229 276 329
#     4  10  20  35  56  80 110 143 184 230 276 331
#     4  11  23  36  56  85 115 146 186 233 282 335
#     4   9  19  36  58  83 110 140 185 235 280 334
#     4   9  18  31  54  84 111 140 179 230 280 328
#
# _framework density 22.377555000000001
#
# number of rings (size 3 to 8) (size 9 to 14) (size 15 to 20)
#    0.000    2.286    1.429    0.857    4.000    1.429 
#    0.000    0.000    0.000    1.286    0.000    0.000 
#    0.000    0.000    0.000    0.000    0.000    0.000 
#
# Total GULP energy -156417.056082 kJ/mol
# GULP energy per Si atom -5586.323432 kJ/mol
# Density = 2.232662 g / cm^3
# Si number density = 22.377555 Si / 1000 Ang^3
#
#
#
# Elastic Constant Matrix: (Units=GPa)
#
#
# Indices 1 2 3 4 5 6 
#
# 1 147.0177 0.9831 40.8824 0.0000 -23.3806 0.0000
# 2 0.9831 60.6479 -5.8094 0.0000 -3.1491 0.0000
# 3 40.8824 -5.8094 101.5433 0.0000 -36.6269 0.0000
# 4 0.0000 0.0000 0.0000 1.7778 0.0000 14.4518
# 5 -23.3806 -3.1491 -36.6269 0.0000 24.2192 0.0000
# 6 0.0000 0.0000 0.0000 14.4518 0.0000 2.8254
#
#
#
# Elastic Compliance Matrix: (Units=1/GPa)
#
#
# Indices 1 2 3 4 5 6 
#
# 1 0.008079 0.000111 -0.000942 0.000000 0.006390 0.000000
# 2 0.000111 0.017298 0.003949 0.000000 0.008328 0.000000
# 3 -0.000942 0.003949 0.022685 0.000000 0.033911 0.000000
# 4 0.000000 0.000000 0.000000 -0.013862 0.000000 0.070901
# 5 0.006390 0.008328 0.033911 0.000000 0.099824 0.000000
# 6 0.000000 0.000000 0.000000 0.070901 0.000000 -0.008722
#
#
# Mechanical properties :
#
#
# Convention : Reuss Voigt Hill
#
# Bulk Modulus (GPa) = 18.41703 42.36898 30.39301
# Shear Modulus (GPa) = 36.45236 23.97468 30.21352
#
# Velocity S-wave (km/s) = 4.04043 3.27673 3.67845
# Velocity P-wave (km/s) = 5.47857 5.76982 5.62608
#
# Compressibility (1/GPa) = 0.05429756
#
# Stress axis : x y z
#
# Youngs Moduli (GPa) = 123.77469 57.81168 44.08252
#
# Poissons Ratio (x) = -0.00640 0.04151
# Poissons Ratio (y) = -0.01369 -0.17408
# Poissons Ratio (z) = 0.11655 -0.22830
#
# Static dielectric constant tensor:
#      x y z
#    x 1.824620 0.000000 -0.024470 
#    y 0.000000 2.216810 0.000000 
#    z -0.024470 0.000000 1.751570 
# 
# From -- ./inp_files/238912.got.cif
#   From: 2010.05.17/outbox.cif.g08.bks.cpg/sg12_120_cif.got.tgz:238912.got - 2010.06.03 13:09:07.
