data_PCOD9196041
_publ_section_title
;
Structure prediction by ZEFSAII (Michael W. Deem and Ramdas Pophale) SiO2 
 PCOD9196041
Probable space group: C 2/M
;
_chemical_formula_sum "Si O2"
_cell_formula_units_Z 48
_cell_length_a 14.406162
_cell_length_b 14.792303
_cell_length_c 10.580178
_cell_angle_alpha 90.000000
_cell_angle_beta 83.232248
_cell_angle_gamma 90.000000
_cell_volume 2238.928904
_symmetry_space_group_name_H-M "C 2/M"
_symmetry_group_IT_number 12
_symmetry_cell_setting 'monoclinic'
loop_
_space_group_symop_operation_xyz
x,y,z
-x,y,-z
-x,-y,-z
x,-y,z
1/2+x,1/2+y,z
1/2-x,1/2+y,-z
1/2-x,1/2-y,-z
1/2+x,1/2-y,z
loop_
_atom_site_type_symbol
_atom_site_label
_atom_site_fract_x
_atom_site_fract_y
_atom_site_fract_z
Si Si1 0.568315 0.637127 0.881889
Si Si2 0.215124 0.600773 0.162226
Si Si3 0.898329 0.654535 0.055085
Si Si4 0.248919 0.893480 0.573419
Si Si5 0.399126 0.100368 0.329891
Si Si6 0.052422 0.200687 0.620055
O O1 0.672324 0.597624 0.864202
O O2 0.586667 0.741611 0.912053
O O3 0.525066 0.641880 0.748110
O O4 0.500000 0.600365 0.000000
O O5 0.176130 0.500000 0.158306
O O6 0.196135 0.634467 0.307335
O O7 0.170626 0.651778 0.052204
O O8 0.866655 0.607007 0.189292
O O9 0.000000 0.616905 0.000000
O O10 0.313560 0.891500 0.440911
O O11 0.160323 0.827982 0.580833
O O12 0.221023 0.000000 0.595621
O O13 0.457513 0.192143 0.346666
O O14 0.442500 0.000000 0.342784
O O15 0.000000 0.179452 0.500000
#
# Coordination Sequence:
#
# PCOD9196041 Si02
#       6
#     8   8   8   8   8   8
#     4   9  20  37  55  79 109 142 182 223 266 320
#     4  10  20  35  56  80 109 143 176 220 275 323
#     4  10  21  37  56  79 109 144 182 223 268 321
#     4   9  20  38  57  79 107 141 182 224 269 321
#     4  10  21  36  54  78 108 141 180 223 266 320
#     4  10  21  36  55  80 110 142 177 223 274 320
#
# _framework density 21.438822999999999
#
# number of rings (size 3 to 8) (size 9 to 14) (size 15 to 20)
#    0.000    2.333    0.000    1.500    0.000    7.667 
#    0.000    1.667    0.000    0.000    0.000    0.000 
#    0.000    0.000    0.000    0.000    0.000    0.000 
#
# Total GULP energy -133885.079668 kJ/mol
# GULP energy per Si atom -5578.544986 kJ/mol
# Density = 2.139003 g / cm^3
# Si number density = 21.438823 Si / 1000 Ang^3
#
#
#
# Elastic Constant Matrix: (Units=GPa)
#
#
# Indices 1 2 3 4 5 6 
#
# 1 48.8147 15.4904 62.9945 0.0000 5.2478 0.0000
# 2 15.4904 44.1482 34.3242 0.0000 -2.0959 0.0000
# 3 62.9945 34.3242 206.8331 0.0000 11.3686 0.0000
# 4 0.0000 0.0000 0.0000 4.5416 0.0000 -6.2733
# 5 5.2478 -2.0959 11.3686 0.0000 44.1284 0.0000
# 6 0.0000 0.0000 0.0000 -6.2733 0.0000 28.6247
#
#
#
# Elastic Compliance Matrix: (Units=1/GPa)
#
#
# Indices 1 2 3 4 5 6 
#
# 1 0.034667 -0.004733 -0.009671 0.000000 -0.001856 0.000000
# 2 -0.004733 0.026901 -0.003169 0.000000 0.002657 0.000000
# 3 -0.009671 -0.003169 0.008370 0.000000 -0.001157 0.000000
# 4 0.000000 0.000000 0.000000 0.315780 0.000000 0.069206
# 5 -0.001856 0.002657 -0.001157 0.000000 0.023306 0.000000
# 6 0.000000 0.000000 0.000000 0.069206 0.000000 0.050102
#
#
# Mechanical properties :
#
#
# Convention : Reuss Voigt Hill
#
# Bulk Modulus (GPa) = 28.74153 58.37936 43.56045
# Shear Modulus (GPa) = 9.88396 27.92474 18.90435
#
# Velocity S-wave (km/s) = 2.14949 3.61298 2.97270
# Velocity P-wave (km/s) = 4.42672 6.68540 5.66967
#
# Compressibility (1/GPa) = 0.03479285
#
# Stress axis : x y z
#
# Youngs Moduli (GPa) = 28.84549 37.17266 119.47767
#
# Poissons Ratio (x) = 0.17594 1.15548
# Poissons Ratio (y) = 0.13652 0.37861
# Poissons Ratio (z) = 0.27897 0.11780
#
# Static dielectric constant tensor:
#      x y z
#    x 1.747240 0.000000 -0.024390 
#    y 0.000000 1.802560 0.000000 
#    z -0.024390 0.000000 1.824940 
# 
# From -- ./inp_files/61675.got.cif
#   From: 2010.05.17/outbox.cif.g08.bks.cpg/sg12_31_cif.got.tgz:61675.got - 2010.06.03 13:09:07.
