data_PCOD9196507
_publ_section_title
;
Structure prediction by ZEFSAII (Michael W. Deem and Ramdas Pophale) SiO2 
 PCOD9196507
Probable space group: C 2/M
;
_chemical_formula_sum "Si O2"
_cell_formula_units_Z 58
_cell_length_a 18.573483
_cell_length_b 7.371693
_cell_length_c 18.156703
_cell_angle_alpha 90.000000
_cell_angle_beta 95.168039
_cell_angle_gamma 90.000000
_cell_volume 2475.873724
_symmetry_space_group_name_H-M "C 2/M"
_symmetry_group_IT_number 12
_symmetry_cell_setting 'monoclinic'
loop_
_space_group_symop_operation_xyz
x,y,z
-x,y,-z
-x,-y,-z
x,-y,z
1/2+x,1/2+y,z
1/2-x,1/2+y,-z
1/2-x,1/2-y,-z
1/2+x,1/2-y,z
loop_
_atom_site_type_symbol
_atom_site_label
_atom_site_fract_x
_atom_site_fract_y
_atom_site_fract_z
Si Si1 0.553401 0.722018 0.677758
Si Si2 0.000000 0.000000 0.000000
Si Si3 0.086715 0.789078 0.523236
Si Si4 0.321655 0.210474 0.775821
Si Si5 0.935107 0.281816 0.902551
Si Si6 0.110359 0.780339 0.367023
Si Si7 0.167272 0.713159 0.972661
Si Si8 0.334135 0.290609 0.195180
O O1 0.550155 0.500000 0.675623
O O2 0.593657 0.783701 0.606333
O O3 0.469910 0.780462 0.665881
O O4 0.598828 0.784364 0.752152
O O5 0.999049 0.159864 0.065345
O O6 0.121997 0.714208 0.451911
O O7 0.000000 0.783407 0.500000
O O8 0.108107 0.000000 0.529140
O O9 0.393856 0.276650 0.824374
O O10 0.333401 0.224225 0.689994
O O11 0.245032 0.290571 0.793978
O O12 0.319875 0.000000 0.799236
O O13 0.949138 0.500000 0.904825
O O14 0.878656 0.222640 0.961899
O O15 0.109783 0.000000 0.369330
O O16 0.154285 0.500000 0.967482
O O17 0.154249 0.786761 0.890470
O O18 0.250000 0.750000 0.000000
O O19 0.329255 0.500000 0.219008
#
# Coordination Sequence:
#
# PCOD9196507 Si02
#       8
#     8   2   8   8   8   8   8   8
#     4   8  15  30  53  81 107 136 182 237 278 327
#     4  12  26  40  68  86 112 160 196 242 306 354
#     4   7  11  24  48  77 107 137 174 229 283 323
#     4  10  21  37  53  75 116 155 180 230 296 349
#     4  10  24  43  59  87 120 154 197 248 298 355
#     4   9  17  30  54  83 107 138 188 234 277 343
#     4  11  22  38  62  84 110 145 195 245 289 345
#     4  10  20  35  57  82 109 145 195 236 278 346
#
# _framework density 23.426072999999999
#
# number of rings (size 3 to 8) (size 9 to 14) (size 15 to 20)
#    0.000    2.621    1.379    2.276    2.897    1.655 
#    2.483    2.759    0.000    4.552    0.000    0.000 
#    0.000    0.000    0.000    0.000    0.000    0.000 
#
# Total GULP energy -161577.029253 kJ/mol
# GULP energy per Si atom -5571.621698 kJ/mol
# Density = 2.337275 g / cm^3
# Si number density = 23.426073 Si / 1000 Ang^3
#
#
#
# Elastic Constant Matrix: (Units=GPa)
#
#
# Indices 1 2 3 4 5 6 
#
# 1 38.5007 -5.6539 17.2034 0.0000 -13.1650 0.0000
# 2 -5.6539 90.0781 -11.7074 0.0000 3.6712 0.0000
# 3 17.2034 -11.7074 103.0034 0.0000 -6.7054 0.0000
# 4 0.0000 0.0000 0.0000 -30.5973 0.0000 38.0204
# 5 -13.1650 3.6712 -6.7054 0.0000 37.2290 0.0000
# 6 0.0000 0.0000 0.0000 38.0204 0.0000 -56.8416
#
#
#
# Elastic Compliance Matrix: (Units=1/GPa)
#
#
# Indices 1 2 3 4 5 6 
#
# 1 0.031647 0.000982 -0.004505 0.000000 0.010283 0.000000
# 2 0.000982 0.011328 0.001086 0.000000 -0.000574 0.000000
# 3 -0.004505 0.001086 0.010598 0.000000 0.000209 0.000000
# 4 0.000000 0.000000 0.000000 -0.193573 0.000000 -0.129478
# 5 0.010283 -0.000574 0.000209 0.000000 0.030591 0.000000
# 6 0.000000 0.000000 0.000000 -0.129478 0.000000 -0.104198
#
#
# Mechanical properties :
#
#
# Convention : Reuss Voigt Hill
#
# Bulk Modulus (GPa) = 20.53434 25.69626 23.11530
# Shear Modulus (GPa) = -25.97380 5.40738 -10.28321
#
# Velocity S-wave (km/s) = -3.33341 1.52095 -2.09742
# Velocity P-wave (km/s) = 2.45579 3.75197 2.00579
#
# Compressibility (1/GPa) = 0.04869891
#
# Stress axis : x y z
#
# Youngs Moduli (GPa) = 31.59896 88.27936 94.35916
#
# Poissons Ratio (x) = -0.08668 0.42505
# Poissons Ratio (y) = -0.03102 -0.10249
# Poissons Ratio (z) = 0.14234 -0.09588
#
# Static dielectric constant tensor:
#      x y z
#    x 2.011770 0.000000 0.020530 
#    y 0.000000 1.954720 0.000000 
#    z 0.020530 0.000000 1.881680 
# 
# From -- ./inp_files/275390.got.cif
#   From: 2010.05.17/outbox.cif.g08.bks.cpg/sg12_138_cif.got.tgz:275390.got - 2010.06.03 13:09:07.
