data_PCOD9196306
_publ_section_title
;
Structure prediction by ZEFSAII (Michael W. Deem and Ramdas Pophale) SiO2 
 PCOD9196306
Probable space group: C 2/M
;
_chemical_formula_sum "Si O2"
_cell_formula_units_Z 60
_cell_length_a 23.322959
_cell_length_b 12.416117
_cell_length_c 16.212413
_cell_angle_alpha 90.000000
_cell_angle_beta 44.510085
_cell_angle_gamma 90.000000
_cell_volume 3291.218226
_symmetry_space_group_name_H-M "C 2/M"
_symmetry_group_IT_number 12
_symmetry_cell_setting 'monoclinic'
loop_
_space_group_symop_operation_xyz
x,y,z
-x,y,-z
-x,-y,-z
x,-y,z
1/2+x,1/2+y,z
1/2-x,1/2+y,-z
1/2-x,1/2-y,-z
1/2+x,1/2-y,z
loop_
_atom_site_type_symbol
_atom_site_label
_atom_site_fract_x
_atom_site_fract_y
_atom_site_fract_z
Si Si1 0.390727 0.749529 0.384294
Si Si2 0.308996 0.622297 0.850893
Si Si3 0.500000 0.197837 0.000000
Si Si4 0.823735 0.790191 0.013580
Si Si5 0.129309 0.879787 0.863812
Si Si6 0.004089 0.127431 0.399841
Si Si7 0.967613 0.623360 0.853790
Si Si8 0.231832 0.876256 0.605144
O O1 0.443243 0.689476 0.400819
O O2 0.452230 0.829154 0.273008
O O3 0.313950 0.812232 0.501682
O O4 0.346111 0.669182 0.365686
O O5 0.284761 0.500000 0.853219
O O6 0.249715 0.715033 0.878061
O O7 0.402562 0.638391 0.727458
O O8 0.301587 0.639433 0.957018
O O9 0.571083 0.280807 0.901230
O O10 0.478144 0.130181 0.942062
O O11 0.854248 0.863679 0.056617
O O12 0.893539 0.705920 0.913089
O O13 0.208510 0.870047 0.725193
O O14 0.095661 0.000000 0.882164
O O15 0.000000 0.162233 0.500000
O O16 0.983542 0.000000 0.418424
O O17 0.951704 0.500000 0.845517
O O18 0.243526 0.000000 0.569585
#
# Coordination Sequence:
#
# PCOD9196306 Si02
#       8
#     8   8   4   8   8   8   8   8
#     4  11  21  39  61  83 113 150 192 236 283 342
#     4  10  20  37  58  82 110 146 189 233 280 333
#     4  10  20  36  54  84 112 150 182 228 278 336
#     4  10  21  35  56  84 114 149 182 229 283 340
#     4  10  20  35  56  84 114 144 183 232 284 340
#     4  10  22  39  61  86 112 147 192 242 288 334
#     4  11  21  36  56  82 115 151 185 227 279 340
#     4  10  22  38  59  84 114 149 187 234 284 338
#
# _framework density 18.230332000000001
#
# number of rings (size 3 to 8) (size 9 to 14) (size 15 to 20)
#    0.000    1.733    2.667    2.000    1.867    0.000 
#    0.000    0.000    0.000    1.600    0.000    0.000 
#    0.000    0.000    0.000    0.000    0.000    0.000 
#
# Total GULP energy -167315.942803 kJ/mol
# GULP energy per Si atom -5577.198093 kJ/mol
# Density = 1.818884 g / cm^3
# Si number density = 18.230332 Si / 1000 Ang^3
#
#
#
# Elastic Constant Matrix: (Units=GPa)
#
#
# Indices 1 2 3 4 5 6 
#
# 1 25.0390 6.0410 14.0147 0.0000 -2.5679 0.0000
# 2 6.0410 73.0171 27.8025 0.0000 -0.6016 0.0000
# 3 14.0147 27.8025 78.6635 0.0000 -3.2029 0.0000
# 4 0.0000 0.0000 0.0000 15.6433 0.0000 -58.6960
# 5 -2.5679 -0.6016 -3.2029 0.0000 23.4470 0.0000
# 6 0.0000 0.0000 0.0000 -58.6960 0.0000 -413.7445
#
#
#
# Elastic Compliance Matrix: (Units=1/GPa)
#
#
# Indices 1 2 3 4 5 6 
#
# 1 0.044741 -0.000802 -0.007531 0.000000 0.003851 0.000000
# 2 -0.000802 0.015843 -0.005474 0.000000 -0.000429 0.000000
# 3 -0.007531 -0.005474 0.016039 0.000000 0.001226 0.000000
# 4 0.000000 0.000000 0.000000 0.041718 0.000000 -0.005918
# 5 0.003851 -0.000429 0.001226 0.000000 0.043228 0.000000
# 6 0.000000 0.000000 0.000000 -0.005918 0.000000 -0.001577
#
#
# Mechanical properties :
#
#
# Convention : Reuss Voigt Hill
#
# Bulk Modulus (GPa) = 20.40467 30.27066 25.33766
# Shear Modulus (GPa) = 24.51687 -66.34010 -20.91161
#
# Velocity S-wave (km/s) = 3.67118 -6.03895 -3.39053
# Velocity P-wave (km/s) = 5.40251 5.65550 1.18270
#
# Compressibility (1/GPa) = 0.04900839
#
# Stress axis : x y z
#
# Youngs Moduli (GPa) = 22.35075 63.12124 62.34960
#
# Poissons Ratio (x) = 0.05065 0.46953
# Poissons Ratio (y) = 0.01794 0.34129
# Poissons Ratio (z) = 0.16832 0.34551
#
# Static dielectric constant tensor:
#      x y z
#    x 1.623450 0.000000 -0.008130 
#    y 0.000000 1.606940 0.000000 
#    z -0.008130 0.000000 1.616300 
# 
# From -- ./inp_files/289374.got.cif
#   From: 2010.05.17/outbox.cif.g08.bks.cpg/sg12_145_cif.got.tgz:289374.got - 2010.06.03 13:09:07.
