data_PCOD9196513
_publ_section_title
;
Structure prediction by ZEFSAII (Michael W. Deem and Ramdas Pophale) SiO2 
 PCOD9196513
Probable space group: C 2/M
;
_chemical_formula_sum "Si O2"
_cell_formula_units_Z 36
_cell_length_a 16.393788
_cell_length_b 22.545221
_cell_length_c 5.274327
_cell_angle_alpha 90.000000
_cell_angle_beta 56.730073
_cell_angle_gamma 90.000000
_cell_volume 1629.884030
_symmetry_space_group_name_H-M "C 2/M"
_symmetry_group_IT_number 12
_symmetry_cell_setting 'monoclinic'
loop_
_space_group_symop_operation_xyz
x,y,z
-x,y,-z
-x,-y,-z
x,-y,z
1/2+x,1/2+y,z
1/2-x,1/2+y,-z
1/2-x,1/2-y,-z
1/2+x,1/2-y,z
loop_
_atom_site_type_symbol
_atom_site_label
_atom_site_fract_x
_atom_site_fract_y
_atom_site_fract_z
Si Si1 0.315133 0.752932 0.138269
Si Si2 0.619021 0.568323 0.331487
Si Si3 0.931533 0.500000 0.865754
Si Si4 0.113059 0.872643 0.844384
Si Si5 0.933364 0.627278 0.865516
O O1 0.250000 0.750000 0.500000
O O2 0.381052 0.694326 0.062766
O O3 0.250000 0.750000 0.000000
O O4 0.371974 0.813972 0.012195
O O5 0.500000 0.572963 0.500000
O O6 0.639840 0.500000 0.359446
O O7 0.653784 0.612044 0.496661
O O8 0.658467 0.587468 0.989393
O O9 0.878409 0.563565 0.946778
O O10 0.000000 0.500000 0.500000
O O11 0.000000 0.500000 0.000000
O O12 0.000000 0.888400 0.000000
O O13 0.000000 0.633273 0.500000
O O14 0.000000 0.623437 0.000000
#
# Coordination Sequence:
#
# PCOD9196513 Si02
#       5
#     8   8   4   8   8
#     4  12  25  39  57  84 128 163 193 239 306 362
#     4   9  17  31  55  83 108 138 185 246 288 318
#     4   8  16  32  60  92 112 138 190 256 304 342
#     4  10  20  35  57  82 110 149 202 242 281 345
#     4  10  20  38  65  92 116 152 203 251 299 358
#
# _framework density 22.087461999999999
#
# number of rings (size 3 to 8) (size 9 to 14) (size 15 to 20)
#    0.000    2.000    0.000    4.000    0.000    5.333 
#    0.000    0.000   14.667    0.000    0.000    0.000 
#    0.000    0.000    0.000    0.000    0.000    0.000 
#
# Total GULP energy -100446.306308 kJ/mol
# GULP energy per Si atom -5580.350350 kJ/mol
# Density = 2.203719 g / cm^3
# Si number density = 22.087462 Si / 1000 Ang^3
#
#
#
# Elastic Constant Matrix: (Units=GPa)
#
#
# Indices 1 2 3 4 5 6 
#
# 1 68.6495 48.6790 46.0542 0.0000 39.5364 0.0000
# 2 48.6790 206.9942 41.1737 0.0000 19.3401 0.0000
# 3 46.0542 41.1737 123.9684 0.0000 45.3368 0.0000
# 4 0.0000 0.0000 0.0000 30.0567 0.0000 17.1722
# 5 39.5364 19.3401 45.3368 0.0000 40.0457 0.0000
# 6 0.0000 0.0000 0.0000 17.1722 0.0000 16.8265
#
#
#
# Elastic Compliance Matrix: (Units=1/GPa)
#
#
# Indices 1 2 3 4 5 6 
#
# 1 0.039758 -0.006038 0.000894 0.000000 -0.037349 0.000000
# 2 -0.006038 0.006111 -0.001514 0.000000 0.004724 0.000000
# 3 0.000894 -0.001514 0.014152 0.000000 -0.016174 0.000000
# 4 0.000000 0.000000 0.000000 0.079798 0.000000 -0.081437
# 5 -0.037349 0.004724 -0.016174 0.000000 0.077874 0.000000
# 6 0.000000 0.000000 0.000000 -0.081437 0.000000 0.142541
#
#
# Mechanical properties :
#
#
# Convention : Reuss Voigt Hill
#
# Bulk Modulus (GPa) = 21.41094 74.60287 48.00691
# Shear Modulus (GPa) = 12.84954 34.96613 23.90783
#
# Velocity S-wave (km/s) = 2.41458 3.98310 3.29358
# Velocity P-wave (km/s) = 4.18191 7.41640 6.02044
#
# Compressibility (1/GPa) = 0.04670509
#
# Stress axis : x y z
#
# Youngs Moduli (GPa) = 25.15187 163.64345 70.66050
#
# Poissons Ratio (x) = 0.98812 -0.06319
# Poissons Ratio (y) = 0.15187 0.10699
# Poissons Ratio (z) = -0.02249 0.24779
#
# Static dielectric constant tensor:
#      x y z
#    x 1.753630 0.000000 0.009930 
#    y 0.000000 1.925480 0.000000 
#    z 0.009930 0.000000 1.805880 
# 
# From -- ./inp_files/15713.got.cif
#   From: 2010.05.17/outbox.cif.g08.bks.cpg/sg12_8_cif.got.tgz:15713.got - 2010.06.03 13:09:07.
