data_PCOD9196294
_publ_section_title
;
Structure prediction by ZEFSAII (Michael W. Deem and Ramdas Pophale) SiO2 
 PCOD9196294
Probable space group: C 2/M
;
_chemical_formula_sum "Si O2"
_cell_formula_units_Z 56
_cell_length_a 23.801119
_cell_length_b 15.010406
_cell_length_c 9.009433
_cell_angle_alpha 90.000000
_cell_angle_beta 108.197728
_cell_angle_gamma 90.000000
_cell_volume 3057.762604
_symmetry_space_group_name_H-M "C 2/M"
_symmetry_group_IT_number 12
_symmetry_cell_setting 'monoclinic'
loop_
_space_group_symop_operation_xyz
x,y,z
-x,y,-z
-x,-y,-z
x,-y,z
1/2+x,1/2+y,z
1/2-x,1/2+y,-z
1/2-x,1/2-y,-z
1/2+x,1/2-y,z
loop_
_atom_site_type_symbol
_atom_site_label
_atom_site_fract_x
_atom_site_fract_y
_atom_site_fract_z
Si Si1 0.066734 0.000000 0.122430
Si Si2 0.935532 0.000000 0.524008
Si Si3 0.929731 0.191062 0.437147
Si Si4 0.836503 0.153366 0.839524
Si Si5 0.705275 0.898186 0.688243
Si Si6 0.567974 0.895005 0.055818
Si Si7 0.139086 0.279470 0.877996
Si Si8 0.865238 0.693753 0.626697
O O1 0.059397 0.000000 0.294501
O O2 0.106759 0.913103 0.113545
O O3 0.000000 0.000000 0.000000
O O4 0.905579 0.908148 0.449467
O O5 0.000000 0.000000 0.500000
O O6 0.906680 0.226513 0.262632
O O7 0.907832 0.258015 0.544948
O O8 0.000000 0.187573 0.500000
O O9 0.775941 0.102524 0.757570
O O10 0.842504 0.228349 0.716675
O O11 0.830970 0.206977 0.989681
O O12 0.680036 0.836027 0.800001
O O13 0.683295 0.856017 0.514189
O O14 0.683388 0.000000 0.683479
O O15 0.598829 0.872606 0.237512
O O16 0.568381 0.000000 0.029377
O O17 0.500000 0.863346 0.000000
O O18 0.604190 0.845452 0.958004
#
# Coordination Sequence:
#
# PCOD9196294 Si02
#       8
#     4   4   8   8   8   8   8   8
#     4  12  26  40  66  98 128 164 201 253 317 380
#     4  10  22  38  58  84 130 158 196 249 299 368
#     4  10  20  35  56  83 118 155 194 241 303 366
#     4  11  23  41  61  87 123 158 205 254 310 371
#     4  11  22  41  62  85 118 160 210 263 307 356
#     4  10  20  36  58  87 121 152 194 252 309 361
#     4  10  23  37  60  85 118 160 204 248 308 366
#     4  10  21  37  60  86 115 158 205 248 304 368
#
# _framework density 18.314043999999999
#
# number of rings (size 3 to 8) (size 9 to 14) (size 15 to 20)
#    0.000    1.571    2.143    2.571    4.000    2.286 
#    0.000    0.000    0.000    6.857    0.000    0.000 
#    0.000    0.000    0.000    0.000    0.000    0.000 
#
# Total GULP energy -156237.542921 kJ/mol
# GULP energy per Si atom -5579.912247 kJ/mol
# Density = 1.827236 g / cm^3
# Si number density = 18.314044 Si / 1000 Ang^3
#
#
#
# Elastic Constant Matrix: (Units=GPa)
#
#
# Indices 1 2 3 4 5 6 
#
# 1 60.3078 25.7473 46.5138 0.0000 19.9221 0.0000
# 2 25.7473 100.3077 54.7332 0.0000 11.2014 0.0000
# 3 46.5138 54.7332 138.0564 0.0000 1.0699 0.0000
# 4 0.0000 0.0000 0.0000 60.5583 0.0000 25.1883
# 5 19.9221 11.2014 1.0699 0.0000 27.6813 0.0000
# 6 0.0000 0.0000 0.0000 25.1883 0.0000 29.3604
#
#
#
# Elastic Compliance Matrix: (Units=1/GPa)
#
#
# Indices 1 2 3 4 5 6 
#
# 1 0.032460 0.000136 -0.010812 0.000000 -0.022998 0.000000
# 2 0.000136 0.013439 -0.005333 0.000000 -0.005330 0.000000
# 3 -0.010812 -0.005333 0.012927 0.000000 0.009440 0.000000
# 4 0.000000 0.000000 0.000000 0.025674 0.000000 -0.022026
# 5 -0.022998 -0.005330 0.009440 0.000000 0.054469 0.000000
# 6 0.000000 0.000000 0.000000 -0.022026 0.000000 0.052956
#
#
# Mechanical properties :
#
#
# Convention : Reuss Voigt Hill
#
# Bulk Modulus (GPa) = 37.30079 61.40671 49.35375
# Shear Modulus (GPa) = 21.47034 34.96520 28.21777
#
# Velocity S-wave (km/s) = 3.42766 4.37418 3.92953
# Velocity P-wave (km/s) = 6.00639 7.68856 6.89894
#
# Compressibility (1/GPa) = 0.02680909
#
# Stress axis : x y z
#
# Youngs Moduli (GPa) = 30.80729 74.40813 77.35648
#
# Poissons Ratio (x) = -0.01012 0.83638
# Poissons Ratio (y) = -0.00419 0.41251
# Poissons Ratio (z) = 0.33309 0.39679
#
# Static dielectric constant tensor:
#      x y z
#    x 1.610980 0.000000 0.004040 
#    y 0.000000 1.638970 0.000000 
#    z 0.004040 0.000000 1.609180 
# 
# From -- ./inp_files/97007.got.cif
#   From: 2010.05.17/outbox.cif.g08.bks.cpg/sg12_49_cif.got.tgz:97007.got - 2010.06.03 13:09:07.
