data_PCOD9196349
_publ_section_title
;
Structure prediction by ZEFSAII (Michael W. Deem and Ramdas Pophale) SiO2 
 PCOD9196349
Probable space group: C 2/M
;
_chemical_formula_sum "Si O2"
_cell_formula_units_Z 44
_cell_length_a 8.584180
_cell_length_b 25.456512
_cell_length_c 12.767433
_cell_angle_alpha 90.000000
_cell_angle_beta 131.022006
_cell_angle_gamma 90.000000
_cell_volume 2104.922487
_symmetry_space_group_name_H-M "C 2/M"
_symmetry_group_IT_number 12
_symmetry_cell_setting 'monoclinic'
loop_
_space_group_symop_operation_xyz
x,y,z
-x,y,-z
-x,-y,-z
x,-y,z
1/2+x,1/2+y,z
1/2-x,1/2+y,-z
1/2-x,1/2-y,-z
1/2+x,1/2-y,z
loop_
_atom_site_type_symbol
_atom_site_label
_atom_site_fract_x
_atom_site_fract_y
_atom_site_fract_z
Si Si1 0.773003 0.195662 0.846901
Si Si2 0.032396 0.886666 0.632028
Si Si3 0.783883 0.000000 0.269726
Si Si4 0.108704 0.693816 0.160284
Si Si5 0.132711 0.000000 0.923458
Si Si6 0.799030 0.909480 0.726828
Si Si7 0.095453 0.500000 0.744672
O O1 0.772120 0.250393 0.783172
O O2 0.579036 0.194096 0.839903
O O3 0.771704 0.142414 0.781810
O O4 0.000000 0.196377 0.000000
O O5 0.090858 0.947554 0.655043
O O6 0.225707 0.852765 0.758347
O O7 0.000000 0.867522 0.500000
O O8 0.842083 0.888162 0.629156
O O9 0.728408 0.000000 0.120930
O O10 0.607330 0.000000 0.277143
O O11 0.000000 0.689151 0.000000
O O12 0.994461 0.947020 0.846714
O O13 0.237836 0.000000 0.084010
O O14 0.618759 0.949633 0.679907
#
# Coordination Sequence:
#
# PCOD9196349 Si02
#       7
#     8   8   4   8   4   8   4
#     4  11  20  37  62  92 125 158 195 246 302 359
#     4  11  24  44  62  84 120 163 203 248 299 357
#     4  10  22  37  58  85 115 160 202 238 296 366
#     4  11  23  39  63  92 120 158 203 247 297 355
#     4   9  19  32  54  87 125 158 191 243 299 347
#     4  10  20  35  56  84 120 161 198 244 298 352
#     4  11  19  33  57  94 125 152 197 251 300 351
#
# _framework density 20.903382000000001
#
# number of rings (size 3 to 8) (size 9 to 14) (size 15 to 20)
#    0.000    1.455    0.000    8.727    0.000    4.364 
#    0.000    8.182    0.000    0.000    0.000    0.000 
#    0.000    0.000    0.000    0.000    0.000    0.000 
#
# Total GULP energy -122729.525972 kJ/mol
# GULP energy per Si atom -5578.614817 kJ/mol
# Density = 2.085581 g / cm^3
# Si number density = 20.903382 Si / 1000 Ang^3
#
#
#
# Elastic Constant Matrix: (Units=GPa)
#
#
# Indices 1 2 3 4 5 6 
#
# 1 172.8424 43.8894 27.5837 0.0000 -51.1604 0.0000
# 2 43.8894 150.3681 28.0831 0.0000 -14.0349 0.0000
# 3 27.5837 28.0831 57.7291 0.0000 -29.7877 0.0000
# 4 0.0000 0.0000 0.0000 -30.2462 0.0000 -75.3069
# 5 -51.1604 -14.0349 -29.7877 0.0000 29.5050 0.0000
# 6 0.0000 0.0000 0.0000 -75.3069 0.0000 -45.3060
#
#
#
# Elastic Compliance Matrix: (Units=1/GPa)
#
#
# Indices 1 2 3 4 5 6 
#
# 1 0.017903 -0.004147 0.017666 0.000000 0.046906 0.000000
# 2 -0.004147 0.008276 -0.007773 0.000000 -0.011101 0.000000
# 3 0.017666 -0.007773 0.055442 0.000000 0.082909 0.000000
# 4 0.000000 0.000000 0.000000 0.010534 0.000000 -0.017510
# 5 0.046906 -0.011101 0.082909 0.000000 0.193649 0.000000
# 6 0.000000 0.000000 0.000000 -0.017510 0.000000 0.007033
#
#
# Mechanical properties :
#
#
# Convention : Reuss Voigt Hill
#
# Bulk Modulus (GPa) = 10.73936 64.45026 37.59481
# Shear Modulus (GPa) = 16.00599 9.54943 12.77771
#
# Velocity S-wave (km/s) = 2.77015 2.13969 2.47508
# Velocity P-wave (km/s) = 3.92179 6.08307 5.11782
#
# Compressibility (1/GPa) = 0.09311545
#
# Stress axis : x y z
#
# Youngs Moduli (GPa) = 55.85548 120.82757 18.03676
#
# Poissons Ratio (x) = 0.50106 -0.31864
# Poissons Ratio (y) = 0.23163 0.14019
# Poissons Ratio (z) = -0.98675 0.93913
#
# Static dielectric constant tensor:
#      x y z
#    x 1.809850 0.000000 0.011760 
#    y 0.000000 1.721390 0.000000 
#    z 0.011760 0.000000 1.798570 
# 
# From -- ./inp_files/122697.got.cif
#   From: 2010.05.17/outbox.cif.g08.bks.cpg/sg12_62_cif.got.tgz:122697.got - 2010.06.03 13:09:07.
