data_PCOD9196984
_publ_section_title
;
Structure prediction by ZEFSAII (Michael W. Deem and Ramdas Pophale) SiO2 
 PCOD9196984
Probable space group: C 2/M
;
_chemical_formula_sum "Si O2"
_cell_formula_units_Z 50
_cell_length_a 20.004459
_cell_length_b 10.470011
_cell_length_c 14.762752
_cell_angle_alpha 90.000000
_cell_angle_beta 64.763302
_cell_angle_gamma 90.000000
_cell_volume 2796.892959
_symmetry_space_group_name_H-M "C 2/M"
_symmetry_group_IT_number 12
_symmetry_cell_setting 'monoclinic'
loop_
_space_group_symop_operation_xyz
x,y,z
-x,y,-z
-x,-y,-z
x,-y,z
1/2+x,1/2+y,z
1/2-x,1/2+y,-z
1/2-x,1/2-y,-z
1/2+x,1/2-y,z
loop_
_atom_site_type_symbol
_atom_site_label
_atom_site_fract_x
_atom_site_fract_y
_atom_site_fract_z
Si Si1 0.150821 0.855178 0.107234
Si Si2 0.945174 0.222037 0.664321
Si Si3 0.200084 0.350112 0.731512
Si Si4 0.401025 0.149660 0.384114
Si Si5 0.673843 0.855153 0.951029
Si Si6 0.000000 0.000000 0.500000
Si Si7 0.672916 0.146965 0.381029
O O1 0.101760 0.824825 0.222858
O O2 0.237214 0.848217 0.085990
O O3 0.136743 0.000000 0.084122
O O4 0.139062 0.750675 0.035942
O O5 0.898927 0.331691 0.639820
O O6 0.025005 0.269381 0.650502
O O7 0.958311 0.110865 0.584497
O O8 0.224534 0.500000 0.712607
O O9 0.144822 0.325876 0.680419
O O10 0.162046 0.333708 0.851217
O O11 0.267126 0.251085 0.683861
O O12 0.350467 0.172871 0.501715
O O13 0.420744 0.000000 0.374290
O O14 0.650719 0.000000 0.988106
O O15 0.698755 0.000000 0.358759
#
# Coordination Sequence:
#
# PCOD9196984 Si02
#       7
#     8   8   8   8   8   2   8
#     4  10  20  35  58  85 114 145 193 245 295 337
#     4  12  22  38  60  87 119 155 198 241 287 354
#     4  10  21  39  62  83 117 155 197 241 292 352
#     4  10  22  39  56  84 119 158 192 240 296 351
#     4   9  19  36  58  85 111 146 193 246 291 347
#     4  12  24  36  62  92 118 164 202 236 300 346
#     4  11  22  36  57  88 119 154 194 243 294 348
#
# _framework density 17.876981000000001
#
# number of rings (size 3 to 8) (size 9 to 14) (size 15 to 20)
#    0.000    1.600    4.000    0.960    1.120    3.200 
#    1.440    0.800    0.000    3.840    0.000    0.000 
#    0.000    0.000    0.000    0.000    0.000    0.000 
#
# Total GULP energy -139275.451790 kJ/mol
# GULP energy per Si atom -5571.018072 kJ/mol
# Density = 1.783629 g / cm^3
# Si number density = 17.876981 Si / 1000 Ang^3
#
#
#
# Elastic Constant Matrix: (Units=GPa)
#
#
# Indices 1 2 3 4 5 6 
#
# 1 36.3096 26.0335 21.4001 0.0000 15.6510 0.0000
# 2 26.0335 90.3931 72.5601 0.0000 13.4508 0.0000
# 3 21.4001 72.5601 123.0624 0.0000 11.6807 0.0000
# 4 0.0000 0.0000 0.0000 3.6372 0.0000 16.5890
# 5 15.6510 13.4508 11.6807 0.0000 20.2405 0.0000
# 6 0.0000 0.0000 0.0000 16.5890 0.0000 -8.3022
#
#
#
# Elastic Compliance Matrix: (Units=1/GPa)
#
#
# Indices 1 2 3 4 5 6 
#
# 1 0.047154 -0.009089 0.000049 0.000000 -0.030450 0.000000
# 2 -0.009089 0.023799 -0.012291 0.000000 -0.001694 0.000000
# 3 0.000049 -0.012291 0.015438 0.000000 -0.000780 0.000000
# 4 0.000000 0.000000 0.000000 0.027185 0.000000 0.054320
# 5 -0.030450 -0.001694 -0.000780 0.000000 0.074527 0.000000
# 6 0.000000 0.000000 0.000000 0.054320 0.000000 -0.011910
#
#
# Mechanical properties :
#
#
# Convention : Reuss Voigt Hill
#
# Bulk Modulus (GPa) = 22.86765 54.41694 38.64229
# Shear Modulus (GPa) = 21.41963 11.76653 16.59308
#
# Velocity S-wave (km/s) = 3.46521 2.56831 3.04991
# Velocity P-wave (km/s) = 5.36933 6.26903 5.83654
#
# Compressibility (1/GPa) = 0.04372990
#
# Stress axis : x y z
#
# Youngs Moduli (GPa) = 21.20720 42.01928 64.77405
#
# Poissons Ratio (x) = 0.38192 -0.00320
# Poissons Ratio (y) = 0.19275 0.79612
# Poissons Ratio (z) = -0.00105 0.51645
#
# Static dielectric constant tensor:
#      x y z
#    x 1.600220 0.000000 0.011280 
#    y 0.000000 1.606950 0.000000 
#    z 0.011280 0.000000 1.593560 
# 
# From -- ./inp_files/237214.got.cif
#   From: 2010.05.17/outbox.cif.g08.bks.cpg/sg12_119_cif.got.tgz:237214.got - 2010.06.03 13:09:07.
