data_PCOD9196896
_publ_section_title
;
Structure prediction by ZEFSAII (Michael W. Deem and Ramdas Pophale) SiO2 
 PCOD9196896
Probable space group: C 2/M
;
_chemical_formula_sum "Si O2"
_cell_formula_units_Z 64
_cell_length_a 28.070783
_cell_length_b 20.622987
_cell_length_c 19.238670
_cell_angle_alpha 90.000000
_cell_angle_beta 164.555059
_cell_angle_gamma 90.000000
_cell_volume 2966.007675
_symmetry_space_group_name_H-M "C 2/M"
_symmetry_group_IT_number 12
_symmetry_cell_setting 'monoclinic'
loop_
_space_group_symop_operation_xyz
x,y,z
-x,y,-z
-x,-y,-z
x,-y,z
1/2+x,1/2+y,z
1/2-x,1/2+y,-z
1/2-x,1/2-y,-z
1/2+x,1/2-y,z
loop_
_atom_site_type_symbol
_atom_site_label
_atom_site_fract_x
_atom_site_fract_y
_atom_site_fract_z
Si Si1 0.736018 0.358131 0.684950
Si Si2 0.208950 0.073180 0.511088
Si Si3 0.147632 0.187542 0.324419
Si Si4 0.815394 0.677974 0.941233
Si Si5 0.875824 0.924067 0.231925
Si Si6 0.726028 0.811822 0.769062
Si Si7 0.218506 0.928113 0.055501
Si Si8 0.364355 0.785690 0.505109
O O1 0.798723 0.399593 0.707443
O O2 0.863970 0.342181 0.930071
O O3 0.569994 0.395642 0.486355
O O4 0.664462 0.290491 0.551533
O O5 0.222561 0.123349 0.467214
O O6 0.995968 0.071974 0.230381
O O7 0.265919 0.000000 0.575056
O O8 0.250000 0.250000 0.500000
O O9 0.194279 0.188909 0.308971
O O10 0.937183 0.190816 0.044421
O O11 0.713899 0.619524 0.835763
O O12 0.696655 0.742375 0.763440
O O13 0.972746 0.699579 0.214307
O O14 0.766295 0.918239 0.005583
O O15 0.886303 0.000000 0.264454
O O16 0.619476 0.817680 0.547538
O O17 0.702408 0.870571 0.788171
O O18 0.284931 0.000000 0.167190
#
# Coordination Sequence:
#
# PCOD9196896 Si02
#       8
#     8   8   8   8   8   8   8   8
#     4  10  20  35  58  83 109 148 192 239 280 335
#     4   9  17  32  57  85 110 143 191 238 278 330
#     4  11  18  36  61  84 114 153 190 238 281 337
#     4  11  22  35  54  83 116 145 186 238 286 332
#     4  10  21  38  60  83 112 152 192 231 285 346
#     4  10  21  36  59  85 114 151 191 235 285 336
#     4   8  16  34  59  83 106 142 194 238 274 329
#     4  11  22  37  55  86 116 149 191 238 286 337
#
# _framework density 21.577826000000002
#
# number of rings (size 3 to 8) (size 9 to 14) (size 15 to 20)
#    0.000    2.000    2.500    3.375    0.000    3.500 
#    0.000    4.375    0.000    5.250    0.000    0.000 
#    0.000    0.000    0.000    0.000    0.000    0.000 
#
# Total GULP energy -178838.823719 kJ/mol
# GULP energy per Si atom -5588.713241 kJ/mol
# Density = 2.152871 g / cm^3
# Si number density = 21.577826 Si / 1000 Ang^3
#
#
#
# Elastic Constant Matrix: (Units=GPa)
#
#
# Indices 1 2 3 4 5 6 
#
# 1 106.9454 89.5813 43.1884 0.0000 -30.2470 0.0000
# 2 89.5813 173.9968 33.5188 0.0000 -28.2457 0.0000
# 3 43.1884 33.5188 101.5695 0.0000 -18.8143 -0.0001
# 4 0.0000 0.0000 0.0000 -9.3228 0.0000 13.2929
# 5 -30.2470 -28.2457 -18.8143 0.0000 39.6894 0.0000
# 6 0.0000 0.0000 -0.0001 13.2929 0.0000 27.3663
#
#
#
# Elastic Compliance Matrix: (Units=1/GPa)
#
#
# Indices 1 2 3 4 5 6 
#
# 1 0.020252 -0.008369 -0.004488 0.000000 0.007351 0.000000
# 2 -0.008369 0.010146 0.000402 0.000000 0.001033 0.000000
# 3 -0.004488 0.000402 0.012103 0.000000 0.002603 0.000000
# 4 0.000000 0.000000 0.000000 -0.063372 0.000000 0.030783
# 5 0.007351 0.001033 0.002603 0.000000 0.032767 0.000000
# 6 0.000000 0.000000 0.000000 0.030783 0.000000 0.021589
#
#
# Mechanical properties :
#
#
# Convention : Reuss Voigt Hill
#
# Bulk Modulus (GPa) = 56.84653 79.45432 68.15042
# Shear Modulus (GPa) = 77.81036 25.96146 51.88591
#
# Velocity S-wave (km/s) = 6.01154 3.47241 4.90899
# Velocity P-wave (km/s) = 8.63637 7.27867 7.98642
#
# Compressibility (1/GPa) = 0.01759122
#
# Stress axis : x y z
#
# Youngs Moduli (GPa) = 49.37821 98.55889 82.62103
#
# Poissons Ratio (x) = 0.82481 0.37080
# Poissons Ratio (y) = 0.41323 -0.03318
# Poissons Ratio (z) = 0.22161 -0.03958
#
# Static dielectric constant tensor:
#      x y z
#    x 1.794030 0.000000 0.026000 
#    y 0.000000 1.763440 0.000000 
#    z 0.026000 0.000000 1.852220 
# 
# From -- ./inp_files/294190.got.cif
#   From: 2010.05.17/outbox.cif.g08.bks.cpg/sg12_148_cif.got.tgz:294190.got - 2010.06.03 13:09:07.
