data_PCOD9196444
_publ_section_title
;
Structure prediction by ZEFSAII (Michael W. Deem and Ramdas Pophale) SiO2 
 PCOD9196444
Probable space group: C 2/M
;
_chemical_formula_sum "Si O2"
_cell_formula_units_Z 44
_cell_length_a 9.555341
_cell_length_b 21.699969
_cell_length_c 11.925353
_cell_angle_alpha 90.000000
_cell_angle_beta 114.750985
_cell_angle_gamma 90.000000
_cell_volume 2245.574293
_symmetry_space_group_name_H-M "C 2/M"
_symmetry_group_IT_number 12
_symmetry_cell_setting 'monoclinic'
loop_
_space_group_symop_operation_xyz
x,y,z
-x,y,-z
-x,-y,-z
x,-y,z
1/2+x,1/2+y,z
1/2-x,1/2+y,-z
1/2-x,1/2-y,-z
1/2+x,1/2-y,z
loop_
_atom_site_type_symbol
_atom_site_label
_atom_site_fract_x
_atom_site_fract_y
_atom_site_fract_z
Si Si1 0.269549 0.928999 0.510525
Si Si2 0.505596 0.700177 0.137101
Si Si3 0.000000 0.160800 0.500000
Si Si4 0.093276 0.393795 0.687461
Si Si5 0.334866 0.248061 0.270570
Si Si6 0.096028 0.066912 0.146112
O O1 0.132896 0.882508 0.493236
O O2 0.420601 0.918222 0.638729
O O3 0.335230 0.915006 0.408090
O O4 0.221710 0.000000 0.502754
O O5 0.361657 0.727617 0.153747
O O6 0.653795 0.738418 0.228766
O O7 0.533292 0.628961 0.182178
O O8 0.500000 0.702202 0.000000
O O9 0.918095 0.204991 0.381770
O O10 0.093802 0.320056 0.692220
O O11 0.223002 0.419648 0.815252
O O12 0.080381 0.000000 0.197810
O O13 0.000000 0.063560 0.000000
#
# Coordination Sequence:
#
# PCOD9196444 Si02
#       6
#     8   8   4   8   8   8
#     4  11  22  36  55  79 111 147 183 225 272 329
#     4  10  21  37  57  81 110 145 185 228 273 324
#     4  12  23  36  54  82 117 146 180 228 284 334
#     4  10  20  35  57  80 106 144 186 224 267 324
#     4  11  22  36  56  82 111 146 183 226 277 328
#     4   9  17  31  53  80 106 134 175 224 268 313
#
# _framework density 19.594097000000001
#
# number of rings (size 3 to 8) (size 9 to 14) (size 15 to 20)
#    0.000    1.636    0.000    7.364    0.000    2.182 
#    0.000    0.909    0.000    0.000    0.000    0.000 
#    0.000   35.636    0.000    0.000    0.000    0.000 
#
# Total GULP energy -122763.415992 kJ/mol
# GULP energy per Si atom -5580.155272 kJ/mol
# Density = 1.954950 g / cm^3
# Si number density = 19.594097 Si / 1000 Ang^3
#
#
#
# Elastic Constant Matrix: (Units=GPa)
#
#
# Indices 1 2 3 4 5 6 
#
# 1 73.1610 45.6103 24.4963 0.0000 17.3106 0.0000
# 2 45.6103 152.4217 36.4460 0.0000 8.3975 0.0000
# 3 24.4963 36.4460 82.3696 0.0000 22.2894 0.0000
# 4 0.0000 0.0000 0.0000 16.0066 0.0000 5.9511
# 5 17.3106 8.3975 22.2894 0.0000 32.7252 0.0000
# 6 0.0000 0.0000 0.0000 5.9511 0.0000 20.4104
#
#
#
# Elastic Compliance Matrix: (Units=1/GPa)
#
#
# Indices 1 2 3 4 5 6 
#
# 1 0.019075 -0.004951 -0.001343 0.000000 -0.007905 0.000000
# 2 -0.004951 0.008627 -0.003009 0.000000 0.002455 0.000000
# 3 -0.001343 -0.003009 0.016514 0.000000 -0.009765 0.000000
# 4 0.000000 0.000000 0.000000 0.070070 0.000000 -0.020430
# 5 -0.007905 0.002455 -0.009765 0.000000 0.040760 0.000000
# 6 0.000000 0.000000 0.000000 -0.020430 0.000000 0.054952
#
#
# Mechanical properties :
#
#
# Convention : Reuss Voigt Hill
#
# Bulk Modulus (GPa) = 39.04843 57.89526 48.47184
# Shear Modulus (GPa) = 21.08461 27.25508 24.16984
#
# Velocity S-wave (km/s) = 3.28391 3.73364 3.51597
# Velocity P-wave (km/s) = 5.86094 6.94249 6.42452
#
# Compressibility (1/GPa) = 0.02560923
#
# Stress axis : x y z
#
# Youngs Moduli (GPa) = 52.42354 115.92071 60.55651
#
# Poissons Ratio (x) = 0.57397 0.08132
# Poissons Ratio (y) = 0.25957 0.18220
# Poissons Ratio (z) = 0.07040 0.34877
#
# Static dielectric constant tensor:
#      x y z
#    x 1.659480 0.000000 0.037190 
#    y 0.000000 1.695630 0.000000 
#    z 0.037190 0.000000 1.751340 
# 
# From -- ./inp_files/120926.got.cif
#   From: 2010.05.17/outbox.cif.g08.bks.cpg/sg12_61_cif.got.tgz:120926.got - 2010.06.03 13:09:07.
