data_PCOD9196680
_publ_section_title
;
Structure prediction by ZEFSAII (Michael W. Deem and Ramdas Pophale) SiO2 
 PCOD9196680
Probable space group: C 2/M
;
_chemical_formula_sum "Si O2"
_cell_formula_units_Z 64
_cell_length_a 21.138879
_cell_length_b 8.496580
_cell_length_c 22.296339
_cell_angle_alpha 90.000000
_cell_angle_beta 118.562266
_cell_angle_gamma 90.000000
_cell_volume 3517.236551
_symmetry_space_group_name_H-M "C 2/M"
_symmetry_group_IT_number 12
_symmetry_cell_setting 'monoclinic'
loop_
_space_group_symop_operation_xyz
x,y,z
-x,y,-z
-x,-y,-z
x,-y,z
1/2+x,1/2+y,z
1/2-x,1/2+y,-z
1/2-x,1/2-y,-z
1/2+x,1/2-y,z
loop_
_atom_site_type_symbol
_atom_site_label
_atom_site_fract_x
_atom_site_fract_y
_atom_site_fract_z
Si Si1 0.593532 0.188430 0.293322
Si Si2 0.471202 0.309531 0.551655
Si Si3 0.328148 0.691982 0.152385
Si Si4 0.663130 0.811335 0.079586
Si Si5 0.082339 0.188497 0.159638
Si Si6 0.329362 0.811485 0.549940
Si Si7 0.084033 0.809877 0.925507
Si Si8 0.452358 0.309894 0.292933
O O1 0.612483 0.256378 0.237271
O O2 0.645908 0.236427 0.371634
O O3 0.515008 0.250856 0.277119
O O4 0.592147 0.000000 0.289817
O O5 0.500000 0.256489 0.500000
O O6 0.469436 0.500000 0.550485
O O7 0.391677 0.251123 0.533701
O O8 0.524588 0.258660 0.629939
O O9 0.327399 0.500000 0.151876
O O10 0.245923 0.745362 0.115504
O O11 0.369555 0.742700 0.110891
O O12 0.375957 0.741332 0.231290
O O13 0.625788 0.756509 0.123642
O O14 0.663145 0.000000 0.077169
O O15 0.619815 0.747953 0.002832
O O16 0.998851 0.241758 0.117515
O O17 0.083369 0.000000 0.157345
O O18 0.250000 0.750000 0.500000
O O19 0.329692 0.000000 0.547395
O O20 0.084068 0.000000 0.925498
O O21 0.453707 0.500000 0.292852
#
# Coordination Sequence:
#
# PCOD9196680 Si02
#       8
#     8   8   8   8   8   8   8   8
#     4  10  20  35  57  85 111 139 182 232 275 316
#     4   9  18  33  56  86 115 146 187 227 269 328
#     4   9  18  35  56  78 105 144 184 220 270 327
#     4  11  23  36  52  80 115 143 177 230 282 321
#     4  11  22  38  59  79 107 146 185 223 271 333
#     4  10  21  37  58  84 115 149 185 229 277 328
#     4  10  20  37  59  78 100 140 190 225 268 333
#     4   9  16  33  58  79 106 147 186 218 262 327
#
# _framework density 18.196103000000001
#
# number of rings (size 3 to 8) (size 9 to 14) (size 15 to 20)
#    0.000    2.125    1.250    2.250    0.000    4.250 
#    2.250    1.875    0.000    0.000    0.000    0.000 
#    0.000    0.000    0.000    0.000    0.000    0.000 
#
# Total GULP energy -178612.181653 kJ/mol
# GULP energy per Si atom -5581.630677 kJ/mol
# Density = 1.815469 g / cm^3
# Si number density = 18.196103 Si / 1000 Ang^3
#
#
#
# Elastic Constant Matrix: (Units=GPa)
#
#
# Indices 1 2 3 4 5 6 
#
# 1 128.7549 13.3941 73.8247 0.0000 -10.9105 0.0000
# 2 13.3941 8.3398 9.0010 0.0000 -1.0754 0.0000
# 3 73.8247 9.0010 118.8866 0.0000 -9.5224 0.0000
# 4 0.0000 0.0000 0.0000 24.6622 0.0000 0.0615
# 5 -10.9105 -1.0754 -9.5224 0.0000 31.4890 0.0000
# 6 0.0000 0.0000 0.0000 0.0615 0.0000 25.2446
#
#
#
# Elastic Compliance Matrix: (Units=1/GPa)
#
#
# Indices 1 2 3 4 5 6 
#
# 1 0.013467 -0.013630 -0.007167 0.000000 0.002033 0.000000
# 2 -0.013630 0.144442 -0.002516 0.000000 -0.000550 0.000000
# 3 -0.007167 -0.002516 0.013166 0.000000 0.001412 0.000000
# 4 0.000000 0.000000 0.000000 0.040548 0.000000 -0.000099
# 5 0.002033 -0.000550 0.001412 0.000000 0.032870 0.000000
# 6 0.000000 0.000000 0.000000 -0.000099 0.000000 0.039613
#
#
# Mechanical properties :
#
#
# Convention : Reuss Voigt Hill
#
# Bulk Modulus (GPa) = 8.03553 49.82453 28.93003
# Shear Modulus (GPa) = 13.43311 26.92993 20.18152
#
# Velocity S-wave (km/s) = 2.72001 3.85123 3.33395
# Velocity P-wave (km/s) = 3.78024 6.87149 5.54561
#
# Compressibility (1/GPa) = 0.12444730
#
# Stress axis : x y z
#
# Youngs Moduli (GPa) = 74.25827 6.92318 75.95463
#
# Poissons Ratio (x) = 0.09436 0.54440
# Poissons Ratio (y) = 1.01214 0.19111
# Poissons Ratio (z) = 0.53225 0.01742
#
# Static dielectric constant tensor:
#      x y z
#    x 1.596020 0.000000 0.006970 
#    y 0.000000 1.622040 0.000000 
#    z 0.006970 0.000000 1.627590 
# 
# From -- ./inp_files/320185.got.cif
#   From: 2010.05.17/outbox.cif.g08.bks.cpg/sg12_161_cif.got.tgz:320185.got - 2010.06.03 13:09:07.
