data_PCOD9196905
_publ_section_title
;
Structure prediction by ZEFSAII (Michael W. Deem and Ramdas Pophale) SiO2 
 PCOD9196905
Probable space group: C 2/M
;
_chemical_formula_sum "Si O2"
_cell_formula_units_Z 58
_cell_length_a 16.827283
_cell_length_b 10.594448
_cell_length_c 18.788199
_cell_angle_alpha 90.000000
_cell_angle_beta 67.155669
_cell_angle_gamma 90.000000
_cell_volume 3086.757668
_symmetry_space_group_name_H-M "C 2/M"
_symmetry_group_IT_number 12
_symmetry_cell_setting 'monoclinic'
loop_
_space_group_symop_operation_xyz
x,y,z
-x,y,-z
-x,-y,-z
x,-y,z
1/2+x,1/2+y,z
1/2-x,1/2+y,-z
1/2-x,1/2-y,-z
1/2+x,1/2-y,z
loop_
_atom_site_type_symbol
_atom_site_label
_atom_site_fract_x
_atom_site_fract_y
_atom_site_fract_z
Si Si1 0.734702 0.350380 0.245349
Si Si2 0.845529 0.852958 0.131961
Si Si3 0.825891 0.147636 0.974438
Si Si4 0.604701 0.230269 0.529994
Si Si5 0.507939 0.652575 0.172935
Si Si6 0.239669 0.350364 0.603221
Si Si7 0.500000 0.000000 0.500000
Si Si8 0.029208 0.851342 0.322504
O O1 0.750692 0.500000 0.223446
O O2 0.773545 0.250583 0.176544
O O3 0.773155 0.317678 0.309650
O O4 0.631927 0.334340 0.287963
O O5 0.929586 0.816027 0.148130
O O6 0.821952 0.000000 0.158016
O O7 0.863089 0.851271 0.041747
O O8 0.900378 0.186402 0.893435
O O9 0.800125 0.000000 0.968829
O O10 0.750000 0.250000 0.000000
O O11 0.665820 0.307122 0.455399
O O12 0.667959 0.203237 0.575075
O O13 0.568290 0.108681 0.503596
O O14 0.521817 0.295990 0.593608
O O15 0.509348 0.500000 0.176338
O O16 0.498408 0.701572 0.256551
O O17 0.236152 0.500000 0.599361
O O18 0.011865 0.000000 0.328995
#
# Coordination Sequence:
#
# PCOD9196905 Si02
#       8
#     8   8   8   8   8   8   2   8
#     4  10  21  37  57  82 115 152 194 236 291 348
#     4  10  20  36  56  85 113 148 193 239 289 347
#     4  10  20  35  58  83 115 150 187 235 287 342
#     4  11  22  38  60  83 118 149 194 242 295 348
#     4   9  18  34  58  84 113 146 189 233 286 344
#     4  10  21  40  60  84 113 156 195 239 293 358
#     4  12  24  40  54  88 116 150 190 242 298 348
#     4  10  20  36  59  86 111 150 195 240 286 347
#
# _framework density 18.789942
#
# number of rings (size 3 to 8) (size 9 to 14) (size 15 to 20)
#    0.000    1.931    0.690    3.310    0.000    3.310 
#    4.966    3.448    1.517    1.655    0.000    0.000 
#    0.000    0.000    0.000    0.000    0.000    0.000 
#
# Total GULP energy -161499.671793 kJ/mol
# GULP energy per Si atom -5568.954200 kJ/mol
# Density = 1.874718 g / cm^3
# Si number density = 18.789942 Si / 1000 Ang^3
#
#
#
# Elastic Constant Matrix: (Units=GPa)
#
#
# Indices 1 2 3 4 5 6 
#
# 1 43.8733 6.3771 -7.4085 0.0000 -0.7769 0.0000
# 2 6.3771 34.9579 17.7169 0.0000 -14.0096 0.0000
# 3 -7.4085 17.7169 56.3352 0.0000 -15.4077 0.0000
# 4 0.0000 0.0000 0.0000 20.7427 0.0000 3.8125
# 5 -0.7769 -14.0096 -15.4077 0.0000 30.8489 0.0000
# 6 0.0000 0.0000 0.0000 3.8125 0.0000 29.8389
#
#
#
# Elastic Compliance Matrix: (Units=1/GPa)
#
#
# Indices 1 2 3 4 5 6 
#
# 1 0.024802 -0.007320 0.005589 0.000000 0.000092 0.000000
# 2 -0.007320 0.040280 -0.010051 0.000000 0.013088 0.000000
# 3 0.005589 -0.010051 0.023670 0.000000 0.007399 0.000000
# 4 0.000000 0.000000 0.000000 0.049369 0.000000 -0.006308
# 5 0.000092 0.013088 0.007399 0.000000 0.042058 0.000000
# 6 0.000000 0.000000 0.000000 -0.006308 0.000000 0.034319
#
#
# Mechanical properties :
#
#
# Convention : Reuss Voigt Hill
#
# Bulk Modulus (GPa) = 15.34009 18.72637 17.03323
# Shear Modulus (GPa) = 19.24612 24.18483 21.71547
#
# Velocity S-wave (km/s) = 3.20391 3.59153 3.40324
# Velocity P-wave (km/s) = 4.67637 5.21408 4.95252
#
# Compressibility (1/GPa) = 0.06518866
#
# Stress axis : x y z
#
# Youngs Moduli (GPa) = 40.31881 24.82602 42.24704
#
# Poissons Ratio (x) = 0.18173 -0.23612
# Poissons Ratio (y) = 0.29514 0.42462
# Poissons Ratio (z) = -0.22534 0.24952
#
# Static dielectric constant tensor:
#      x y z
#    x 1.681670 0.000000 0.037260 
#    y 0.000000 1.621000 0.000000 
#    z 0.037260 0.000000 1.661490 
# 
# From -- ./inp_files/314794.got.cif
#   From: 2010.05.17/outbox.cif.g08.bks.cpg/sg12_158_cif.got.tgz:314794.got - 2010.06.03 13:09:07.
