data_PCOD9196883
_publ_section_title
;
Structure prediction by ZEFSAII (Michael W. Deem and Ramdas Pophale) SiO2 
 PCOD9196883
Probable space group: C 2/M
;
_chemical_formula_sum "Si O2"
_cell_formula_units_Z 56
_cell_length_a 9.012235
_cell_length_b 26.416288
_cell_length_c 13.438282
_cell_angle_alpha 90.000000
_cell_angle_beta 112.143853
_cell_angle_gamma 90.000000
_cell_volume 2963.273732
_symmetry_space_group_name_H-M "C 2/M"
_symmetry_group_IT_number 12
_symmetry_cell_setting 'monoclinic'
loop_
_space_group_symop_operation_xyz
x,y,z
-x,y,-z
-x,-y,-z
x,-y,z
1/2+x,1/2+y,z
1/2-x,1/2+y,-z
1/2-x,1/2-y,-z
1/2+x,1/2-y,z
loop_
_atom_site_type_symbol
_atom_site_label
_atom_site_fract_x
_atom_site_fract_y
_atom_site_fract_z
Si Si1 0.349488 0.918535 0.522806
Si Si2 0.743545 0.779747 0.642218
Si Si3 0.863631 0.059713 0.881217
Si Si4 0.711213 0.443873 0.690975
Si Si5 0.033001 0.439458 0.897872
Si Si6 0.422833 0.619451 0.694862
Si Si7 0.912061 0.691333 0.611589
O O1 0.500000 0.940642 0.500000
O O2 0.257821 0.946943 0.586954
O O3 0.222216 0.902097 0.408297
O O4 0.409800 0.868489 0.597215
O O5 0.885900 0.820539 0.689900
O O6 0.803110 0.722168 0.660919
O O7 0.662263 0.790321 0.513340
O O8 0.593954 0.791588 0.674340
O O9 0.694195 0.078194 0.883961
O O10 0.912505 0.093241 0.799531
O O11 0.847810 0.000000 0.848204
O O12 0.000000 0.062381 0.000000
O O13 0.650301 0.500000 0.707141
O O14 0.583663 0.400241 0.682244
O O15 0.874382 0.433399 0.792231
O O16 0.059372 0.500000 0.915752
O O17 0.000000 0.418666 0.000000
#
# Coordination Sequence:
#
# PCOD9196883 Si02
#       7
#     8   8   8   8   8   8   8
#     4  11  21  37  52  75 112 147 188 228 274 336
#     4   9  18  31  53  77 105 139 174 225 285 324
#     4  10  20  35  58  82 108 145 186 234 280 325
#     4  11  24  36  51  76 111 154 190 226 273 330
#     4   9  18  34  54  76 102 136 183 232 274 315
#     4  11  21  35  53  80 111 144 186 226 277 333
#     4   9  17  33  50  77 105 137 178 225 277 331
#
# _framework density 18.898016999999999
#
# number of rings (size 3 to 8) (size 9 to 14) (size 15 to 20)
#    0.000    2.000    2.857    2.571    2.000    4.286 
#    0.000    0.000    0.000    0.000    0.000    2.000 
#    0.000    0.000    0.000    0.000    0.000    0.000 
#
# Total GULP energy -156030.212523 kJ/mol
# GULP energy per Si atom -5572.507590 kJ/mol
# Density = 1.885500 g / cm^3
# Si number density = 18.898017 Si / 1000 Ang^3
#
#
#
# Elastic Constant Matrix: (Units=GPa)
#
#
# Indices 1 2 3 4 5 6 
#
# 1 96.9496 36.6446 2.3606 0.0000 -9.0769 0.0000
# 2 36.6446 63.4560 8.4070 0.0000 -1.5273 0.0000
# 3 2.3606 8.4070 53.0162 0.0000 -14.2737 0.0000
# 4 0.0000 0.0000 0.0000 -0.4989 0.0000 5.9932
# 5 -9.0769 -1.5273 -14.2737 0.0000 21.4485 0.0000
# 6 0.0000 0.0000 0.0000 5.9932 0.0000 14.7918
#
#
#
# Elastic Compliance Matrix: (Units=1/GPa)
#
#
# Indices 1 2 3 4 5 6 
#
# 1 0.014046 -0.008284 0.002595 0.000000 0.007081 0.000000
# 2 -0.008284 0.020991 -0.004266 0.000000 -0.004850 0.000000
# 3 0.002595 -0.004266 0.023923 0.000000 0.016715 0.000000
# 4 0.000000 0.000000 0.000000 -0.341627 0.000000 0.138416
# 5 0.007081 -0.004850 0.016715 0.000000 0.060398 0.000000
# 6 0.000000 0.000000 0.000000 0.138416 0.000000 0.011523
#
#
# Mechanical properties :
#
#
# Convention : Reuss Voigt Hill
#
# Bulk Modulus (GPa) = 25.60835 34.24956 29.92896
# Shear Modulus (GPa) = -28.11860 18.21560 -4.95150
#
# Velocity S-wave (km/s) = -3.86153 3.10803 -1.62043
# Velocity P-wave (km/s) = 2.51031 5.57158 3.51716
#
# Compressibility (1/GPa) = 0.03904976
#
# Stress axis : x y z
#
# Youngs Moduli (GPa) = 71.19608 47.63842 41.80043
#
# Poissons Ratio (x) = 0.39466 -0.10846
# Poissons Ratio (y) = 0.58982 0.17830
# Poissons Ratio (z) = -0.18473 0.20320
#
# Static dielectric constant tensor:
#      x y z
#    x 1.699870 0.000000 -0.025350 
#    y 0.000000 1.708820 0.000000 
#    z -0.025350 0.000000 1.631120 
# 
# From -- ./inp_files/124343.got.cif
#   From: 2010.05.17/outbox.cif.g08.bks.cpg/sg12_63_cif.got.tgz:124343.got - 2010.06.03 13:09:07.
