data_PCOD9196548
_publ_section_title
;
Structure prediction by ZEFSAII (Michael W. Deem and Ramdas Pophale) SiO2 
 PCOD9196548
Probable space group: C 2/M
;
_chemical_formula_sum "Si O2"
_cell_formula_units_Z 48
_cell_length_a 31.868239
_cell_length_b 8.572379
_cell_length_c 9.555773
_cell_angle_alpha 90.000000
_cell_angle_beta 89.982823
_cell_angle_gamma 90.000000
_cell_volume 2610.509237
_symmetry_space_group_name_H-M "C 2/M"
_symmetry_group_IT_number 12
_symmetry_cell_setting 'monoclinic'
loop_
_space_group_symop_operation_xyz
x,y,z
-x,y,-z
-x,-y,-z
x,-y,z
1/2+x,1/2+y,z
1/2-x,1/2+y,-z
1/2-x,1/2-y,-z
1/2+x,1/2-y,z
loop_
_atom_site_type_symbol
_atom_site_label
_atom_site_fract_x
_atom_site_fract_y
_atom_site_fract_z
Si Si1 0.958569 0.811028 0.413500
Si Si2 0.380493 0.185820 0.588602
Si Si3 0.210573 0.187031 0.415104
Si Si4 0.287953 0.686948 0.909787
Si Si5 0.040186 0.190311 0.909896
Si Si6 0.381372 0.310835 0.903920
O O1 0.917252 0.747224 0.488955
O O2 0.961388 0.760069 0.251612
O O3 0.000000 0.763878 0.500000
O O4 0.956728 0.000000 0.415689
O O5 0.334671 0.246197 0.540986
O O6 0.387722 0.249404 0.746423
O O7 0.380391 0.000000 0.591429
O O8 0.250000 0.250000 0.500000
O O9 0.216456 0.232134 0.252538
O O10 0.208829 0.000000 0.424106
O O11 0.287029 0.500000 0.917080
O O12 0.334840 0.737712 0.953475
O O13 0.250000 0.750000 0.000000
O O14 0.039832 0.000000 0.908891
O O15 0.082228 0.239498 0.990844
O O16 0.000000 0.241095 0.000000
O O17 0.382066 0.500000 0.895796
#
# Coordination Sequence:
#
# PCOD9196548 Si02
#       6
#     8   8   8   8   8   8
#     4  10  20  35  57  83 111 145 183 225 275 327
#     4  11  22  36  55  80 110 145 184 225 272 324
#     4  10  21  38  58  82 111 144 183 225 271 322
#     4   9  19  33  51  76 106 139 176 220 268 320
#     4   9  17  31  55  83 105 132 176 225 271 323
#     4   9  18  35  55  76 104 138 179 225 271 320
#
# _framework density 18.387219000000002
#
# number of rings (size 3 to 8) (size 9 to 14) (size 15 to 20)
#    0.000    2.333    0.000    4.000    0.000    7.667 
#    0.000    2.500    0.000    2.000    0.000    0.000 
#    0.000    0.000    0.000    0.000    0.000    0.000 
#
# Total GULP energy -133954.062207 kJ/mol
# GULP energy per Si atom -5581.419259 kJ/mol
# Density = 1.834537 g / cm^3
# Si number density = 18.387219 Si / 1000 Ang^3
#
#
#
# Elastic Constant Matrix: (Units=GPa)
#
#
# Indices 1 2 3 4 5 6 
#
# 1 224.5230 40.0294 131.8355 0.0000 0.5314 0.0000
# 2 40.0294 26.0337 29.4842 0.0000 2.0409 0.0000
# 3 131.8355 29.4842 131.0525 0.0000 0.1434 0.0000
# 4 0.0000 0.0000 0.0000 20.6550 0.0000 -4.4856
# 5 0.5314 2.0409 0.1434 0.0000 42.8745 0.0000
# 6 0.0000 0.0000 0.0000 -4.4856 0.0000 28.6481
#
#
#
# Elastic Compliance Matrix: (Units=1/GPa)
#
#
# Indices 1 2 3 4 5 6 
#
# 1 0.011581 -0.006209 -0.010254 0.000000 0.000186 0.000000
# 2 -0.006209 0.055126 -0.006153 0.000000 -0.002527 0.000000
# 3 -0.010254 -0.006153 0.019329 0.000000 0.000355 0.000000
# 4 0.000000 0.000000 0.000000 0.050119 0.000000 0.007847
# 5 0.000186 -0.002527 0.000355 0.000000 0.023441 0.000000
# 6 0.000000 0.000000 0.000000 0.007847 0.000000 0.036135
#
#
# Mechanical properties :
#
#
# Convention : Reuss Voigt Hill
#
# Bulk Modulus (GPa) = 24.50714 87.14527 55.82620
# Shear Modulus (GPa) = 19.64141 30.45285 25.04713
#
# Velocity S-wave (km/s) = 3.27189 4.07405 3.69481
# Velocity P-wave (km/s) = 5.25652 8.34434 6.97348
#
# Compressibility (1/GPa) = 0.04080444
#
# Stress axis : x y z
#
# Youngs Moduli (GPa) = 86.34677 18.14032 51.73475
#
# Poissons Ratio (x) = 0.11264 0.53047
# Poissons Ratio (y) = 0.53615 0.31833
# Poissons Ratio (z) = 0.88537 0.11162
#
# Static dielectric constant tensor:
#      x y z
#    x 1.623400 0.000000 0.009030 
#    y 0.000000 1.631450 0.000000 
#    z 0.009030 0.000000 1.609880 
# 
# From -- ./inp_files/108690.got.cif
#   From: 2010.05.17/outbox.cif.g08.bks.cpg/sg12_55_cif.got.tgz:108690.got - 2010.06.03 13:09:07.
