data_PCOD9196605
_publ_section_title
;
Structure prediction by ZEFSAII (Michael W. Deem and Ramdas Pophale) SiO2 
 PCOD9196605
Probable space group: C 2/M
;
_chemical_formula_sum "Si O2"
_cell_formula_units_Z 40
_cell_length_a 9.897626
_cell_length_b 16.112592
_cell_length_c 24.280169
_cell_angle_alpha 90.000000
_cell_angle_beta 32.525455
_cell_angle_gamma 90.000000
_cell_volume 2081.936092
_symmetry_space_group_name_H-M "C 2/M"
_symmetry_group_IT_number 12
_symmetry_cell_setting 'monoclinic'
loop_
_space_group_symop_operation_xyz
x,y,z
-x,y,-z
-x,-y,-z
x,-y,z
1/2+x,1/2+y,z
1/2-x,1/2+y,-z
1/2-x,1/2-y,-z
1/2+x,1/2-y,z
loop_
_atom_site_type_symbol
_atom_site_label
_atom_site_fract_x
_atom_site_fract_y
_atom_site_fract_z
Si Si1 0.108799 0.000000 0.901931
Si Si2 0.703297 0.175209 0.196834
Si Si3 0.198636 0.000000 0.106651
Si Si4 0.792031 0.406724 0.410278
Si Si5 0.495273 0.678293 0.203659
Si Si6 0.960712 0.316773 0.448103
O O1 0.255199 0.913264 0.845885
O O2 0.917513 0.000000 0.915374
O O3 0.000000 0.000000 0.000000
O O4 0.455950 0.158541 0.319518
O O5 0.676354 0.251706 0.165250
O O6 0.923927 0.192109 0.164596
O O7 0.097349 0.916066 0.170976
O O8 0.500000 0.000000 0.000000
O O9 0.500000 0.392720 0.500000
O O10 0.858841 0.500000 0.369648
O O11 0.854211 0.397741 0.453405
O O12 0.236818 0.691580 0.326489
O O13 0.750000 0.250000 0.500000
O O14 0.000000 0.318997 0.500000
#
# Coordination Sequence:
#
# PCOD9196605 Si02
#       6
#     4   8   4   8   8   8
#     4  10  22  40  63  86 114 152 195 254 307 374
#     4  10  20  39  60  88 118 156 200 245 308 365
#     4  10  24  46  63  86 122 162 205 264 314 364
#     4  10  20  35  57  83 119 163 201 240 294 359
#     4  10  22  38  65  86 122 163 203 251 310 365
#     4  11  21  35  58  89 126 161 202 245 303 363
#
# _framework density 19.212885
#
# number of rings (size 3 to 8) (size 9 to 14) (size 15 to 20)
#    0.000    1.800    1.000    4.200    4.200    2.800 
#    0.000    4.000    0.000    0.000    0.000    0.000 
#    0.000    0.000    0.000    0.000    0.000    0.000 
#
# Total GULP energy -111466.276472 kJ/mol
# GULP energy per Si atom -5573.313824 kJ/mol
# Density = 1.916916 g / cm^3
# Si number density = 19.212885 Si / 1000 Ang^3
#
#
#
# Elastic Constant Matrix: (Units=GPa)
#
#
# Indices 1 2 3 4 5 6 
#
# 1 104.9311 79.8982 35.6719 -0.0070 11.6618 -0.0038
# 2 79.8982 162.8068 47.0423 -0.0088 4.1847 0.0056
# 3 35.6719 47.0423 73.7578 -0.0192 11.2684 -0.0065
# 4 -0.0070 -0.0088 -0.0192 14.0844 0.0036 4.5552
# 5 11.6618 4.1847 11.2684 0.0036 30.8216 0.0054
# 6 -0.0038 0.0056 -0.0065 4.5552 0.0054 34.6698
#
#
#
# Elastic Compliance Matrix: (Units=1/GPa)
#
#
# Indices 1 2 3 4 5 6 
#
# 1 0.016354 -0.007133 -0.002714 0.000000 -0.004227 0.000003
# 2 -0.007133 0.010658 -0.003749 -0.000002 0.002622 -0.000003
# 3 -0.002714 -0.003749 0.018034 0.000022 -0.005057 0.000002
# 4 0.000000 -0.000002 0.000022 0.074152 -0.000015 -0.009743
# 5 -0.004227 0.002622 -0.005057 -0.000015 0.035537 -0.000005
# 6 0.000003 -0.000003 0.000002 -0.009743 -0.000005 0.030124
#
#
# Mechanical properties :
#
#
# Convention : Reuss Voigt Hill
#
# Bulk Modulus (GPa) = 56.00770 74.08006 65.04388
# Shear Modulus (GPa) = 22.93557 27.84070 25.38814
#
# Velocity S-wave (km/s) = 3.45883 3.81079 3.63907
# Velocity P-wave (km/s) = 6.72055 7.61604 7.18226
#
# Compressibility (1/GPa) = 0.01785469
#
# Stress axis : x y z
#
# Youngs Moduli (GPa) = 61.14836 93.82185 55.45003
#
# Poissons Ratio (x) = 0.66921 0.15050
# Poissons Ratio (y) = 0.43615 0.20788
# Poissons Ratio (z) = 0.16597 0.35173
#
# Static dielectric constant tensor:
#      x y z
#    x 1.688510 0.000000 -0.036570 
#    y 0.000000 1.704970 0.000010 
#    z -0.036570 0.000010 1.735920 
# 
# From -- ./inp_files/300589.got.cif
#   From: 2010.05.17/outbox.cif.g08.bks.cpg/sg12_151_cif.got.tgz:300589.got - 2010.06.03 13:09:07.
