data_PCOD9196239
_publ_section_title
;
Structure prediction by ZEFSAII (Michael W. Deem and Ramdas Pophale) SiO2 
 PCOD9196239
Probable space group: C 2/M
;
_chemical_formula_sum "Si O2"
_cell_formula_units_Z 64
_cell_length_a 14.291897
_cell_length_b 9.276788
_cell_length_c 24.601027
_cell_angle_alpha 90.000000
_cell_angle_beta 88.322954
_cell_angle_gamma 90.000000
_cell_volume 3260.278378
_symmetry_space_group_name_H-M "C 2/M"
_symmetry_group_IT_number 12
_symmetry_cell_setting 'monoclinic'
loop_
_space_group_symop_operation_xyz
x,y,z
-x,y,-z
-x,-y,-z
x,-y,z
1/2+x,1/2+y,z
1/2-x,1/2+y,-z
1/2-x,1/2-y,-z
1/2+x,1/2-y,z
loop_
_atom_site_type_symbol
_atom_site_label
_atom_site_fract_x
_atom_site_fract_y
_atom_site_fract_z
Si Si1 0.386608 0.163651 0.246466
Si Si2 0.058678 0.672885 0.871907
Si Si3 0.633894 0.328115 0.152033
Si Si4 0.355826 0.330568 0.352983
Si Si5 0.577201 0.667264 0.365817
Si Si6 0.886880 0.664328 0.739853
Si Si7 0.268975 0.671016 0.556003
Si Si8 0.219687 0.328066 0.945972
O O1 0.377918 0.199007 0.183015
O O2 0.345847 0.271132 0.291737
O O3 0.499867 0.163855 0.252838
O O4 0.353001 0.000000 0.256779
O O5 0.038915 0.500000 0.871910
O O6 0.117345 0.710006 0.924391
O O7 0.964556 0.762232 0.866415
O O8 0.627588 0.500000 0.159014
O O9 0.654339 0.256311 0.210014
O O10 0.708746 0.295619 0.104137
O O11 0.332894 0.500000 0.356553
O O12 0.465790 0.312604 0.366503
O O13 0.297019 0.237662 0.396389
O O14 0.595155 0.500000 0.351100
O O15 0.623733 0.765457 0.318853
O O16 0.626029 0.694110 0.422646
O O17 0.854336 0.500000 0.742178
O O18 0.253633 0.500000 0.550784
O O19 0.250000 0.750000 0.500000
O O20 0.221110 0.500000 0.954534
O O21 0.250000 0.250000 0.000000
#
# Coordination Sequence:
#
# PCOD9196239 Si02
#       8
#     8   8   8   8   8   8   8   8
#     4   8  15  30  53  81 111 141 174 214 265 325
#     4   9  19  37  58  80 109 146 183 221 271 329
#     4  10  20  35  56  83 113 143 178 224 276 325
#     4  10  20  36  58  84 112 142 179 223 271 323
#     4   9  20  38  59  82 112 148 181 220 273 327
#     4   9  17  31  55  86 115 142 177 221 269 325
#     4  11  24  41  58  79 109 146 188 230 272 321
#     4  10  23  40  56  77 107 144 187 231 274 325
#
# _framework density 19.630226
#
# number of rings (size 3 to 8) (size 9 to 14) (size 15 to 20)
#    0.000    2.500    0.000    2.250    0.000    8.000 
#    0.000    7.500    0.000    0.000    0.000    0.000 
#    0.000    0.000    0.000    0.000    0.000    0.000 
#
# Total GULP energy -178721.748951 kJ/mol
# GULP energy per Si atom -5585.054655 kJ/mol
# Density = 1.958555 g / cm^3
# Si number density = 19.630226 Si / 1000 Ang^3
#
#
#
# Elastic Constant Matrix: (Units=GPa)
#
#
# Indices 1 2 3 4 5 6 
#
# 1 44.5169 24.9830 19.3839 0.0000 7.2126 0.0000
# 2 24.9830 62.3844 41.0835 0.0000 3.4579 0.0000
# 3 19.3839 41.0835 95.3205 0.0000 25.0891 0.0000
# 4 0.0000 0.0000 0.0000 43.3354 0.0000 -3.3405
# 5 7.2126 3.4579 25.0891 0.0000 24.6967 0.0000
# 6 0.0000 0.0000 0.0000 -3.3405 0.0000 21.7720
#
#
#
# Elastic Compliance Matrix: (Units=1/GPa)
#
#
# Indices 1 2 3 4 5 6 
#
# 1 0.030309 -0.012714 0.001607 0.000000 -0.008704 0.000000
# 2 -0.012714 0.029321 -0.013580 0.000000 0.013403 0.000000
# 3 0.001607 -0.013580 0.021349 0.000000 -0.020256 0.000000
# 4 0.000000 0.000000 0.000000 0.023352 0.000000 0.003583
# 5 -0.008704 0.013403 -0.020256 0.000000 0.061734 0.000000
# 6 0.000000 0.000000 0.000000 0.003583 0.000000 0.046480
#
#
# Mechanical properties :
#
#
# Convention : Reuss Voigt Hill
#
# Bulk Modulus (GPa) = 31.63991 41.45806 36.54898
# Shear Modulus (GPa) = 18.35174 25.74560 22.04867
#
# Velocity S-wave (km/s) = 3.06088 3.62543 3.35505
# Velocity P-wave (km/s) = 5.35210 6.22016 5.80238
#
# Compressibility (1/GPa) = 0.03160565
#
# Stress axis : x y z
#
# Youngs Moduli (GPa) = 32.99376 34.10475 46.84137
#
# Poissons Ratio (x) = 0.43360 -0.07529
# Poissons Ratio (y) = 0.41947 0.63611
# Poissons Ratio (z) = -0.05303 0.46315
#
# Static dielectric constant tensor:
#      x y z
#    x 1.738430 0.000000 0.029170 
#    y 0.000000 1.656350 0.000000 
#    z 0.029170 0.000000 1.663290 
# 
# From -- ./inp_files/338733.got.cif
#   From: 2010.05.17/outbox.cif.g08.bks.cpg/sg12_170_cif.got.tgz:338733.got - 2010.06.03 13:09:07.
