data_PCOD9196388
_publ_section_title
;
Structure prediction by ZEFSAII (Michael W. Deem and Ramdas Pophale) SiO2 
 PCOD9196388
Probable space group: C 2/M
;
_chemical_formula_sum "Si O2"
_cell_formula_units_Z 48
_cell_length_a 12.890970
_cell_length_b 27.798321
_cell_length_c 15.299530
_cell_angle_alpha 90.000000
_cell_angle_beta 27.334257
_cell_angle_gamma 90.000000
_cell_volume 2517.479537
_symmetry_space_group_name_H-M "C 2/M"
_symmetry_group_IT_number 12
_symmetry_cell_setting 'monoclinic'
loop_
_space_group_symop_operation_xyz
x,y,z
-x,y,-z
-x,-y,-z
x,-y,z
1/2+x,1/2+y,z
1/2-x,1/2+y,-z
1/2-x,1/2-y,-z
1/2+x,1/2-y,z
loop_
_atom_site_type_symbol
_atom_site_label
_atom_site_fract_x
_atom_site_fract_y
_atom_site_fract_z
Si Si1 0.985084 0.552121 0.603506
Si Si2 0.982044 0.308307 0.776187
Si Si3 0.345498 0.392852 0.030879
Si Si4 0.999154 0.055105 0.263495
Si Si5 0.982301 0.143380 0.409601
Si Si6 0.790229 0.272657 0.103741
O O1 0.881577 0.500000 0.659182
O O2 0.836361 0.573140 0.789361
O O3 0.000000 0.579791 0.500000
O O4 0.232297 0.548867 0.455877
O O5 0.788079 0.346706 0.900831
O O6 0.915797 0.263607 0.763351
O O7 0.231043 0.332586 0.581053
O O8 0.918799 0.290002 0.920078
O O9 0.500000 0.381681 0.000000
O O10 0.439508 0.420417 0.875664
O O11 0.030368 0.095024 0.316586
O O12 0.094463 0.000000 0.202974
O O13 0.000000 0.133557 0.500000
O O14 0.172767 0.182273 0.239698
O O15 0.000000 0.250288 0.000000
#
# Coordination Sequence:
#
# PCOD9196388 Si02
#       6
#     8   8   8   8   8   8
#     4  10  20  35  56  85 124 167 209 254 314 383
#     4  11  24  41  65  97 133 166 209 266 320 387
#     4  12  22  37  63  96 131 173 209 262 326 390
#     4  11  24  40  61  93 130 172 224 274 317 375
#     4  12  24  44  70  92 127 176 221 265 327 378
#     4  11  23  44  68  96 128 166 213 263 323 391
#
# _framework density 19.066690000000001
#
# number of rings (size 3 to 8) (size 9 to 14) (size 15 to 20)
#    0.000    0.833    6.667    1.500    0.000    1.000 
#    0.000    0.833    0.000    1.500    0.000    0.000 
#    0.000    0.000    0.000    0.000    0.000    0.000 
#
# Total GULP energy -133607.729115 kJ/mol
# GULP energy per Si atom -5566.988713 kJ/mol
# Density = 1.902329 g / cm^3
# Si number density = 19.066690 Si / 1000 Ang^3
#
#
#
# Elastic Constant Matrix: (Units=GPa)
#
#
# Indices 1 2 3 4 5 6 
#
# 1 117.7851 39.5013 29.3073 0.0056 3.5066 -0.0125
# 2 39.5013 270.8510 114.9478 -0.1443 170.0041 0.2590
# 3 29.3073 114.9478 114.1353 -0.0783 86.0539 0.1422
# 4 0.0056 -0.1443 -0.0783 65.9751 -0.1363 -63.6138
# 5 3.5066 170.0041 86.0539 -0.1363 177.8389 0.2450
# 6 -0.0125 0.2590 0.1422 -63.6138 0.2450 142.5730
#
#
#
# Elastic Compliance Matrix: (Units=1/GPa)
#
#
# Indices 1 2 3 4 5 6 
#
# 1 0.009882 -0.002502 -0.002635 0.000000 0.003472 0.000002
# 2 -0.002502 0.011317 -0.004150 0.000001 -0.008761 -0.000001
# 3 -0.002635 -0.004150 0.016669 0.000001 -0.004047 -0.000002
# 4 0.000000 0.000001 0.000001 0.026602 0.000003 0.011869
# 5 0.003472 -0.008761 -0.004047 0.000003 0.015888 -0.000006
# 6 0.000002 -0.000001 -0.000002 0.011869 -0.000006 0.012310
#
#
# Mechanical properties :
#
#
# Convention : Reuss Voigt Hill
#
# Bulk Modulus (GPa) = 51.83130 96.69822 74.26476
# Shear Modulus (GPa) = 42.49076 98.54508 70.51792
#
# Velocity S-wave (km/s) = 4.72586 7.19699 6.08812
# Velocity P-wave (km/s) = 7.55126 10.94934 9.40504
#
# Compressibility (1/GPa) = 0.01929336
#
# Stress axis : x y z
#
# Youngs Moduli (GPa) = 101.19887 88.36021 59.99292
#
# Poissons Ratio (x) = 0.22109 0.15810
# Poissons Ratio (y) = 0.25321 0.24894
# Poissons Ratio (z) = 0.26670 0.36665
#
# Static dielectric constant tensor:
#      x y z
#    x 1.419250 0.000000 -0.090110 
#    y 0.000000 1.710660 0.000000 
#    z -0.090110 0.000000 1.617250 
# 
# From -- ./inp_files/209298.got.cif
#   From: 2010.05.17/outbox.cif.g08.bks.cpg/sg12_105_cif.got.tgz:209298.got - 2010.06.03 13:09:07.
