data_PCOD9196976
_publ_section_title
;
Structure prediction by ZEFSAII (Michael W. Deem and Ramdas Pophale) SiO2 
 PCOD9196976
Probable space group: C 2/M
;
_chemical_formula_sum "Si O2"
_cell_formula_units_Z 56
_cell_length_a 19.923426
_cell_length_b 7.499985
_cell_length_c 17.268330
_cell_angle_alpha 90.000000
_cell_angle_beta 120.722885
_cell_angle_gamma 90.000000
_cell_volume 2218.173718
_symmetry_space_group_name_H-M "C 2/M"
_symmetry_group_IT_number 12
_symmetry_cell_setting 'monoclinic'
loop_
_space_group_symop_operation_xyz
x,y,z
-x,y,-z
-x,-y,-z
x,-y,z
1/2+x,1/2+y,z
1/2-x,1/2+y,-z
1/2-x,1/2-y,-z
1/2+x,1/2-y,z
loop_
_atom_site_type_symbol
_atom_site_label
_atom_site_fract_x
_atom_site_fract_y
_atom_site_fract_z
Si Si1 0.316169 0.795499 0.926732
Si Si2 0.450004 0.702505 0.901698
Si Si3 0.293344 0.782351 0.360583
Si Si4 0.412139 0.214918 0.306331
Si Si5 0.382336 0.282540 0.707642
Si Si6 0.576488 0.207203 0.444017
Si Si7 0.850290 0.791341 0.111762
O O1 0.363356 0.696978 0.888116
O O2 0.231766 0.720225 0.901436
O O3 0.306896 0.000000 0.897041
O O4 0.364085 0.790845 0.036105
O O5 0.480739 0.500000 0.910093
O O6 0.439254 0.779966 0.810215
O O7 0.500000 0.789655 0.000000
O O8 0.334012 0.726514 0.304454
O O9 0.205602 0.723632 0.323727
O O10 0.353313 0.720350 0.462787
O O11 0.290745 0.000000 0.359870
O O12 0.488831 0.281993 0.396256
O O13 0.411372 0.269750 0.216542
O O14 0.414029 0.000000 0.308859
O O15 0.384802 0.500000 0.709343
O O16 0.402392 0.219545 0.633900
O O17 0.570318 0.000000 0.463708
O O18 0.839342 0.000000 0.090629
#
# Coordination Sequence:
#
# PCOD9196976 Si02
#       7
#     8   8   8   8   8   8   8
#     4  10  21  37  57  82 110 145 191 236 279 329
#     4  10  22  38  56  81 114 153 190 229 283 339
#     4   9  18  36  60  83 111 150 194 237 282 338
#     4  10  20  35  58  85 113 146 189 236 285 340
#     4  10  21  37  58  82 112 154 195 231 280 344
#     4  10  21  36  57  86 116 147 187 239 292 335
#     4  10  21  36  56  82 114 149 184 230 284 340
#
# _framework density 25.245995000000001
#
# number of rings (size 3 to 8) (size 9 to 14) (size 15 to 20)
#    0.000    2.143    0.000    2.571    2.000    6.000 
#    0.000    1.429    0.000    1.714    0.000    0.000 
#    0.000    0.000    0.000    0.000    0.000    0.000 
#
# Total GULP energy -156647.939285 kJ/mol
# GULP energy per Si atom -5594.569260 kJ/mol
# Density = 2.518853 g / cm^3
# Si number density = 25.245995 Si / 1000 Ang^3
#
#
#
# Elastic Constant Matrix: (Units=GPa)
#
#
# Indices 1 2 3 4 5 6 
#
# 1 82.0490 -7.2607 -4.9050 0.0000 -8.6634 0.0000
# 2 -7.2607 80.7152 -5.3252 0.0000 5.6662 0.0000
# 3 -4.9050 -5.3252 134.0408 0.0000 -7.2147 0.0000
# 4 0.0000 0.0000 0.0000 12.6446 0.0000 -6.1734
# 5 -8.6634 5.6662 -7.2147 0.0000 39.9745 0.0000
# 6 0.0000 0.0000 0.0000 -6.1734 0.0000 6.7762
#
#
#
# Elastic Compliance Matrix: (Units=1/GPa)
#
#
# Indices 1 2 3 4 5 6 
#
# 1 0.012600 0.000986 0.000646 0.000000 0.002707 0.000000
# 2 0.000986 0.012613 0.000457 0.000000 -0.001492 0.000000
# 3 0.000646 0.000457 0.007580 0.000000 0.001443 0.000000
# 4 0.000000 0.000000 0.000000 0.142444 0.000000 0.129773
# 5 0.002707 -0.001492 0.001443 0.000000 0.026075 0.000000
# 6 0.000000 0.000000 0.000000 0.129773 0.000000 0.265805
#
#
# Mechanical properties :
#
#
# Convention : Reuss Voigt Hill
#
# Bulk Modulus (GPa) = 27.04910 29.09146 28.07028
# Shear Modulus (GPa) = 10.52052 32.83211 21.67632
#
# Velocity S-wave (km/s) = 2.04359 3.61014 2.93337
# Velocity P-wave (km/s) = 4.03805 5.37826 4.75560
#
# Compressibility (1/GPa) = 0.03696981
#
# Stress axis : x y z
#
# Youngs Moduli (GPa) = 79.36776 79.28461 131.92804
#
# Poissons Ratio (x) = -0.07817 -0.08522
# Poissons Ratio (y) = -0.07825 -0.06027
# Poissons Ratio (z) = -0.05127 -0.03622
#
# Static dielectric constant tensor:
#      x y z
#    x 1.979040 0.000000 0.050340 
#    y 0.000000 1.954920 0.000000 
#    z 0.050340 0.000000 1.989770 
# 
# From -- ./inp_files/281623.got.cif
#   From: 2010.05.17/outbox.cif.g08.bks.cpg/sg12_141_cif.got.tgz:281623.got - 2010.06.03 13:09:07.
