data_PCOD9196817
_publ_section_title
;
Structure prediction by ZEFSAII (Michael W. Deem and Ramdas Pophale) SiO2 
 PCOD9196817
Probable space group: C 2/M
;
_chemical_formula_sum "Si O2"
_cell_formula_units_Z 48
_cell_length_a 22.518821
_cell_length_b 8.866994
_cell_length_c 18.905031
_cell_angle_alpha 90.000000
_cell_angle_beta 38.627261
_cell_angle_gamma 90.000000
_cell_volume 2356.453969
_symmetry_space_group_name_H-M "C 2/M"
_symmetry_group_IT_number 12
_symmetry_cell_setting 'monoclinic'
loop_
_space_group_symop_operation_xyz
x,y,z
-x,y,-z
-x,-y,-z
x,-y,z
1/2+x,1/2+y,z
1/2-x,1/2+y,-z
1/2-x,1/2-y,-z
1/2+x,1/2-y,z
loop_
_atom_site_type_symbol
_atom_site_label
_atom_site_fract_x
_atom_site_fract_y
_atom_site_fract_z
Si Si1 0.455360 0.681009 0.743518
Si Si2 0.087555 0.319574 0.368464
Si Si3 0.151192 0.675108 0.612648
Si Si4 0.434564 0.174482 0.155755
Si Si5 0.281873 0.179000 0.181343
Si Si6 0.876099 0.821620 0.965796
O O1 0.453750 0.500000 0.740580
O O2 0.426589 0.753064 0.696466
O O3 0.561374 0.737869 0.663401
O O4 0.388648 0.726032 0.872327
O O5 0.089620 0.500000 0.363651
O O6 0.189058 0.257878 0.299433
O O7 0.000000 0.273064 0.500000
O O8 0.148258 0.500000 0.592994
O O9 0.250000 0.750000 0.500000
O O10 0.135481 0.679055 0.711748
O O11 0.522121 0.281001 0.093444
O O12 0.469371 0.000000 0.116999
O O13 0.625524 0.214153 0.857397
O O14 0.268835 0.000000 0.194174
O O15 0.300407 0.235785 0.084517
O O16 0.858674 0.000000 0.984919
#
# Coordination Sequence:
#
# PCOD9196817 Si02
#       6
#     8   8   8   8   8   8
#     4  10  22  41  63  87 118 158 201 247 301 359
#     4  11  26  45  63  88 119 156 201 253 304 355
#     4  10  20  35  57  87 120 158 201 248 300 355
#     4   9  20  37  57  87 124 159 198 243 296 358
#     4  11  23  39  62  90 121 164 204 242 296 360
#     4  10  21  38  62  93 124 156 197 249 302 352
#
# _framework density 20.369589000000001
#
# number of rings (size 3 to 8) (size 9 to 14) (size 15 to 20)
#    0.000    1.833    0.000    3.000    2.333    8.000 
#    0.000    0.000    0.000    0.000    0.000    0.000 
#    0.000    0.000    0.000    0.000    0.000    0.000 
#
# Total GULP energy -134169.961702 kJ/mol
# GULP energy per Si atom -5590.415071 kJ/mol
# Density = 2.032323 g / cm^3
# Si number density = 20.369589 Si / 1000 Ang^3
#
#
#
# Elastic Constant Matrix: (Units=GPa)
#
#
# Indices 1 2 3 4 5 6 
#
# 1 69.1857 16.6335 6.4911 -0.0003 17.6540 0.0002
# 2 16.6335 49.6609 28.1866 -0.0007 12.6094 0.0006
# 3 6.4911 28.1866 92.7396 -0.0003 9.2751 0.0004
# 4 -0.0003 -0.0007 -0.0003 27.4755 0.0002 -8.3242
# 5 17.6540 12.6094 9.2751 0.0002 16.8620 -0.0002
# 6 0.0002 0.0006 0.0004 -8.3242 -0.0002 25.5796
#
#
#
# Elastic Compliance Matrix: (Units=1/GPa)
#
#
# Indices 1 2 3 4 5 6 
#
# 1 0.019969 -0.002398 0.001315 0.000000 -0.019837 0.000000
# 2 -0.002398 0.028795 -0.007070 0.000001 -0.015133 -0.000001
# 3 0.001315 -0.007070 0.013173 0.000000 -0.003336 0.000000
# 4 0.000000 0.000001 0.000000 0.040377 -0.000001 0.013140
# 5 -0.019837 -0.015133 -0.003336 -0.000001 0.093225 0.000001
# 6 0.000000 -0.000001 0.000000 0.013140 0.000001 0.043370
#
#
# Mechanical properties :
#
#
# Convention : Reuss Voigt Hill
#
# Bulk Modulus (GPa) = 21.91511 34.91208 28.41359
# Shear Modulus (GPa) = 18.48935 24.66843 21.57889
#
# Velocity S-wave (km/s) = 3.01606 3.48378 3.25832
# Velocity P-wave (km/s) = 4.78654 5.77571 5.30423
#
# Compressibility (1/GPa) = 0.04563062
#
# Stress axis : x y z
#
# Youngs Moduli (GPa) = 50.07833 34.72788 75.91061
#
# Poissons Ratio (x) = 0.08328 -0.09983
# Poissons Ratio (y) = 0.12009 0.53672
# Poissons Ratio (z) = -0.06586 0.24554
#
# Static dielectric constant tensor:
#      x y z
#    x 1.729090 0.000000 0.001180 
#    y 0.000000 1.680370 0.000000 
#    z 0.001180 0.000000 1.728140 
# 
# From -- ./inp_files/351044.got.cif
#   From: 2010.05.17/outbox.cif.g08.bks.cpg/sg12_176_cif.got.tgz:351044.got - 2010.06.03 13:09:07.
