data_PCOD9196201
_publ_section_title
;
Structure prediction by ZEFSAII (Michael W. Deem and Ramdas Pophale) SiO2 
 PCOD9196201
Probable space group: C 2/M
;
_chemical_formula_sum "Si O2"
_cell_formula_units_Z 48
_cell_length_a 25.189235
_cell_length_b 9.051371
_cell_length_c 11.971289
_cell_angle_alpha 90.000000
_cell_angle_beta 90.629688
_cell_angle_gamma 90.000000
_cell_volume 2729.254477
_symmetry_space_group_name_H-M "C 2/M"
_symmetry_group_IT_number 12
_symmetry_cell_setting 'monoclinic'
loop_
_space_group_symop_operation_xyz
x,y,z
-x,y,-z
-x,-y,-z
x,-y,z
1/2+x,1/2+y,z
1/2-x,1/2+y,-z
1/2-x,1/2-y,-z
1/2+x,1/2-y,z
loop_
_atom_site_type_symbol
_atom_site_label
_atom_site_fract_x
_atom_site_fract_y
_atom_site_fract_z
Si Si1 0.487752 0.175418 0.370818
Si Si2 0.192915 0.325006 0.631726
Si Si3 0.937488 0.323200 0.009789
Si Si4 0.817302 0.174731 0.604266
Si Si5 0.596830 0.175301 0.240003
Si Si6 0.894778 0.824209 0.231830
O O1 0.500000 0.209415 0.500000
O O2 0.540446 0.202428 0.299129
O O3 0.439433 0.267122 0.319542
O O4 0.475096 0.000000 0.362492
O O5 0.182865 0.500000 0.635194
O O6 0.174453 0.260560 0.511858
O O7 0.256200 0.299844 0.638923
O O8 0.160467 0.243964 0.727276
O O9 0.934242 0.500000 0.030302
O O10 0.911652 0.238195 0.111882
O O11 0.909948 0.290650 0.890832
O O12 0.000000 0.287097 0.000000
O O13 0.857903 0.233722 0.696983
O O14 0.824181 0.000000 0.585632
O O15 0.607878 0.000000 0.251678
O O16 0.892613 0.000000 0.230983
#
# Coordination Sequence:
#
# PCOD9196201 Si02
#       6
#     8   8   8   8   8   8
#     4  10  20  35  56  82 113 150 188 227 279 347
#     4  10  21  39  61  83 114 156 193 227 280 348
#     4  10  20  39  61  80 110 155 200 231 273 345
#     4  10  21  37  60  89 118 147 185 238 289 334
#     4  10  20  35  58  85 113 152 193 230 278 342
#     4  12  24  36  56  86 116 146 188 243 292 329
#
# _framework density 17.587219000000001
#
# number of rings (size 3 to 8) (size 9 to 14) (size 15 to 20)
#    0.000    1.667    1.667    3.500    0.000    5.333 
#    0.000    0.833    0.000    0.000    0.000    0.000 
#    0.000    0.000    0.000    0.000    0.000    0.000 
#
# Total GULP energy -134126.550998 kJ/mol
# GULP energy per Si atom -5588.606292 kJ/mol
# Density = 1.754719 g / cm^3
# Si number density = 17.587219 Si / 1000 Ang^3
#
#
#
# Elastic Constant Matrix: (Units=GPa)
#
#
# Indices 1 2 3 4 5 6 
#
# 1 50.4023 42.2352 27.6272 0.0000 -13.3151 0.0000
# 2 42.2352 70.9648 43.2863 0.0000 -17.5578 0.0000
# 3 27.6272 43.2863 76.7702 0.0000 -28.6367 0.0000
# 4 0.0000 0.0000 0.0000 26.0879 0.0000 3.6039
# 5 -13.3151 -17.5578 -28.6367 0.0000 29.8090 0.0000
# 6 0.0000 0.0000 0.0000 3.6039 0.0000 28.4873
#
#
#
# Elastic Compliance Matrix: (Units=1/GPa)
#
#
# Indices 1 2 3 4 5 6 
#
# 1 0.040092 -0.022815 0.000162 0.000000 0.004625 0.000000
# 2 -0.022815 0.034510 -0.011637 0.000000 -0.001044 0.000000
# 3 0.000162 -0.011637 0.026493 0.000000 0.018669 0.000000
# 4 0.000000 0.000000 0.000000 0.039014 0.000000 -0.004936
# 5 0.004625 -0.001044 0.018669 0.000000 0.052933 0.000000
# 6 0.000000 0.000000 0.000000 -0.004936 0.000000 0.035728
#
#
# Mechanical properties :
#
#
# Convention : Reuss Voigt Hill
#
# Bulk Modulus (GPa) = 30.75621 47.15942 38.95782
# Shear Modulus (GPa) = 16.22379 22.54275 19.38327
#
# Velocity S-wave (km/s) = 3.04052 3.58406 3.32342
# Velocity P-wave (km/s) = 5.46371 6.63326 6.07669
#
# Compressibility (1/GPa) = 0.03251376
#
# Stress axis : x y z
#
# Youngs Moduli (GPa) = 24.94267 28.97688 37.74555
#
# Poissons Ratio (x) = 0.66112 -0.00610
# Poissons Ratio (y) = 0.56907 0.43925
# Poissons Ratio (z) = -0.00403 0.33721
#
# Static dielectric constant tensor:
#      x y z
#    x 1.584470 0.000000 -0.005910 
#    y 0.000000 1.583450 0.000000 
#    z -0.005910 0.000000 1.575980 
# 
# From -- ./inp_files/172279.got.cif
#   From: 2010.05.17/outbox.cif.g08.bks.cpg/sg12_87_cif.got.tgz:172279.got - 2010.06.03 13:09:07.
