data_PCOD9196670
_publ_section_title
;
Structure prediction by ZEFSAII (Michael W. Deem and Ramdas Pophale) SiO2 
 PCOD9196670
Probable space group: C 2/M
;
_chemical_formula_sum "Si O2"
_cell_formula_units_Z 40
_cell_length_a 8.222034
_cell_length_b 23.278272
_cell_length_c 9.559818
_cell_angle_alpha 90.000000
_cell_angle_beta 88.354027
_cell_angle_gamma 90.000000
_cell_volume 1828.943964
_symmetry_space_group_name_H-M "C 2/M"
_symmetry_group_IT_number 12
_symmetry_cell_setting 'monoclinic'
loop_
_space_group_symop_operation_xyz
x,y,z
-x,y,-z
-x,-y,-z
x,-y,z
1/2+x,1/2+y,z
1/2-x,1/2+y,-z
1/2-x,1/2-y,-z
1/2+x,1/2-y,z
loop_
_atom_site_type_symbol
_atom_site_label
_atom_site_fract_x
_atom_site_fract_y
_atom_site_fract_z
Si Si1 0.083267 0.402268 0.359368
Si Si2 0.837004 0.802565 0.422667
Si Si3 0.978750 0.819323 0.847715
Si Si4 0.317168 0.435412 0.118654
Si Si5 0.864586 0.638317 0.110454
O O1 0.197371 0.349866 0.407965
O O2 0.203260 0.437748 0.257881
O O3 0.000000 0.427433 0.500000
O O4 0.949930 0.382184 0.249684
O O5 0.750000 0.750000 0.500000
O O6 0.000000 0.823172 0.500000
O O7 0.915459 0.787761 0.270462
O O8 0.786452 0.823544 0.835268
O O9 0.052529 0.884813 0.852464
O O10 0.000000 0.794114 0.000000
O O11 0.375635 0.500000 0.095300
O O12 0.214946 0.411704 0.987174
O O13 0.000000 0.663386 0.000000
#
# Coordination Sequence:
#
# PCOD9196670 Si02
#       5
#     8   8   8   8   8
#     4  10  20  35  57  84 118 157 197 246 296 351
#     4  11  23  40  63  88 115 152 199 249 310 371
#     4   9  19  37  61  87 120 159 197 246 298 355
#     4   9  19  35  57  89 125 162 200 238 292 356
#     4   9  18  33  57  86 116 157 197 241 294 347
#
# _framework density 21.870543000000001
#
# number of rings (size 3 to 8) (size 9 to 14) (size 15 to 20)
#    0.000    2.400    0.000    3.000    0.000    7.600 
#    0.000    1.000    0.000   27.600    0.000    0.000 
#    0.000    0.000    0.000    0.000    0.000    0.000 
#
# Total GULP energy -111570.309630 kJ/mol
# GULP energy per Si atom -5578.515481 kJ/mol
# Density = 2.182076 g / cm^3
# Si number density = 21.870543 Si / 1000 Ang^3
#
#
#
# Elastic Constant Matrix: (Units=GPa)
#
#
# Indices 1 2 3 4 5 6 
#
# 1 126.8377 35.9344 71.6803 0.0000 -23.2686 0.0000
# 2 35.9344 95.2608 44.9840 0.0000 -1.4986 0.0000
# 3 71.6803 44.9840 163.3628 0.0000 -36.6020 0.0000
# 4 0.0000 0.0000 0.0000 7.1666 0.0000 4.3091
# 5 -23.2686 -1.4986 -36.6020 0.0000 57.3156 0.0000
# 6 0.0000 0.0000 0.0000 4.3091 0.0000 -9.1953
#
#
#
# Elastic Compliance Matrix: (Units=1/GPa)
#
#
# Indices 1 2 3 4 5 6 
#
# 1 0.011040 -0.002368 -0.003736 0.000000 0.002034 0.000000
# 2 -0.002368 0.012797 -0.003063 0.000000 -0.002583 0.000000
# 3 -0.003736 -0.003063 0.009623 0.000000 0.004549 0.000000
# 4 0.000000 0.000000 0.000000 0.108862 0.000000 0.051014
# 5 0.002034 -0.002583 0.004549 0.000000 0.021110 0.000000
# 6 0.000000 0.000000 0.000000 0.051014 0.000000 -0.084845
#
#
# Mechanical properties :
#
#
# Convention : Reuss Voigt Hill
#
# Bulk Modulus (GPa) = 66.11839 76.73982 71.42911
# Shear Modulus (GPa) = 49.03699 26.58156 37.80927
#
# Velocity S-wave (km/s) = 4.74027 3.49005 4.16237
# Velocity P-wave (km/s) = 7.76257 7.16973 7.47203
#
# Compressibility (1/GPa) = 0.01512438
#
# Stress axis : x y z
#
# Youngs Moduli (GPa) = 90.58347 78.14470 103.91350
#
# Poissons Ratio (x) = 0.18505 0.38824
# Poissons Ratio (y) = 0.21451 0.31833
# Poissons Ratio (z) = 0.33843 0.23939
#
# Static dielectric constant tensor:
#      x y z
#    x 1.641600 0.000000 -0.094010 
#    y 0.000000 1.802920 0.000000 
#    z -0.094010 0.000000 1.779360 
# 
# From -- ./inp_files/39316.got.cif
#   From: 2010.05.17/outbox.cif.g08.bks.cpg/sg12_20_cif.got.tgz:39316.got - 2010.06.03 13:09:07.
