data_PCOD9196216
_publ_section_title
;
Structure prediction by ZEFSAII (Michael W. Deem and Ramdas Pophale) SiO2 
 PCOD9196216
Probable space group: C 2/M
;
_chemical_formula_sum "Si O2"
_cell_formula_units_Z 44
_cell_length_a 14.116944
_cell_length_b 21.535779
_cell_length_c 7.199416
_cell_angle_alpha 90.000000
_cell_angle_beta 66.179677
_cell_angle_gamma 90.000000
_cell_volume 2002.315560
_symmetry_space_group_name_H-M "C 2/M"
_symmetry_group_IT_number 12
_symmetry_cell_setting 'monoclinic'
loop_
_space_group_symop_operation_xyz
x,y,z
-x,y,-z
-x,-y,-z
x,-y,z
1/2+x,1/2+y,z
1/2-x,1/2+y,-z
1/2-x,1/2-y,-z
1/2+x,1/2-y,z
loop_
_atom_site_type_symbol
_atom_site_label
_atom_site_fract_x
_atom_site_fract_y
_atom_site_fract_z
Si Si1 0.095888 0.931516 0.296352
Si Si2 0.000000 0.902264 0.000000
Si Si3 0.214790 0.355891 0.010406
Si Si4 0.364905 0.822768 0.311109
Si Si5 0.178161 0.814392 0.713635
Si Si6 0.521388 0.069828 0.204868
O O1 0.000000 0.909552 0.500000
O O2 0.129357 0.000000 0.340238
O O3 0.190234 0.885358 0.180739
O O4 0.050465 0.938248 0.126870
O O5 0.086898 0.859917 0.837254
O O6 0.255339 0.312259 0.144912
O O7 0.140202 0.410403 0.147481
O O8 0.144692 0.325967 0.904997
O O9 0.258485 0.839657 0.499116
O O10 0.371125 0.748555 0.331454
O O11 0.449590 0.871479 0.317826
O O12 0.498558 0.000000 0.293303
O O13 0.500000 0.065937 0.000000
#
# Coordination Sequence:
#
# PCOD9196216 Si02
#       6
#     8   4   8   8   8   8
#     4  10  20  35  56  82 115 152 190 234 283 340
#     4  10  21  36  56  80 111 146 192 234 288 330
#     4  10  20  36  59  85 115 148 194 233 291 340
#     4  10  21  39  57  83 116 149 191 235 289 344
#     4  10  22  37  58  83 114 150 192 238 283 345
#     4   9  19  36  61  88 118 154 192 239 296 352
#
# _framework density 21.974557000000001
#
# number of rings (size 3 to 8) (size 9 to 14) (size 15 to 20)
#    0.000    2.182    0.000    2.455    3.818    1.455 
#    0.000    6.364    0.000    0.000    0.000    0.000 
#    0.000    0.000    0.000    0.000    0.000    0.000 
#
# Total GULP energy -122537.048173 kJ/mol
# GULP energy per Si atom -5569.865826 kJ/mol
# Density = 2.192454 g / cm^3
# Si number density = 21.974557 Si / 1000 Ang^3
#
#
#
# Elastic Constant Matrix: (Units=GPa)
#
#
# Indices 1 2 3 4 5 6 
#
# 1 45.1741 34.3237 19.1975 0.0000 -7.1834 0.0000
# 2 34.3237 78.1069 47.4397 0.0000 -29.4007 0.0000
# 3 19.1975 47.4397 98.8823 0.0000 -13.7522 0.0000
# 4 0.0000 0.0000 0.0000 6.9769 0.0000 -4.9507
# 5 -7.1834 -29.4007 -13.7522 0.0000 38.0601 0.0000
# 6 0.0000 0.0000 0.0000 -4.9507 0.0000 1.9952
#
#
#
# Elastic Compliance Matrix: (Units=1/GPa)
#
#
# Indices 1 2 3 4 5 6 
#
# 1 0.034746 -0.018887 0.001262 0.000000 -0.007576 0.000000
# 2 -0.018887 0.034679 -0.010256 0.000000 0.019518 0.000000
# 3 0.001262 -0.010256 0.014446 0.000000 -0.002465 0.000000
# 4 0.000000 0.000000 0.000000 -0.188408 0.000000 -0.467507
# 5 -0.007576 0.019518 -0.002465 0.000000 0.039031 0.000000
# 6 0.000000 0.000000 0.000000 -0.467507 0.000000 -0.658842
#
#
# Mechanical properties :
#
#
# Convention : Reuss Voigt Hill
#
# Bulk Modulus (GPa) = 35.57709 47.12055 41.34882
# Shear Modulus (GPa) = -7.58478 17.48658 4.95090
#
# Velocity S-wave (km/s) = -1.85987 2.82399 1.50263
# Velocity P-wave (km/s) = 3.40780 5.66772 4.67633
#
# Compressibility (1/GPa) = 0.02810797
#
# Stress axis : x y z
#
# Youngs Moduli (GPa) = 28.78000 28.83568 69.22440
#
# Poissons Ratio (x) = 0.54463 -0.08735
# Poissons Ratio (y) = 0.54358 0.70998
# Poissons Ratio (z) = -0.03632 0.29575
#
# Static dielectric constant tensor:
#      x y z
#    x 1.824690 0.000000 0.010650 
#    y 0.000000 2.120780 0.000000 
#    z 0.010650 0.000000 1.850610 
# 
# From -- ./inp_files/63268.got.cif
#   From: 2010.05.17/outbox.cif.g08.bks.cpg/sg12_32_cif.got.tgz:63268.got - 2010.06.03 13:09:07.
