data_PCOD9196864
_publ_section_title
;
Structure prediction by ZEFSAII (Michael W. Deem and Ramdas Pophale) SiO2 
 PCOD9196864
Probable space group: C 2/M
;
_chemical_formula_sum "Si O2"
_cell_formula_units_Z 58
_cell_length_a 25.687571
_cell_length_b 19.426197
_cell_length_c 14.732435
_cell_angle_alpha 90.000000
_cell_angle_beta 157.072086
_cell_angle_gamma 90.000000
_cell_volume 2864.005675
_symmetry_space_group_name_H-M "C 2/M"
_symmetry_group_IT_number 12
_symmetry_cell_setting 'monoclinic'
loop_
_space_group_symop_operation_xyz
x,y,z
-x,y,-z
-x,-y,-z
x,-y,z
1/2+x,1/2+y,z
1/2-x,1/2+y,-z
1/2-x,1/2-y,-z
1/2+x,1/2-y,z
loop_
_atom_site_type_symbol
_atom_site_label
_atom_site_fract_x
_atom_site_fract_y
_atom_site_fract_z
Si Si1 0.644992 0.579547 0.269770
Si Si2 0.108130 0.319231 0.094656
Si Si3 0.260534 0.075339 0.977926
Si Si4 0.260890 0.820083 0.324918
Si Si5 0.344876 0.420150 0.496064
Si Si6 0.559338 0.803746 0.809090
Si Si7 0.624939 0.650351 0.919600
Si Si8 0.000000 0.000000 0.500000
O O1 0.661473 0.500000 0.269140
O O2 0.753072 0.626547 0.394673
O O3 0.650941 0.583099 0.387548
O O4 0.500000 0.602779 0.000000
O O5 0.199235 0.252031 0.259224
O O6 0.208536 0.383567 0.248294
O O7 0.043888 0.305148 0.893546
O O8 0.000000 0.328410 0.000000
O O9 0.348804 0.132848 0.071857
O O10 0.328275 0.000000 0.091818
O O11 0.221229 0.104111 0.013490
O O12 0.118867 0.058988 0.702168
O O13 0.410805 0.809298 0.531465
O O14 0.172570 0.849022 0.100301
O O15 0.352634 0.500000 0.479259
O O16 0.476005 0.380455 0.673166
O O17 0.622462 0.730057 0.885689
#
# Coordination Sequence:
#
# PCOD9196864 Si02
#       8
#     8   8   8   8   8   8   8   2
#     4  10  20  35  57  90 128 170 218 268 324 387
#     4  11  25  41  65  97 132 178 224 275 331 398
#     4  10  24  44  69  97 126 174 217 270 329 389
#     4  11  23  40  65  94 135 175 215 273 333 397
#     4  11  23  39  65  94 130 175 229 279 324 392
#     4  11  25  42  64 100 134 172 219 275 334 391
#     4  11  23  41  65  99 128 174 224 271 329 398
#     4   8  24  44  76  94 126 182 220 276 324 388
#
# _framework density 20.251356000000001
#
# number of rings (size 3 to 8) (size 9 to 14) (size 15 to 20)
#    0.414    0.966    2.759    2.069    3.862    3.586 
#    0.000    0.690    0.000    0.000    0.000    0.000 
#    0.000    0.000    0.000    0.000    0.000    0.000 
#
# Total GULP energy -161769.950315 kJ/mol
# GULP energy per Si atom -5578.274149 kJ/mol
# Density = 2.020526 g / cm^3
# Si number density = 20.251356 Si / 1000 Ang^3
#
#
#
# Elastic Constant Matrix: (Units=GPa)
#
#
# Indices 1 2 3 4 5 6 
#
# 1 56.0339 40.0049 -2.5591 0.0000 13.0674 0.0000
# 2 40.0049 123.7666 18.5275 0.0000 13.9658 0.0000
# 3 -2.5591 18.5275 58.4962 0.0000 10.0337 0.0000
# 4 0.0000 0.0000 0.0000 31.7004 0.0000 9.1392
# 5 13.0674 13.9658 10.0337 0.0000 20.5974 0.0000
# 6 0.0000 0.0000 0.0000 9.1392 0.0000 36.9538
#
#
#
# Elastic Compliance Matrix: (Units=1/GPa)
#
#
# Indices 1 2 3 4 5 6 
#
# 1 0.027432 -0.008126 0.006344 0.000000 -0.014984 0.000000
# 2 -0.008126 0.011357 -0.003836 0.000000 -0.000676 0.000000
# 3 0.006344 -0.003836 0.020549 0.000000 -0.011433 0.000000
# 4 0.000000 0.000000 0.000000 0.033967 0.000000 -0.008401
# 5 -0.014984 -0.000676 -0.011433 0.000000 0.064084 0.000000
# 6 0.000000 0.000000 0.000000 -0.008401 0.000000 0.029138
#
#
# Mechanical properties :
#
#
# Convention : Reuss Voigt Hill
#
# Bulk Modulus (GPa) = 20.78962 38.91590 29.85276
# Shear Modulus (GPa) = 23.38666 30.00521 26.69594
#
# Velocity S-wave (km/s) = 3.40195 3.85338 3.63468
# Velocity P-wave (km/s) = 5.07140 6.24950 5.69102
#
# Compressibility (1/GPa) = 0.04810093
#
# Stress axis : x y z
#
# Youngs Moduli (GPa) = 36.45436 88.05326 48.66435
#
# Poissons Ratio (x) = 0.71548 -0.30872
# Poissons Ratio (y) = 0.29621 0.18670
# Poissons Ratio (z) = -0.23126 0.33781
#
# Static dielectric constant tensor:
#      x y z
#    x 1.715860 0.000000 -0.012080 
#    y 0.000000 1.705680 0.000000 
#    z -0.012080 0.000000 1.725610 
# 
# From -- ./inp_files/247310.got.cif
#   From: 2010.05.17/outbox.cif.g08.bks.cpg/sg12_124_cif.got.tgz:247310.got - 2010.06.03 13:09:07.
