data_PCOD9196609
_publ_section_title
;
Structure prediction by ZEFSAII (Michael W. Deem and Ramdas Pophale) SiO2 
 PCOD9196609
Probable space group: C 2/M
;
_chemical_formula_sum "Si O2"
_cell_formula_units_Z 48
_cell_length_a 33.737014
_cell_length_b 8.817590
_cell_length_c 15.116315
_cell_angle_alpha 90.000000
_cell_angle_beta 37.753495
_cell_angle_gamma 90.000000
_cell_volume 2753.228596
_symmetry_space_group_name_H-M "C 2/M"
_symmetry_group_IT_number 12
_symmetry_cell_setting 'monoclinic'
loop_
_space_group_symop_operation_xyz
x,y,z
-x,y,-z
-x,-y,-z
x,-y,z
1/2+x,1/2+y,z
1/2-x,1/2+y,-z
1/2-x,1/2-y,-z
1/2+x,1/2-y,z
loop_
_atom_site_type_symbol
_atom_site_label
_atom_site_fract_x
_atom_site_fract_y
_atom_site_fract_z
Si Si1 0.233215 0.680388 0.306311
Si Si2 0.196122 0.319723 0.660405
Si Si3 0.405496 0.318826 0.417529
Si Si4 0.204499 0.318499 0.155543
Si Si5 0.935224 0.817409 0.563760
Si Si6 0.561427 0.682382 0.834268
O O1 0.240424 0.500000 0.303574
O O2 0.285585 0.764476 0.273589
O O3 0.162558 0.731740 0.465193
O O4 0.233027 0.719002 0.202621
O O5 0.198987 0.500000 0.649614
O O6 0.250000 0.250000 0.500000
O O7 0.126525 0.259024 0.754133
O O8 0.391867 0.500000 0.441827
O O9 0.438465 0.282058 0.453085
O O10 0.444932 0.284469 0.259155
O O11 0.202236 0.500000 0.151953
O O12 0.131350 0.254180 0.282992
O O13 0.250000 0.250000 0.000000
O O14 0.000000 0.767480 0.500000
O O15 0.930252 0.000000 0.581505
O O16 0.568292 0.500000 0.831126
O O17 0.500000 0.730726 0.000000
#
# Coordination Sequence:
#
# PCOD9196609 Si02
#       6
#     8   8   8   8   8   8
#     4  10  20  35  57  84 109 143 187 231 275 326
#     4  12  23  36  58  84 112 145 186 232 274 328
#     4   9  17  32  55  78 105 146 185 223 273 327
#     4  10  21  37  58  83 114 147 182 228 280 329
#     4   9  18  34  56  81 109 143 186 228 272 331
#     4  10  21  37  55  79 113 149 184 225 275 329
#
# _framework density 17.434076999999998
#
# number of rings (size 3 to 8) (size 9 to 14) (size 15 to 20)
#    0.000    2.000    1.667    2.500    0.000    2.667 
#    3.000    0.000    0.000    0.000    0.000    0.000 
#    0.000    0.000    0.000    0.000    0.000    0.000 
#
# Total GULP energy -133952.312884 kJ/mol
# GULP energy per Si atom -5581.346370 kJ/mol
# Density = 1.739440 g / cm^3
# Si number density = 17.434077 Si / 1000 Ang^3
#
#
#
# Elastic Constant Matrix: (Units=GPa)
#
#
# Indices 1 2 3 4 5 6 
#
# 1 141.2522 51.6647 90.0292 0.0000 -5.5423 0.0000
# 2 51.6647 45.5899 55.3238 -0.0001 1.7627 0.0000
# 3 90.0292 55.3238 158.1299 0.0000 12.4918 0.0000
# 4 0.0000 -0.0001 0.0000 24.4265 0.0000 -4.4127
# 5 -5.5423 1.7627 12.4918 0.0000 25.2465 0.0000
# 6 0.0000 0.0000 0.0000 -4.4127 0.0000 26.4437
#
#
#
# Elastic Compliance Matrix: (Units=1/GPa)
#
#
# Indices 1 2 3 4 5 6 
#
# 1 0.014333 -0.010386 -0.005029 0.000000 0.006360 0.000000
# 2 -0.010386 0.046056 -0.010163 0.000000 -0.000467 0.000000
# 3 -0.005029 -0.010163 0.013294 0.000000 -0.006972 0.000000
# 4 0.000000 0.000000 0.000000 0.042212 0.000000 0.007044
# 5 0.006360 -0.000467 -0.006972 0.000000 0.044488 0.000000
# 6 0.000000 0.000000 0.000000 0.007044 0.000000 0.038992
#
#
# Mechanical properties :
#
#
# Convention : Reuss Voigt Hill
#
# Bulk Modulus (GPa) = 44.39326 82.11192 63.25259
# Shear Modulus (GPa) = 19.37683 25.08695 22.23189
#
# Velocity S-wave (km/s) = 3.33743 3.79748 3.57486
# Velocity P-wave (km/s) = 6.35374 8.15037 7.30748
#
# Compressibility (1/GPa) = 0.02252594
#
# Stress axis : x y z
#
# Youngs Moduli (GPa) = 69.76695 21.71275 75.22360
#
# Poissons Ratio (x) = 0.22551 0.37832
# Poissons Ratio (y) = 0.72462 0.76450
# Poissons Ratio (z) = 0.35087 0.22067
#
# Static dielectric constant tensor:
#      x y z
#    x 1.602070 0.000000 0.027660 
#    y 0.000000 1.583480 0.000000 
#    z 0.027660 0.000000 1.564450 
# 
# From -- ./inp_files/221695.got.cif
#   From: 2010.05.17/outbox.cif.g08.bks.cpg/sg12_111_cif.got.tgz:221695.got - 2010.06.03 13:09:07.
