data_PCOD9196596
_publ_section_title
;
Structure prediction by ZEFSAII (Michael W. Deem and Ramdas Pophale) SiO2 
 PCOD9196596
Probable space group: C 2/M
;
_chemical_formula_sum "Si O2"
_cell_formula_units_Z 56
_cell_length_a 30.415969
_cell_length_b 8.743875
_cell_length_c 22.334835
_cell_angle_alpha 90.000000
_cell_angle_beta 146.545980
_cell_angle_gamma 90.000000
_cell_volume 3274.543949
_symmetry_space_group_name_H-M "C 2/M"
_symmetry_group_IT_number 12
_symmetry_cell_setting 'monoclinic'
loop_
_space_group_symop_operation_xyz
x,y,z
-x,y,-z
-x,-y,-z
x,-y,z
1/2+x,1/2+y,z
1/2-x,1/2+y,-z
1/2-x,1/2-y,-z
1/2+x,1/2-y,z
loop_
_atom_site_type_symbol
_atom_site_label
_atom_site_fract_x
_atom_site_fract_y
_atom_site_fract_z
Si Si1 0.324101 0.818038 0.245018
Si Si2 0.258287 0.817569 0.413435
Si Si3 0.009647 0.682053 0.634408
Si Si4 0.961850 0.182576 0.201166
Si Si5 0.289952 0.182897 0.985243
Si Si6 0.844739 0.817366 0.398841
Si Si7 0.876687 0.317634 0.659038
O O1 0.412449 0.794382 0.317839
O O2 0.261537 0.740411 0.129240
O O3 0.321195 0.747726 0.307569
O O4 0.310025 0.000000 0.231075
O O5 0.284763 0.740392 0.382059
O O6 0.177749 0.749528 0.350003
O O7 0.327357 0.787485 0.541504
O O8 0.251851 0.000000 0.399156
O O9 0.997963 0.500000 0.629669
O O10 0.024681 0.758334 0.715748
O O11 0.931513 0.751822 0.515252
O O12 0.037932 0.239077 0.250108
O O13 0.956500 0.000000 0.194858
O O14 0.879883 0.255300 0.084905
O O15 0.289647 0.000000 0.988340
O O16 0.250000 0.250000 0.000000
O O17 0.847369 0.000000 0.400836
O O18 0.884865 0.500000 0.674359
#
# Coordination Sequence:
#
# PCOD9196596 Si02
#       7
#     8   8   8   8   8   8   8
#     4  11  24  41  60  82 115 156 200 242 289 344
#     4  10  20  35  57  83 117 153 191 236 290 346
#     4  11  22  37  57  83 117 156 195 238 290 344
#     4  12  23  36  59  87 119 154 193 238 290 344
#     4  12  24  40  61  85 115 152 197 244 290 338
#     4  12  24  37  57  85 120 157 196 238 289 349
#     4  10  20  35  57  85 118 151 190 237 292 344
#
# _framework density 17.101617999999998
#
# number of rings (size 3 to 8) (size 9 to 14) (size 15 to 20)
#    0.000    0.857    2.857    6.000    0.000    4.571 
#    0.000    0.000    0.000    0.857    0.000    6.000 
#    0.000    0.000    0.000    0.000    0.000    0.000 
#
# Total GULP energy -156633.144711 kJ/mol
# GULP energy per Si atom -5594.040883 kJ/mol
# Density = 1.706269 g / cm^3
# Si number density = 17.101618 Si / 1000 Ang^3
#
#
#
# Elastic Constant Matrix: (Units=GPa)
#
#
# Indices 1 2 3 4 5 6 
#
# 1 139.5540 101.3239 100.6345 0.0000 10.0792 0.0000
# 2 101.3239 155.2375 78.9171 0.0000 6.0948 0.0000
# 3 100.6345 78.9171 120.7201 0.0000 -5.5727 0.0000
# 4 0.0000 0.0000 0.0000 31.3474 0.0000 0.6001
# 5 10.0792 6.0948 -5.5727 0.0000 26.6468 0.0000
# 6 0.0000 0.0000 0.0000 0.6001 0.0000 32.3102
#
#
#
# Elastic Compliance Matrix: (Units=1/GPa)
#
#
# Indices 1 2 3 4 5 6 
#
# 1 0.026049 -0.007837 -0.017129 0.000000 -0.011642 0.000000
# 2 -0.007837 0.012353 -0.001550 0.000000 -0.000185 0.000000
# 3 -0.017129 -0.001550 0.024124 0.000000 0.011879 0.000000
# 4 0.000000 0.000000 0.000000 0.031912 0.000000 -0.000593
# 5 -0.011642 -0.000185 0.011879 0.000000 0.044458 0.000000
# 6 0.000000 0.000000 0.000000 -0.000593 0.000000 0.030961
#
#
# Mechanical properties :
#
#
# Convention : Reuss Voigt Hill
#
# Bulk Modulus (GPa) = 105.34285 108.58474 106.96380
# Shear Modulus (GPa) = 22.11866 27.03662 24.57764
#
# Velocity S-wave (km/s) = 3.60024 3.98042 3.79509
# Velocity P-wave (km/s) = 8.88899 9.20634 9.04906
#
# Compressibility (1/GPa) = 0.00949281
#
# Stress axis : x y z
#
# Youngs Moduli (GPa) = 38.38973 80.95476 41.45216
#
# Poissons Ratio (x) = 0.63447 0.71002
# Poissons Ratio (y) = 0.30087 0.06426
# Poissons Ratio (z) = 0.65756 0.12551
#
# Static dielectric constant tensor:
#      x y z
#    x 1.562880 0.000000 0.009540 
#    y 0.000000 1.566040 0.000000 
#    z 0.009540 0.000000 1.550760 
# 
# From -- ./inp_files/238402.got.cif
#   From: 2010.05.17/outbox.cif.g08.bks.cpg/sg12_120_cif.got.tgz:238402.got - 2010.06.03 13:09:07.
