data_PCOD9196153
_publ_section_title
;
Structure prediction by ZEFSAII (Michael W. Deem and Ramdas Pophale) SiO2 
 PCOD9196153
Probable space group: C 2/M
;
_chemical_formula_sum "Si O2"
_cell_formula_units_Z 56
_cell_length_a 19.546765
_cell_length_b 8.952021
_cell_length_c 25.233119
_cell_angle_alpha 90.000000
_cell_angle_beta 135.326942
_cell_angle_gamma 90.000000
_cell_volume 3104.270441
_symmetry_space_group_name_H-M "C 2/M"
_symmetry_group_IT_number 12
_symmetry_cell_setting 'monoclinic'
loop_
_space_group_symop_operation_xyz
x,y,z
-x,y,-z
-x,-y,-z
x,-y,z
1/2+x,1/2+y,z
1/2-x,1/2+y,-z
1/2-x,1/2-y,-z
1/2+x,1/2-y,z
loop_
_atom_site_type_symbol
_atom_site_label
_atom_site_fract_x
_atom_site_fract_y
_atom_site_fract_z
Si Si1 0.557066 0.323751 0.180255
Si Si2 0.267315 0.668140 0.454780
Si Si3 0.386348 0.821186 0.428032
Si Si4 0.842259 0.179509 0.079111
Si Si5 0.055556 0.333186 0.288532
Si Si6 0.759571 0.178223 0.262839
Si Si7 0.876559 0.821997 0.221271
O O1 0.565694 0.500000 0.175115
O O2 0.444971 0.275709 0.107824
O O3 0.562647 0.286649 0.245651
O O4 0.649717 0.240650 0.206752
O O5 0.306991 0.500000 0.483424
O O6 0.250000 0.750000 0.500000
O O7 0.332052 0.762130 0.450210
O O8 0.160804 0.656679 0.371044
O O9 0.500000 0.782912 0.500000
O O10 0.330943 0.749080 0.346782
O O11 0.378423 0.000000 0.418815
O O12 0.844011 0.217514 0.143114
O O13 0.837488 0.000000 0.073539
O O14 0.750000 0.250000 0.000000
O O15 0.028698 0.500000 0.253854
O O16 0.974189 0.273186 0.283617
O O17 0.801800 0.207937 0.227419
O O18 0.757400 0.000000 0.270671
O O19 0.897015 0.000000 0.232958
#
# Coordination Sequence:
#
# PCOD9196153 Si02
#       7
#     8   8   8   8   8   8   8
#     4  10  20  36  59  84 114 151 188 230 283 340
#     4  11  24  39  57  82 112 147 194 243 291 345
#     4  11  25  42  59  82 116 155 194 242 298 348
#     4   9  19  37  60  87 117 150 189 231 282 340
#     4  10  20  35  56  82 108 142 192 239 280 338
#     4  11  22  38  60  86 115 151 196 240 286 344
#     4   9  21  38  57  84 117 151 188 233 286 341
#
# _framework density 18.039666
#
# number of rings (size 3 to 8) (size 9 to 14) (size 15 to 20)
#    0.000    1.857    1.429    3.000    2.000    6.857 
#    0.000    0.714    0.000    4.286    0.000    0.000 
#    0.000    0.000    0.000    0.000    0.000    0.000 
#
# Total GULP energy -156109.531369 kJ/mol
# GULP energy per Si atom -5575.340406 kJ/mol
# Density = 1.799861 g / cm^3
# Si number density = 18.039666 Si / 1000 Ang^3
#
#
#
# Elastic Constant Matrix: (Units=GPa)
#
#
# Indices 1 2 3 4 5 6 
#
# 1 152.8059 53.6292 65.6317 0.0000 27.1544 0.0000
# 2 53.6292 52.8973 44.1614 0.0000 17.8699 0.0000
# 3 65.6317 44.1614 96.8910 0.0000 28.3641 0.0000
# 4 0.0000 0.0000 0.0000 29.9981 0.0000 5.1772
# 5 27.1544 17.8699 28.3641 0.0000 28.2778 0.0000
# 6 0.0000 0.0000 0.0000 5.1772 0.0000 15.1504
#
#
#
# Elastic Compliance Matrix: (Units=1/GPa)
#
#
# Indices 1 2 3 4 5 6 
#
# 1 0.011087 -0.007644 -0.003289 0.000000 -0.002517 0.000000
# 2 -0.007644 0.036970 -0.009884 0.000000 -0.006108 0.000000
# 3 -0.003289 -0.009884 0.020246 0.000000 -0.010903 0.000000
# 4 0.000000 0.000000 0.000000 0.035425 0.000000 -0.012105
# 5 -0.002517 -0.006108 -0.010903 0.000000 0.052576 0.000000
# 6 0.000000 0.000000 0.000000 -0.012105 0.000000 0.070142
#
#
# Mechanical properties :
#
#
# Convention : Reuss Voigt Hill
#
# Bulk Modulus (GPa) = 37.49938 69.93764 53.71851
# Shear Modulus (GPa) = 18.05255 23.96337 21.00796
#
# Velocity S-wave (km/s) = 3.16684 3.64864 3.41624
# Velocity P-wave (km/s) = 5.84843 7.52350 6.73822
#
# Compressibility (1/GPa) = 0.02666711
#
# Stress axis : x y z
#
# Youngs Moduli (GPa) = 90.19489 27.04911 49.39320
#
# Poissons Ratio (x) = 0.20677 0.16247
# Poissons Ratio (y) = 0.68947 0.48821
# Poissons Ratio (z) = 0.29668 0.26736
#
# Static dielectric constant tensor:
#      x y z
#    x 1.615970 0.000000 0.025270 
#    y 0.000000 1.631970 0.000000 
#    z 0.025270 0.000000 1.622080 
# 
# From -- ./inp_files/342531.got.cif
#   From: 2010.05.17/outbox.cif.g08.bks.cpg/sg12_172_cif.got.tgz:342531.got - 2010.06.03 13:09:07.
