data_PCOD9196867
_publ_section_title
;
Structure prediction by ZEFSAII (Michael W. Deem and Ramdas Pophale) SiO2 
 PCOD9196867
Probable space group: C 2/M
;
_chemical_formula_sum "Si O2"
_cell_formula_units_Z 32
_cell_length_a 7.816849
_cell_length_b 14.125741
_cell_length_c 14.746276
_cell_angle_alpha 90.000000
_cell_angle_beta 124.143087
_cell_angle_gamma 90.000000
_cell_volume 1347.615514
_symmetry_space_group_name_H-M "C 2/M"
_symmetry_group_IT_number 12
_symmetry_cell_setting 'monoclinic'
loop_
_space_group_symop_operation_xyz
x,y,z
-x,y,-z
-x,-y,-z
x,-y,z
1/2+x,1/2+y,z
1/2-x,1/2+y,-z
1/2-x,1/2-y,-z
1/2+x,1/2-y,z
loop_
_atom_site_type_symbol
_atom_site_label
_atom_site_fract_x
_atom_site_fract_y
_atom_site_fract_z
Si Si1 0.777314 0.212465 0.882366
Si Si2 0.227187 0.599277 0.031764
Si Si3 0.176710 0.614934 0.669613
Si Si4 0.809093 0.113961 0.507834
O O1 0.689426 0.315115 0.881811
O O2 0.758847 0.178652 0.775818
O O3 0.681105 0.130950 0.915615
O O4 0.000000 0.213813 0.000000
O O5 0.346106 0.500000 0.070864
O O6 0.000000 0.586125 0.000000
O O7 0.199091 0.500000 0.688101
O O8 0.292944 0.640957 0.609807
O O9 0.927606 0.633444 0.593602
O O10 0.000000 0.149435 0.500000
O O11 0.829790 0.000000 0.513949
#
# Coordination Sequence:
#
# PCOD9196867 Si02
#       4
#     8   8   8   8
#     4  10  20  35  57  90 133 169 205 256 316 392
#     4   9  19  37  58  83 124 169 214 260 304 370
#     4   9  17  30  53  88 130 172 212 265 325 385
#     4   8  15  31  54  84 124 168 219 272 326 382
#
# _framework density 23.745645
#
# number of rings (size 3 to 8) (size 9 to 14) (size 15 to 20)
#    0.000    3.000    0.000    2.250    0.000    2.000 
#    4.500    0.000    0.000    0.000    0.000   66.500 
#    0.000   34.000    0.000    0.000    0.000    0.000 
#
# Total GULP energy -89091.537387 kJ/mol
# GULP energy per Si atom -5568.221087 kJ/mol
# Density = 2.369160 g / cm^3
# Si number density = 23.745645 Si / 1000 Ang^3
#
#
#
# Elastic Constant Matrix: (Units=GPa)
#
#
# Indices 1 2 3 4 5 6 
#
# 1 173.9283 38.3474 83.2156 0.0000 -29.1380 0.0000
# 2 38.3474 139.1746 75.9031 0.0000 -24.3512 0.0000
# 3 83.2156 75.9031 178.0030 0.0000 -31.6627 0.0000
# 4 0.0000 0.0000 0.0000 24.8217 0.0000 -15.3597
# 5 -29.1380 -24.3512 -31.6627 0.0000 29.8735 0.0000
# 6 0.0000 0.0000 0.0000 -15.3597 0.0000 13.0689
#
#
#
# Elastic Compliance Matrix: (Units=1/GPa)
#
#
# Indices 1 2 3 4 5 6 
#
# 1 0.007910 0.000276 -0.002961 0.000000 0.004801 0.000000
# 2 0.000276 0.009818 -0.003505 0.000000 0.004557 0.000000
# 3 -0.002961 -0.003505 0.009211 0.000000 0.004018 0.000000
# 4 0.000000 0.000000 0.000000 0.147720 0.000000 0.173614
# 5 0.004801 0.004557 0.004018 0.000000 0.046131 0.000000
# 6 0.000000 0.000000 0.000000 0.173614 0.000000 0.280565
#
#
# Mechanical properties :
#
#
# Convention : Reuss Voigt Hill
#
# Bulk Modulus (GPa) = 68.68855 98.44866 83.56860
# Shear Modulus (GPa) = 9.64155 33.12881 21.38518
#
# Velocity S-wave (km/s) = 2.01722 3.73923 3.00425
# Velocity P-wave (km/s) = 5.86644 7.75836 6.87776
#
# Compressibility (1/GPa) = 0.01455847
#
# Stress axis : x y z
#
# Youngs Moduli (GPa) = 126.42370 101.85256 108.55999
#
# Poissons Ratio (x) = -0.02808 0.32149
# Poissons Ratio (y) = -0.03485 0.38048
# Poissons Ratio (z) = 0.37439 0.35697
#
# Static dielectric constant tensor:
#      x y z
#    x 2.079630 0.000000 0.032130 
#    y 0.000000 2.081320 0.000000 
#    z 0.032130 0.000000 1.870540 
# 
# From -- ./inp_files/194276.got.cif
#   From: 2010.05.17/outbox.cif.g08.bks.cpg/sg12_98_cif.got.tgz:194276.got - 2010.06.03 13:09:07.
