data_PCOD9196324
_publ_section_title
;
Structure prediction by ZEFSAII (Michael W. Deem and Ramdas Pophale) SiO2 
 PCOD9196324
Probable space group: C 2/M
;
_chemical_formula_sum "Si O2"
_cell_formula_units_Z 64
_cell_length_a 29.334413
_cell_length_b 7.559391
_cell_length_c 18.031175
_cell_angle_alpha 90.000000
_cell_angle_beta 43.357897
_cell_angle_gamma 90.000000
_cell_volume 2745.127811
_symmetry_space_group_name_H-M "C 2/M"
_symmetry_group_IT_number 12
_symmetry_cell_setting 'monoclinic'
loop_
_space_group_symop_operation_xyz
x,y,z
-x,y,-z
-x,-y,-z
x,-y,z
1/2+x,1/2+y,z
1/2-x,1/2+y,-z
1/2-x,1/2-y,-z
1/2+x,1/2-y,z
loop_
_atom_site_type_symbol
_atom_site_label
_atom_site_fract_x
_atom_site_fract_y
_atom_site_fract_z
Si Si1 0.796826 0.209950 0.013531
Si Si2 0.922934 0.294510 0.407704
Si Si3 0.826644 0.711745 0.391570
Si Si4 0.822933 0.285609 0.229409
Si Si5 0.712987 0.293261 0.255410
Si Si6 0.571732 0.299319 0.431627
Si Si7 0.454906 0.290995 0.988658
Si Si8 0.447720 0.284835 0.831761
O O1 0.762492 0.283803 0.127696
O O2 0.801063 0.000000 0.019750
O O3 0.750000 0.250000 0.000000
O O4 0.871765 0.272522 0.910044
O O5 0.905687 0.500000 0.440916
O O6 0.874957 0.221633 0.399456
O O7 0.918628 0.199237 0.491229
O O8 0.998018 0.282149 0.289410
O O9 0.836168 0.500000 0.378277
O O10 0.750000 0.750000 0.500000
O O11 0.839482 0.778306 0.292671
O O12 0.820881 0.500000 0.233513
O O13 0.752515 0.221099 0.280034
O O14 0.879758 0.231663 0.104654
O O15 0.700457 0.500000 0.285955
O O16 0.640744 0.215919 0.321962
O O17 0.500000 0.215370 0.500000
O O18 0.567496 0.500000 0.405363
O O19 0.469094 0.500000 0.967483
O O20 0.500000 0.211696 0.000000
O O21 0.466453 0.222377 0.892633
O O22 0.449485 0.500000 0.827155
#
# Coordination Sequence:
#
# PCOD9196324 Si02
#       8
#     8   8   8   8   8   8   8   8
#     4  11  24  41  63  90 122 160 201 250 304 361
#     4  11  24  40  61  92 127 160 202 256 306 354
#     4  10  22  39  59  88 122 160 204 248 299 358
#     4  10  20  35  57  84 117 153 193 241 293 351
#     4  10  21  39  63  91 120 155 201 251 302 359
#     4  10  23  43  66  89 118 160 205 250 304 367
#     4  10  20  35  56  84 116 152 196 239 286 347
#     4  10  22  40  60  86 123 164 202 243 298 365
#
# _framework density 23.314031
#
# number of rings (size 3 to 8) (size 9 to 14) (size 15 to 20)
#    0.000    1.750    1.250    2.250    1.750    5.000 
#    0.000    0.000    0.000    0.000    0.000    0.000 
#    0.000    0.000    0.000    0.000    0.000    0.000 
#
# Total GULP energy -178897.972176 kJ/mol
# GULP energy per Si atom -5590.561631 kJ/mol
# Density = 2.326097 g / cm^3
# Si number density = 23.314031 Si / 1000 Ang^3
#
#
#
# Elastic Constant Matrix: (Units=GPa)
#
#
# Indices 1 2 3 4 5 6 
#
# 1 115.9636 -2.3808 7.3540 -0.0016 -21.0776 0.0120
# 2 -2.3808 61.3866 -13.9483 -0.0065 0.9065 -0.0141
# 3 7.3540 -13.9483 82.4437 0.0111 -14.7010 0.0064
# 4 -0.0016 -0.0065 0.0111 23.1234 -0.0024 -2.2518
# 5 -21.0776 0.9065 -14.7010 -0.0024 46.3640 -0.0020
# 6 0.0120 -0.0141 0.0064 -2.2518 -0.0020 4.8686
#
#
#
# Elastic Compliance Matrix: (Units=1/GPa)
#
#
# Indices 1 2 3 4 5 6 
#
# 1 0.009406 0.000295 -0.000029 -0.000001 0.004261 -0.000021
# 2 0.000295 0.016967 0.002977 0.000008 0.000747 0.000049
# 3 -0.000029 0.002977 0.013380 -0.000006 0.004171 -0.000010
# 4 -0.000001 0.000008 -0.000006 0.045286 0.000001 0.020945
# 5 0.004261 0.000747 0.004171 0.000001 0.024813 -0.000003
# 6 -0.000021 0.000049 -0.000010 0.020945 -0.000003 0.215084
#
#
# Mechanical properties :
#
#
# Convention : Reuss Voigt Hill
#
# Bulk Modulus (GPa) = 21.62667 26.87151 24.24909
# Shear Modulus (GPa) = 14.97624 32.78914 23.88269
#
# Velocity S-wave (km/s) = 2.53725 3.75428 3.20408
# Velocity P-wave (km/s) = 4.22847 5.50852 4.91038
#
# Compressibility (1/GPa) = 0.04623920
#
# Stress axis : x y z
#
# Youngs Moduli (GPa) = 106.31751 58.93735 74.74088
#
# Poissons Ratio (x) = -0.01740 0.00219
# Poissons Ratio (y) = -0.03139 -0.22253
# Poissons Ratio (z) = 0.00311 -0.17548
#
# Static dielectric constant tensor:
#      x y z
#    x 1.838690 0.000030 0.000450 
#    y 0.000030 1.893460 -0.000010 
#    z 0.000450 -0.000010 1.830620 
# 
# From -- ./inp_files/295564.got.cif
#   From: 2010.05.17/outbox.cif.g08.bks.cpg/sg12_148_cif.got.tgz:295564.got - 2010.06.03 13:09:07.
