data_PCOD9196313
_publ_section_title
;
Structure prediction by ZEFSAII (Michael W. Deem and Ramdas Pophale) SiO2 
 PCOD9196313
Probable space group: C 2/M
;
_chemical_formula_sum "Si O2"
_cell_formula_units_Z 64
_cell_length_a 28.390943
_cell_length_b 9.241210
_cell_length_c 23.541776
_cell_angle_alpha 90.000000
_cell_angle_beta 150.156396
_cell_angle_gamma 90.000000
_cell_volume 3073.676194
_symmetry_space_group_name_H-M "C 2/M"
_symmetry_group_IT_number 12
_symmetry_cell_setting 'monoclinic'
loop_
_space_group_symop_operation_xyz
x,y,z
-x,y,-z
-x,-y,-z
x,-y,z
1/2+x,1/2+y,z
1/2-x,1/2+y,-z
1/2-x,1/2-y,-z
1/2+x,1/2-y,z
loop_
_atom_site_type_symbol
_atom_site_label
_atom_site_fract_x
_atom_site_fract_y
_atom_site_fract_z
Si Si1 0.610339 0.665121 0.095916
Si Si2 0.193528 0.831188 0.490645
Si Si3 0.452505 0.826032 0.589012
Si Si4 0.887938 0.335124 0.398397
Si Si5 0.052821 0.326022 0.926334
Si Si6 0.362138 0.666690 0.261531
Si Si7 0.655392 0.166959 0.250726
Si Si8 0.200529 0.334133 0.998359
O O1 0.636975 0.500000 0.112856
O O2 0.666786 0.733562 0.207468
O O3 0.500000 0.667020 0.000000
O O4 0.609302 0.758416 0.038043
O O5 0.250000 0.750000 0.500000
O O6 0.099133 0.747576 0.411744
O O7 0.262778 0.827353 0.617610
O O8 0.175574 0.000000 0.457788
O O9 0.390049 0.794675 0.466764
O O10 0.554701 0.758036 0.682022
O O11 0.458735 0.000000 0.601291
O O12 0.854320 0.500000 0.357011
O O13 0.843090 0.233449 0.303803
O O14 0.000000 0.335186 0.500000
O O15 0.061922 0.500000 0.937570
O O16 0.942843 0.290683 0.820573
O O17 0.100858 0.276183 0.918050
O O18 0.393536 0.500000 0.300934
O O19 0.271517 0.668994 0.126219
O O20 0.644154 0.000000 0.219458
O O21 0.187241 0.500000 0.966294
O O22 0.250000 0.250000 0.000000
#
# Coordination Sequence:
#
# PCOD9196313 Si02
#       8
#     8   8   8   8   8   8   8   8
#     4   9  17  30  52  84 115 141 175 220 270 322
#     4  11  24  40  57  81 111 145 190 236 278 326
#     4  10  21  38  59  83 112 147 185 225 275 333
#     4   8  16  32  54  81 110 141 180 223 273 335
#     4   9  18  36  58  79 108 145 182 221 268 326
#     4  10  20  35  56  84 115 145 181 228 280 331
#     4   9  19  36  58  81 108 145 183 220 269 327
#     4  10  23  39  55  79 109 144 189 233 273 323
#
# _framework density 20.821971999999999
#
# number of rings (size 3 to 8) (size 9 to 14) (size 15 to 20)
#    0.000    2.500    0.000    2.250    0.000    8.750 
#    0.000    5.000    0.000    0.000    0.000    0.000 
#    0.000    0.000    0.000    0.000    0.000    0.000 
#
# Total GULP energy -178705.276686 kJ/mol
# GULP energy per Si atom -5584.539896 kJ/mol
# Density = 2.077458 g / cm^3
# Si number density = 20.821972 Si / 1000 Ang^3
#
#
#
# Elastic Constant Matrix: (Units=GPa)
#
#
# Indices 1 2 3 4 5 6 
#
# 1 117.6179 41.9622 -14.0450 0.0000 15.9574 0.0000
# 2 41.9622 66.1973 2.1906 0.0000 1.8326 0.0000
# 3 -14.0450 2.1906 21.8848 0.0000 12.4754 0.0000
# 4 0.0000 0.0000 0.0000 13.3356 0.0000 -9.9044
# 5 15.9574 1.8326 12.4754 0.0000 22.6648 0.0000
# 6 0.0000 0.0000 0.0000 -9.9044 0.0000 31.9009
#
#
#
# Elastic Compliance Matrix: (Units=1/GPa)
#
#
# Indices 1 2 3 4 5 6 
#
# 1 0.022555 -0.014523 0.035428 0.000000 -0.034206 0.000000
# 2 -0.014523 0.024513 -0.024005 0.000000 0.021456 0.000000
# 3 0.035428 -0.024005 0.122330 0.000000 -0.090337 0.000000
# 4 0.000000 0.000000 0.000000 0.097461 0.000000 0.030259
# 5 -0.034206 0.021456 -0.090337 0.000000 0.116194 0.000000
# 6 0.000000 0.000000 0.000000 0.030259 0.000000 0.040742
#
#
# Mechanical properties :
#
#
# Convention : Reuss Voigt Hill
#
# Bulk Modulus (GPa) = 6.12754 29.54618 17.83686
# Shear Modulus (GPa) = 10.32220 25.28639 17.80430
#
# Velocity S-wave (km/s) = 2.22893 3.48862 2.92733
# Velocity P-wave (km/s) = 3.09409 5.51797 4.47333
#
# Compressibility (1/GPa) = 0.16319762
#
# Stress axis : x y z
#
# Youngs Moduli (GPa) = 44.33661 40.79528 8.17464
#
# Poissons Ratio (x) = 0.59246 -0.28961
# Poissons Ratio (y) = 0.64389 0.19623
# Poissons Ratio (z) = -1.57076 0.97928
#
# Static dielectric constant tensor:
#      x y z
#    x 1.757190 0.000000 0.031910 
#    y 0.000000 1.718290 0.000000 
#    z 0.031910 0.000000 1.757170 
# 
# From -- ./inp_files/353449.got.cif
#   From: 2010.05.17/outbox.cif.g08.bks.cpg/sg12_177_cif.got.tgz:353449.got - 2010.06.03 13:09:07.
