data_PCOD9196616
_publ_section_title
;
Structure prediction by ZEFSAII (Michael W. Deem and Ramdas Pophale) SiO2 
 PCOD9196616
Probable space group: C 2/M
;
_chemical_formula_sum "Si O2"
_cell_formula_units_Z 56
_cell_length_a 28.553482
_cell_length_b 7.675238
_cell_length_c 12.520572
_cell_angle_alpha 90.000000
_cell_angle_beta 55.309613
_cell_angle_gamma 90.000000
_cell_volume 2256.178501
_symmetry_space_group_name_H-M "C 2/M"
_symmetry_group_IT_number 12
_symmetry_cell_setting 'monoclinic'
loop_
_space_group_symop_operation_xyz
x,y,z
-x,y,-z
-x,-y,-z
x,-y,z
1/2+x,1/2+y,z
1/2-x,1/2+y,-z
1/2-x,1/2-y,-z
1/2+x,1/2-y,z
loop_
_atom_site_type_symbol
_atom_site_label
_atom_site_fract_x
_atom_site_fract_y
_atom_site_fract_z
Si Si1 0.846121 0.286043 0.703393
Si Si2 0.924019 0.289549 0.417031
Si Si3 0.724460 0.305006 0.873857
Si Si4 0.405370 0.288862 0.968247
Si Si5 0.543976 0.200827 0.314794
Si Si6 0.098686 0.204723 0.790697
Si Si7 0.275609 0.808114 0.356148
O O1 0.842861 0.500000 0.712003
O O2 0.866870 0.238803 0.556038
O O3 0.785113 0.223061 0.827806
O O4 0.899387 0.223777 0.705101
O O5 0.925269 0.500000 0.414527
O O6 0.928829 0.229365 0.288817
O O7 0.980153 0.227389 0.408428
O O8 0.721166 0.500000 0.922280
O O9 0.660733 0.228218 0.964035
O O10 0.734354 0.311733 0.732676
O O11 0.406189 0.500000 0.956822
O O12 0.426792 0.247554 0.060451
O O13 0.443260 0.208196 0.827664
O O14 0.542281 0.000000 0.352883
O O15 0.157251 0.308324 0.711178
O O16 0.112560 0.000000 0.782115
O O17 0.250000 0.750000 0.500000
O O18 0.255182 0.000000 0.353418
#
# Coordination Sequence:
#
# PCOD9196616 Si02
#       7
#     8   8   8   8   8   8   8
#     4   9  18  35  58  81 108 143 182 228 279 326
#     4  10  20  35  57  84 111 141 182 231 281 330
#     4   9  18  34  55  78 106 143 185 226 273 329
#     4   9  20  37  54  77 110 145 181 226 280 333
#     4  10  21  36  56  81 109 145 188 229 270 328
#     4  10  21  37  56  79 109 144 184 228 277 331
#     4  11  20  31  50  78 112 146 181 223 274 329
#
# _framework density 24.820730999999999
#
# number of rings (size 3 to 8) (size 9 to 14) (size 15 to 20)
#    0.000    2.286    0.000    3.857    0.000    7.429 
#    0.000    4.286    0.000    1.714    0.000    0.000 
#    0.000    0.000    0.000    0.000    0.000    0.000 
#
# Total GULP energy -156287.871024 kJ/mol
# GULP energy per Si atom -5581.709679 kJ/mol
# Density = 2.476424 g / cm^3
# Si number density = 24.820731 Si / 1000 Ang^3
#
#
#
# Elastic Constant Matrix: (Units=GPa)
#
#
# Indices 1 2 3 4 5 6 
#
# 1 99.9130 3.8613 -4.1345 0.0000 -9.3706 0.0000
# 2 3.8613 68.5021 8.7897 0.0000 2.6039 0.0000
# 3 -4.1345 8.7897 80.8744 0.0000 -2.0303 0.0000
# 4 0.0000 0.0000 0.0000 7.8351 0.0000 7.8855
# 5 -9.3706 2.6039 -2.0303 0.0000 40.2079 0.0000
# 6 0.0000 0.0000 0.0000 7.8855 0.0000 7.4876
#
#
#
# Elastic Compliance Matrix: (Units=1/GPa)
#
#
# Indices 1 2 3 4 5 6 
#
# 1 0.010299 -0.000761 0.000672 0.000000 0.002483 0.000000
# 2 -0.000761 0.014904 -0.001690 0.000000 -0.001228 0.000000
# 3 0.000672 -0.001690 0.012605 0.000000 0.000902 0.000000
# 4 0.000000 0.000000 0.000000 -2.130164 0.000000 2.243368
# 5 0.002483 -0.001228 0.000902 0.000000 0.025575 0.000000
# 6 0.000000 0.000000 0.000000 2.243368 0.000000 -2.229033
#
#
# Mechanical properties :
#
#
# Convention : Reuss Voigt Hill
#
# Bulk Modulus (GPa) = 29.19664 29.59138 29.39401
# Shear Modulus (GPa) = -1.16800 27.15764 12.99482
#
# Velocity S-wave (km/s) = -0.68673 3.31138 2.29060
# Velocity P-wave (km/s) = 3.34062 5.15444 4.34327
#
# Compressibility (1/GPa) = 0.03425052
#
# Stress axis : x y z
#
# Youngs Moduli (GPa) = 97.09849 67.09397 79.33065
#
# Poissons Ratio (x) = 0.05106 -0.05328
# Poissons Ratio (y) = 0.07390 0.13404
# Poissons Ratio (z) = -0.06521 0.11336
#
# Static dielectric constant tensor:
#      x y z
#    x 2.071400 0.000000 0.028860 
#    y 0.000000 1.962240 0.000000 
#    z 0.028860 0.000000 1.969400 
# 
# From -- ./inp_files/187188.got.cif
#   From: 2010.05.17/outbox.cif.g08.bks.cpg/sg12_94_cif.got.tgz:187188.got - 2010.06.03 13:09:07.
