data_PCOD9196776
_publ_section_title
;
Structure prediction by ZEFSAII (Michael W. Deem and Ramdas Pophale) SiO2 
 PCOD9196776
Probable space group: C 2/M
;
_chemical_formula_sum "Si O2"
_cell_formula_units_Z 56
_cell_length_a 21.435227
_cell_length_b 18.575452
_cell_length_c 15.068782
_cell_angle_alpha 90.000000
_cell_angle_beta 29.610413
_cell_angle_gamma 90.000000
_cell_volume 2964.560905
_symmetry_space_group_name_H-M "C 2/M"
_symmetry_group_IT_number 12
_symmetry_cell_setting 'monoclinic'
loop_
_space_group_symop_operation_xyz
x,y,z
-x,y,-z
-x,-y,-z
x,-y,z
1/2+x,1/2+y,z
1/2-x,1/2+y,-z
1/2-x,1/2-y,-z
1/2+x,1/2-y,z
loop_
_atom_site_type_symbol
_atom_site_label
_atom_site_fract_x
_atom_site_fract_y
_atom_site_fract_z
Si Si1 0.272185 0.917702 0.433275
Si Si2 0.774978 0.297946 0.104174
Si Si3 0.181754 0.702296 0.508665
Si Si4 0.436288 0.717209 0.763243
Si Si5 0.627929 0.319748 0.881103
Si Si6 0.140640 0.414811 0.863558
Si Si7 0.976485 0.916933 0.840098
O O1 0.361546 0.866208 0.380010
O O2 0.272262 0.896898 0.329593
O O3 0.129267 0.913824 0.646780
O O4 0.316014 0.000000 0.383341
O O5 0.632134 0.296153 0.245228
O O6 0.804666 0.233524 0.134690
O O7 0.817948 0.368693 0.103369
O O8 0.858617 0.277773 0.914633
O O9 0.250000 0.750000 0.500000
O O10 0.277288 0.671985 0.317251
O O11 0.076440 0.750656 0.592406
O O12 0.432841 0.642178 0.822020
O O13 0.500000 0.285206 0.000000
O O14 0.579280 0.388538 0.997262
O O15 0.148910 0.500000 0.871640
O O16 0.000000 0.399724 0.000000
O O17 0.940338 0.000000 0.868071
#
# Coordination Sequence:
#
# PCOD9196776 Si02
#       7
#     8   8   8   8   8   8   8
#     4  10  20  35  57  86 118 150 193 250 299 354
#     4  10  21  38  56  82 120 151 199 241 289 357
#     4  12  20  35  59  85 117 152 197 243 298 357
#     4  10  22  38  58  85 115 159 194 242 298 352
#     4  11  21  36  58  87 114 152 194 244 297 343
#     4  10  20  35  58  88 119 157 199 245 301 359
#     4  10  21  39  59  85 118 151 196 246 301 357
#
# _framework density 18.889811999999999
#
# number of rings (size 3 to 8) (size 9 to 14) (size 15 to 20)
#    0.000    1.571    2.857    3.000    0.000    2.000 
#    0.000    0.000    0.000    6.000    0.000   10.000 
#    0.000    0.000    0.000    0.000    0.000    0.000 
#
# Total GULP energy -156170.621509 kJ/mol
# GULP energy per Si atom -5577.522197 kJ/mol
# Density = 1.884682 g / cm^3
# Si number density = 18.889812 Si / 1000 Ang^3
#
#
#
# Elastic Constant Matrix: (Units=GPa)
#
#
# Indices 1 2 3 4 5 6 
#
# 1 140.6531 65.3628 39.1845 0.0000 -13.6712 0.0000
# 2 65.3628 116.9479 39.1075 0.0000 -0.4850 0.0000
# 3 39.1845 39.1075 76.6459 0.0001 4.0657 -0.0001
# 4 0.0000 0.0000 0.0001 23.8198 -0.0001 5.3665
# 5 -13.6712 -0.4850 4.0657 -0.0001 27.1293 0.0000
# 6 0.0000 0.0000 -0.0001 5.3665 0.0000 12.1908
#
#
#
# Elastic Compliance Matrix: (Units=1/GPa)
#
#
# Indices 1 2 3 4 5 6 
#
# 1 0.010928 -0.004955 -0.003373 0.000000 0.005924 0.000000
# 2 -0.004955 0.012583 -0.003797 0.000000 -0.001703 0.000000
# 3 -0.003373 -0.003797 0.016937 0.000000 -0.004306 0.000000
# 4 0.000000 0.000000 0.000000 0.046604 0.000000 -0.020516
# 5 0.005924 -0.001703 -0.004306 0.000000 0.040460 0.000000
# 6 0.000000 0.000000 0.000000 -0.020516 0.000000 0.091061
#
#
# Mechanical properties :
#
#
# Convention : Reuss Voigt Hill
#
# Bulk Modulus (GPa) = 61.73378 69.06182 65.39780
# Shear Modulus (GPa) = 20.14337 25.33412 22.73874
#
# Velocity S-wave (km/s) = 3.26906 3.66615 3.47328
# Velocity P-wave (km/s) = 6.85572 7.38651 7.12606
#
# Compressibility (1/GPa) = 0.01619859
#
# Stress axis : x y z
#
# Youngs Moduli (GPa) = 91.50999 79.47344 59.04317
#
# Poissons Ratio (x) = 0.39381 0.19913
# Poissons Ratio (y) = 0.45345 0.22416
# Poissons Ratio (z) = 0.30863 0.30172
#
# Static dielectric constant tensor:
#      x y z
#    x 1.658960 0.000000 0.016720 
#    y 0.000000 1.672780 0.000000 
#    z 0.016720 0.000000 1.743210 
# 
# From -- ./inp_files/234669.got.cif
#   From: 2010.05.17/outbox.cif.g08.bks.cpg/sg12_118_cif.got.tgz:234669.got - 2010.06.03 13:09:07.
