data_PCOD9196119
_publ_section_title
;
Structure prediction by ZEFSAII (Michael W. Deem and Ramdas Pophale) SiO2 
 PCOD9196119
Probable space group: C 2/M
;
_chemical_formula_sum "Si O2"
_cell_formula_units_Z 64
_cell_length_a 31.469321
_cell_length_b 7.796155
_cell_length_c 12.011324
_cell_angle_alpha 90.000000
_cell_angle_beta 95.209488
_cell_angle_gamma 90.000000
_cell_volume 2934.682331
_symmetry_space_group_name_H-M "C 2/M"
_symmetry_group_IT_number 12
_symmetry_cell_setting 'monoclinic'
loop_
_space_group_symop_operation_xyz
x,y,z
-x,y,-z
-x,-y,-z
x,-y,z
1/2+x,1/2+y,z
1/2-x,1/2+y,-z
1/2-x,1/2-y,-z
1/2+x,1/2-y,z
loop_
_atom_site_type_symbol
_atom_site_label
_atom_site_fract_x
_atom_site_fract_y
_atom_site_fract_z
Si Si1 0.289654 0.296195 0.587175
Si Si2 0.616018 0.204996 0.435265
Si Si3 0.516247 0.200732 0.811361
Si Si4 0.457265 0.209365 0.421481
Si Si5 0.312534 0.291750 0.071006
Si Si6 0.771034 0.204224 0.829787
Si Si7 0.420166 0.791354 0.810684
Si Si8 0.096666 0.199114 0.955165
O O1 0.290417 0.500000 0.597324
O O2 0.250000 0.250000 0.500000
O O3 0.334216 0.241641 0.543456
O O4 0.284740 0.225408 0.712619
O O5 0.584672 0.271749 0.524034
O O6 0.599780 0.266099 0.310638
O O7 0.610509 0.000000 0.432408
O O8 0.536196 0.272784 0.702331
O O9 0.469449 0.269900 0.827176
O O10 0.552102 0.214995 0.913354
O O11 0.508313 0.000000 0.788476
O O12 0.500000 0.252258 0.500000
O O13 0.454916 0.000000 0.417864
O O14 0.312876 0.500000 0.068864
O O15 0.278852 0.235581 0.155765
O O16 0.361248 0.232520 0.096458
O O17 0.295199 0.228921 0.946126
O O18 0.778274 0.000000 0.830249
O O19 0.418419 0.000000 0.816478
O O20 0.395991 0.719970 0.911727
O O21 0.091774 0.000000 0.926836
#
# Coordination Sequence:
#
# PCOD9196119 Si02
#       8
#     8   8   8   8   8   8   8   8
#     4  11  24  41  59  83 118 154 189 232 283 338
#     4  10  20  36  62  91 114 144 189 236 287 340
#     4  10  20  35  56  81 110 146 188 234 278 325
#     4   9  16  33  60  85 110 143 187 237 283 331
#     4   9  19  36  57  81 108 141 179 226 281 336
#     4   9  19  37  60  81 104 139 185 231 277 329
#     4  10  20  35  57  83 111 145 189 234 274 328
#     4  11  23  36  51  77 116 153 184 224 282 339
#
# _framework density 21.808152
#
# number of rings (size 3 to 8) (size 9 to 14) (size 15 to 20)
#    0.000    2.125    1.250    1.875    0.000    6.500 
#    0.000    6.875    0.000    0.750    0.000    0.000 
#    0.000    0.000    0.000    0.000    0.000    0.000 
#
# Total GULP energy -178720.254017 kJ/mol
# GULP energy per Si atom -5585.007938 kJ/mol
# Density = 2.175852 g / cm^3
# Si number density = 21.808152 Si / 1000 Ang^3
#
#
#
# Elastic Constant Matrix: (Units=GPa)
#
#
# Indices 1 2 3 4 5 6 
#
# 1 128.4036 -9.3752 10.2414 0.0000 -18.9164 0.0000
# 2 -9.3752 22.8462 -4.5557 0.0000 -1.1672 0.0000
# 3 10.2414 -4.5557 56.9617 0.0000 -20.4727 0.0000
# 4 0.0000 0.0000 0.0000 6.7243 0.0000 -11.3248
# 5 -18.9164 -1.1672 -20.4727 0.0000 31.2110 0.0000
# 6 0.0000 0.0000 0.0000 -11.3248 0.0000 0.0201
#
#
#
# Elastic Compliance Matrix: (Units=1/GPa)
#
#
# Indices 1 2 3 4 5 6 
#
# 1 0.008929 0.004171 0.000954 0.000000 0.006193 0.000000
# 2 0.004171 0.047091 0.005964 0.000000 0.008201 0.000000
# 3 0.000954 0.005964 0.023748 0.000000 0.016379 0.000000
# 4 0.000000 0.000000 0.000000 -0.000157 0.000000 -0.088395
# 5 0.006193 0.008201 0.016379 0.000000 0.046844 0.000000
# 6 0.000000 0.000000 0.000000 -0.088395 0.000000 -0.052486
#
#
# Mechanical properties :
#
#
# Convention : Reuss Voigt Hill
#
# Bulk Modulus (GPa) = 9.80923 22.31472 16.06197
# Shear Modulus (GPa) = 58.29367 21.71782 40.00575
#
# Velocity S-wave (km/s) = 5.17574 3.15915 4.28768
# Velocity P-wave (km/s) = 6.34235 4.85401 5.64743
#
# Compressibility (1/GPa) = 0.10194482
#
# Stress axis : x y z
#
# Youngs Moduli (GPa) = 111.99750 21.23561 42.10927
#
# Poissons Ratio (x) = -0.08857 -0.04018
# Poissons Ratio (y) = -0.46711 -0.25113
# Poissons Ratio (z) = -0.10687 -0.12665
#
# Static dielectric constant tensor:
#      x y z
#    x 1.774400 0.000000 -0.004570 
#    y 0.000000 1.780100 0.000000 
#    z -0.004570 0.000000 1.797090 
# 
# From -- ./inp_files/187431.got.cif
#   From: 2010.05.17/outbox.cif.g08.bks.cpg/sg12_94_cif.got.tgz:187431.got - 2010.06.03 13:09:07.
