data_PCOD9196764
_publ_section_title
;
Structure prediction by ZEFSAII (Michael W. Deem and Ramdas Pophale) SiO2 
 PCOD9196764
Probable space group: C 2/M
;
_chemical_formula_sum "Si O2"
_cell_formula_units_Z 56
_cell_length_a 28.879921
_cell_length_b 7.622756
_cell_length_c 19.714174
_cell_angle_alpha 90.000000
_cell_angle_beta 144.258312
_cell_angle_gamma 90.000000
_cell_volume 2535.114306
_symmetry_space_group_name_H-M "C 2/M"
_symmetry_group_IT_number 12
_symmetry_cell_setting 'monoclinic'
loop_
_space_group_symop_operation_xyz
x,y,z
-x,y,-z
-x,-y,-z
x,-y,z
1/2+x,1/2+y,z
1/2-x,1/2+y,-z
1/2-x,1/2-y,-z
1/2+x,1/2-y,z
loop_
_atom_site_type_symbol
_atom_site_label
_atom_site_fract_x
_atom_site_fract_y
_atom_site_fract_z
Si Si1 0.229466 0.212745 0.192190
Si Si2 0.871253 0.705507 0.452517
Si Si3 0.459655 0.215812 0.304085
Si Si4 0.783337 0.289910 0.113926
Si Si5 0.503034 0.795192 0.801882
Si Si6 0.830891 0.208010 0.557370
Si Si7 0.055979 0.707884 0.007883
O O1 0.307433 0.278167 0.324128
O O2 0.232535 0.273865 0.117556
O O3 0.148655 0.269948 0.131519
O O4 0.229914 0.000000 0.194060
O O5 0.879393 0.500000 0.445336
O O6 0.836070 0.720207 0.486811
O O7 0.961014 0.776422 0.563048
O O8 0.374270 0.271333 0.229244
O O9 0.467539 0.276683 0.235232
O O10 0.461898 0.000000 0.306958
O O11 0.785295 0.500000 0.121220
O O12 0.750000 0.250000 0.000000
O O13 0.407870 0.781004 0.687658
O O14 0.525425 0.000000 0.826886
O O15 0.537134 0.715734 0.911142
O O16 0.750000 0.250000 0.500000
O O17 0.839656 0.000000 0.563424
O O18 0.038471 0.500000 0.982823
O O19 0.000000 0.781475 0.000000
#
# Coordination Sequence:
#
# PCOD9196764 Si02
#       7
#     8   8   8   8   8   8   8
#     4  10  22  37  56  85 119 149 187 239 288 335
#     4   9  19  37  56  80 114 150 188 232 281 335
#     4   8  15  31  56  79 106 145 185 225 272 329
#     4  10  20  35  57  86 115 150 191 233 281 334
#     4   9  18  35  55  78 108 142 185 232 277 329
#     4  11  22  35  55  81 108 143 185 232 281 334
#     4  10  22  38  57  81 110 149 193 234 283 344
#
# _framework density 22.089732000000001
#
# number of rings (size 3 to 8) (size 9 to 14) (size 15 to 20)
#    0.000    2.429    0.000    3.000    2.000    3.714 
#    0.000    7.143    0.000    0.000    0.000    6.000 
#    0.000    0.000    0.000    0.000    0.000    0.000 
#
# Total GULP energy -156346.670979 kJ/mol
# GULP energy per Si atom -5583.809678 kJ/mol
# Density = 2.203945 g / cm^3
# Si number density = 22.089732 Si / 1000 Ang^3
#
#
#
# Elastic Constant Matrix: (Units=GPa)
#
#
# Indices 1 2 3 4 5 6 
#
# 1 104.6182 -6.7608 47.2252 0.0000 27.9454 0.0000
# 2 -6.7608 41.4152 -9.8069 0.0000 -9.0019 0.0000
# 3 47.2252 -9.8069 109.6668 0.0000 -7.6016 0.0000
# 4 0.0000 0.0000 0.0000 6.7757 0.0000 -2.3976
# 5 27.9454 -9.0019 -7.6016 0.0000 23.3855 0.0000
# 6 0.0000 0.0000 0.0000 -2.3976 0.0000 8.9964
#
#
#
# Elastic Compliance Matrix: (Units=1/GPa)
#
#
# Indices 1 2 3 4 5 6 
#
# 1 0.025966 -0.007614 -0.014544 0.000000 -0.038688 0.000000
# 2 -0.007614 0.029677 0.007525 0.000000 0.022969 0.000000
# 3 -0.014544 0.007525 0.017862 0.000000 0.026083 0.000000
# 4 0.000000 0.000000 0.000000 0.162954 0.000000 0.043429
# 5 -0.038688 0.022969 0.026083 0.000000 0.106313 0.000000
# 6 0.000000 0.000000 0.000000 0.043429 0.000000 0.122730
#
#
# Mechanical properties :
#
#
# Convention : Reuss Voigt Hill
#
# Bulk Modulus (GPa) = 22.60488 35.22391 28.91440
# Shear Modulus (GPa) = 9.81325 22.83435 16.32380
#
# Velocity S-wave (km/s) = 2.11000 3.21862 2.72136
# Velocity P-wave (km/s) = 4.02387 5.45831 4.79503
#
# Compressibility (1/GPa) = 0.04423824
#
# Stress axis : x y z
#
# Youngs Moduli (GPa) = 38.51190 33.69617 55.98334
#
# Poissons Ratio (x) = 0.25657 0.81423
# Poissons Ratio (y) = 0.29324 -0.42126
# Poissons Ratio (z) = 0.56012 -0.25356
#
# Static dielectric constant tensor:
#      x y z
#    x 1.819420 0.000000 0.012050 
#    y 0.000000 1.878530 0.000000 
#    z 0.012050 0.000000 1.834080 
# 
# From -- ./inp_files/292534.got.cif
#   From: 2010.05.17/outbox.cif.g08.bks.cpg/sg12_147_cif.got.tgz:292534.got - 2010.06.03 13:09:07.
