data_PCOD9196843
_publ_section_title
;
Structure prediction by ZEFSAII (Michael W. Deem and Ramdas Pophale) SiO2 
 PCOD9196843
Probable space group: C 2/M
;
_chemical_formula_sum "Si O2"
_cell_formula_units_Z 64
_cell_length_a 21.410870
_cell_length_b 18.895449
_cell_length_c 12.140644
_cell_angle_alpha 90.000000
_cell_angle_beta 137.745685
_cell_angle_gamma 90.000000
_cell_volume 3302.748667
_symmetry_space_group_name_H-M "C 2/M"
_symmetry_group_IT_number 12
_symmetry_cell_setting 'monoclinic'
loop_
_space_group_symop_operation_xyz
x,y,z
-x,y,-z
-x,-y,-z
x,-y,z
1/2+x,1/2+y,z
1/2-x,1/2+y,-z
1/2-x,1/2-y,-z
1/2+x,1/2-y,z
loop_
_atom_site_type_symbol
_atom_site_label
_atom_site_fract_x
_atom_site_fract_y
_atom_site_fract_z
Si Si1 0.100317 0.854681 0.353318
Si Si2 0.279359 0.353043 0.687023
Si Si3 0.606207 0.420351 0.599422
Si Si4 0.184273 0.848013 0.901835
Si Si5 0.378669 0.192966 0.095157
Si Si6 0.392468 0.789701 0.858341
Si Si7 0.590565 0.185501 0.363503
Si Si8 0.087306 0.920122 0.961227
O O1 0.184160 0.876499 0.384309
O O2 0.104793 0.897457 0.471372
O O3 0.103032 0.770948 0.381190
O O4 0.004899 0.872511 0.164325
O O5 0.319578 0.273527 0.750451
O O6 0.168715 0.349956 0.540886
O O7 0.334997 0.396210 0.850877
O O8 0.500000 0.421562 0.500000
O O9 0.644945 0.500000 0.663324
O O10 0.656295 0.361563 0.739414
O O11 0.143000 0.775486 0.901107
O O12 0.136634 0.910255 0.907966
O O13 0.295537 0.846282 0.049470
O O14 0.484457 0.173174 0.260429
O O15 0.373004 0.181008 0.955218
O O16 0.391293 0.833749 0.742487
O O17 0.500000 0.763534 0.000000
O O18 0.058060 0.000000 0.943064
#
# Coordination Sequence:
#
# PCOD9196843 Si02
#       8
#     8   8   8   8   8   8   8   8
#     4  11  21  37  58  88 117 153 192 241 297 354
#     4  11  22  34  58  86 119 153 193 241 293 348
#     4  11  22  36  55  81 115 150 187 234 288 349
#     4  11  22  36  58  84 118 152 194 241 292 353
#     4  10  20  36  59  85 114 152 193 242 296 344
#     4   9  16  32  55  82 116 150 181 233 305 357
#     4  10  20  35  57  89 120 148 189 245 301 346
#     4  12  23  40  60  83 122 164 201 240 286 352
#
# _framework density 19.377797999999999
#
# number of rings (size 3 to 8) (size 9 to 14) (size 15 to 20)
#    0.000    1.375    3.750    4.125    3.500    1.500 
#    0.000    1.875    0.000    2.250    0.000    0.875 
#    0.000    0.000    0.000    0.000    0.000    0.000 
#
# Total GULP energy -178484.630577 kJ/mol
# GULP energy per Si atom -5577.644706 kJ/mol
# Density = 1.933369 g / cm^3
# Si number density = 19.377798 Si / 1000 Ang^3
#
#
#
# Elastic Constant Matrix: (Units=GPa)
#
#
# Indices 1 2 3 4 5 6 
#
# 1 72.9856 1.5756 33.5125 0.0000 21.4557 0.0000
# 2 1.5756 26.7524 9.6725 0.0000 1.4781 0.0000
# 3 33.5125 9.6725 85.3497 0.0000 7.8062 0.0000
# 4 0.0000 0.0000 0.0000 -89.9522 0.0000 46.1299
# 5 21.4557 1.4781 7.8062 0.0000 26.7036 0.0000
# 6 0.0000 0.0000 0.0000 46.1299 0.0000 -17.4003
#
#
#
# Elastic Compliance Matrix: (Units=1/GPa)
#
#
# Indices 1 2 3 4 5 6 
#
# 1 0.021486 0.002214 -0.007292 0.000000 -0.015255 0.000000
# 2 0.002214 0.039226 -0.005090 0.000000 -0.002462 0.000000
# 3 -0.007292 -0.005090 0.014996 0.000000 0.001757 0.000000
# 4 0.000000 0.000000 0.000000 0.030919 0.000000 0.081970
# 5 -0.015255 -0.002462 0.001757 0.000000 0.049327 0.000000
# 6 0.000000 0.000000 0.000000 0.081970 0.000000 0.159839
#
#
# Mechanical properties :
#
#
# Convention : Reuss Voigt Hill
#
# Bulk Modulus (GPa) = 18.05959 30.51210 24.28584
# Shear Modulus (GPa) = 14.10092 -6.77466 3.66313
#
# Velocity S-wave (km/s) = 2.70049 -1.87181 1.37640
# Velocity P-wave (km/s) = 4.36618 3.33294 3.88407
#
# Compressibility (1/GPa) = 0.05537224
#
# Stress axis : x y z
#
# Youngs Moduli (GPa) = 46.54114 25.49350 66.68487
#
# Poissons Ratio (x) = -0.05644 0.48629
# Poissons Ratio (y) = -0.10304 0.33939
# Poissons Ratio (z) = 0.33939 0.12975
#
# Static dielectric constant tensor:
#      x y z
#    x 1.700230 0.000000 -0.025380 
#    y 0.000000 1.682110 0.000000 
#    z -0.025380 0.000000 1.723080 
# 
# From -- ./inp_files/169698.got.cif
#   From: 2010.05.17/outbox.cif.g08.bks.cpg/sg12_85_cif.got.tgz:169698.got - 2010.06.03 13:09:07.
