data_PCOD9196939
_publ_section_title
;
Structure prediction by ZEFSAII (Michael W. Deem and Ramdas Pophale) SiO2 
 PCOD9196939
Probable space group: C 2/M
;
_chemical_formula_sum "Si O2"
_cell_formula_units_Z 64
_cell_length_a 19.175747
_cell_length_b 8.395823
_cell_length_c 30.409536
_cell_angle_alpha 90.000000
_cell_angle_beta 39.576638
_cell_angle_gamma 90.000000
_cell_volume 3119.174131
_symmetry_space_group_name_H-M "C 2/M"
_symmetry_group_IT_number 12
_symmetry_cell_setting 'monoclinic'
loop_
_space_group_symop_operation_xyz
x,y,z
-x,y,-z
-x,-y,-z
x,-y,z
1/2+x,1/2+y,z
1/2-x,1/2+y,-z
1/2-x,1/2-y,-z
1/2+x,1/2-y,z
loop_
_atom_site_type_symbol
_atom_site_label
_atom_site_fract_x
_atom_site_fract_y
_atom_site_fract_z
Si Si1 0.538273 0.809335 0.302261
Si Si2 0.630973 0.688265 0.071126
Si Si3 0.588632 0.182782 0.849811
Si Si4 0.786687 0.307306 0.434249
Si Si5 0.853414 0.193444 0.840180
Si Si6 0.699657 0.693115 0.300381
Si Si7 0.373789 0.694436 0.566706
Si Si8 0.618679 0.815527 0.935890
O O1 0.411969 0.755124 0.365740
O O2 0.588917 0.758320 0.231019
O O3 0.609828 0.743336 0.307988
O O4 0.540353 0.000000 0.304118
O O5 0.639722 0.500000 0.067522
O O6 0.529646 0.738100 0.090506
O O7 0.597068 0.740425 0.137058
O O8 0.750000 0.750000 0.000000
O O9 0.680633 0.253154 0.773045
O O10 0.639671 0.182476 0.873613
O O11 0.568731 0.000000 0.846728
O O12 0.785049 0.500000 0.434596
O O13 0.750000 0.250000 0.500000
O O14 0.704334 0.253208 0.435458
O O15 0.727544 0.252853 0.903890
O O16 0.851254 0.000000 0.837630
O O17 0.703928 0.500000 0.297603
O O18 0.669342 0.744446 0.364346
O O19 0.500000 0.745086 0.500000
O O20 0.373164 0.500000 0.566582
O O21 0.609711 0.000000 0.956376
O O22 0.500000 0.739761 0.000000
#
# Coordination Sequence:
#
# PCOD9196939 Si02
#       8
#     8   8   8   8   8   8   8   8
#     4  11  23  37  58  88 124 155 187 246 305 344
#     4  11  24  40  60  85 117 155 197 248 301 357
#     4  10  20  35  58  84 112 152 197 241 291 346
#     4  10  22  39  60  89 120 155 196 240 295 349
#     4  10  21  39  60  83 113 157 205 237 283 356
#     4  10  20  37  62  85 113 159 203 237 282 351
#     4   9  18  34  59  88 114 148 196 241 278 335
#     4   9  16  31  56  81 105 140 191 240 276 327
#
# _framework density 20.518250999999999
#
# number of rings (size 3 to 8) (size 9 to 14) (size 15 to 20)
#    0.000    2.000    1.250    2.250    1.750    5.500 
#    0.000    0.625    0.000    3.750    0.000    0.000 
#    0.000    0.000    0.000    0.000    0.000    0.000 
#
# Total GULP energy -178613.051155 kJ/mol
# GULP energy per Si atom -5581.657849 kJ/mol
# Density = 2.047155 g / cm^3
# Si number density = 20.518251 Si / 1000 Ang^3
#
#
#
# Elastic Constant Matrix: (Units=GPa)
#
#
# Indices 1 2 3 4 5 6 
#
# 1 112.4965 14.0448 35.9851 -0.0002 -2.6942 -0.0011
# 2 14.0448 12.7284 9.8689 -0.0004 -0.4881 -0.0042
# 3 35.9851 9.8689 120.5354 -0.0001 -7.5046 -0.0001
# 4 -0.0002 -0.0004 -0.0001 22.7958 0.0001 0.1316
# 5 -2.6942 -0.4881 -7.5046 0.0001 38.5123 0.0000
# 6 -0.0011 -0.0042 -0.0001 0.1316 0.0000 21.4919
#
#
#
# Elastic Compliance Matrix: (Units=1/GPa)
#
#
# Indices 1 2 3 4 5 6 
#
# 1 0.010940 -0.010187 -0.002422 0.000000 0.000164 -0.000001
# 2 -0.010187 0.093379 -0.004631 0.000002 -0.000432 0.000018
# 3 -0.002422 -0.004631 0.009499 0.000000 0.001623 -0.000001
# 4 0.000000 0.000002 0.000000 0.043869 0.000000 -0.000269
# 5 0.000164 -0.000432 0.001623 0.000000 0.026288 0.000000
# 6 -0.000001 0.000018 -0.000001 -0.000269 0.000000 0.046531
#
#
# Mechanical properties :
#
#
# Convention : Reuss Voigt Hill
#
# Bulk Modulus (GPa) = 12.60414 40.61752 26.61083
# Shear Modulus (GPa) = 17.15664 28.95078 23.05371
#
# Velocity S-wave (km/s) = 2.89479 3.76037 3.35561
# Velocity P-wave (km/s) = 4.16285 6.22034 5.29254
#
# Compressibility (1/GPa) = 0.07933900
#
# Stress axis : x y z
#
# Youngs Moduli (GPa) = 91.41147 10.70899 105.26874
#
# Poissons Ratio (x) = 0.10909 0.25492
# Poissons Ratio (y) = 0.93121 0.48750
# Poissons Ratio (z) = 0.22136 0.04959
#
# Static dielectric constant tensor:
#      x y z
#    x 1.713330 0.000000 -0.010740 
#    y 0.000000 1.727210 0.000000 
#    z -0.010740 0.000000 1.739000 
# 
# From -- ./inp_files/378228.got.cif
#   From: 2010.05.17/outbox.cif.g08.bks.cpg/sg12_190_cif.got.tgz:378228.got - 2010.06.03 13:09:07.
