data_PCOD9196422
_publ_section_title
;
Structure prediction by ZEFSAII (Michael W. Deem and Ramdas Pophale) SiO2 
 PCOD9196422
Probable space group: C 2/M
;
_chemical_formula_sum "Si O2"
_cell_formula_units_Z 60
_cell_length_a 16.064773
_cell_length_b 15.235656
_cell_length_c 21.875531
_cell_angle_alpha 90.000000
_cell_angle_beta 35.703483
_cell_angle_gamma 90.000000
_cell_volume 3124.658979
_symmetry_space_group_name_H-M "C 2/M"
_symmetry_group_IT_number 12
_symmetry_cell_setting 'monoclinic'
loop_
_space_group_symop_operation_xyz
x,y,z
-x,y,-z
-x,-y,-z
x,-y,z
1/2+x,1/2+y,z
1/2-x,1/2+y,-z
1/2-x,1/2-y,-z
1/2+x,1/2-y,z
loop_
_atom_site_type_symbol
_atom_site_label
_atom_site_fract_x
_atom_site_fract_y
_atom_site_fract_z
Si Si1 0.164219 0.597390 0.461218
Si Si2 0.113501 0.901160 0.778106
Si Si3 0.520776 0.266829 0.418946
Si Si4 0.200583 0.902183 0.486237
Si Si5 0.220904 0.673122 0.216521
Si Si6 0.500000 0.761032 0.000000
Si Si7 0.501508 0.894541 0.752199
Si Si8 0.583253 0.230049 0.085983
O O1 0.110436 0.500000 0.480014
O O2 0.284994 0.619822 0.339879
O O3 0.043444 0.669543 0.537060
O O4 0.234855 0.594651 0.485079
O O5 0.217402 0.899596 0.774730
O O6 0.000568 0.822792 0.854260
O O7 0.053868 0.000000 0.805941
O O8 0.500000 0.303313 0.500000
O O9 0.419967 0.329694 0.440892
O O10 0.665499 0.250466 0.295416
O O11 0.332850 0.878808 0.363553
O O12 0.147784 0.000000 0.501461
O O13 0.356999 0.705598 0.097652
O O14 0.097578 0.641128 0.244344
O O15 0.540467 0.802407 0.042581
O O16 0.464289 0.841101 0.835316
O O17 0.481189 0.000000 0.769570
O O18 0.750000 0.250000 0.000000
#
# Coordination Sequence:
#
# PCOD9196422 Si02
#       8
#     8   8   8   8   8   4   8   8
#     4  10  20  35  56  88 125 156 194 245 308 379
#     4  10  22  38  61  93 129 162 199 257 323 381
#     4  12  23  36  62  92 124 168 202 251 318 378
#     4  10  23  39  58  89 126 164 210 253 301 378
#     4  11  22  39  63  93 129 161 206 260 318 383
#     4  10  24  44  62  92 124 166 210 268 320 366
#     4  11  23  40  65  92 123 166 210 259 320 378
#     4  11  23  42  64  89 125 163 215 270 315 377
#
# _framework density 19.202095
#
# number of rings (size 3 to 8) (size 9 to 14) (size 15 to 20)
#    0.000    1.333    4.000    1.600    3.733    1.600 
#    0.000    2.000    0.000    0.800    0.000    0.000 
#    0.000    0.000    0.000    0.000    0.000    0.000 
#
# Total GULP energy -167284.995408 kJ/mol
# GULP energy per Si atom -5576.166514 kJ/mol
# Density = 1.915839 g / cm^3
# Si number density = 19.202095 Si / 1000 Ang^3
#
#
#
# Elastic Constant Matrix: (Units=GPa)
#
#
# Indices 1 2 3 4 5 6 
#
# 1 69.6186 15.8403 22.7505 -0.0005 14.4248 0.0003
# 2 15.8403 46.4881 46.2017 0.0001 -6.5672 0.0000
# 3 22.7505 46.2017 98.7324 0.0007 10.9418 -0.0002
# 4 -0.0005 0.0001 0.0007 17.2282 -0.0001 -10.9138
# 5 14.4248 -6.5672 10.9418 -0.0001 37.4919 0.0000
# 6 0.0003 0.0000 -0.0002 -10.9138 0.0000 47.5502
#
#
#
# Elastic Compliance Matrix: (Units=1/GPa)
#
#
# Indices 1 2 3 4 5 6 
#
# 1 0.017665 -0.007558 0.000378 0.000000 -0.008231 0.000000
# 2 -0.007558 0.050620 -0.024028 0.000001 0.018787 0.000000
# 3 0.000378 -0.024028 0.022495 -0.000001 -0.010920 0.000000
# 4 0.000000 0.000001 -0.000001 0.067920 0.000000 0.015589
# 5 -0.008231 0.018787 -0.010920 0.000000 0.036317 0.000000
# 6 0.000000 0.000000 0.000000 0.015589 0.000000 0.024608
#
#
# Mechanical properties :
#
#
# Convention : Reuss Voigt Hill
#
# Bulk Modulus (GPa) = 35.25440 42.71379 38.98410
# Shear Modulus (GPa) = 17.15283 29.12383 23.13833
#
# Velocity S-wave (km/s) = 2.99202 3.89871 3.47506
# Velocity P-wave (km/s) = 5.50779 6.52374 6.03718
#
# Compressibility (1/GPa) = 0.02836525
#
# Stress axis : x y z
#
# Youngs Moduli (GPa) = 56.60753 19.75488 44.45383
#
# Poissons Ratio (x) = 0.14931 -0.01682
# Poissons Ratio (y) = 0.42785 1.06814
# Poissons Ratio (z) = -0.02142 0.47467
#
# Static dielectric constant tensor:
#      x y z
#    x 1.682700 0.000000 0.028110 
#    y 0.000000 1.649500 0.000000 
#    z 0.028110 0.000000 1.696070 
# 
# From -- ./inp_files/311018.got.cif
#   From: 2010.05.17/outbox.cif.g08.bks.cpg/sg12_156_cif.got.tgz:311018.got - 2010.06.03 13:09:07.
