data_PCOD9196701
_publ_section_title
;
Structure prediction by ZEFSAII (Michael W. Deem and Ramdas Pophale) SiO2 
 PCOD9196701
Probable space group: C 2/M
;
_chemical_formula_sum "Si O2"
_cell_formula_units_Z 56
_cell_length_a 21.445813
_cell_length_b 9.812873
_cell_length_c 13.409052
_cell_angle_alpha 90.000000
_cell_angle_beta 89.669393
_cell_angle_gamma 90.000000
_cell_volume 2821.821499
_symmetry_space_group_name_H-M "C 2/M"
_symmetry_group_IT_number 12
_symmetry_cell_setting 'monoclinic'
loop_
_space_group_symop_operation_xyz
x,y,z
-x,y,-z
-x,-y,-z
x,-y,z
1/2+x,1/2+y,z
1/2-x,1/2+y,-z
1/2-x,1/2-y,-z
1/2+x,1/2-y,z
loop_
_atom_site_type_symbol
_atom_site_label
_atom_site_fract_x
_atom_site_fract_y
_atom_site_fract_z
Si Si1 0.429746 0.659772 0.538081
Si Si2 0.450413 0.340223 0.086641
Si Si3 0.444177 0.343480 0.774943
Si Si4 0.758277 0.350790 0.256073
Si Si5 0.335478 0.150162 0.053455
Si Si6 0.334180 0.842552 0.830524
Si Si7 0.811678 0.336869 0.465965
O O1 0.500000 0.693638 0.500000
O O2 0.417067 0.500000 0.510419
O O3 0.433566 0.666748 0.657781
O O4 0.374263 0.759004 0.501353
O O5 0.437459 0.500000 0.078596
O O6 0.485556 0.314438 0.190654
O O7 0.387621 0.260011 0.073497
O O8 0.500000 0.304631 0.000000
O O9 0.431069 0.500000 0.806927
O O10 0.398292 0.239822 0.829361
O O11 0.727416 0.500000 0.271468
O O12 0.789985 0.351230 0.147775
O O13 0.708654 0.230822 0.250529
O O14 0.806508 0.333974 0.345336
O O15 0.365750 0.000000 0.048835
O O16 0.307175 0.168650 0.943299
O O17 0.342699 0.000000 0.806693
O O18 0.809662 0.500000 0.494474
O O19 0.750000 0.250000 0.500000
#
# Coordination Sequence:
#
# PCOD9196701 Si02
#       7
#     8   8   8   8   8   8   8
#     4  10  23  42  64  91 124 160 201 254 309 359
#     4  10  20  35  57  85 114 151 195 233 278 343
#     4  10  21  38  59  84 118 157 193 233 289 350
#     4  10  23  41  60  83 116 155 190 235 296 351
#     4  10  22  38  56  83 119 152 188 235 289 343
#     4  11  22  36  58  89 117 150 195 239 282 342
#     4  11  24  43  66  91 120 158 206 255 305 362
#
# _framework density 19.845337000000001
#
# number of rings (size 3 to 8) (size 9 to 14) (size 15 to 20)
#    0.000    1.714    1.429    2.143    2.000    7.429 
#    0.000    0.000    0.000    0.000    0.000    0.000 
#    0.000    0.000    0.000    0.000    0.000    0.000 
#
# Total GULP energy -156225.502994 kJ/mol
# GULP energy per Si atom -5579.482250 kJ/mol
# Density = 1.980017 g / cm^3
# Si number density = 19.845337 Si / 1000 Ang^3
#
#
#
# Elastic Constant Matrix: (Units=GPa)
#
#
# Indices 1 2 3 4 5 6 
#
# 1 73.5532 63.9025 16.7711 0.0000 17.8532 0.0000
# 2 63.9025 120.6136 41.8121 0.0000 15.5902 0.0000
# 3 16.7711 41.8121 71.2447 0.0000 15.7513 0.0000
# 4 0.0000 0.0000 0.0000 17.7543 0.0000 -0.1372
# 5 17.8532 15.5902 15.7513 0.0000 35.3816 0.0000
# 6 0.0000 0.0000 0.0000 -0.1372 0.0000 27.3553
#
#
#
# Elastic Compliance Matrix: (Units=1/GPa)
#
#
# Indices 1 2 3 4 5 6 
#
# 1 0.028063 -0.015168 0.004380 0.000000 -0.009427 0.000000
# 2 -0.015168 0.018745 -0.008093 0.000000 0.002997 0.000000
# 3 0.004380 -0.008093 0.019361 0.000000 -0.007263 0.000000
# 4 0.000000 0.000000 0.000000 0.056326 0.000000 0.000282
# 5 -0.009427 0.002997 -0.007263 0.000000 0.034933 0.000000
# 6 0.000000 0.000000 0.000000 0.000282 0.000000 0.036557
#
#
# Mechanical properties :
#
#
# Convention : Reuss Voigt Hill
#
# Bulk Modulus (GPa) = 35.20376 56.70921 45.95648
# Shear Modulus (GPa) = 20.72828 25.62664 23.17746
#
# Velocity S-wave (km/s) = 3.23537 3.59739 3.42117
# Velocity P-wave (km/s) = 5.63333 6.77441 6.23005
#
# Compressibility (1/GPa) = 0.02840606
#
# Stress axis : x y z
#
# Youngs Moduli (GPa) = 35.63450 53.34682 51.65120
#
# Poissons Ratio (x) = 0.80915 -0.22622
# Poissons Ratio (y) = 0.54050 0.41803
# Poissons Ratio (z) = -0.15607 0.43175
#
# Static dielectric constant tensor:
#      x y z
#    x 1.682260 0.000000 -0.007740 
#    y 0.000000 1.701240 0.000000 
#    z -0.007740 0.000000 1.732970 
# 
# From -- ./inp_files/230962.got.cif
#   From: 2010.05.17/outbox.cif.g08.bks.cpg/sg12_116_cif.got.tgz:230962.got - 2010.06.03 13:09:07.
