data_PCOD9196478
_publ_section_title
;
Structure prediction by ZEFSAII (Michael W. Deem and Ramdas Pophale) SiO2 
 PCOD9196478
Probable space group: C 2/M
;
_chemical_formula_sum "Si O2"
_cell_formula_units_Z 56
_cell_length_a 9.400825
_cell_length_b 10.525224
_cell_length_c 31.122542
_cell_angle_alpha 90.000000
_cell_angle_beta 69.679513
_cell_angle_gamma 90.000000
_cell_volume 2887.794698
_symmetry_space_group_name_H-M "C 2/M"
_symmetry_group_IT_number 12
_symmetry_cell_setting 'monoclinic'
loop_
_space_group_symop_operation_xyz
x,y,z
-x,y,-z
-x,-y,-z
x,-y,z
1/2+x,1/2+y,z
1/2-x,1/2+y,-z
1/2-x,1/2-y,-z
1/2+x,1/2-y,z
loop_
_atom_site_type_symbol
_atom_site_label
_atom_site_fract_x
_atom_site_fract_y
_atom_site_fract_z
Si Si1 0.658956 0.643961 0.748142
Si Si2 0.323747 0.712130 0.808858
Si Si3 0.133650 0.500000 0.519893
Si Si4 0.309286 0.648365 0.352140
Si Si5 0.479791 0.773482 0.411175
Si Si6 0.039357 0.000000 0.545578
Si Si7 0.487818 0.856208 0.869311
Si Si8 0.122999 0.352000 0.024917
O O1 0.713839 0.500000 0.741140
O O2 0.478059 0.644370 0.776798
O O3 0.756142 0.711462 0.775063
O O4 0.681064 0.696556 0.697879
O O5 0.392370 0.784578 0.842955
O O6 0.168559 0.647209 0.841516
O O7 0.279560 0.500000 0.474282
O O8 0.000000 0.500000 0.500000
O O9 0.120773 0.371652 0.550040
O O10 0.360820 0.500000 0.348398
O O11 0.403701 0.736717 0.374102
O O12 0.137346 0.656444 0.386211
O O13 0.510070 0.634939 0.429416
O O14 0.000000 0.000000 0.500000
O O15 0.451057 0.814183 0.921598
O O16 0.436334 0.000000 0.871474
O O17 0.176797 0.500000 0.022212
O O18 0.250000 0.250000 0.000000
O O19 0.000000 0.349054 0.000000
#
# Coordination Sequence:
#
# PCOD9196478 Si02
#       8
#     8   8   4   8   8   4   8   8
#     4  10  21  37  60  84 118 150 190 240 294 353
#     4  10  20  36  57  87 111 151 196 238 297 356
#     4  12  24  42  66  94 124 162 196 246 298 346
#     4  11  23  42  62  91 122 159 196 246 295 352
#     4  12  23  43  66  90 126 159 200 242 297 350
#     4  12  24  40  62  96 122 154 204 246 284 354
#     4  10  20  35  57  81 117 152 194 249 299 351
#     4  10  21  37  56  83 118 159 203 250 301 357
#
# _framework density 19.391960999999998
#
# number of rings (size 3 to 8) (size 9 to 14) (size 15 to 20)
#    0.000    1.286    1.429    5.143    0.000    0.286 
#    0.000    3.571    6.286    0.000    0.000    0.000 
#    0.000    0.000    0.000    0.000    0.000    0.000 
#
# Total GULP energy -156130.139532 kJ/mol
# GULP energy per Si atom -5576.076412 kJ/mol
# Density = 1.934782 g / cm^3
# Si number density = 19.391961 Si / 1000 Ang^3
#
#
#
# Elastic Constant Matrix: (Units=GPa)
#
#
# Indices 1 2 3 4 5 6 
#
# 1 88.4629 20.3785 17.1404 0.0000 18.9565 0.0000
# 2 20.3785 82.2331 34.2072 0.0000 15.4060 0.0000
# 3 17.1404 34.2072 104.5217 0.0000 23.0068 0.0000
# 4 0.0000 0.0000 0.0000 28.8130 0.0000 -1.7440
# 5 18.9565 15.4060 23.0068 0.0000 39.6683 0.0000
# 6 0.0000 0.0000 0.0000 -1.7440 0.0000 16.3951
#
#
#
# Elastic Compliance Matrix: (Units=1/GPa)
#
#
# Indices 1 2 3 4 5 6 
#
# 1 0.012963 -0.002118 -0.000287 0.000000 -0.005206 0.000000
# 2 -0.002118 0.014787 -0.003956 0.000000 -0.002437 0.000000
# 3 -0.000287 -0.003956 0.012083 0.000000 -0.005335 0.000000
# 4 0.000000 0.000000 0.000000 0.034931 0.000000 0.003716
# 5 -0.005206 -0.002437 -0.005335 0.000000 0.031737 0.000000
# 6 0.000000 0.000000 0.000000 0.003716 0.000000 0.061389
#
#
# Mechanical properties :
#
#
# Convention : Reuss Voigt Hill
#
# Bulk Modulus (GPa) = 36.88286 46.51887 41.70086
# Shear Modulus (GPa) = 26.36429 30.54137 28.45283
#
# Velocity S-wave (km/s) = 3.69120 3.97287 3.83462
# Velocity P-wave (km/s) = 6.10144 6.71459 6.41535
#
# Compressibility (1/GPa) = 0.02711287
#
# Stress axis : x y z
#
# Youngs Moduli (GPa) = 77.14147 67.62499 82.75869
#
# Poissons Ratio (x) = 0.14322 0.02374
# Poissons Ratio (y) = 0.16337 0.32738
# Poissons Ratio (z) = 0.02212 0.26752
#
# Static dielectric constant tensor:
#      x y z
#    x 1.638970 0.000000 0.004750 
#    y 0.000000 1.663060 0.000000 
#    z 0.004750 0.000000 1.705320 
# 
# From -- ./inp_files/372112.got.cif
#   From: 2010.05.17/outbox.cif.g08.bks.cpg/sg12_187_cif.got.tgz:372112.got - 2010.06.03 13:09:07.
