data_PCOD9196206
_publ_section_title
;
Structure prediction by ZEFSAII (Michael W. Deem and Ramdas Pophale) SiO2 
 PCOD9196206
Probable space group: C 2/M
;
_chemical_formula_sum "Si O2"
_cell_formula_units_Z 64
_cell_length_a 16.103908
_cell_length_b 7.628900
_cell_length_c 25.637653
_cell_angle_alpha 90.000000
_cell_angle_beta 72.042856
_cell_angle_gamma 90.000000
_cell_volume 2996.285601
_symmetry_space_group_name_H-M "C 2/M"
_symmetry_group_IT_number 12
_symmetry_cell_setting 'monoclinic'
loop_
_space_group_symop_operation_xyz
x,y,z
-x,y,-z
-x,-y,-z
x,-y,z
1/2+x,1/2+y,z
1/2-x,1/2+y,-z
1/2-x,1/2-y,-z
1/2+x,1/2-y,z
loop_
_atom_site_type_symbol
_atom_site_label
_atom_site_fract_x
_atom_site_fract_y
_atom_site_fract_z
Si Si1 0.807139 0.296693 0.822789
Si Si2 0.001576 0.711688 0.240521
Si Si3 0.127562 0.790044 0.828119
Si Si4 0.997633 0.785713 0.940755
Si Si5 0.252863 0.210552 0.437921
Si Si6 0.556632 0.788853 0.634478
Si Si7 0.308860 0.708524 0.938621
Si Si8 0.437254 0.710326 0.558692
O O1 0.814706 0.500000 0.805990
O O2 0.903003 0.219856 0.795056
O O3 0.725637 0.218363 0.807476
O O4 0.781992 0.288530 0.888710
O O5 0.004559 0.500000 0.241205
O O6 0.930196 0.757709 0.211213
O O7 0.974991 0.774626 0.302989
O O8 0.075938 0.723730 0.889058
O O9 0.134122 0.000000 0.833223
O O10 0.906782 0.731397 0.932485
O O11 0.998903 0.000000 0.941192
O O12 0.000000 0.727031 0.000000
O O13 0.250000 0.250000 0.500000
O O14 0.345842 0.277185 0.398256
O O15 0.162434 0.275698 0.429135
O O16 0.253860 0.000000 0.431402
O O17 0.486456 0.746947 0.603194
O O18 0.561924 0.000000 0.635752
O O19 0.309419 0.500000 0.931543
O O20 0.250000 0.750000 0.000000
O O21 0.500000 0.777433 0.500000
O O22 0.432663 0.500000 0.553887
#
# Coordination Sequence:
#
# PCOD9196206 Si02
#       8
#     8   8   8   8   8   8   8   8
#     4  10  21  38  60  82 112 150 188 233 285 335
#     4  10  22  40  58  82 118 152 187 237 285 329
#     4  10  20  37  60  83 108 149 195 230 277 339
#     4   9  17  31  52  78 108 140 179 225 272 328
#     4  10  20  35  56  82 114 150 188 230 283 337
#     4  10  22  38  57  83 116 154 191 228 282 344
#     4  11  21  34  55  83 115 148 186 231 284 342
#     4  10  20  35  56  84 116 148 189 239 284 328
#
# _framework density 21.359779
#
# number of rings (size 3 to 8) (size 9 to 14) (size 15 to 20)
#    0.000    2.000    2.500    1.125    0.000    4.750 
#    0.000    0.000    0.000    1.875    0.000    0.000 
#    0.000    0.000    0.000    0.000    0.000    0.000 
#
# Total GULP energy -178734.429523 kJ/mol
# GULP energy per Si atom -5585.450923 kJ/mol
# Density = 2.131116 g / cm^3
# Si number density = 21.359779 Si / 1000 Ang^3
#
#
#
# Elastic Constant Matrix: (Units=GPa)
#
#
# Indices 1 2 3 4 5 6 
#
# 1 221.8500 4.3501 86.6922 0.0000 7.9177 0.0000
# 2 4.3501 42.6923 -12.1689 0.0000 -3.6824 0.0000
# 3 86.6922 -12.1689 135.1459 0.0000 8.4661 0.0000
# 4 0.0000 0.0000 0.0000 17.8219 0.0000 7.0073
# 5 7.9177 -3.6824 8.4661 0.0000 30.0518 0.0000
# 6 0.0000 0.0000 0.0000 7.0073 0.0000 13.7728
#
#
#
# Elastic Compliance Matrix: (Units=1/GPa)
#
#
# Indices 1 2 3 4 5 6 
#
# 1 0.006161 -0.001850 -0.004075 0.000000 -0.000702 0.000000
# 2 -0.001850 0.024764 0.003253 0.000000 0.002605 0.000000
# 3 -0.004075 0.003253 0.010397 0.000000 -0.001457 0.000000
# 4 0.000000 0.000000 0.000000 0.070142 0.000000 -0.035687
# 5 -0.000702 0.002605 -0.001457 0.000000 0.034191 0.000000
# 6 0.000000 0.000000 0.000000 -0.035687 0.000000 0.090764
#
#
# Mechanical properties :
#
#
# Convention : Reuss Voigt Hill
#
# Bulk Modulus (GPa) = 27.79340 61.93723 44.86532
# Shear Modulus (GPa) = 19.70402 33.71694 26.71048
#
# Velocity S-wave (km/s) = 3.04053 3.97738 3.54008
# Velocity P-wave (km/s) = 5.03654 7.08186 6.14490
#
# Compressibility (1/GPa) = 0.03597976
#
# Stress axis : x y z
#
# Youngs Moduli (GPa) = 162.30628 40.38128 96.17713
#
# Poissons Ratio (x) = 0.07470 0.39190
# Poissons Ratio (y) = 0.30024 -0.31288
# Poissons Ratio (z) = 0.66137 -0.13137
#
# Static dielectric constant tensor:
#      x y z
#    x 1.792930 0.000000 -0.024490 
#    y 0.000000 1.785290 0.000000 
#    z -0.024490 0.000000 1.738430 
# 
# From -- ./inp_files/359799.got.cif
#   From: 2010.05.17/outbox.cif.g08.bks.cpg/sg12_180_cif.got.tgz:359799.got - 2010.06.03 13:09:07.
