data_PCOD9196273
_publ_section_title
;
Structure prediction by ZEFSAII (Michael W. Deem and Ramdas Pophale) SiO2 
 PCOD9196273
Probable space group: C 2/M
;
_chemical_formula_sum "Si O2"
_cell_formula_units_Z 64
_cell_length_a 25.543006
_cell_length_b 9.236384
_cell_length_c 14.662614
_cell_angle_alpha 90.000000
_cell_angle_beta 78.005836
_cell_angle_gamma 90.000000
_cell_volume 3383.757113
_symmetry_space_group_name_H-M "C 2/M"
_symmetry_group_IT_number 12
_symmetry_cell_setting 'monoclinic'
loop_
_space_group_symop_operation_xyz
x,y,z
-x,y,-z
-x,-y,-z
x,-y,z
1/2+x,1/2+y,z
1/2-x,1/2+y,-z
1/2-x,1/2-y,-z
1/2+x,1/2-y,z
loop_
_atom_site_type_symbol
_atom_site_label
_atom_site_fract_x
_atom_site_fract_y
_atom_site_fract_z
Si Si1 0.211574 0.171094 0.296433
Si Si2 0.231768 0.327427 0.914614
Si Si3 0.505598 0.830550 0.288611
Si Si4 0.088138 0.171383 0.387647
Si Si5 0.638427 0.665590 0.856177
Si Si6 0.104442 0.328645 0.569553
Si Si7 0.970667 0.332597 0.106788
Si Si8 0.303197 0.666722 0.361515
O O1 0.231022 0.208331 0.186840
O O2 0.148652 0.195672 0.330324
O O3 0.246954 0.258829 0.356723
O O4 0.222498 0.000000 0.305687
O O5 0.231696 0.500000 0.926184
O O6 0.173757 0.268177 0.907292
O O7 0.250000 0.250000 0.000000
O O8 0.544963 0.732225 0.332681
O O9 0.443826 0.807309 0.340783
O O10 0.508582 0.803319 0.179574
O O11 0.517830 0.000000 0.302322
O O12 0.084303 0.256754 0.483752
O O13 0.080682 0.000000 0.404754
O O14 0.640468 0.500000 0.887853
O O15 0.578973 0.725487 0.872721
O O16 0.664663 0.669343 0.746213
O O17 0.112830 0.500000 0.555758
O O18 0.158971 0.252775 0.582722
O O19 0.951925 0.500000 0.124896
O O20 0.000000 0.321060 0.000000
O O21 0.296330 0.500000 0.392782
#
# Coordination Sequence:
#
# PCOD9196273 Si02
#       8
#     8   8   8   8   8   8   8   8
#     4   9  21  40  58  81 117 157 192 235 296 353
#     4  10  20  36  59  84 113 150 195 239 288 350
#     4  10  22  40  60  84 117 156 197 239 290 351
#     4  11  24  40  59  85 118 155 196 244 293 347
#     4  10  20  35  56  83 115 148 188 238 292 342
#     4  11  22  38  62  87 115 155 197 239 294 353
#     4  10  21  38  60  87 117 153 196 239 290 348
#     4  10  20  35  60  89 114 147 193 242 286 341
#
# _framework density 18.913886000000002
#
# number of rings (size 3 to 8) (size 9 to 14) (size 15 to 20)
#    0.000    1.875    1.250    2.250    0.000    7.250 
#    0.000    2.500    0.000    0.000    0.000    0.000 
#    0.000    0.000    0.000    0.000    0.000    0.000 
#
# Total GULP energy -178772.242230 kJ/mol
# GULP energy per Si atom -5586.632570 kJ/mol
# Density = 1.887084 g / cm^3
# Si number density = 18.913886 Si / 1000 Ang^3
#
#
#
# Elastic Constant Matrix: (Units=GPa)
#
#
# Indices 1 2 3 4 5 6 
#
# 1 57.1317 45.3257 23.4536 0.0000 15.5634 0.0000
# 2 45.3257 87.9296 47.8200 0.0000 12.8554 0.0000
# 3 23.4536 47.8200 90.0277 0.0000 22.8673 0.0000
# 4 0.0000 0.0000 0.0000 29.5363 0.0000 9.7190
# 5 15.5634 12.8554 22.8673 0.0000 28.2580 0.0000
# 6 0.0000 0.0000 0.0000 9.7190 0.0000 37.5149
#
#
#
# Elastic Compliance Matrix: (Units=1/GPa)
#
#
# Indices 1 2 3 4 5 6 
#
# 1 0.033394 -0.017397 0.004031 0.000000 -0.013740 0.000000
# 2 -0.017397 0.025062 -0.010470 0.000000 0.006653 0.000000
# 3 0.004031 -0.010470 0.018847 0.000000 -0.012709 0.000000
# 4 0.000000 0.000000 0.000000 0.037012 0.000000 -0.009589
# 5 -0.013740 0.006653 -0.012709 0.000000 0.050213 0.000000
# 6 0.000000 0.000000 0.000000 -0.009589 0.000000 0.029140
#
#
# Mechanical properties :
#
#
# Convention : Reuss Voigt Hill
#
# Bulk Modulus (GPa) = 33.74867 52.03196 42.89031
# Shear Modulus (GPa) = 19.90321 26.96116 23.43219
#
# Velocity S-wave (km/s) = 3.24745 3.77963 3.52360
# Velocity P-wave (km/s) = 5.65184 6.82768 6.26739
#
# Compressibility (1/GPa) = 0.02963080
#
# Stress axis : x y z
#
# Youngs Moduli (GPa) = 29.94585 39.90128 53.05962
#
# Poissons Ratio (x) = 0.69417 -0.21390
# Poissons Ratio (y) = 0.52098 0.55552
# Poissons Ratio (z) = -0.12072 0.41775
#
# Static dielectric constant tensor:
#      x y z
#    x 1.633140 0.000000 -0.018740 
#    y 0.000000 1.639450 0.000000 
#    z -0.018740 0.000000 1.658170 
# 
# From -- ./inp_files/238640.got.cif
#   From: 2010.05.17/outbox.cif.g08.bks.cpg/sg12_120_cif.got.tgz:238640.got - 2010.06.03 13:09:07.
