data_PCOD9196355
_publ_section_title
;
Structure prediction by ZEFSAII (Michael W. Deem and Ramdas Pophale) SiO2 
 PCOD9196355
Probable space group: C 2/M
;
_chemical_formula_sum "Si O2"
_cell_formula_units_Z 48
_cell_length_a 11.653668
_cell_length_b 22.685583
_cell_length_c 9.626077
_cell_angle_alpha 90.000000
_cell_angle_beta 89.821440
_cell_angle_gamma 90.000000
_cell_volume 2544.836051
_symmetry_space_group_name_H-M "C 2/M"
_symmetry_group_IT_number 12
_symmetry_cell_setting 'monoclinic'
loop_
_space_group_symop_operation_xyz
x,y,z
-x,y,-z
-x,-y,-z
x,-y,z
1/2+x,1/2+y,z
1/2-x,1/2+y,-z
1/2-x,1/2-y,-z
1/2+x,1/2-y,z
loop_
_atom_site_type_symbol
_atom_site_label
_atom_site_fract_x
_atom_site_fract_y
_atom_site_fract_z
Si Si1 0.638691 0.936342 0.467728
Si Si2 0.135572 0.164357 0.982035
Si Si3 0.259921 0.255289 0.788888
Si Si4 0.799493 0.432347 0.860136
Si Si5 0.462063 0.829585 0.857229
Si Si6 0.611115 0.181383 0.595283
O O1 0.500000 0.935490 0.500000
O O2 0.678062 0.934212 0.306956
O O3 0.675869 0.874659 0.531411
O O4 0.678743 0.000000 0.523603
O O5 0.168259 0.217020 0.876029
O O6 0.190984 0.104861 0.917050
O O7 0.198130 0.187448 0.123346
O O8 0.000000 0.158046 0.000000
O O9 0.368565 0.212004 0.784100
O O10 0.201948 0.270214 0.643370
O O11 0.799892 0.500000 0.908361
O O12 0.903339 0.390195 0.904341
O O13 0.558806 0.839063 0.743855
O O14 0.500000 0.800131 0.000000
O O15 0.500000 0.197265 0.500000
#
# Coordination Sequence:
#
# PCOD9196355 Si02
#       6
#     8   8   8   8   8   8
#     4   9  17  34  56  79 113 151 181 231 299 341
#     4  10  20  38  59  80 113 159 191 230 292 341
#     4  10  21  36  57  80 117 151 192 236 287 338
#     4  10  20  35  56  85 113 145 194 241 283 340
#     4  11  21  36  57  83 117 153 185 233 293 340
#     4  11  20  34  56  86 113 149 190 232 283 347
#
# _framework density 18.861726999999998
#
# number of rings (size 3 to 8) (size 9 to 14) (size 15 to 20)
#    0.000    1.833    3.333    4.500    0.000    1.333 
#    0.000    2.500    0.000    0.000    0.000    2.333 
#    0.000    0.000    0.000    0.000    0.000    0.000 
#
# Total GULP energy -133643.638482 kJ/mol
# GULP energy per Si atom -5568.484937 kJ/mol
# Density = 1.881880 g / cm^3
# Si number density = 18.861727 Si / 1000 Ang^3
#
#
#
# Elastic Constant Matrix: (Units=GPa)
#
#
# Indices 1 2 3 4 5 6 
#
# 1 91.8250 46.2005 39.5171 0.0000 -3.2277 0.0000
# 2 46.2005 117.6530 30.9332 0.0000 10.2938 0.0000
# 3 39.5171 30.9332 68.1928 0.0000 7.6415 0.0000
# 4 0.0000 0.0000 0.0000 66.8769 0.0000 -5.8410
# 5 -3.2277 10.2938 7.6415 0.0000 38.4495 0.0000
# 6 0.0000 0.0000 0.0000 -5.8410 0.0000 9.1860
#
#
#
# Elastic Compliance Matrix: (Units=1/GPa)
#
#
# Indices 1 2 3 4 5 6 
#
# 1 0.017015 -0.004930 -0.008112 0.000000 0.004361 0.000000
# 2 -0.004930 0.011196 -0.001881 0.000000 -0.003037 0.000000
# 3 -0.008112 -0.001881 0.020700 0.000000 -0.004291 0.000000
# 4 0.000000 0.000000 0.000000 0.015832 0.000000 0.010067
# 5 0.004361 -0.003037 -0.004291 0.000000 0.028040 0.000000
# 6 0.000000 0.000000 0.000000 0.010067 0.000000 0.115262
#
#
# Mechanical properties :
#
#
# Convention : Reuss Voigt Hill
#
# Bulk Modulus (GPa) = 52.45752 56.77471 54.61611
# Shear Modulus (GPa) = 20.47102 33.63715 27.05409
#
# Velocity S-wave (km/s) = 3.29799 4.22756 3.79137
# Velocity P-wave (km/s) = 6.50956 7.34816 6.94154
#
# Compressibility (1/GPa) = 0.01906304
#
# Stress axis : x y z
#
# Youngs Moduli (GPa) = 58.77046 89.31781 48.31013
#
# Poissons Ratio (x) = 0.44036 0.39191
# Poissons Ratio (y) = 0.28975 0.09088
# Poissons Ratio (z) = 0.47677 0.16803
#
# Static dielectric constant tensor:
#      x y z
#    x 1.694630 0.000000 0.007180 
#    y 0.000000 1.709370 0.000000 
#    z 0.007180 0.000000 1.690880 
# 
# From -- ./inp_files/50703.got.cif
#   From: 2010.05.17/outbox.cif.g08.bks.cpg/sg12_26_cif.got.tgz:50703.got - 2010.06.03 13:09:07.
