data_PCOD9196608
_publ_section_title
;
Structure prediction by ZEFSAII (Michael W. Deem and Ramdas Pophale) SiO2 
 PCOD9196608
Probable space group: C 2/M
;
_chemical_formula_sum "Si O2"
_cell_formula_units_Z 42
_cell_length_a 28.646692
_cell_length_b 10.878983
_cell_length_c 9.094406
_cell_angle_alpha 90.000000
_cell_angle_beta 123.937052
_cell_angle_gamma 90.000000
_cell_volume 2351.433932
_symmetry_space_group_name_H-M "C 2/M"
_symmetry_group_IT_number 12
_symmetry_cell_setting 'monoclinic'
loop_
_space_group_symop_operation_xyz
x,y,z
-x,y,-z
-x,-y,-z
x,-y,z
1/2+x,1/2+y,z
1/2-x,1/2+y,-z
1/2-x,1/2-y,-z
1/2+x,1/2-y,z
loop_
_atom_site_type_symbol
_atom_site_label
_atom_site_fract_x
_atom_site_fract_y
_atom_site_fract_z
Si Si1 0.808777 0.859321 0.744901
Si Si2 0.613825 0.644457 0.851622
Si Si3 0.500000 0.000000 0.500000
Si Si4 0.822949 0.363371 0.555215
Si Si5 0.500425 0.647258 0.831402
Si Si6 0.414550 0.204564 0.481627
O O1 0.831603 0.751390 0.680141
O O2 0.741350 0.854725 0.614693
O O3 0.826645 0.000000 0.734340
O O4 0.832305 0.837990 0.949422
O O5 0.609407 0.500000 0.807293
O O6 0.559495 0.676779 0.856078
O O7 0.612343 0.722349 0.701740
O O8 0.457545 0.106141 0.491773
O O9 0.829306 0.500000 0.635515
O O10 0.866139 0.352201 0.497774
O O11 0.494551 0.500000 0.821912
O O12 0.450982 0.705870 0.649569
O O13 0.500000 0.690270 0.000000
#
# Coordination Sequence:
#
# PCOD9196608 Si02
#       6
#     8   8   2   8   8   8
#     4   9  20  40  62  86 115 145 191 245 290 340
#     4  10  20  36  58  83 111 144 188 240 289 335
#     4  12  24  40  52  80 120 164 190 226 272 350
#     4  10  21  38  60  86 115 152 191 236 289 343
#     4  10  20  35  57  84 108 139 186 238 288 335
#     4  12  22  38  57  80 117 155 191 228 282 341
#
# _framework density 17.861442
#
# number of rings (size 3 to 8) (size 9 to 14) (size 15 to 20)
#    0.000    1.714    2.857    1.714    0.000    5.333 
#    1.714    0.476    0.000    0.000    0.000    0.000 
#    0.000    0.000    0.000    0.000    0.000    0.000 
#
# Total GULP energy -116905.212518 kJ/mol
# GULP energy per Si atom -5566.914882 kJ/mol
# Density = 1.782079 g / cm^3
# Si number density = 17.861442 Si / 1000 Ang^3
#
#
#
# Elastic Constant Matrix: (Units=GPa)
#
#
# Indices 1 2 3 4 5 6 
#
# 1 70.3481 37.0052 8.3392 0.0000 -11.3533 0.0000
# 2 37.0052 82.4417 58.5697 0.0000 -8.0352 0.0000
# 3 8.3392 58.5697 102.5345 0.0000 -8.0428 0.0000
# 4 0.0000 0.0000 0.0000 -12.6756 0.0000 -2.6058
# 5 -11.3533 -8.0352 -8.0428 0.0000 14.3839 0.0000
# 6 0.0000 0.0000 0.0000 -2.6058 0.0000 26.2609
#
#
#
# Elastic Compliance Matrix: (Units=1/GPa)
#
#
# Indices 1 2 3 4 5 6 
#
# 1 0.023157 -0.014226 0.007377 0.000000 0.014456 0.000000
# 2 -0.014226 0.029519 -0.015994 0.000000 -0.003682 0.000000
# 3 0.007377 -0.015994 0.018872 0.000000 0.007441 0.000000
# 4 0.000000 0.000000 0.000000 -0.077315 0.000000 -0.007672
# 5 0.014456 -0.003682 0.007441 0.000000 0.083036 0.000000
# 6 0.000000 0.000000 0.000000 -0.007672 0.000000 0.037318
#
#
# Mechanical properties :
#
#
# Convention : Reuss Voigt Hill
#
# Bulk Modulus (GPa) = 38.66622 51.46137 45.06379
# Shear Modulus (GPa) = 29.60420 15.68784 22.64602
#
# Velocity S-wave (km/s) = 4.07558 2.96684 3.56458
# Velocity P-wave (km/s) = 6.62133 6.37261 6.49816
#
# Compressibility (1/GPa) = 0.02586237
#
# Stress axis : x y z
#
# Youngs Moduli (GPa) = 43.18363 33.87640 52.98743
#
# Poissons Ratio (x) = 0.48193 -0.39088
# Poissons Ratio (y) = 0.61434 0.84746
# Poissons Ratio (z) = -0.31856 0.54181
#
# Static dielectric constant tensor:
#      x y z
#    x 1.598730 0.000000 0.011160 
#    y 0.000000 1.618510 0.000000 
#    z 0.011160 0.000000 1.583930 
# 
# From -- ./inp_files/84272.got.cif
#   From: 2010.05.17/outbox.cif.g08.bks.cpg/sg12_43_cif.got.tgz:84272.got - 2010.06.03 13:09:07.
