data_PCOD9196697
_publ_section_title
;
Structure prediction by ZEFSAII (Michael W. Deem and Ramdas Pophale) SiO2 
 PCOD9196697
Probable space group: C 2/M
;
_chemical_formula_sum "Si O2"
_cell_formula_units_Z 40
_cell_length_a 14.711097
_cell_length_b 26.563022
_cell_length_c 8.326484
_cell_angle_alpha 90.000000
_cell_angle_beta 37.390776
_cell_angle_gamma 90.000000
_cell_volume 1975.833037
_symmetry_space_group_name_H-M "C 2/M"
_symmetry_group_IT_number 12
_symmetry_cell_setting 'monoclinic'
loop_
_space_group_symop_operation_xyz
x,y,z
-x,y,-z
-x,-y,-z
x,-y,z
1/2+x,1/2+y,z
1/2-x,1/2+y,-z
1/2-x,1/2-y,-z
1/2+x,1/2-y,z
loop_
_atom_site_type_symbol
_atom_site_label
_atom_site_fract_x
_atom_site_fract_y
_atom_site_fract_z
Si Si1 0.160805 0.556632 0.354706
Si Si2 0.323692 0.555450 0.795123
Si Si3 0.826993 0.753601 0.217942
Si Si4 0.160761 0.136392 0.731433
Si Si5 0.837435 0.839611 0.646742
O O1 0.156230 0.500000 0.427728
O O2 0.208426 0.597694 0.416259
O O3 0.000000 0.566691 0.500000
O O4 0.284703 0.557615 0.038371
O O5 0.500000 0.555897 0.500000
O O6 0.265859 0.500000 0.821390
O O7 0.263481 0.608481 0.812894
O O8 0.750000 0.750000 0.500000
O O9 0.819042 0.812982 0.189509
O O10 0.752323 0.712513 0.207535
O O11 0.000000 0.740769 0.000000
O O12 0.149892 0.151882 0.561728
O O13 0.000000 0.113304 0.000000
O O14 0.000000 0.834538 0.500000
#
# Coordination Sequence:
#
# PCOD9196697 Si02
#       5
#     8   8   8   8   8
#     4  10  22  39  58  84 116 147 185 234 284 332
#     4   9  18  34  55  80 110 143 182 226 272 328
#     4   9  20  37  54  78 112 146 183 229 276 329
#     4  10  20  37  58  83 114 149 190 230 276 337
#     4  10  20  35  57  85 114 146 188 234 280 331
#
# _framework density 20.244624999999999
#
# number of rings (size 3 to 8) (size 9 to 14) (size 15 to 20)
#    0.000    2.400    0.000    2.400    0.000    5.200 
#    0.000   14.000    0.000    4.200    0.000    0.000 
#    0.000    0.000    0.000    0.000    0.000    0.000 
#
# Total GULP energy -111415.076877 kJ/mol
# GULP energy per Si atom -5570.753844 kJ/mol
# Density = 2.019855 g / cm^3
# Si number density = 20.244625 Si / 1000 Ang^3
#
#
#
# Elastic Constant Matrix: (Units=GPa)
#
#
# Indices 1 2 3 4 5 6 
#
# 1 93.1654 92.3715 13.6042 0.0000 -16.8475 0.0000
# 2 92.3715 153.5644 -1.6581 0.0000 -23.9486 0.0000
# 3 13.6042 -1.6581 57.3988 0.0000 -9.1332 0.0000
# 4 0.0000 0.0000 0.0000 23.2390 0.0000 2.8341
# 5 -16.8475 -23.9486 -9.1332 0.0000 22.0446 0.0000
# 6 0.0000 0.0000 0.0000 2.8341 0.0000 9.6227
#
#
#
# Elastic Compliance Matrix: (Units=1/GPa)
#
#
# Indices 1 2 3 4 5 6 
#
# 1 0.029510 -0.017817 -0.007494 0.000000 0.000092 0.000000
# 2 -0.017817 0.018755 0.006252 0.000000 0.009348 0.000000
# 3 -0.007494 0.006252 0.020928 0.000000 0.009735 0.000000
# 4 0.000000 0.000000 0.000000 0.044634 0.000000 -0.013146
# 5 0.000092 0.009348 0.009735 0.000000 0.059621 0.000000
# 6 0.000000 0.000000 0.000000 -0.013146 0.000000 0.107793
#
#
# Mechanical properties :
#
#
# Convention : Reuss Voigt Hill
#
# Bulk Modulus (GPa) = 32.18184 56.97378 44.57781
# Shear Modulus (GPa) = 15.16445 24.30198 19.73321
#
# Velocity S-wave (km/s) = 2.73987 3.46846 3.12547
# Velocity P-wave (km/s) = 5.09315 6.65162 5.92386
#
# Compressibility (1/GPa) = 0.03107343
#
# Stress axis : x y z
#
# Youngs Moduli (GPa) = 33.88658 53.31984 47.78319
#
# Poissons Ratio (x) = 0.95002 0.35810
# Poissons Ratio (y) = 0.60377 -0.29875
# Poissons Ratio (z) = 0.25396 -0.33336
#
# Static dielectric constant tensor:
#      x y z
#    x 1.705010 0.000000 0.014950 
#    y 0.000000 1.795320 0.000000 
#    z 0.014950 0.000000 1.737820 
# 
# From -- ./inp_files/66384.got.cif
#   From: 2010.05.17/outbox.cif.g08.bks.cpg/sg12_34_cif.got.tgz:66384.got - 2010.06.03 13:09:07.
