data_PCOD9196891
_publ_section_title
;
Structure prediction by ZEFSAII (Michael W. Deem and Ramdas Pophale) SiO2 
 PCOD9196891
Probable space group: C 2/M
;
_chemical_formula_sum "Si O2"
_cell_formula_units_Z 48
_cell_length_a 24.788976
_cell_length_b 8.969972
_cell_length_c 19.357623
_cell_angle_alpha 90.000000
_cell_angle_beta 141.818233
_cell_angle_gamma 90.000000
_cell_volume 2660.733610
_symmetry_space_group_name_H-M "C 2/M"
_symmetry_group_IT_number 12
_symmetry_cell_setting 'monoclinic'
loop_
_space_group_symop_operation_xyz
x,y,z
-x,y,-z
-x,-y,-z
x,-y,z
1/2+x,1/2+y,z
1/2-x,1/2+y,-z
1/2-x,1/2-y,-z
1/2+x,1/2-y,z
loop_
_atom_site_type_symbol
_atom_site_label
_atom_site_fract_x
_atom_site_fract_y
_atom_site_fract_z
Si Si1 0.163033 0.821821 0.993138
Si Si2 0.351306 0.677359 0.524981
Si Si3 0.994663 0.178989 0.914061
Si Si4 0.150750 0.177671 0.819790
Si Si5 0.646210 0.822844 0.325125
Si Si6 0.495569 0.178503 0.576451
O O1 0.252283 0.736294 0.099112
O O2 0.179095 0.000000 0.013553
O O3 0.084411 0.783285 0.965000
O O4 0.136846 0.788704 0.887358
O O5 0.365586 0.500000 0.539176
O O6 0.375512 0.742769 0.624399
O O7 0.248165 0.706865 0.411744
O O8 0.410073 0.753520 0.526288
O O9 0.915851 0.260315 0.796472
O O10 0.982460 0.000000 0.895836
O O11 0.000000 0.217078 0.000000
O O12 0.078633 0.256825 0.700759
O O13 0.145451 0.000000 0.805503
O O14 0.635541 0.000000 0.322488
O O15 0.500000 0.217438 0.500000
O O16 0.494244 0.000000 0.581380
#
# Coordination Sequence:
#
# PCOD9196891 Si02
#       6
#     8   8   8   8   8   8
#     4   9  19  36  56  80 109 141 181 227 275 327
#     4  10  21  38  60  85 112 144 185 231 278 330
#     4  10  21  36  55  80 112 150 187 226 275 329
#     4  10  20  35  58  83 107 141 184 230 276 324
#     4  10  21  37  59  85 112 145 186 233 280 328
#     4  11  24  39  56  81 114 151 187 226 276 332
#
# _framework density 18.040139
#
# number of rings (size 3 to 8) (size 9 to 14) (size 15 to 20)
#    0.000    2.000    0.000    3.000    0.000    7.667 
#    0.000    5.000    0.000    0.000    0.000    0.000 
#    0.000    0.000    0.000    0.000    0.000    0.000 
#
# Total GULP energy -134097.438772 kJ/mol
# GULP energy per Si atom -5587.393282 kJ/mol
# Density = 1.799908 g / cm^3
# Si number density = 18.040139 Si / 1000 Ang^3
#
#
#
# Elastic Constant Matrix: (Units=GPa)
#
#
# Indices 1 2 3 4 5 6 
#
# 1 145.3587 80.2021 121.5636 0.0000 -13.5967 0.0000
# 2 80.2021 58.4491 48.7421 0.0000 1.4589 0.0000
# 3 121.5636 48.7421 50.4876 0.0000 9.7714 0.0000
# 4 0.0000 0.0000 0.0000 36.2674 0.0000 0.1161
# 5 -13.5967 1.4589 9.7714 0.0000 7.4358 0.0000
# 6 0.0000 0.0000 0.0000 0.1161 0.0000 27.8789
#
#
#
# Elastic Compliance Matrix: (Units=1/GPa)
#
#
# Indices 1 2 3 4 5 6 
#
# 1 0.000010 -0.011085 0.013752 0.000000 -0.015879 0.000000
# 2 -0.011085 0.048463 -0.019224 0.000000 -0.004514 0.000000
# 3 0.013752 -0.019224 -0.000459 0.000000 0.029520 0.000000
# 4 0.000000 0.000000 0.000000 0.027573 0.000000 -0.000115
# 5 -0.015879 -0.004514 0.029520 0.000000 0.067542 0.000000
# 6 0.000000 0.000000 0.000000 -0.000115 0.000000 0.035870
#
#
# Mechanical properties :
#
#
# Convention : Reuss Voigt Hill
#
# Bulk Modulus (GPa) = 67.11438 83.92343 75.51890
# Shear Modulus (GPa) = 23.03293 14.56892 18.80093
#
# Velocity S-wave (km/s) = 3.57705 2.84488 3.23177
# Velocity P-wave (km/s) = 7.37184 7.57711 7.47518
#
# Compressibility (1/GPa) = 0.01489994
#
# Stress axis : x y z
#
# Youngs Moduli (GPa) = 104923.66335 20.63409 -2180.76417
#
# Poissons Ratio (x) = 0.22872 29.98968
# Poissons Ratio (y) = 1163.05625 -41.92387
# Poissons Ratio (z) = -1442.90110 0.39668
#
# Static dielectric constant tensor:
#      x y z
#    x 1.594030 0.000000 0.012520 
#    y 0.000000 1.600530 0.000000 
#    z 0.012520 0.000000 1.579270 
# 
# From -- ./inp_files/327360.got.cif
#   From: 2010.05.17/outbox.cif.g08.bks.cpg/sg12_164_cif.got.tgz:327360.got - 2010.06.03 13:09:07.
