data_PCOD9196812
_publ_section_title
;
Structure prediction by ZEFSAII (Michael W. Deem and Ramdas Pophale) SiO2 
 PCOD9196812
Probable space group: C 2/M
;
_chemical_formula_sum "Si O2"
_cell_formula_units_Z 64
_cell_length_a 26.914677
_cell_length_b 12.963816
_cell_length_c 14.294387
_cell_angle_alpha 90.000000
_cell_angle_beta 137.879262
_cell_angle_gamma 90.000000
_cell_volume 3345.127839
_symmetry_space_group_name_H-M "C 2/M"
_symmetry_group_IT_number 12
_symmetry_cell_setting 'monoclinic'
loop_
_space_group_symop_operation_xyz
x,y,z
-x,y,-z
-x,-y,-z
x,-y,z
1/2+x,1/2+y,z
1/2-x,1/2+y,-z
1/2-x,1/2-y,-z
1/2+x,1/2-y,z
loop_
_atom_site_type_symbol
_atom_site_label
_atom_site_fract_x
_atom_site_fract_y
_atom_site_fract_z
Si Si1 0.550298 0.118199 0.441708
Si Si2 0.826100 0.113735 0.410406
Si Si3 0.356459 0.744516 0.950693
Si Si4 0.008807 0.884829 0.900425
Si Si5 0.184818 0.277721 0.742527
Si Si6 0.395383 0.225937 0.654381
Si Si7 0.383041 0.873424 0.176920
Si Si8 0.656786 0.883776 0.238930
O O1 0.619093 0.164393 0.594751
O O2 0.569383 0.136822 0.359819
O O3 0.465389 0.155945 0.331138
O O4 0.547886 0.000000 0.464309
O O5 0.830459 0.159700 0.311424
O O6 0.857898 0.195854 0.528469
O O7 0.740620 0.106548 0.320179
O O8 0.859785 0.000000 0.464083
O O9 0.270304 0.709055 0.830088
O O10 0.378133 0.811304 0.889230
O O11 0.409525 0.645851 0.020199
O O12 0.370625 0.819000 0.059423
O O13 0.956677 0.795639 0.788937
O O14 0.988450 0.000000 0.839259
O O15 0.000000 0.884970 0.000000
O O16 0.174611 0.320085 0.832477
O O17 0.346422 0.173726 0.666216
O O18 0.377449 0.000000 0.165032
O O19 0.625337 0.000000 0.201025
#
# Coordination Sequence:
#
# PCOD9196812 Si02
#       8
#     8   8   8   8   8   8   8   8
#     4  10  21  37  61  91 121 152 191 245 304 359
#     4   9  20  37  58  84 115 155 195 238 292 348
#     4  11  22  41  58  87 119 160 199 247 293 351
#     4  11  23  39  57  79 114 160 202 238 285 347
#     4  10  22  38  62  86 121 153 199 248 300 352
#     4  11  19  36  59  84 117 152 195 238 289 352
#     4  11  22  39  64  91 119 154 197 250 310 357
#     4  10  20  35  57  87 119 150 189 239 297 356
#
# _framework density 19.132303
#
# number of rings (size 3 to 8) (size 9 to 14) (size 15 to 20)
#    0.000    1.625    2.500    2.625    0.000    2.500 
#    0.000    1.250    0.000    1.500    0.000    0.000 
#    0.000    0.000    0.000    0.000    0.000    0.000 
#
# Total GULP energy -178204.021734 kJ/mol
# GULP energy per Si atom -5568.875679 kJ/mol
# Density = 1.908876 g / cm^3
# Si number density = 19.132303 Si / 1000 Ang^3
#
#
#
# Elastic Constant Matrix: (Units=GPa)
#
#
# Indices 1 2 3 4 5 6 
#
# 1 77.4465 36.3258 5.9354 0.0000 -12.8684 0.0000
# 2 36.3258 59.0209 8.5740 0.0000 -0.8865 0.0000
# 3 5.9354 8.5740 36.1331 0.0000 2.8702 0.0000
# 4 0.0000 0.0000 0.0000 16.6361 0.0000 4.2417
# 5 -12.8684 -0.8865 2.8702 0.0000 30.7720 0.0000
# 6 0.0000 0.0000 0.0000 4.2417 0.0000 19.8222
#
#
#
# Elastic Compliance Matrix: (Units=1/GPa)
#
#
# Indices 1 2 3 4 5 6 
#
# 1 0.019979 -0.012019 -0.001074 0.000000 0.008109 0.000000
# 2 -0.012019 0.024803 -0.003595 0.000000 -0.003976 0.000000
# 3 -0.001074 -0.003595 0.028964 0.000000 -0.003254 0.000000
# 4 0.000000 0.000000 0.000000 0.063579 0.000000 -0.013605
# 5 0.008109 -0.003976 -0.003254 0.000000 0.036077 0.000000
# 6 0.000000 0.000000 0.000000 -0.013605 0.000000 0.053360
#
#
# Mechanical properties :
#
#
# Convention : Reuss Voigt Hill
#
# Bulk Modulus (GPa) = 24.77136 30.47455 27.62296
# Shear Modulus (GPa) = 18.27521 21.56376 19.91949
#
# Velocity S-wave (km/s) = 3.09399 3.36085 3.23018
# Velocity P-wave (km/s) = 5.07338 5.56986 5.32741
#
# Compressibility (1/GPa) = 0.04036920
#
# Stress axis : x y z
#
# Youngs Moduli (GPa) = 50.05215 40.31773 34.52614
#
# Poissons Ratio (x) = 0.48457 0.03708
# Poissons Ratio (y) = 0.60157 0.12414
# Poissons Ratio (z) = 0.05376 0.14496
#
# Static dielectric constant tensor:
#      x y z
#    x 1.682710 0.000000 -0.006890 
#    y 0.000000 1.669180 0.000000 
#    z -0.006890 0.000000 1.711260 
# 
# From -- ./inp_files/245975.got.cif
#   From: 2010.05.17/outbox.cif.g08.bks.cpg/sg12_123_cif.got.tgz:245975.got - 2010.06.03 13:09:07.
