data_PCOD9196690
_publ_section_title
;
Structure prediction by ZEFSAII (Michael W. Deem and Ramdas Pophale) SiO2 
 PCOD9196690
Probable space group: C 2/M
;
_chemical_formula_sum "Si O2"
_cell_formula_units_Z 58
_cell_length_a 15.209736
_cell_length_b 10.358423
_cell_length_c 17.837894
_cell_angle_alpha 90.000000
_cell_angle_beta 65.167485
_cell_angle_gamma 90.000000
_cell_volume 2550.494173
_symmetry_space_group_name_H-M "C 2/M"
_symmetry_group_IT_number 12
_symmetry_cell_setting 'monoclinic'
loop_
_space_group_symop_operation_xyz
x,y,z
-x,y,-z
-x,-y,-z
x,-y,z
1/2+x,1/2+y,z
1/2-x,1/2+y,-z
1/2-x,1/2-y,-z
1/2+x,1/2-y,z
loop_
_atom_site_type_symbol
_atom_site_label
_atom_site_fract_x
_atom_site_fract_y
_atom_site_fract_z
Si Si1 0.970012 0.641473 0.766293
Si Si2 0.631747 0.350149 0.480985
Si Si3 0.661416 0.767901 0.971469
Si Si4 0.635827 0.854897 0.605003
Si Si5 0.190478 0.854818 0.811440
Si Si6 0.638897 0.147173 0.353074
Si Si7 0.039858 0.135846 0.121744
Si Si8 0.500000 0.000000 0.000000
O O1 0.956799 0.500000 0.804630
O O2 0.919250 0.648880 0.703909
O O3 0.932188 0.746209 0.836015
O O4 0.082478 0.657472 0.703580
O O5 0.599390 0.500000 0.493869
O O6 0.607562 0.265400 0.562887
O O7 0.748678 0.354893 0.434041
O O8 0.603874 0.258542 0.421218
O O9 0.706153 0.743078 0.873591
O O10 0.584603 0.887065 0.990682
O O11 0.750000 0.750000 0.000000
O O12 0.590247 0.653477 0.024165
O O13 0.607141 0.000000 0.586880
O O14 0.251331 0.828543 0.714546
O O15 0.075805 0.858404 0.840882
O O16 0.222090 0.000000 0.823328
O O17 0.633480 0.000000 0.386461
O O18 0.069740 0.000000 0.145236
#
# Coordination Sequence:
#
# PCOD9196690 Si02
#       8
#     8   8   8   8   8   8   8   2
#     4  10  22  38  59  86 118 158 211 265 324 395
#     4  10  20  35  57  85 113 150 195 251 316 385
#     4  12  26  45  69 101 142 182 238 297 350 426
#     4   9  19  37  58  82 111 151 197 249 310 381
#     4  10  21  41  63  88 126 172 219 270 337 405
#     4  10  21  38  58  85 117 161 206 256 323 396
#     4  11  23  40  63  92 129 174 220 275 347 407
#     4  12  28  48  70 114 140 192 250 292 380 434
#
# _framework density 22.740691000000002
#
# number of rings (size 3 to 8) (size 9 to 14) (size 15 to 20)
#    0.000    1.655    1.379    2.483    2.897    3.310 
#    1.241    2.759    0.000    0.000    0.000    0.000 
#    0.000    0.000    0.000    0.000    0.000    0.000 
#
# Total GULP energy -161526.070540 kJ/mol
# GULP energy per Si atom -5569.864501 kJ/mol
# Density = 2.268893 g / cm^3
# Si number density = 22.740691 Si / 1000 Ang^3
#
#
#
# Elastic Constant Matrix: (Units=GPa)
#
#
# Indices 1 2 3 4 5 6 
#
# 1 91.8224 38.7700 -2.9737 0.0000 -15.2124 0.0000
# 2 38.7700 194.8054 46.3892 0.0000 19.6958 0.0000
# 3 -2.9737 46.3892 46.0204 0.0000 -0.5071 0.0000
# 4 0.0000 0.0000 0.0000 25.4069 0.0000 5.5404
# 5 -15.2124 19.6958 -0.5071 0.0000 31.9134 0.0000
# 6 0.0000 0.0000 0.0000 5.5404 0.0000 15.1696
#
#
#
# Elastic Compliance Matrix: (Units=1/GPa)
#
#
# Indices 1 2 3 4 5 6 
#
# 1 0.015433 -0.005868 0.007034 0.000000 0.011090 0.000000
# 2 -0.005868 0.009625 -0.010179 0.000000 -0.008899 0.000000
# 3 0.007034 -0.010179 0.032557 0.000000 0.010153 0.000000
# 4 0.000000 0.000000 0.000000 0.042765 0.000000 -0.015619
# 5 0.011090 -0.008899 0.010153 0.000000 0.042274 0.000000
# 6 0.000000 0.000000 0.000000 -0.015619 0.000000 0.071626
#
#
# Mechanical properties :
#
#
# Convention : Reuss Voigt Hill
#
# Bulk Modulus (GPa) = 25.25935 55.22436 40.24185
# Shear Modulus (GPa) = 20.36641 31.19551 25.78096
#
# Velocity S-wave (km/s) = 2.99589 3.70779 3.37069
# Velocity P-wave (km/s) = 4.80612 6.53203 5.73438
#
# Compressibility (1/GPa) = 0.03958931
#
# Stress axis : x y z
#
# Youngs Moduli (GPa) = 64.79517 103.89778 30.71568
#
# Poissons Ratio (x) = 0.60966 -0.21606
# Poissons Ratio (y) = 0.38021 0.31266
# Poissons Ratio (z) = -0.45579 1.05760
#
# Static dielectric constant tensor:
#      x y z
#    x 1.943880 0.000000 -0.022640 
#    y 0.000000 1.846450 0.000000 
#    z -0.022640 0.000000 1.837560 
# 
# From -- ./inp_files/314784.got.cif
#   From: 2010.05.17/outbox.cif.g08.bks.cpg/sg12_158_cif.got.tgz:314784.got - 2010.06.03 13:09:07.
