data_PCOD9196056
_publ_section_title
;
Structure prediction by ZEFSAII (Michael W. Deem and Ramdas Pophale) SiO2 
 PCOD9196056
Probable space group: C 2/M
;
_chemical_formula_sum "Si O2"
_cell_formula_units_Z 56
_cell_length_a 20.212762
_cell_length_b 17.804975
_cell_length_c 15.997533
_cell_angle_alpha 90.000000
_cell_angle_beta 29.724752
_cell_angle_gamma 90.000000
_cell_volume 2854.672155
_symmetry_space_group_name_H-M "C 2/M"
_symmetry_group_IT_number 12
_symmetry_cell_setting 'monoclinic'
loop_
_space_group_symop_operation_xyz
x,y,z
-x,y,-z
-x,-y,-z
x,-y,z
1/2+x,1/2+y,z
1/2-x,1/2+y,-z
1/2-x,1/2-y,-z
1/2+x,1/2-y,z
loop_
_atom_site_type_symbol
_atom_site_label
_atom_site_fract_x
_atom_site_fract_y
_atom_site_fract_z
Si Si1 0.315321 0.085472 0.896947
Si Si2 0.123024 0.700250 0.303068
Si Si3 0.653116 0.586540 0.336189
Si Si4 0.574273 0.697026 0.193919
Si Si5 0.666245 0.585896 0.519632
Si Si6 0.857000 0.296870 0.043537
Si Si7 0.534986 0.914518 0.802488
O O1 0.359017 0.119958 0.760414
O O2 0.434272 0.088906 0.834307
O O3 0.272506 0.000000 0.936847
O O4 0.192919 0.136865 0.059904
O O5 0.087911 0.754916 0.263270
O O6 0.263528 0.731225 0.187318
O O7 0.000000 0.701498 0.500000
O O8 0.500000 0.612649 0.500000
O O9 0.656753 0.500000 0.303769
O O10 0.688315 0.590171 0.395184
O O11 0.751918 0.635135 0.172977
O O12 0.438234 0.649535 0.339924
O O13 0.601081 0.753154 0.087418
O O14 0.619139 0.500000 0.588651
O O15 0.813917 0.595946 0.393953
O O16 0.991435 0.346234 0.911159
O O17 0.525555 0.000000 0.848535
#
# Coordination Sequence:
#
# PCOD9196056 Si02
#       7
#     8   8   8   8   8   8   8
#     4  10  20  37  60  82 106 144 187 226 270 319
#     4  11  21  35  55  83 113 140 179 227 273 320
#     4  10  21  35  55  83 113 146 182 221 272 324
#     4  11  20  36  57  82 109 142 184 222 271 324
#     4  10  22  37  55  82 112 144 182 226 268 321
#     4  11  19  34  54  78 109 145 178 218 269 323
#     4  10  20  35  56  80 111 144 181 224 271 321
#
# _framework density 19.616963999999999
#
# number of rings (size 3 to 8) (size 9 to 14) (size 15 to 20)
#    0.000    1.571    2.857    3.857    0.000    1.429 
#    0.000    2.143    0.000    0.429    0.000    0.000 
#    0.000    8.857    0.000    0.000    0.000    0.000 
#
# Total GULP energy -156002.835246 kJ/mol
# GULP energy per Si atom -5571.529830 kJ/mol
# Density = 1.957231 g / cm^3
# Si number density = 19.616964 Si / 1000 Ang^3
#
#
#
# Elastic Constant Matrix: (Units=GPa)
#
#
# Indices 1 2 3 4 5 6 
#
# 1 28.3953 23.6032 25.2222 -0.0001 -12.6579 0.0001
# 2 23.6032 112.3954 49.4227 -0.0001 -2.4299 0.0001
# 3 25.2222 49.4227 119.6018 0.0000 -1.5260 0.0001
# 4 -0.0001 -0.0001 0.0000 25.5019 0.0000 -2.3576
# 5 -12.6579 -2.4299 -1.5260 0.0000 30.3084 -0.0001
# 6 0.0001 0.0001 0.0001 -2.3576 -0.0001 15.0378
#
#
#
# Elastic Compliance Matrix: (Units=1/GPa)
#
#
# Indices 1 2 3 4 5 6 
#
# 1 0.061105 -0.008280 -0.009153 0.000000 0.024395 0.000000
# 2 -0.008280 0.012007 -0.003250 0.000000 -0.002659 0.000000
# 3 -0.009153 -0.003250 0.011590 0.000000 -0.003500 0.000000
# 4 0.000000 0.000000 0.000000 0.039789 0.000000 0.006238
# 5 0.024395 -0.002659 -0.003500 0.000000 0.042793 0.000000
# 6 0.000000 0.000000 0.000000 0.006238 0.000000 0.067477
#
#
# Mechanical properties :
#
#
# Convention : Reuss Voigt Hill
#
# Bulk Modulus (GPa) = 23.07547 50.76543 36.92045
# Shear Modulus (GPa) = 17.20746 24.97927 21.09336
#
# Velocity S-wave (km/s) = 2.96492 3.57228 3.28268
# Velocity P-wave (km/s) = 4.84867 6.55358 5.76450
#
# Compressibility (1/GPa) = 0.04333607
#
# Stress axis : x y z
#
# Youngs Moduli (GPa) = 16.36539 83.28227 86.28456
#
# Poissons Ratio (x) = 0.68955 0.78979
# Poissons Ratio (y) = 0.13550 0.28039
# Poissons Ratio (z) = 0.14980 0.27064
#
# Static dielectric constant tensor:
#      x y z
#    x 1.761740 0.000000 -0.009810 
#    y 0.000000 1.729280 0.000000 
#    z -0.009810 0.000000 1.695240 
# 
# From -- ./inp_files/234652.got.cif
#   From: 2010.05.17/outbox.cif.g08.bks.cpg/sg12_118_cif.got.tgz:234652.got - 2010.06.03 13:09:07.
