data_PCOD9196919
_publ_section_title
;
Structure prediction by ZEFSAII (Michael W. Deem and Ramdas Pophale) SiO2 
 PCOD9196919
Probable space group: C 2/M
;
_chemical_formula_sum "Si O2"
_cell_formula_units_Z 48
_cell_length_a 19.095147
_cell_length_b 8.876521
_cell_length_c 15.698746
_cell_angle_alpha 90.000000
_cell_angle_beta 89.969553
_cell_angle_gamma 90.000000
_cell_volume 2660.913105
_symmetry_space_group_name_H-M "C 2/M"
_symmetry_group_IT_number 12
_symmetry_cell_setting 'monoclinic'
loop_
_space_group_symop_operation_xyz
x,y,z
-x,y,-z
-x,-y,-z
x,-y,z
1/2+x,1/2+y,z
1/2-x,1/2+y,-z
1/2-x,1/2-y,-z
1/2+x,1/2-y,z
loop_
_atom_site_type_symbol
_atom_site_label
_atom_site_fract_x
_atom_site_fract_y
_atom_site_fract_z
Si Si1 0.295521 0.678912 0.925737
Si Si2 0.450551 0.179538 0.730897
Si Si3 0.043793 0.181292 0.584393
Si Si4 0.946935 0.679809 0.925490
Si Si5 0.792118 0.181154 0.420696
Si Si6 0.795956 0.181319 0.731599
O O1 0.291089 0.500000 0.931251
O O2 0.374792 0.733282 0.936527
O O3 0.275188 0.721825 0.828777
O O4 0.250000 0.750000 0.000000
O O5 0.506740 0.242460 0.664846
O O6 0.472470 0.209098 0.829042
O O7 0.374954 0.257805 0.717297
O O8 0.442339 0.000000 0.720517
O O9 0.125554 0.221742 0.575519
O O10 0.000000 0.222708 0.500000
O O11 0.039643 0.000000 0.593846
O O12 0.933817 0.500000 0.931772
O O13 0.000000 0.721833 0.000000
O O14 0.750000 0.250000 0.500000
O O15 0.756178 0.245362 0.335831
O O16 0.786835 0.000000 0.422706
O O17 0.796153 0.000000 0.723066
#
# Coordination Sequence:
#
# PCOD9196919 Si02
#       6
#     8   8   8   8   8   8
#     4  10  21  36  56  81 110 147 188 231 278 328
#     4  10  20  35  58  84 109 142 184 228 273 325
#     4  10  22  39  57  79 110 145 178 219 273 327
#     4   9  19  36  56  80 112 146 180 223 276 331
#     4  11  23  38  59  86 114 146 184 227 274 327
#     4  10  21  38  58  80 111 149 186 228 279 330
#
# _framework density 18.038920999999998
#
# number of rings (size 3 to 8) (size 9 to 14) (size 15 to 20)
#    0.000    2.000    0.000    3.000    0.000    7.333 
#    0.000    5.000    0.000    0.000    0.000    0.000 
#    0.000    0.000    0.000    0.000    0.000    0.000 
#
# Total GULP energy -134031.986830 kJ/mol
# GULP energy per Si atom -5584.666118 kJ/mol
# Density = 1.799786 g / cm^3
# Si number density = 18.038921 Si / 1000 Ang^3
#
#
#
# Elastic Constant Matrix: (Units=GPa)
#
#
# Indices 1 2 3 4 5 6 
#
# 1 136.9350 62.6683 123.1801 0.0000 -2.0293 0.0000
# 2 62.6683 54.3210 74.8601 0.0000 -3.2675 0.0000
# 3 123.1801 74.8601 177.9666 0.0000 -3.5981 0.0000
# 4 0.0000 0.0000 0.0000 32.3907 0.0000 -6.0836
# 5 -2.0293 -3.2675 -3.5981 0.0000 42.4490 0.0000
# 6 0.0000 0.0000 0.0000 -6.0836 0.0000 32.0978
#
#
#
# Elastic Compliance Matrix: (Units=1/GPa)
#
#
# Indices 1 2 3 4 5 6 
#
# 1 0.021516 -0.010279 -0.010582 0.000000 -0.000660 0.000000
# 2 -0.010279 0.048849 -0.013390 0.000000 0.002134 0.000000
# 3 -0.010582 -0.013390 0.018577 0.000000 0.000038 0.000000
# 4 0.000000 0.000000 0.000000 0.032013 0.000000 0.006067
# 5 -0.000660 0.002134 0.000038 0.000000 0.023694 0.000000
# 6 0.000000 0.000000 0.000000 0.006067 0.000000 0.032305
#
#
# Mechanical properties :
#
#
# Convention : Reuss Voigt Hill
#
# Bulk Modulus (GPa) = 48.92502 98.95997 73.94249
# Shear Modulus (GPa) = 19.82014 28.62177 24.22095
#
# Velocity S-wave (km/s) = 3.31833 3.98762 3.66827
# Velocity P-wave (km/s) = 6.47012 8.72810 7.68252
#
# Compressibility (1/GPa) = 0.02043944
#
# Stress axis : x y z
#
# Youngs Moduli (GPa) = 46.47628 20.47131 53.83078
#
# Poissons Ratio (x) = 0.21042 0.56965
# Poissons Ratio (y) = 0.47773 0.72080
# Poissons Ratio (z) = 0.49182 0.27411
#
# Static dielectric constant tensor:
#      x y z
#    x 1.579320 0.000000 0.005640 
#    y 0.000000 1.602660 0.000000 
#    z 0.005640 0.000000 1.618320 
# 
# From -- ./inp_files/221568.got.cif
#   From: 2010.05.17/outbox.cif.g08.bks.cpg/sg12_111_cif.got.tgz:221568.got - 2010.06.03 13:09:07.
