data_PCOD9196953
_publ_section_title
;
Structure prediction by ZEFSAII (Michael W. Deem and Ramdas Pophale) SiO2 
 PCOD9196953
Probable space group: C 2/M
;
_chemical_formula_sum "Si O2"
_cell_formula_units_Z 48
_cell_length_a 19.538005
_cell_length_b 11.332209
_cell_length_c 26.682296
_cell_angle_alpha 90.000000
_cell_angle_beta 158.177771
_cell_angle_gamma 90.000000
_cell_volume 2196.055449
_symmetry_space_group_name_H-M "C 2/M"
_symmetry_group_IT_number 12
_symmetry_cell_setting 'monoclinic'
loop_
_space_group_symop_operation_xyz
x,y,z
-x,y,-z
-x,-y,-z
x,-y,z
1/2+x,1/2+y,z
1/2-x,1/2+y,-z
1/2-x,1/2-y,-z
1/2+x,1/2-y,z
loop_
_atom_site_type_symbol
_atom_site_label
_atom_site_fract_x
_atom_site_fract_y
_atom_site_fract_z
Si Si1 0.775362 0.295192 0.585526
Si Si2 0.577801 0.368930 0.179448
Si Si3 0.004124 0.369486 0.358152
Si Si4 0.897271 0.135597 0.161344
Si Si5 0.780836 0.869809 0.344378
Si Si6 0.639760 0.717388 0.055617
O O1 0.847182 0.365007 0.586259
O O2 0.575940 0.236362 0.442040
O O3 0.792188 0.366158 0.648099
O O4 0.916772 0.187047 0.688206
O O5 0.663207 0.500000 0.246711
O O6 0.428421 0.352570 0.122840
O O7 0.704178 0.251261 0.267881
O O8 0.480698 0.370422 0.059783
O O9 0.003442 0.500000 0.380683
O O10 0.807470 0.341126 0.199987
O O11 0.730911 0.200502 0.075416
O O12 0.879550 0.000000 0.160819
O O13 0.000000 0.863362 0.500000
O O14 0.734266 0.000000 0.290387
O O15 0.500000 0.775771 0.000000
#
# Coordination Sequence:
#
# PCOD9196953 Si02
#       6
#     8   8   8   8   8   8
#     4   9  19  36  60  89 114 154 206 257 305 364
#     4  10  22  41  65  91 123 164 213 261 305 367
#     4  10  20  35  58  84 119 162 201 249 304 363
#     4   9  19  39  63  87 117 160 216 268 309 363
#     4  10  22  40  63  90 122 158 202 256 314 371
#     4  11  24  38  56  90 131 167 206 251 310 375
#
# _framework density 21.857372000000002
#
# number of rings (size 3 to 8) (size 9 to 14) (size 15 to 20)
#    0.000    2.167    0.000    2.000    2.333    3.333 
#    0.000    5.000    0.000    0.000    0.000    0.000 
#    0.000    0.000    0.000    0.000    0.000    0.000 
#
# Total GULP energy -133851.486461 kJ/mol
# GULP energy per Si atom -5577.145269 kJ/mol
# Density = 2.180762 g / cm^3
# Si number density = 21.857372 Si / 1000 Ang^3
#
#
#
# Elastic Constant Matrix: (Units=GPa)
#
#
# Indices 1 2 3 4 5 6 
#
# 1 64.8055 11.7386 22.2417 -0.0155 12.9486 -0.0073
# 2 11.7386 162.1804 56.5109 0.0146 11.2528 0.0044
# 3 22.2417 56.5109 74.2377 0.0530 -2.1444 0.0264
# 4 -0.0155 0.0146 0.0530 2.3470 0.0055 -5.9722
# 5 12.9486 11.2528 -2.1444 0.0055 28.2985 0.0032
# 6 -0.0073 0.0044 0.0264 -5.9722 0.0032 1.1439
#
#
#
# Elastic Compliance Matrix: (Units=1/GPa)
#
#
# Indices 1 2 3 4 5 6 
#
# 1 0.019820 0.001993 -0.007757 -0.000094 -0.010449 -0.000162
# 2 0.001993 0.009028 -0.007616 -0.000046 -0.005079 -0.000074
# 3 -0.007757 -0.007616 0.021829 0.000155 0.008232 0.000264
# 4 -0.000094 -0.000046 0.000155 -0.034681 0.000100 -0.181069
# 5 -0.010449 -0.005079 0.008232 0.000100 0.042762 0.000167
# 6 -0.000162 -0.000074 0.000264 -0.181069 0.000167 -0.071155
#
#
# Mechanical properties :
#
#
# Convention : Reuss Voigt Hill
#
# Bulk Modulus (GPa) = 41.81042 53.57841 47.69442
# Shear Modulus (GPa) = 223.85650 20.40672 122.13161
#
# Velocity S-wave (km/s) = 10.13110 3.05885 7.48318
# Velocity P-wave (km/s) = 12.49090 6.08616 9.82507
#
# Compressibility (1/GPa) = 0.02391748
#
# Stress axis : x y z
#
# Youngs Moduli (GPa) = 50.45439 110.76791 45.80984
#
# Poissons Ratio (x) = -0.22081 0.35536
# Poissons Ratio (y) = -0.10058 0.34889
# Poissons Ratio (z) = 0.39139 0.84362
#
# Static dielectric constant tensor:
#      x y z
#    x 1.829500 0.000000 -0.003600 
#    y 0.000000 1.813850 -0.000010 
#    z -0.003600 -0.000010 1.797940 
# 
# From -- ./inp_files/165452.got.cif
#   From: 2010.05.17/outbox.cif.g08.bks.cpg/sg12_83_cif.got.tgz:165452.got - 2010.06.03 13:09:07.
