data_PCOD9196593
_publ_section_title
;
Structure prediction by ZEFSAII (Michael W. Deem and Ramdas Pophale) SiO2 
 PCOD9196593
Probable space group: C 2/M
;
_chemical_formula_sum "Si O2"
_cell_formula_units_Z 64
_cell_length_a 20.323822
_cell_length_b 7.710215
_cell_length_c 30.805256
_cell_angle_alpha 90.000000
_cell_angle_beta 142.574003
_cell_angle_gamma 90.000000
_cell_volume 2933.673788
_symmetry_space_group_name_H-M "C 2/M"
_symmetry_group_IT_number 12
_symmetry_cell_setting 'monoclinic'
loop_
_space_group_symop_operation_xyz
x,y,z
-x,y,-z
-x,-y,-z
x,-y,z
1/2+x,1/2+y,z
1/2-x,1/2+y,-z
1/2-x,1/2-y,-z
1/2+x,1/2-y,z
loop_
_atom_site_type_symbol
_atom_site_label
_atom_site_fract_x
_atom_site_fract_y
_atom_site_fract_z
Si Si1 0.886819 0.289418 0.818074
Si Si2 0.053816 0.799282 0.400660
Si Si3 0.324837 0.292361 0.618168
Si Si4 0.825983 0.295820 0.243533
Si Si5 0.220711 0.290629 0.878443
Si Si6 0.958389 0.294273 0.024177
Si Si7 0.409307 0.799741 0.484150
Si Si8 0.484504 0.209379 0.779001
O O1 0.887043 0.500000 0.817601
O O2 0.768833 0.231683 0.771525
O O3 0.922954 0.228446 0.789626
O O4 0.973086 0.227032 0.899365
O O5 0.936645 0.790652 0.316688
O O6 0.138715 0.725564 0.409953
O O7 0.052047 0.705536 0.445792
O O8 0.080104 0.000000 0.423324
O O9 0.312693 0.500000 0.606710
O O10 0.211511 0.221869 0.577221
O O11 0.419880 0.260198 0.702146
O O12 0.849317 0.500000 0.251354
O O13 0.783975 0.232697 0.174484
O O14 0.222627 0.500000 0.879517
O O15 0.330119 0.231586 0.958690
O O16 0.108839 0.231543 0.841535
O O17 0.979257 0.500000 0.034235
O O18 0.000000 0.220231 0.000000
O O19 0.500000 0.720692 0.500000
O O20 0.396150 0.000000 0.462871
O O21 0.486934 0.000000 0.781554
#
# Coordination Sequence:
#
# PCOD9196593 Si02
#       8
#     8   8   8   8   8   8   8   8
#     4  10  22  39  58  85 119 155 197 244 298 355
#     4  11  23  39  62  90 119 155 201 245 285 345
#     4  10  22  40  62  88 119 157 198 240 288 347
#     4  11  22  37  60  87 116 153 197 245 296 349
#     4  10  21  37  58  85 115 151 197 243 292 349
#     4  10  20  35  57  83 115 155 195 242 299 352
#     4  10  23  42  62  89 125 158 192 241 294 345
#     4  10  22  40  60  85 119 156 193 243 297 348
#
# _framework density 21.815650000000002
#
# number of rings (size 3 to 8) (size 9 to 14) (size 15 to 20)
#    0.000    1.750    2.500    1.125    1.750    4.000 
#    0.000    0.000    0.000    0.000    0.000    0.000 
#    0.000    0.000    0.000    0.000    0.000    0.000 
#
# Total GULP energy -178849.385549 kJ/mol
# GULP energy per Si atom -5589.043298 kJ/mol
# Density = 2.176600 g / cm^3
# Si number density = 21.815650 Si / 1000 Ang^3
#
#
#
# Elastic Constant Matrix: (Units=GPa)
#
#
# Indices 1 2 3 4 5 6 
#
# 1 151.4563 1.4722 22.0272 -0.0004 18.3328 0.0004
# 2 1.4722 37.9116 -9.4559 -0.0003 -1.8300 0.0007
# 3 22.0272 -9.4559 74.9491 -0.0002 18.7631 0.0003
# 4 -0.0004 -0.0003 -0.0002 -21.0444 0.0001 -0.4787
# 5 18.3328 -1.8300 18.7631 0.0001 37.7000 -0.0001
# 6 0.0004 0.0007 0.0003 -0.4787 -0.0001 5.7407
#
#
#
# Elastic Compliance Matrix: (Units=1/GPa)
#
#
# Indices 1 2 3 4 5 6 
#
# 1 0.007165 -0.000789 -0.001512 0.000000 -0.002770 0.000000
# 2 -0.000789 0.027328 0.003714 0.000000 -0.000138 -0.000003
# 3 -0.001512 0.003714 0.016022 0.000000 -0.007059 -0.000001
# 4 0.000000 0.000000 0.000000 -0.047429 0.000000 -0.003955
# 5 -0.002770 -0.000138 -0.007059 0.000000 0.031379 0.000001
# 6 0.000000 -0.000003 -0.000001 -0.003955 0.000001 0.173864
#
#
# Mechanical properties :
#
#
# Convention : Reuss Voigt Hill
#
# Bulk Modulus (GPa) = 18.74693 32.48933 25.61813
# Shear Modulus (GPa) = 22.39302 21.16417 21.77859
#
# Velocity S-wave (km/s) = 3.20733 3.11808 3.16302
# Velocity P-wave (km/s) = 4.72524 5.28093 5.01080
#
# Compressibility (1/GPa) = 0.05334208
#
# Stress axis : x y z
#
# Youngs Moduli (GPa) = 139.55868 36.59310 62.41228
#
# Poissons Ratio (x) = 0.02887 0.09436
# Poissons Ratio (y) = 0.11012 -0.23182
# Poissons Ratio (z) = 0.21100 -0.13592
#
# Static dielectric constant tensor:
#      x y z
#    x 1.798300 0.000000 0.010600 
#    y 0.000000 1.820090 0.000000 
#    z 0.010600 0.000000 1.758150 
# 
# From -- ./inp_files/378408.got.cif
#   From: 2010.05.17/outbox.cif.g08.bks.cpg/sg12_190_cif.got.tgz:378408.got - 2010.06.03 13:09:07.
