data_PCOD9196000
_publ_section_title
;
Structure prediction by ZEFSAII (Michael W. Deem and Ramdas Pophale) SiO2 
 PCOD9196000
Probable space group: C 2/M
;
_chemical_formula_sum "Si O2"
_cell_formula_units_Z 56
_cell_length_a 10.072563
_cell_length_b 10.418781
_cell_length_c 31.993580
_cell_angle_alpha 90.000000
_cell_angle_beta 120.117774
_cell_angle_gamma 90.000000
_cell_volume 2904.248283
_symmetry_space_group_name_H-M "C 2/M"
_symmetry_group_IT_number 12
_symmetry_cell_setting 'monoclinic'
loop_
_space_group_symop_operation_xyz
x,y,z
-x,y,-z
-x,-y,-z
x,-y,z
1/2+x,1/2+y,z
1/2-x,1/2+y,-z
1/2-x,1/2-y,-z
1/2+x,1/2-y,z
loop_
_atom_site_type_symbol
_atom_site_label
_atom_site_fract_x
_atom_site_fract_y
_atom_site_fract_z
Si Si1 0.456704 0.648359 0.863960
Si Si2 0.005447 0.279940 0.433563
Si Si3 0.899104 0.648207 0.176144
Si Si4 0.886533 0.852047 0.020891
Si Si5 0.860761 0.647940 0.709858
Si Si6 0.217957 0.638062 0.541619
Si Si7 0.407468 0.145335 0.327869
O O1 0.479036 0.500000 0.853356
O O2 0.274459 0.674537 0.836344
O O3 0.545009 0.749780 0.849154
O O4 0.520053 0.657409 0.921118
O O5 0.126049 0.350431 0.483633
O O6 0.103167 0.155897 0.436816
O O7 0.855708 0.260133 0.438275
O O8 0.964772 0.349563 0.384604
O O9 0.901206 0.500000 0.160669
O O10 0.015201 0.655724 0.233386
O O11 0.830442 0.000000 0.008226
O O12 0.750000 0.750000 0.000000
O O13 0.000000 0.827936 0.000000
O O14 0.803826 0.500000 0.699031
O O15 0.726352 0.749531 0.696381
O O16 0.953514 0.675252 0.681789
O O17 0.184273 0.500000 0.555365
O O18 0.354402 0.000000 0.309364
#
# Coordination Sequence:
#
# PCOD9196000 Si02
#       7
#     8   8   8   8   8   8   8
#     4  10  21  37  60  87 114 149 192 233 275 328
#     4  10  20  35  56  80 106 141 181 218 266 327
#     4  10  21  39  59  81 111 145 185 234 284 331
#     4  10  21  37  57  84 119 155 190 230 276 326
#     4  10  23  39  57  83 112 142 182 232 281 333
#     4  10  20  36  54  77 110 141 174 221 268 316
#     4  11  22  38  59  82 110 146 184 225 278 334
#
# _framework density 19.282098000000001
#
# number of rings (size 3 to 8) (size 9 to 14) (size 15 to 20)
#    0.000    1.857    0.000    4.286    0.000    5.429 
#    0.000    7.143    0.000    0.000    0.000    0.000 
#    0.000    0.000    0.000    0.000    0.000    0.000 
#
# Total GULP energy -156251.300941 kJ/mol
# GULP energy per Si atom -5580.403605 kJ/mol
# Density = 1.923821 g / cm^3
# Si number density = 19.282098 Si / 1000 Ang^3
#
#
#
# Elastic Constant Matrix: (Units=GPa)
#
#
# Indices 1 2 3 4 5 6 
#
# 1 62.1151 47.3278 -3.6744 0.0000 2.1026 0.0000
# 2 47.3278 80.0372 4.0886 0.0000 9.7247 0.0000
# 3 -3.6744 4.0886 32.0774 0.0000 -3.9652 0.0000
# 4 0.0000 0.0000 0.0000 19.4241 0.0000 0.4410
# 5 2.1026 9.7247 -3.9652 0.0000 32.6598 0.0000
# 6 0.0000 0.0000 0.0000 0.4410 0.0000 38.5941
#
#
#
# Elastic Compliance Matrix: (Units=1/GPa)
#
#
# Indices 1 2 3 4 5 6 
#
# 1 0.030952 -0.019186 0.006549 0.000000 0.004515 0.000000
# 2 -0.019186 0.025005 -0.006246 0.000000 -0.006969 0.000000
# 3 0.006549 -0.006246 0.033400 0.000000 0.005493 0.000000
# 4 0.000000 0.000000 0.000000 0.051496 0.000000 -0.000588
# 5 0.004515 -0.006969 0.005493 0.000000 0.033070 0.000000
# 6 0.000000 0.000000 0.000000 -0.000588 0.000000 0.025917
#
#
# Mechanical properties :
#
#
# Convention : Reuss Voigt Hill
#
# Bulk Modulus (GPa) = 19.38322 29.96818 24.67570
# Shear Modulus (GPa) = 19.62299 26.56811 23.09555
#
# Velocity S-wave (km/s) = 3.19357 3.71599 3.46464
# Velocity P-wave (km/s) = 4.86547 5.82985 5.36935
#
# Compressibility (1/GPa) = 0.05159102
#
# Stress axis : x y z
#
# Youngs Moduli (GPa) = 32.30801 39.99210 29.94016
#
# Poissons Ratio (x) = 0.76728 -0.19608
# Poissons Ratio (y) = 0.61985 0.18701
# Poissons Ratio (z) = -0.21159 0.24980
#
# Static dielectric constant tensor:
#      x y z
#    x 1.649170 0.000000 -0.000460 
#    y 0.000000 1.678330 0.000000 
#    z -0.000460 0.000000 1.661770 
# 
# From -- ./inp_files/372216.got.cif
#   From: 2010.05.17/outbox.cif.g08.bks.cpg/sg12_187_cif.got.tgz:372216.got - 2010.06.03 13:09:07.
