data_PCOD9196276
_publ_section_title
;
Structure prediction by ZEFSAII (Michael W. Deem and Ramdas Pophale) SiO2 
 PCOD9196276
Probable space group: C 2/M
;
_chemical_formula_sum "Si O2"
_cell_formula_units_Z 56
_cell_length_a 20.919944
_cell_length_b 8.543438
_cell_length_c 18.195427
_cell_angle_alpha 90.000000
_cell_angle_beta 116.596314
_cell_angle_gamma 90.000000
_cell_volume 2907.916088
_symmetry_space_group_name_H-M "C 2/M"
_symmetry_group_IT_number 12
_symmetry_cell_setting 'monoclinic'
loop_
_space_group_symop_operation_xyz
x,y,z
-x,y,-z
-x,-y,-z
x,-y,z
1/2+x,1/2+y,z
1/2-x,1/2+y,-z
1/2-x,1/2-y,-z
1/2+x,1/2-y,z
loop_
_atom_site_type_symbol
_atom_site_label
_atom_site_fract_x
_atom_site_fract_y
_atom_site_fract_z
Si Si1 0.829938 0.189101 0.532408
Si Si2 0.911986 0.810844 0.721599
Si Si3 0.315644 0.312986 0.810876
Si Si4 0.579846 0.308940 0.561403
Si Si5 0.569425 0.812824 0.838505
Si Si6 0.920633 0.688924 0.988132
Si Si7 0.343221 0.312723 0.251248
O O1 0.750000 0.250000 0.500000
O O2 0.878370 0.238566 0.626591
O O3 0.865836 0.240763 0.474643
O O4 0.828338 0.000000 0.531668
O O5 0.859672 0.761957 0.761085
O O6 0.991007 0.746841 0.775524
O O7 0.915977 0.000000 0.724003
O O8 0.308271 0.500000 0.804303
O O9 0.362250 0.264474 0.905265
O O10 0.237626 0.238278 0.774925
O O11 0.500000 0.257459 0.500000
O O12 0.579168 0.500000 0.561554
O O13 0.607179 0.258160 0.655211
O O14 0.626581 0.753742 0.809095
O O15 0.568508 0.000000 0.838040
O O16 0.585683 0.761258 0.930337
O O17 0.913633 0.500000 0.980471
O O18 0.000000 0.729208 0.000000
O O19 0.346862 0.500000 0.250109
#
# Coordination Sequence:
#
# PCOD9196276 Si02
#       7
#     8   8   8   8   8   8   8
#     4  10  20  35  56  83 115 150 191 238 286 339
#     4  10  21  37  59  87 118 153 193 240 292 347
#     4  11  23  38  60  89 122 156 193 240 292 348
#     4   9  18  35  59  83 110 151 198 238 279 337
#     4  11  23  39  62  88 116 149 192 243 291 347
#     4  10  21  40  63  88 116 150 193 240 291 350
#     4  11  23  39  60  86 120 159 197 240 292 346
#
# _framework density 19.257778999999999
#
# number of rings (size 3 to 8) (size 9 to 14) (size 15 to 20)
#    0.000    1.714    1.429    3.000    0.000    5.429 
#    0.000    0.714    0.000    3.000    0.000    0.000 
#    0.000    0.000    0.000    0.000    0.000    0.000 
#
# Total GULP energy -156502.466540 kJ/mol
# GULP energy per Si atom -5589.373805 kJ/mol
# Density = 1.921395 g / cm^3
# Si number density = 19.257779 Si / 1000 Ang^3
#
#
#
# Elastic Constant Matrix: (Units=GPa)
#
#
# Indices 1 2 3 4 5 6 
#
# 1 71.5450 4.9120 -6.4872 0.0000 -12.2793 0.0000
# 2 4.9120 13.1699 9.2044 0.0000 -5.2968 0.0000
# 3 -6.4872 9.2044 81.3926 0.0000 -14.1338 0.0000
# 4 0.0000 0.0000 0.0000 15.8795 0.0000 3.1858
# 5 -12.2793 -5.2968 -14.1338 0.0000 34.1009 0.0000
# 6 0.0000 0.0000 0.0000 3.1858 0.0000 32.7772
#
#
#
# Elastic Compliance Matrix: (Units=1/GPa)
#
#
# Indices 1 2 3 4 5 6 
#
# 1 0.015643 -0.005455 0.002904 0.000000 0.005989 0.000000
# 2 -0.005455 0.087396 -0.008946 0.000000 0.007903 0.000000
# 3 0.002904 -0.008946 0.014514 0.000000 0.005672 0.000000
# 4 0.000000 0.000000 0.000000 0.064227 0.000000 -0.006243
# 5 0.005989 0.007903 0.005672 0.000000 0.035060 0.000000
# 6 0.000000 0.000000 0.000000 -0.006243 0.000000 0.031116
#
#
# Mechanical properties :
#
#
# Convention : Reuss Voigt Hill
#
# Bulk Modulus (GPa) = 10.57544 20.15176 15.36360
# Shear Modulus (GPa) = 16.53064 27.11673 21.82369
#
# Velocity S-wave (km/s) = 2.93300 3.75653 3.37002
# Velocity P-wave (km/s) = 4.11989 5.41316 4.81018
#
# Compressibility (1/GPa) = 0.09455873
#
# Stress axis : x y z
#
# Youngs Moduli (GPa) = 63.92672 11.44219 68.89852
#
# Poissons Ratio (x) = 0.06242 -0.20006
# Poissons Ratio (y) = 0.34872 0.61635
# Poissons Ratio (z) = -0.18562 0.10236
#
# Static dielectric constant tensor:
#      x y z
#    x 1.635270 0.000000 -0.017360 
#    y 0.000000 1.661560 0.000000 
#    z -0.017360 0.000000 1.656550 
# 
# From -- ./inp_files/275568.got.cif
#   From: 2010.05.17/outbox.cif.g08.bks.cpg/sg12_138_cif.got.tgz:275568.got - 2010.06.03 13:09:07.
