data_PCOD9196037
_publ_section_title
;
Structure prediction by ZEFSAII (Michael W. Deem and Ramdas Pophale) SiO2 
 PCOD9196037
Probable space group: C 2/M
;
_chemical_formula_sum "Si O2"
_cell_formula_units_Z 40
_cell_length_a 7.774294
_cell_length_b 12.769401
_cell_length_c 18.184520
_cell_angle_alpha 90.000000
_cell_angle_beta 88.277023
_cell_angle_gamma 90.000000
_cell_volume 1804.417088
_symmetry_space_group_name_H-M "C 2/M"
_symmetry_group_IT_number 12
_symmetry_cell_setting 'monoclinic'
loop_
_space_group_symop_operation_xyz
x,y,z
-x,y,-z
-x,-y,-z
x,-y,z
1/2+x,1/2+y,z
1/2-x,1/2+y,-z
1/2-x,1/2-y,-z
1/2+x,1/2-y,z
loop_
_atom_site_type_symbol
_atom_site_label
_atom_site_fract_x
_atom_site_fract_y
_atom_site_fract_z
Si Si1 0.242885 0.113983 0.566319
Si Si2 0.367174 0.837877 0.402513
Si Si3 0.260322 0.114608 0.244111
Si Si4 0.362983 0.679494 0.053769
Si Si5 0.088074 0.688203 0.163571
O O1 0.436115 0.124017 0.596428
O O2 0.272391 0.126188 0.478255
O O3 0.133440 0.211592 0.595239
O O4 0.170966 0.000000 0.584382
O O5 0.270522 0.874764 0.331464
O O6 0.164858 0.214849 0.210102
O O7 0.458160 0.122106 0.214083
O O8 0.189293 0.000000 0.223648
O O9 0.236088 0.628799 0.115505
O O10 0.471194 0.758713 0.102607
O O11 0.500000 0.620533 0.000000
O O12 0.250000 0.750000 0.000000
#
# Coordination Sequence:
#
# PCOD9196037 Si02
#       5
#     8   8   8   8   8
#     4  10  20  37  56  78 109 143 192 246 284 326
#     4  10  20  35  56  80 108 148 191 233 286 341
#     4  11  21  36  55  78 114 149 181 228 283 334
#     4   8  14  30  58  81 107 147 177 218 275 311
#     4   9  19  33  54  83 109 142 187 219 265 338
#
# _framework density 22.167825000000001
#
# number of rings (size 3 to 8) (size 9 to 14) (size 15 to 20)
#    0.000    2.400    0.000    3.600    0.000    0.000 
#    0.000   17.000    0.000   75.600    0.000    0.000 
#    0.000    0.000    0.000    0.000    0.000    0.000 
#
# Total GULP energy -111597.646718 kJ/mol
# GULP energy per Si atom -5579.882336 kJ/mol
# Density = 2.211737 g / cm^3
# Si number density = 22.167825 Si / 1000 Ang^3
#
#
#
# Elastic Constant Matrix: (Units=GPa)
#
#
# Indices 1 2 3 4 5 6 
#
# 1 53.2539 9.8884 26.3628 0.0000 10.1036 0.0000
# 2 9.8884 139.4417 12.1521 0.0000 8.0647 0.0000
# 3 26.3628 12.1521 81.9572 0.0000 25.7882 0.0000
# 4 0.0000 0.0000 0.0000 0.0313 0.0000 -13.4257
# 5 10.1036 8.0647 25.7882 0.0000 26.3647 0.0000
# 6 0.0000 0.0000 0.0000 -13.4257 0.0000 19.4239
#
#
#
# Elastic Compliance Matrix: (Units=1/GPa)
#
#
# Indices 1 2 3 4 5 6 
#
# 1 0.022538 -0.000917 -0.006478 0.000000 -0.002020 0.000000
# 2 -0.000917 0.007355 -0.000286 0.000000 -0.001618 0.000000
# 3 -0.006478 -0.000286 0.019530 0.000000 -0.016532 0.000000
# 4 0.000000 0.000000 0.000000 -0.108126 0.000000 -0.074736
# 5 -0.002020 -0.001618 -0.016532 0.000000 0.055370 0.000000
# 6 0.000000 0.000000 0.000000 -0.074736 0.000000 -0.000174
#
#
# Mechanical properties :
#
#
# Convention : Reuss Voigt Hill
#
# Bulk Modulus (GPa) = 29.35969 41.27324 35.31646
# Shear Modulus (GPa) = 215.42847 24.24728 119.83787
#
# Velocity S-wave (km/s) = 9.86872 3.31086 7.36048
# Velocity P-wave (km/s) = 11.96364 5.76842 9.39157
#
# Compressibility (1/GPa) = 0.03406031
#
# Stress axis : x y z
#
# Youngs Moduli (GPa) = 44.36854 135.96132 51.20387
#
# Poissons Ratio (x) = 0.12466 0.33171
# Poissons Ratio (y) = 0.04068 0.01467
# Poissons Ratio (z) = 0.28743 0.03894
#
# Static dielectric constant tensor:
#      x y z
#    x 1.859290 0.000000 -0.053130 
#    y 0.000000 1.527520 0.000000 
#    z -0.053130 0.000000 1.825060 
# 
# From -- ./inp_files/254621.got.cif
#   From: 2010.05.17/outbox.cif.g08.bks.cpg/sg12_128_cif.got.tgz:254621.got - 2010.06.03 13:09:07.
