data_PCOD9196002
_publ_section_title
;
Structure prediction by ZEFSAII (Michael W. Deem and Ramdas Pophale) SiO2 
 PCOD9196002
Probable space group: C 2/M
;
_chemical_formula_sum "Si O2"
_cell_formula_units_Z 48
_cell_length_a 18.627380
_cell_length_b 14.303840
_cell_length_c 17.044065
_cell_angle_alpha 90.000000
_cell_angle_beta 149.604359
_cell_angle_gamma 90.000000
_cell_volume 2297.739412
_symmetry_space_group_name_H-M "C 2/M"
_symmetry_group_IT_number 12
_symmetry_cell_setting 'monoclinic'
loop_
_space_group_symop_operation_xyz
x,y,z
-x,y,-z
-x,-y,-z
x,-y,z
1/2+x,1/2+y,z
1/2-x,1/2+y,-z
1/2-x,1/2-y,-z
1/2+x,1/2-y,z
loop_
_atom_site_type_symbol
_atom_site_label
_atom_site_fract_x
_atom_site_fract_y
_atom_site_fract_z
Si Si1 0.780907 0.222335 0.655898
Si Si2 0.278214 0.389651 0.111791
Si Si3 0.036104 0.889716 0.862819
Si Si4 0.031803 0.609699 0.122227
Si Si5 0.274534 0.388980 0.813698
Si Si6 0.967214 0.260031 0.377487
O O1 0.784356 0.164031 0.740814
O O2 0.617757 0.226570 0.477177
O O3 0.895888 0.168638 0.711764
O O4 0.841875 0.324606 0.730961
O O5 0.294465 0.500000 0.146780
O O6 0.339100 0.375046 0.082236
O O7 0.372936 0.323842 0.255617
O O8 0.112946 0.367082 0.967592
O O9 0.002553 0.000000 0.831898
O O10 0.099142 0.864310 0.007450
O O11 0.063294 0.500000 0.162206
O O12 0.000000 0.625437 0.000000
O O13 0.275140 0.500000 0.802928
O O14 0.128563 0.353046 0.714843
O O15 0.000000 0.240992 0.500000
#
# Coordination Sequence:
#
# PCOD9196002 Si02
#       6
#     8   8   8   8   8   8
#     4  11  21  34  57  86 116 147 183 226 278 332
#     4  10  22  40  59  81 111 147 188 233 279 327
#     4  10  21  37  59  84 110 146 190 233 276 324
#     4  10  20  35  56  80 106 141 188 235 274 320
#     4  10  21  38  59  84 114 148 187 228 272 327
#     4  10  22  36  55  84 113 147 185 223 278 337
#
# _framework density 20.890098999999999
#
# number of rings (size 3 to 8) (size 9 to 14) (size 15 to 20)
#    0.000    1.833    0.000    5.000    0.000    9.333 
#    0.000    0.000    0.000    4.000    0.000    0.000 
#    0.000    0.000    0.000    0.000    0.000    0.000 
#
# Total GULP energy -134189.895776 kJ/mol
# GULP energy per Si atom -5591.245657 kJ/mol
# Density = 2.084255 g / cm^3
# Si number density = 20.890099 Si / 1000 Ang^3
#
#
#
# Elastic Constant Matrix: (Units=GPa)
#
#
# Indices 1 2 3 4 5 6 
#
# 1 61.2090 21.9432 17.5442 0.0001 26.3646 0.0001
# 2 21.9432 72.5413 28.1581 0.0001 15.0602 0.0001
# 3 17.5442 28.1581 74.0786 0.0002 32.7494 0.0001
# 4 0.0001 0.0001 0.0002 -10.5673 0.0001 -8.1904
# 5 26.3646 15.0602 32.7494 0.0001 43.3078 0.0001
# 6 0.0001 0.0001 0.0001 -8.1904 0.0001 15.7817
#
#
#
# Elastic Compliance Matrix: (Units=1/GPa)
#
#
# Indices 1 2 3 4 5 6 
#
# 1 0.023784 -0.005246 0.002938 0.000000 -0.014876 0.000000
# 2 -0.005246 0.017391 -0.006168 0.000000 0.001811 0.000000
# 3 0.002938 -0.006168 0.022519 0.000000 -0.016672 0.000000
# 4 0.000000 0.000000 0.000000 -0.067485 0.000000 -0.035024
# 5 -0.014876 0.001811 -0.016672 0.000000 0.044124 0.000000
# 6 0.000000 0.000000 0.000000 -0.035024 0.000000 0.045188
#
#
# Mechanical properties :
#
#
# Convention : Reuss Voigt Hill
#
# Bulk Modulus (GPa) = 21.39520 38.12444 29.75982
# Shear Modulus (GPa) = 42.35365 19.04999 30.70182
#
# Velocity S-wave (km/s) = 4.50761 3.02307 3.83780
# Velocity P-wave (km/s) = 6.11191 5.52041 5.82367
#
# Compressibility (1/GPa) = 0.04673945
#
# Stress axis : x y z
#
# Youngs Moduli (GPa) = 42.04536 57.50199 44.40777
#
# Poissons Ratio (x) = 0.30168 -0.13047
# Poissons Ratio (y) = 0.22059 0.27393
# Poissons Ratio (z) = -0.12353 0.35470
#
# Static dielectric constant tensor:
#      x y z
#    x 1.806290 0.000000 0.032140 
#    y 0.000000 1.722050 0.000000 
#    z 0.032140 0.000000 1.726700 
# 
# From -- ./inp_files/278033.got.cif
#   From: 2010.05.17/outbox.cif.g08.bks.cpg/sg12_140_cif.got.tgz:278033.got - 2010.06.03 13:09:07.
