data_PCOD9196421
_publ_section_title
;
Structure prediction by ZEFSAII (Michael W. Deem and Ramdas Pophale) SiO2 
 PCOD9196421
Probable space group: C 2/M
;
_chemical_formula_sum "Si O2"
_cell_formula_units_Z 56
_cell_length_a 8.596720
_cell_length_b 13.013912
_cell_length_c 25.740522
_cell_angle_alpha 90.000000
_cell_angle_beta 101.779730
_cell_angle_gamma 90.000000
_cell_volume 2819.122365
_symmetry_space_group_name_H-M "C 2/M"
_symmetry_group_IT_number 12
_symmetry_cell_setting 'monoclinic'
loop_
_space_group_symop_operation_xyz
x,y,z
-x,y,-z
-x,-y,-z
x,-y,z
1/2+x,1/2+y,z
1/2-x,1/2+y,-z
1/2-x,1/2-y,-z
1/2+x,1/2-y,z
loop_
_atom_site_type_symbol
_atom_site_label
_atom_site_fract_x
_atom_site_fract_y
_atom_site_fract_z
Si Si1 0.183264 0.118907 0.280871
Si Si2 0.107120 0.307597 0.201811
Si Si3 0.038348 0.119410 0.063451
Si Si4 0.812128 0.768303 0.124025
Si Si5 0.064265 0.611748 0.308449
Si Si6 0.573818 0.878365 0.562209
Si Si7 0.120113 0.218442 0.379054
O O1 0.133798 0.196555 0.231808
O O2 0.374745 0.134891 0.303222
O O3 0.084748 0.142274 0.327475
O O4 0.163980 0.000000 0.265228
O O5 0.242720 0.327025 0.169286
O O6 0.947625 0.303308 0.157793
O O7 0.094873 0.381636 0.249567
O O8 0.889003 0.155993 0.087584
O O9 0.179055 0.195932 0.089743
O O10 0.076684 0.000000 0.076406
O O11 0.000000 0.130265 0.000000
O O12 0.095207 0.500000 0.330849
O O13 0.180889 0.689056 0.345794
O O14 0.500000 0.872046 0.500000
O O15 0.757241 0.844192 0.577705
O O16 0.490599 0.789261 0.591678
O O17 0.561180 0.000000 0.577245
#
# Coordination Sequence:
#
# PCOD9196421 Si02
#       7
#     8   8   8   8   8   8   8
#     4  10  20  36  61  87 120 164 201 239 290 357
#     4  10  20  35  56  88 122 158 198 244 298 355
#     4  10  22  41  64  88 117 159 205 251 306 358
#     4  10  21  37  60  89 123 155 200 253 298 355
#     4  10  20  35  58  86 121 161 198 240 291 356
#     4  11  24  43  66  90 119 156 199 252 309 357
#     4  11  21  39  64  90 119 157 202 243 296 355
#
# _framework density 19.864339999999999
#
# number of rings (size 3 to 8) (size 9 to 14) (size 15 to 20)
#    0.000    1.714    2.857    1.714    0.000    3.429 
#    0.000    6.429    0.000   12.857    0.000    0.000 
#    0.000    0.000    0.000    0.000    0.000    0.000 
#
# Total GULP energy -155885.451530 kJ/mol
# GULP energy per Si atom -5567.337555 kJ/mol
# Density = 1.981913 g / cm^3
# Si number density = 19.864340 Si / 1000 Ang^3
#
#
#
# Elastic Constant Matrix: (Units=GPa)
#
#
# Indices 1 2 3 4 5 6 
#
# 1 50.2119 18.6076 14.2324 0.0000 -13.7077 0.0000
# 2 18.6076 98.8665 35.1378 0.0000 3.6090 0.0000
# 3 14.2324 35.1378 76.8247 0.0000 -5.1700 0.0000
# 4 0.0000 0.0000 0.0000 -9.4761 0.0000 11.3376
# 5 -13.7077 3.6090 -5.1700 0.0000 27.9419 0.0000
# 6 0.0000 0.0000 0.0000 11.3376 0.0000 20.2590
#
#
#
# Elastic Compliance Matrix: (Units=1/GPa)
#
#
# Indices 1 2 3 4 5 6 
#
# 1 0.025657 -0.004677 -0.001748 0.000000 0.012868 0.000000
# 2 -0.004677 0.013122 -0.005472 0.000000 -0.005002 0.000000
# 3 -0.001748 -0.005472 0.016033 0.000000 0.002816 0.000000
# 4 0.000000 0.000000 0.000000 -0.063207 0.000000 0.035373
# 5 0.012868 -0.005002 0.002816 0.000000 0.043268 0.000000
# 6 0.000000 0.000000 0.000000 0.035373 0.000000 0.029565
#
#
# Mechanical properties :
#
#
# Convention : Reuss Voigt Hill
#
# Bulk Modulus (GPa) = 32.23965 40.20652 36.22308
# Shear Modulus (GPa) = 50.72419 18.27332 34.49875
#
# Velocity S-wave (km/s) = 5.05873 3.03629 4.17192
# Velocity P-wave (km/s) = 7.09832 5.70759 6.44060
#
# Compressibility (1/GPa) = 0.03101771
#
# Stress axis : x y z
#
# Youngs Moduli (GPa) = 38.97532 76.20596 62.37261
#
# Poissons Ratio (x) = 0.35645 0.10902
# Poissons Ratio (y) = 0.18230 0.34130
# Poissons Ratio (z) = 0.06813 0.41699
#
# Static dielectric constant tensor:
#      x y z
#    x 1.776720 0.000000 -0.026590 
#    y 0.000000 1.778550 0.000000 
#    z -0.026590 0.000000 1.704340 
# 
# From -- ./inp_files/332664.got.cif
#   From: 2010.05.17/outbox.cif.g08.bks.cpg/sg12_167_cif.got.tgz:332664.got - 2010.06.03 13:09:07.
