data_PCOD9196150
_publ_section_title
;
Structure prediction by ZEFSAII (Michael W. Deem and Ramdas Pophale) SiO2 
 PCOD9196150
Probable space group: C 2/M
;
_chemical_formula_sum "Si O2"
_cell_formula_units_Z 48
_cell_length_a 21.445274
_cell_length_b 27.171600
_cell_length_c 9.127142
_cell_angle_alpha 90.000000
_cell_angle_beta 29.394356
_cell_angle_gamma 90.000000
_cell_volume 2610.369821
_symmetry_space_group_name_H-M "C 2/M"
_symmetry_group_IT_number 12
_symmetry_cell_setting 'monoclinic'
loop_
_space_group_symop_operation_xyz
x,y,z
-x,y,-z
-x,-y,-z
x,-y,z
1/2+x,1/2+y,z
1/2-x,1/2+y,-z
1/2-x,1/2-y,-z
1/2+x,1/2-y,z
loop_
_atom_site_type_symbol
_atom_site_label
_atom_site_fract_x
_atom_site_fract_y
_atom_site_fract_z
Si Si1 0.714235 0.058583 0.206033
Si Si2 0.744293 0.770514 0.846936
Si Si3 0.513962 0.778182 0.799291
Si Si4 0.009664 0.056118 0.301943
Si Si5 0.238339 0.112093 0.198539
Si Si6 0.008822 0.395847 0.151171
O O1 0.590825 0.074429 0.547179
O O2 0.715425 0.000000 0.174383
O O3 0.844728 0.069968 0.027087
O O4 0.723603 0.087882 0.034716
O O5 0.858859 0.745842 0.523526
O O6 0.763587 0.829253 0.811789
O O7 0.750000 0.750000 0.000000
O O8 0.609256 0.761690 0.042537
O O9 0.521594 0.837559 0.770876
O O10 0.500000 0.766370 0.000000
O O11 0.000000 0.056490 0.500000
O O12 0.899210 0.091651 0.474702
O O13 0.986084 0.000000 0.302472
O O14 0.348398 0.097322 0.085006
O O15 0.000000 0.409589 0.000000
#
# Coordination Sequence:
#
# PCOD9196150 Si02
#       6
#     8   8   8   8   8   8
#     4  10  20  35  57  82 108 142 181 222 273 328
#     4  11  22  35  56  86 112 140 186 237 278 323
#     4  10  22  40  57  77 112 153 186 223 279 339
#     4   8  16  32  53  77 103 132 171 217 263 315
#     4  10  20  35  56  82 107 139 180 222 275 326
#     4  10  22  38  54  77 111 146 182 224 266 318
#
# _framework density 18.388199
#
# number of rings (size 3 to 8) (size 9 to 14) (size 15 to 20)
#    0.000    2.167    0.000    4.000    0.000   10.333 
#    0.000    0.833    0.000    2.000    0.000    0.000 
#    0.000    0.000    0.000    0.000    0.000    0.000 
#
# Total GULP energy -133975.082898 kJ/mol
# GULP energy per Si atom -5582.295121 kJ/mol
# Density = 1.834635 g / cm^3
# Si number density = 18.388199 Si / 1000 Ang^3
#
#
#
# Elastic Constant Matrix: (Units=GPa)
#
#
# Indices 1 2 3 4 5 6 
#
# 1 77.2000 19.5787 10.2406 0.0002 -13.1559 -0.0001
# 2 19.5787 23.3599 4.0949 -0.0001 -10.6503 0.0000
# 3 10.2406 4.0949 20.9856 0.0007 -8.0849 -0.0008
# 4 0.0002 -0.0001 0.0007 35.7640 -0.0002 -7.2131
# 5 -13.1559 -10.6503 -8.0849 -0.0002 31.4961 0.0003
# 6 -0.0001 0.0000 -0.0008 -7.2131 0.0003 18.9130
#
#
#
# Elastic Compliance Matrix: (Units=1/GPa)
#
#
# Indices 1 2 3 4 5 6 
#
# 1 0.017147 -0.012765 -0.005305 0.000000 0.001484 0.000000
# 2 -0.012765 0.060366 0.000288 0.000000 0.015155 0.000000
# 3 -0.005305 0.000288 0.054786 -0.000001 0.011945 0.000002
# 4 0.000000 0.000000 -0.000001 0.030291 0.000000 0.011553
# 5 0.001484 0.015155 0.011945 0.000000 0.040561 0.000000
# 6 0.000000 0.000000 0.000002 0.011553 0.000000 0.057280
#
#
# Mechanical properties :
#
#
# Convention : Reuss Voigt Hill
#
# Bulk Modulus (GPa) = 10.33742 21.04155 15.68949
# Shear Modulus (GPa) = 15.23280 23.07673 19.15477
#
# Velocity S-wave (km/s) = 2.88132 3.54641 3.23102
# Velocity P-wave (km/s) = 4.08697 5.31386 4.74028
#
# Compressibility (1/GPa) = 0.09673590
#
# Stress axis : x y z
#
# Youngs Moduli (GPa) = 58.31808 16.56564 18.25285
#
# Poissons Ratio (x) = 0.21146 0.09683
# Poissons Ratio (y) = 0.74444 -0.00526
# Poissons Ratio (z) = 0.30937 -0.00478
#
# Static dielectric constant tensor:
#      x y z
#    x 1.628600 0.000000 -0.018160 
#    y 0.000000 1.616200 0.000000 
#    z -0.018160 0.000000 1.615360 
# 
# From -- ./inp_files/91171.got.cif
#   From: 2010.05.17/outbox.cif.g08.bks.cpg/sg12_46_cif.got.tgz:91171.got - 2010.06.03 13:09:07.
