data_PCOD9196222
_publ_section_title
;
Structure prediction by ZEFSAII (Michael W. Deem and Ramdas Pophale) SiO2 
 PCOD9196222
Probable space group: C 2/M
;
_chemical_formula_sum "Si O2"
_cell_formula_units_Z 64
_cell_length_a 31.254783
_cell_length_b 7.833823
_cell_length_c 25.434274
_cell_angle_alpha 90.000000
_cell_angle_beta 27.834964
_cell_angle_gamma 90.000000
_cell_volume 2907.756119
_symmetry_space_group_name_H-M "C 2/M"
_symmetry_group_IT_number 12
_symmetry_cell_setting 'monoclinic'
loop_
_space_group_symop_operation_xyz
x,y,z
-x,y,-z
-x,-y,-z
x,-y,z
1/2+x,1/2+y,z
1/2-x,1/2+y,-z
1/2-x,1/2-y,-z
1/2+x,1/2-y,z
loop_
_atom_site_type_symbol
_atom_site_label
_atom_site_fract_x
_atom_site_fract_y
_atom_site_fract_z
Si Si1 0.743617 0.695082 0.346265
Si Si2 0.690282 0.303839 0.615097
Si Si3 0.102654 0.709247 0.902046
Si Si4 0.979731 0.707569 0.263477
Si Si5 0.772299 0.704933 0.141098
Si Si6 0.546526 0.199329 0.590180
Si Si7 0.931355 0.706215 0.620024
Si Si8 0.311835 0.204961 0.982332
O O1 0.725367 0.500000 0.350348
O O2 0.784180 0.700433 0.360979
O O3 0.821459 0.765157 0.223037
O O4 0.645449 0.785218 0.455506
O O5 0.711096 0.500000 0.604764
O O6 0.750000 0.250000 0.500000
O O7 0.586840 0.279415 0.708522
O O8 0.100557 0.500000 0.903061
O O9 0.143535 0.763095 0.913897
O O10 0.000000 0.767065 0.000000
O O11 0.971924 0.500000 0.269685
O O12 0.950654 0.768653 0.353542
O O13 0.083973 0.759172 0.140744
O O14 0.778613 0.500000 0.132187
O O15 0.674116 0.747127 0.272825
O O16 0.776773 0.771945 0.076615
O O17 0.470075 0.271879 0.633980
O O18 0.524471 0.000000 0.620825
O O19 0.936954 0.500000 0.614588
O O20 0.000000 0.767351 0.500000
O O21 0.313106 0.000000 0.984149
O O22 0.250000 0.250000 0.000000
#
# Coordination Sequence:
#
# PCOD9196222 Si02
#       8
#     8   8   8   8   8   8   8   8
#     4  11  22  36  60  88 117 155 196 246 301 349
#     4  12  24  39  59  87 121 156 196 245 298 359
#     4   9  20  38  61  87 116 155 202 246 294 356
#     4  10  21  37  58  84 115 156 200 243 295 353
#     4  10  21  38  61  90 120 155 201 252 297 346
#     4  10  20  35  56  82 116 154 192 240 292 353
#     4  10  21  37  59  86 117 156 195 236 298 360
#     4  10  22  39  62  90 123 162 203 247 297 353
#
# _framework density 22.010100999999999
#
# number of rings (size 3 to 8) (size 9 to 14) (size 15 to 20)
#    0.000    1.750    1.250    3.000    1.750    2.750 
#    0.000    0.625    0.000    1.875    0.000    0.000 
#    0.000    0.000    0.000    0.000    0.000    0.000 
#
# Total GULP energy -178871.775727 kJ/mol
# GULP energy per Si atom -5589.742991 kJ/mol
# Density = 2.196000 g / cm^3
# Si number density = 22.010101 Si / 1000 Ang^3
#
#
#
# Elastic Constant Matrix: (Units=GPa)
#
#
# Indices 1 2 3 4 5 6 
#
# 1 123.5286 -7.4216 39.1416 -0.0100 -14.6591 0.0061
# 2 -7.4216 30.0838 -5.7673 -0.0754 3.8914 0.0449
# 3 39.1416 -5.7673 110.1723 -0.0549 -8.0126 0.0323
# 4 -0.0100 -0.0754 -0.0549 14.3759 0.0147 4.7363
# 5 -14.6591 3.8914 -8.0126 0.0147 42.5979 -0.0061
# 6 0.0061 0.0449 0.0323 4.7363 -0.0061 6.4425
#
#
#
# Elastic Compliance Matrix: (Units=1/GPa)
#
#
# Indices 1 2 3 4 5 6 
#
# 1 0.009466 0.001411 -0.003104 0.000000 0.002545 -0.000001
# 2 0.001411 0.034116 0.001109 0.000354 -0.002423 -0.000507
# 3 -0.003104 0.001109 0.010293 0.000080 0.000767 -0.000114
# 4 0.000000 0.000354 0.000080 0.091798 -0.000059 -0.067489
# 5 0.002545 -0.002423 0.000767 -0.000059 0.024717 0.000077
# 6 -0.000001 -0.000507 -0.000114 -0.067489 0.000077 0.204838
#
#
# Mechanical properties :
#
#
# Convention : Reuss Voigt Hill
#
# Bulk Modulus (GPa) = 18.97297 35.07666 27.02482
# Shear Modulus (GPa) = 12.69151 28.53874 20.61512
#
# Velocity S-wave (km/s) = 2.40390 3.60477 3.06375
# Velocity P-wave (km/s) = 4.04275 5.77036 4.98201
#
# Compressibility (1/GPa) = 0.05270656
#
# Stress axis : x y z
#
# Youngs Moduli (GPa) = 105.64610 29.31162 97.15032
#
# Poissons Ratio (x) = -0.04136 0.30155
# Poissons Ratio (y) = -0.14906 -0.10772
# Poissons Ratio (z) = 0.32792 -0.03250
#
# Static dielectric constant tensor:
#      x y z
#    x 1.824980 -0.000010 0.010940 
#    y -0.000010 1.816790 0.000020 
#    z 0.010940 0.000020 1.787140 
# 
# From -- ./inp_files/353374.got.cif
#   From: 2010.05.17/outbox.cif.g08.bks.cpg/sg12_177_cif.got.tgz:353374.got - 2010.06.03 13:09:07.
