data_PCOD9196295
_publ_section_title
;
Structure prediction by ZEFSAII (Michael W. Deem and Ramdas Pophale) SiO2 
 PCOD9196295
Probable space group: C 2/M
;
_chemical_formula_sum "Si O2"
_cell_formula_units_Z 56
_cell_length_a 11.564918
_cell_length_b 27.926647
_cell_length_c 8.141557
_cell_angle_alpha 90.000000
_cell_angle_beta 79.559367
_cell_angle_gamma 90.000000
_cell_volume 2585.937976
_symmetry_space_group_name_H-M "C 2/M"
_symmetry_group_IT_number 12
_symmetry_cell_setting 'monoclinic'
loop_
_space_group_symop_operation_xyz
x,y,z
-x,y,-z
-x,-y,-z
x,-y,z
1/2+x,1/2+y,z
1/2-x,1/2+y,-z
1/2-x,1/2-y,-z
1/2+x,1/2-y,z
loop_
_atom_site_type_symbol
_atom_site_label
_atom_site_fract_x
_atom_site_fract_y
_atom_site_fract_z
Si Si1 0.042528 0.678071 0.178166
Si Si2 0.829386 0.374891 0.338232
Si Si3 0.869221 0.055429 0.492190
Si Si4 0.780849 0.847305 0.984001
Si Si5 0.965190 0.788713 0.754102
Si Si6 0.366756 0.447546 0.098840
Si Si7 0.187696 0.199339 0.531870
O O1 0.019613 0.731312 0.251771
O O2 0.969439 0.634886 0.283229
O O3 0.182002 0.672215 0.131352
O O4 0.000000 0.679626 0.000000
O O5 0.747019 0.420810 0.397756
O O6 0.781424 0.355320 0.176791
O O7 0.787589 0.339817 0.492941
O O8 0.861175 0.057082 0.297123
O O9 0.000000 0.076688 0.500000
O O10 0.872554 0.000000 0.545540
O O11 0.887892 0.810861 0.920342
O O12 0.814945 0.900167 0.032643
O O13 0.893197 0.803319 0.610185
O O14 0.097057 0.808313 0.702752
O O15 0.313451 0.500000 0.069280
O O16 0.500000 0.449001 0.000000
O O17 0.250000 0.250000 0.500000
#
# Coordination Sequence:
#
# PCOD9196295 Si02
#       7
#     8   8   8   8   8   8   8
#     4  10  21  40  56  81 119 158 198 246 289 342
#     4  10  21  37  61  83 119 159 199 242 290 356
#     4  10  22  40  64  91 119 152 195 246 300 360
#     4  10  22  38  58  85 118 159 199 242 295 354
#     4  10  21  36  56  84 116 156 205 241 288 350
#     4  10  22  40  60  90 122 147 189 249 303 351
#     4  10  20  35  56  83 118 155 197 247 294 340
#
# _framework density 21.655584000000001
#
# number of rings (size 3 to 8) (size 9 to 14) (size 15 to 20)
#    0.000    2.000    1.429    1.286    6.000    3.429 
#    0.000    0.714    0.000    4.286    0.000    0.000 
#    0.000    0.000    0.000    0.000    0.000    0.000 
#
# Total GULP energy -156187.623015 kJ/mol
# GULP energy per Si atom -5578.129393 kJ/mol
# Density = 2.160630 g / cm^3
# Si number density = 21.655584 Si / 1000 Ang^3
#
#
#
# Elastic Constant Matrix: (Units=GPa)
#
#
# Indices 1 2 3 4 5 6 
#
# 1 89.2451 20.7180 37.7278 0.0000 -35.2442 0.0000
# 2 20.7180 75.3684 4.7981 0.0000 -22.1076 0.0000
# 3 37.7278 4.7981 88.2899 0.0000 -26.5066 0.0000
# 4 0.0000 0.0000 0.0000 26.3990 0.0000 -5.9434
# 5 -35.2442 -22.1076 -26.5066 0.0000 36.3729 0.0000
# 6 0.0000 0.0000 0.0000 -5.9434 0.0000 33.4368
#
#
#
# Elastic Compliance Matrix: (Units=1/GPa)
#
#
# Indices 1 2 3 4 5 6 
#
# 1 0.018881 -0.000400 -0.003362 0.000000 0.015601 0.000000
# 2 -0.000400 0.016654 0.002801 0.000000 0.011777 0.000000
# 3 -0.003362 0.002801 0.015545 0.000000 0.009773 0.000000
# 4 0.000000 0.000000 0.000000 0.039459 0.000000 0.007014
# 5 0.015601 0.011777 0.009773 0.000000 0.056890 0.000000
# 6 0.000000 0.000000 0.000000 0.007014 0.000000 0.031154
#
#
# Mechanical properties :
#
#
# Convention : Reuss Voigt Hill
#
# Bulk Modulus (GPa) = 20.34255 42.15457 31.24856
# Shear Modulus (GPa) = 25.39484 31.88571 28.64028
#
# Velocity S-wave (km/s) = 3.42814 3.84135 3.64061
# Velocity P-wave (km/s) = 5.00835 6.25962 5.66862
#
# Compressibility (1/GPa) = 0.04915804
#
# Stress axis : x y z
#
# Youngs Moduli (GPa) = 52.96458 60.04538 64.32957
#
# Poissons Ratio (x) = 0.02400 0.21630
# Poissons Ratio (y) = 0.02117 -0.18021
# Poissons Ratio (z) = 0.17809 -0.16821
#
# Static dielectric constant tensor:
#      x y z
#    x 1.877520 0.000000 -0.027510 
#    y 0.000000 1.815630 0.000000 
#    z -0.027510 0.000000 1.846130 
# 
# From -- ./inp_files/53167.got.cif
#   From: 2010.05.17/outbox.cif.g08.bks.cpg/sg12_27_cif.got.tgz:53167.got - 2010.06.03 13:09:07.
