data_PCOD9196183
_publ_section_title
;
Structure prediction by ZEFSAII (Michael W. Deem and Ramdas Pophale) SiO2 
 PCOD9196183
Probable space group: C 2/M
;
_chemical_formula_sum "Si O2"
_cell_formula_units_Z 56
_cell_length_a 16.839519
_cell_length_b 7.780438
_cell_length_c 20.100767
_cell_angle_alpha 90.000000
_cell_angle_beta 59.307594
_cell_angle_gamma 90.000000
_cell_volume 2264.667112
_symmetry_space_group_name_H-M "C 2/M"
_symmetry_group_IT_number 12
_symmetry_cell_setting 'monoclinic'
loop_
_space_group_symop_operation_xyz
x,y,z
-x,y,-z
-x,-y,-z
x,-y,z
1/2+x,1/2+y,z
1/2-x,1/2+y,-z
1/2-x,1/2-y,-z
1/2+x,1/2-y,z
loop_
_atom_site_type_symbol
_atom_site_label
_atom_site_fract_x
_atom_site_fract_y
_atom_site_fract_z
Si Si1 0.631364 0.699157 0.120690
Si Si2 0.303575 0.791597 0.688079
Si Si3 0.516504 0.789176 0.607366
Si Si4 0.871929 0.300919 0.163797
Si Si5 0.841934 0.201007 0.034543
Si Si6 0.540038 0.803178 0.741000
Si Si7 0.307981 0.205908 0.540364
O O1 0.605576 0.500000 0.138365
O O2 0.740879 0.715293 0.082909
O O3 0.570062 0.801122 0.199169
O O4 0.611664 0.764250 0.053581
O O5 0.410292 0.738476 0.647179
O O6 0.236532 0.716605 0.772277
O O7 0.272206 0.733923 0.627289
O O8 0.298650 0.000000 0.695312
O O9 0.555870 0.726969 0.661704
O O10 0.587219 0.735622 0.519874
O O11 0.516341 0.000000 0.608336
O O12 0.897591 0.500000 0.148426
O O13 0.891739 0.222466 0.083479
O O14 0.918793 0.221456 0.209648
O O15 0.825779 0.000000 0.029940
O O16 0.572970 0.000000 0.724940
O O17 0.250000 0.250000 0.500000
O O18 0.310866 0.000000 0.544336
#
# Coordination Sequence:
#
# PCOD9196183 Si02
#       7
#     8   8   8   8   8   8   8
#     4  10  21  37  59  85 111 142 184 233 279 328
#     4  10  20  35  58  83 106 142 190 234 278 330
#     4   9  18  35  57  79 106 143 186 227 270 325
#     4  11  23  37  55  82 115 149 186 230 278 330
#     4  10  21  38  59  82 111 147 185 227 278 334
#     4  10  21  36  55  79 111 151 188 227 279 333
#     4  10  20  35  56  82 112 144 181 226 276 332
#
# _framework density 24.727696000000002
#
# number of rings (size 3 to 8) (size 9 to 14) (size 15 to 20)
#    0.000    2.000    0.000    3.429    0.000    8.000 
#    0.000    4.286    0.000    1.714    0.000    0.000 
#    0.000    0.000    0.000    0.000    0.000    0.000 
#
# Total GULP energy -156583.740643 kJ/mol
# GULP energy per Si atom -5592.276452 kJ/mol
# Density = 2.467141 g / cm^3
# Si number density = 24.727696 Si / 1000 Ang^3
#
#
#
# Elastic Constant Matrix: (Units=GPa)
#
#
# Indices 1 2 3 4 5 6 
#
# 1 60.7981 -1.0076 -1.0822 0.0000 13.1208 0.0002
# 2 -1.0076 54.2769 5.2709 0.0000 1.9916 0.0004
# 3 -1.0822 5.2709 114.6852 0.0000 20.1548 0.0000
# 4 0.0000 0.0000 0.0000 17.9957 0.0000 1.2069
# 5 13.1208 1.9916 20.1548 0.0000 47.6519 0.0000
# 6 0.0002 0.0004 0.0000 1.2069 0.0000 23.2178
#
#
#
# Elastic Compliance Matrix: (Units=1/GPa)
#
#
# Indices 1 2 3 4 5 6 
#
# 1 0.017624 0.000417 0.001084 0.000000 -0.005328 0.000000
# 2 0.000417 0.018525 -0.000747 0.000000 -0.000573 0.000000
# 3 0.001084 -0.000747 0.009519 0.000000 -0.004293 0.000000
# 4 0.000000 0.000000 0.000000 0.055763 0.000000 -0.002899
# 5 -0.005328 -0.000573 -0.004293 0.000000 0.024292 0.000000
# 6 0.000000 0.000000 0.000000 -0.002899 0.000000 0.043221
#
#
# Mechanical properties :
#
#
# Convention : Reuss Voigt Hill
#
# Bulk Modulus (GPa) = 21.19701 26.23582 23.71641
# Shear Modulus (GPa) = 27.29829 32.87836 30.08833
#
# Velocity S-wave (km/s) = 3.32619 3.65035 3.49203
# Velocity P-wave (km/s) = 4.83137 5.32913 5.08634
#
# Compressibility (1/GPa) = 0.04717647
#
# Stress axis : x y z
#
# Youngs Moduli (GPa) = 56.74076 53.98009 105.05820
#
# Poissons Ratio (x) = -0.02253 -0.11384
# Poissons Ratio (y) = -0.02369 0.07845
# Poissons Ratio (z) = -0.06148 0.04031
#
# Static dielectric constant tensor:
#      x y z
#    x 2.040510 0.000000 0.030150 
#    y 0.000000 1.899650 0.000000 
#    z 0.030150 0.000000 1.934360 
# 
# From -- ./inp_files/275148.got.cif
#   From: 2010.05.17/outbox.cif.g08.bks.cpg/sg12_138_cif.got.tgz:275148.got - 2010.06.03 13:09:07.
