data_PCOD9196518
_publ_section_title
;
Structure prediction by ZEFSAII (Michael W. Deem and Ramdas Pophale) SiO2 
 PCOD9196518
Probable space group: C 2/M
;
_chemical_formula_sum "Si O2"
_cell_formula_units_Z 58
_cell_length_a 19.913833
_cell_length_b 7.849708
_cell_length_c 18.478473
_cell_angle_alpha 90.000000
_cell_angle_beta 79.330382
_cell_angle_gamma 90.000000
_cell_volume 2838.574576
_symmetry_space_group_name_H-M "C 2/M"
_symmetry_group_IT_number 12
_symmetry_cell_setting 'monoclinic'
loop_
_space_group_symop_operation_xyz
x,y,z
-x,y,-z
-x,-y,-z
x,-y,z
1/2+x,1/2+y,z
1/2-x,1/2+y,-z
1/2-x,1/2-y,-z
1/2+x,1/2-y,z
loop_
_atom_site_type_symbol
_atom_site_label
_atom_site_fract_x
_atom_site_fract_y
_atom_site_fract_z
Si Si1 0.318098 0.291966 0.204104
Si Si2 0.175025 0.804590 0.488631
Si Si3 0.391701 0.700529 0.794981
Si Si4 0.308498 0.197701 0.674462
Si Si5 0.043442 0.206732 0.752522
Si Si6 0.266575 0.796898 0.914950
Si Si7 0.960493 0.311743 0.411970
Si Si8 0.500000 0.500000 0.500000
O O1 0.317249 0.500000 0.204026
O O2 0.262343 0.239640 0.275518
O O3 0.393205 0.235831 0.211337
O O4 0.289823 0.234601 0.132019
O O5 0.250000 0.750000 0.500000
O O6 0.173055 0.792354 0.402464
O O7 0.114265 0.697645 0.535915
O O8 0.160592 0.000000 0.512984
O O9 0.391991 0.500000 0.779040
O O10 0.363198 0.788187 0.728026
O O11 0.468694 0.754340 0.796421
O O12 0.338914 0.732649 0.870192
O O13 0.299805 0.000000 0.656089
O O14 0.049146 0.280076 0.670989
O O15 0.047048 0.000000 0.747172
O O16 0.268316 0.000000 0.909280
O O17 0.250000 0.750000 0.000000
O O18 0.991211 0.500000 0.417540
O O19 0.001141 0.153071 0.437786
#
# Coordination Sequence:
#
# PCOD9196518 Si02
#       8
#     8   8   8   8   8   8   8   2
#     4   8  17  35  60  85 113 155 199 244 298 358
#     4  12  24  40  58  84 119 157 208 267 320 375
#     4  10  21  35  58  88 117 151 189 236 295 354
#     4  10  20  35  57  82 111 151 202 252 302 360
#     4  10  20  39  61  85 120 158 201 254 304 363
#     4  10  20  38  63  90 120 153 193 239 291 354
#     4  12  26  42  63  89 121 167 213 264 327 379
#     4  12  26  48  60  86 124 164 220 266 320 380
#
# _framework density 20.432791000000002
#
# number of rings (size 3 to 8) (size 9 to 14) (size 15 to 20)
#    0.000    1.655    1.379    4.345    1.931    2.207 
#    0.000    4.138    0.000    4.138    0.000    0.000 
#    0.000    0.000    0.000    0.000    0.000    0.000 
#
# Total GULP energy -161863.107410 kJ/mol
# GULP energy per Si atom -5581.486462 kJ/mol
# Density = 2.038628 g / cm^3
# Si number density = 20.432791 Si / 1000 Ang^3
#
#
#
# Elastic Constant Matrix: (Units=GPa)
#
#
# Indices 1 2 3 4 5 6 
#
# 1 144.3524 15.8254 68.7430 0.0000 -5.1988 0.0000
# 2 15.8254 88.1023 7.1058 0.0000 1.9867 0.0000
# 3 68.7430 7.1058 127.6204 0.0000 -0.1940 0.0000
# 4 0.0000 0.0000 0.0000 27.2172 0.0000 -0.2407
# 5 -5.1988 1.9867 -0.1940 0.0000 13.6451 0.0000
# 6 0.0000 0.0000 0.0000 -0.2407 0.0000 13.7095
#
#
#
# Elastic Compliance Matrix: (Units=1/GPa)
#
#
# Indices 1 2 3 4 5 6 
#
# 1 0.009656 -0.001408 -0.005117 0.000000 0.003811 0.000000
# 2 -0.001408 0.011645 0.000106 0.000000 -0.002230 0.000000
# 3 -0.005117 0.000106 0.010583 0.000000 -0.001815 0.000000
# 4 0.000000 0.000000 0.000000 0.036747 0.000000 0.000645
# 5 0.003811 -0.002230 -0.001815 0.000000 0.075037 0.000000
# 6 0.000000 0.000000 0.000000 0.000645 0.000000 0.072953
#
#
# Mechanical properties :
#
#
# Convention : Reuss Voigt Hill
#
# Bulk Modulus (GPa) = 52.49943 60.38037 56.43990
# Shear Modulus (GPa) = 21.20372 28.80776 25.00574
#
# Velocity S-wave (km/s) = 3.22488 3.75891 3.50209
# Velocity P-wave (km/s) = 6.29412 6.96090 6.63589
#
# Compressibility (1/GPa) = 0.01904783
#
# Stress axis : x y z
#
# Youngs Moduli (GPa) = 103.56407 85.87383 94.48827
#
# Poissons Ratio (x) = 0.12088 0.48349
# Poissons Ratio (y) = 0.14578 -0.01006
# Poissons Ratio (z) = 0.52994 -0.00914
#
# Static dielectric constant tensor:
#      x y z
#    x 1.629880 0.000000 0.006390 
#    y 0.000000 1.764900 0.000000 
#    z 0.006390 0.000000 1.629480 
# 
# From -- ./inp_files/281101.got.cif
#   From: 2010.05.17/outbox.cif.g08.bks.cpg/sg12_141_cif.got.tgz:281101.got - 2010.06.03 13:09:07.
