data_PCOD9196811
_publ_section_title
;
Structure prediction by ZEFSAII (Michael W. Deem and Ramdas Pophale) SiO2 
 PCOD9196811
Probable space group: C 2/M
;
_chemical_formula_sum "Si O2"
_cell_formula_units_Z 56
_cell_length_a 12.596505
_cell_length_b 13.791426
_cell_length_c 14.312666
_cell_angle_alpha 90.000000
_cell_angle_beta 90.887702
_cell_angle_gamma 90.000000
_cell_volume 2486.151826
_symmetry_space_group_name_H-M "C 2/M"
_symmetry_group_IT_number 12
_symmetry_cell_setting 'monoclinic'
loop_
_space_group_symop_operation_xyz
x,y,z
-x,y,-z
-x,-y,-z
x,-y,z
1/2+x,1/2+y,z
1/2-x,1/2+y,-z
1/2-x,1/2-y,-z
1/2+x,1/2-y,z
loop_
_atom_site_type_symbol
_atom_site_label
_atom_site_fract_x
_atom_site_fract_y
_atom_site_fract_z
Si Si1 0.749763 0.888583 0.536230
Si Si2 0.452656 0.691721 0.836036
Si Si3 0.535971 0.387898 0.357050
Si Si4 0.690427 0.711207 0.644375
Si Si5 0.036029 0.610707 0.891979
Si Si6 0.268809 0.384592 0.956046
Si Si7 0.190258 0.114854 0.836917
O O1 0.875482 0.883169 0.562504
O O2 0.694737 0.822586 0.613677
O O3 0.738875 0.842934 0.433315
O O4 0.717458 0.000000 0.538693
O O5 0.411134 0.649511 0.737887
O O6 0.478415 0.805503 0.834371
O O7 0.370520 0.667256 0.915570
O O8 0.565451 0.637287 0.852332
O O9 0.503505 0.500000 0.346299
O O10 0.430384 0.325856 0.366995
O O11 0.723354 0.678785 0.748461
O O12 0.017642 0.500000 0.860227
O O13 0.161647 0.632972 0.897051
O O14 0.000000 0.615573 0.000000
O O15 0.288734 0.500000 0.953201
O O16 0.253015 0.360663 0.064956
O O17 0.204267 0.000000 0.817583
#
# Coordination Sequence:
#
# PCOD9196811 Si02
#       7
#     8   8   8   8   8   8   8
#     4  10  21  38  63  90 117 153 195 239 288 348
#     4  11  21  35  59  86 115 149 198 248 289 336
#     4  10  21  38  61  89 119 152 194 241 292 350
#     4  10  20  36  61  89 120 151 191 239 293 350
#     4  10  23  40  55  76 112 158 201 239 287 347
#     4  10  21  38  60  84 113 152 197 244 291 342
#     4  10  20  35  57  87 119 149 189 244 299 347
#
# _framework density 22.524771000000001
#
# number of rings (size 3 to 8) (size 9 to 14) (size 15 to 20)
#    0.000    1.857    0.000    5.143    0.000    8.000 
#    0.000    5.714    0.000   17.143    0.000    0.000 
#    0.000    0.000    0.000    0.000    0.000    0.000 
#
# Total GULP energy -156717.725487 kJ/mol
# GULP energy per Si atom -5597.061625 kJ/mol
# Density = 2.247350 g / cm^3
# Si number density = 22.524771 Si / 1000 Ang^3
#
#
#
# Elastic Constant Matrix: (Units=GPa)
#
#
# Indices 1 2 3 4 5 6 
#
# 1 54.9657 31.8577 12.6675 0.0000 -8.0946 0.0000
# 2 31.8577 123.7873 36.6318 0.0000 -14.2423 0.0000
# 3 12.6675 36.6318 96.9974 0.0000 -7.0970 0.0000
# 4 0.0000 0.0000 0.0000 17.0670 0.0000 -6.6474
# 5 -8.0946 -14.2423 -7.0970 0.0000 20.8980 0.0000
# 6 0.0000 0.0000 0.0000 -6.6474 0.0000 24.5228
#
#
#
# Elastic Compliance Matrix: (Units=1/GPa)
#
#
# Indices 1 2 3 4 5 6 
#
# 1 0.021896 -0.004872 -0.000658 0.000000 0.004937 0.000000
# 2 -0.004872 0.010756 -0.003105 0.000000 0.004389 0.000000
# 3 -0.000658 -0.003105 0.011685 0.000000 0.001597 0.000000
# 4 0.000000 0.000000 0.000000 0.065509 0.000000 0.017758
# 5 0.004937 0.004389 0.001597 0.000000 0.053297 0.000000
# 6 0.000000 0.000000 0.000000 0.017758 0.000000 0.045592
#
#
# Mechanical properties :
#
#
# Convention : Reuss Voigt Hill
#
# Bulk Modulus (GPa) = 36.94617 48.67382 42.81000
# Shear Modulus (GPa) = 21.27411 25.47046 23.37228
#
# Velocity S-wave (km/s) = 3.07657 3.36635 3.22471
# Velocity P-wave (km/s) = 5.39059 6.06347 5.73690
#
# Compressibility (1/GPa) = 0.02706640
#
# Stress axis : x y z
#
# Youngs Moduli (GPa) = 45.67078 92.97140 85.58059
#
# Poissons Ratio (x) = 0.45298 0.05633
# Poissons Ratio (y) = 0.22252 0.26570
# Poissons Ratio (z) = 0.03006 0.28865
#
# Static dielectric constant tensor:
#      x y z
#    x 1.827620 0.000000 0.016640 
#    y 0.000000 1.835040 0.000000 
#    z 0.016640 0.000000 1.883350 
# 
# From -- ./inp_files/204978.got.cif
#   From: 2010.05.17/outbox.cif.g08.bks.cpg/sg12_103_cif.got.tgz:204978.got - 2010.06.03 13:09:07.
