data_PCOD9196956
_publ_section_title
;
Structure prediction by ZEFSAII (Michael W. Deem and Ramdas Pophale) SiO2 
 PCOD9196956
Probable space group: C 2/M
;
_chemical_formula_sum "Si O2"
_cell_formula_units_Z 56
_cell_length_a 28.037546
_cell_length_b 7.440573
_cell_length_c 18.978893
_cell_angle_alpha 90.000000
_cell_angle_beta 148.228586
_cell_angle_gamma 90.000000
_cell_volume 2084.691439
_symmetry_space_group_name_H-M "C 2/M"
_symmetry_group_IT_number 12
_symmetry_cell_setting 'monoclinic'
loop_
_space_group_symop_operation_xyz
x,y,z
-x,y,-z
-x,-y,-z
x,-y,z
1/2+x,1/2+y,z
1/2-x,1/2+y,-z
1/2-x,1/2-y,-z
1/2+x,1/2-y,z
loop_
_atom_site_type_symbol
_atom_site_label
_atom_site_fract_x
_atom_site_fract_y
_atom_site_fract_z
Si Si1 0.374868 0.716090 0.407586
Si Si2 0.221037 0.298664 0.857741
Si Si3 0.540189 0.710481 0.698129
Si Si4 0.559142 0.281229 0.285486
Si Si5 0.610455 0.718546 0.006986
Si Si6 0.770566 0.782597 0.423867
Si Si7 0.595268 0.208378 0.140785
O O1 0.374106 0.500000 0.393938
O O2 0.328756 0.797918 0.281136
O O3 0.477219 0.777153 0.554819
O O4 0.321735 0.753300 0.413945
O O5 0.239046 0.500000 0.904301
O O6 0.146041 0.226405 0.816594
O O7 0.318664 0.216163 0.962863
O O8 0.519834 0.500000 0.675536
O O9 0.500018 0.779081 0.720854
O O10 0.562425 0.500000 0.288254
O O11 0.661079 0.217045 0.429558
O O12 0.493315 0.227039 0.139225
O O13 0.614215 0.500000 0.012311
O O14 0.641350 0.788437 0.121230
O O15 0.668460 0.711357 0.286358
O O16 0.764508 0.000000 0.421447
O O17 0.580679 0.000000 0.140360
O O18 0.500000 0.297489 0.000000
#
# Coordination Sequence:
#
# PCOD9196956 Si02
#       7
#     8   8   8   8   8   8   8
#     4   9  16  29  49  70  93 129 178 215 243 290
#     4  11  21  29  42  70 106 136 165 207 261 303
#     4   9  18  31  49  71  94 131 182 220 240 281
#     4   8  16  33  54  73  98 137 182 212 236 290
#     4  10  21  36  53  75 104 138 171 206 253 309
#     4   8  14  29  54  77  97 129 171 210 246 291
#     4  10  20  35  58  85 106 125 160 212 262 306
#
# _framework density 26.862490000000001
#
# number of rings (size 3 to 8) (size 9 to 14) (size 15 to 20)
#    0.000    2.714    1.429    2.571    0.000    3.714 
#    0.000    1.429    0.000    1.714    0.000    0.000 
#    0.000    0.000    0.000    0.000    0.000    0.000 
#
# Total GULP energy -156517.560210 kJ/mol
# GULP energy per Si atom -5589.912865 kJ/mol
# Density = 2.680135 g / cm^3
# Si number density = 26.862490 Si / 1000 Ang^3
#
#
#
# Elastic Constant Matrix: (Units=GPa)
#
#
# Indices 1 2 3 4 5 6 
#
# 1 82.1086 8.3718 48.8548 0.0000 2.5136 0.0000
# 2 8.3718 93.0254 8.2420 0.0000 3.7198 0.0000
# 3 48.8548 8.2420 221.7971 0.0000 12.5977 0.0000
# 4 0.0000 0.0000 0.0000 9.8019 0.0000 4.7901
# 5 2.5136 3.7198 12.5977 0.0000 54.8784 0.0000
# 6 0.0000 0.0000 0.0000 4.7901 0.0000 -6.1735
#
#
#
# Elastic Compliance Matrix: (Units=1/GPa)
#
#
# Indices 1 2 3 4 5 6 
#
# 1 0.014108 -0.001002 -0.003078 0.000000 0.000128 0.000000
# 2 -0.001002 0.010879 -0.000146 0.000000 -0.000658 0.000000
# 3 -0.003078 -0.000146 0.005252 0.000000 -0.001055 0.000000
# 4 0.000000 0.000000 0.000000 0.073972 0.000000 0.057396
# 5 0.000128 -0.000658 -0.001055 0.000000 0.018503 0.000000
# 6 0.000000 0.000000 0.000000 0.057396 0.000000 -0.117448
#
#
# Mechanical properties :
#
#
# Convention : Reuss Voigt Hill
#
# Bulk Modulus (GPa) = 45.89773 58.65204 52.27488
# Shear Modulus (GPa) = 238.31615 33.79887 136.05751
#
# Velocity S-wave (km/s) = 9.42919 3.55099 7.12458
# Velocity P-wave (km/s) = 11.64772 6.22047 9.33712
#
# Compressibility (1/GPa) = 0.02178757
#
# Stress axis : x y z
#
# Youngs Moduli (GPa) = 70.87941 91.91855 190.40801
#
# Poissons Ratio (x) = 0.09212 0.58602
# Poissons Ratio (y) = 0.07103 0.02783
# Poissons Ratio (z) = 0.21814 0.01343
#
# Static dielectric constant tensor:
#      x y z
#    x 2.149240 0.000000 0.036990 
#    y 0.000000 1.983480 0.000000 
#    z 0.036990 0.000000 2.117530 
# 
# From -- ./inp_files/329686.got.cif
#   From: 2010.05.17/outbox.cif.g08.bks.cpg/sg12_165_cif.got.tgz:329686.got - 2010.06.03 13:09:07.
