data_PCOD9196725
_publ_section_title
;
Structure prediction by ZEFSAII (Michael W. Deem and Ramdas Pophale) SiO2 
 PCOD9196725
Probable space group: C 2/M
;
_chemical_formula_sum "Si O2"
_cell_formula_units_Z 48
_cell_length_a 15.758753
_cell_length_b 14.760179
_cell_length_c 18.524888
_cell_angle_alpha 90.000000
_cell_angle_beta 36.507058
_cell_angle_gamma 90.000000
_cell_volume 2563.474202
_symmetry_space_group_name_H-M "C 2/M"
_symmetry_group_IT_number 12
_symmetry_cell_setting 'monoclinic'
loop_
_space_group_symop_operation_xyz
x,y,z
-x,y,-z
-x,-y,-z
x,-y,z
1/2+x,1/2+y,z
1/2-x,1/2+y,-z
1/2-x,1/2-y,-z
1/2+x,1/2-y,z
loop_
_atom_site_type_symbol
_atom_site_label
_atom_site_fract_x
_atom_site_fract_y
_atom_site_fract_z
Si Si1 0.918578 0.747193 0.247749
Si Si2 0.880886 0.836698 0.531537
Si Si3 0.673463 0.596158 0.585718
Si Si4 0.516232 0.138255 0.572231
Si Si5 0.877260 0.603251 0.815001
Si Si6 0.960085 0.895943 0.943416
O O1 0.767346 0.699162 0.332657
O O2 0.891969 0.815938 0.332344
O O3 0.029667 0.673081 0.201488
O O4 0.969216 0.814958 0.150314
O O5 0.838159 0.893856 0.491627
O O6 0.960756 0.745959 0.449004
O O7 0.000000 0.882172 0.500000
O O8 0.609171 0.500000 0.652629
O O9 0.837795 0.598778 0.496360
O O10 0.500000 0.107405 0.500000
O O11 0.399720 0.117814 0.713071
O O12 0.922525 0.500000 0.799563
O O13 0.710677 0.612082 0.946729
O O14 0.001303 0.000000 0.893930
O O15 0.000000 0.886727 0.000000
#
# Coordination Sequence:
#
# PCOD9196725 Si02
#       6
#     8   8   8   8   8   8
#     4  11  21  40  60  83 118 156 194 240 292 346
#     4  10  21  36  57  84 117 157 197 234 285 345
#     4  11  21  35  57  86 121 155 191 237 290 351
#     4  10  20  35  57  85 117 153 190 239 295 350
#     4  11  22  38  60  85 116 154 198 241 286 347
#     4  10  24  40  59  89 117 149 193 242 297 351
#
# _framework density 18.724589999999999
#
# number of rings (size 3 to 8) (size 9 to 14) (size 15 to 20)
#    0.000    1.500    3.333    2.500    7.000    1.667 
#    0.000    0.000    0.000    1.000    0.000    0.000 
#    0.000    0.000    0.000    0.000    0.000    0.000 
#
# Total GULP energy -133876.485825 kJ/mol
# GULP energy per Si atom -5578.186909 kJ/mol
# Density = 1.868197 g / cm^3
# Si number density = 18.724590 Si / 1000 Ang^3
#
#
#
# Elastic Constant Matrix: (Units=GPa)
#
#
# Indices 1 2 3 4 5 6 
#
# 1 150.2019 42.0858 44.2735 -0.0001 3.9635 -0.0001
# 2 42.0858 79.8908 32.3972 0.0000 -1.5310 -0.0001
# 3 44.2735 32.3972 80.8947 0.0009 8.6277 0.0007
# 4 -0.0001 0.0000 0.0009 344.8576 -0.0003 301.7305
# 5 3.9635 -1.5310 8.6277 -0.0003 25.6029 -0.0003
# 6 -0.0001 -0.0001 0.0007 301.7305 -0.0003 227.0387
#
#
#
# Elastic Compliance Matrix: (Units=1/GPa)
#
#
# Indices 1 2 3 4 5 6 
#
# 1 0.008543 -0.003137 -0.003379 0.000000 -0.000371 0.000000
# 2 -0.003137 0.016324 -0.005162 0.000000 0.003201 0.000000
# 3 -0.003379 -0.005162 0.016862 0.000000 -0.005468 0.000000
# 4 0.000000 0.000000 0.000000 -0.017814 0.000000 0.023674
# 5 -0.000371 0.003201 -0.005468 0.000000 0.041149 0.000000
# 6 0.000000 0.000000 0.000000 0.023674 0.000000 -0.027058
#
#
# Mechanical properties :
#
#
# Convention : Reuss Voigt Hill
#
# Bulk Modulus (GPa) = 54.43205 60.94450 57.68827
# Shear Modulus (GPa) = 74.08723 132.31524 103.20124
#
# Velocity S-wave (km/s) = 6.29704 8.41530 7.43203
# Velocity P-wave (km/s) = 9.05556 11.27127 10.22362
#
# Compressibility (1/GPa) = 0.01837153
#
# Stress axis : x y z
#
# Youngs Moduli (GPa) = 117.06095 61.25838 59.30525
#
# Poissons Ratio (x) = 0.19216 0.20042
# Poissons Ratio (y) = 0.36720 0.30615
# Poissons Ratio (z) = 0.39561 0.31624
#
# Static dielectric constant tensor:
#      x y z
#    x 1.660080 0.000000 0.002450 
#    y 0.000000 1.676620 0.000000 
#    z 0.002450 0.000000 1.666000 
# 
# From -- ./inp_files/270123.got.cif
#   From: 2010.05.17/outbox.cif.g08.bks.cpg/sg12_136_cif.got.tgz:270123.got - 2010.06.03 13:09:07.
