data_PCOD9196955
_publ_section_title
;
Structure prediction by ZEFSAII (Michael W. Deem and Ramdas Pophale) SiO2 
 PCOD9196955
Probable space group: C 2/M
;
_chemical_formula_sum "Si O2"
_cell_formula_units_Z 60
_cell_length_a 9.000330
_cell_length_b 29.468811
_cell_length_c 11.521588
_cell_angle_alpha 90.000000
_cell_angle_beta 113.445115
_cell_angle_gamma 90.000000
_cell_volume 2803.572739
_symmetry_space_group_name_H-M "C 2/M"
_symmetry_group_IT_number 12
_symmetry_cell_setting 'monoclinic'
loop_
_space_group_symop_operation_xyz
x,y,z
-x,y,-z
-x,-y,-z
x,-y,z
1/2+x,1/2+y,z
1/2-x,1/2+y,-z
1/2-x,1/2-y,-z
1/2+x,1/2-y,z
loop_
_atom_site_type_symbol
_atom_site_label
_atom_site_fract_x
_atom_site_fract_y
_atom_site_fract_z
Si Si1 0.746088 0.675634 0.215513
Si Si2 0.694842 0.102499 0.566990
Si Si3 0.637310 0.591707 0.615609
Si Si4 0.943897 0.716277 0.613655
Si Si5 0.829176 0.731712 0.908271
Si Si6 0.504739 0.447397 0.221699
Si Si7 0.500000 0.616489 0.000000
Si Si8 0.867981 0.807517 0.337798
O O1 0.752852 0.646266 0.336971
O O2 0.661977 0.725445 0.179052
O O3 0.934726 0.689591 0.261975
O O4 0.652834 0.647251 0.088096
O O5 0.500000 0.095336 0.500000
O O6 0.730534 0.102613 0.439788
O O7 0.820293 0.066208 0.664722
O O8 0.500000 0.566303 0.500000
O O9 0.641885 0.563709 0.734106
O O10 0.572415 0.641688 0.629734
O O11 0.764083 0.706501 0.603911
O O12 0.000000 0.702717 0.500000
O O13 0.996708 0.768951 0.630724
O O14 0.724896 0.694426 0.812402
O O15 0.750000 0.750000 0.000000
O O16 0.000000 0.714098 0.000000
O O17 0.507983 0.500000 0.192728
O O18 0.473804 0.415560 0.102130
#
# Coordination Sequence:
#
# PCOD9196955 Si02
#       8
#     8   8   8   8   8   8   4   8
#     4  10  20  35  58  84 121 162 209 246 300 342
#     4  10  21  38  64  94 126 160 203 252 312 377
#     4  10  22  38  62  91 124 158 203 256 310 380
#     4  11  22  36  59  86 124 164 206 258 299 358
#     4  11  23  35  51  76 118 162 208 251 287 336
#     4  10  23  42  66  96 123 156 198 253 318 383
#     4  10  21  38  68  90 122 164 206 252 299 378
#     4  11  23  37  54  85 120 164 211 249 308 354
#
# _framework density 21.401264000000001
#
# number of rings (size 3 to 8) (size 9 to 14) (size 15 to 20)
#    0.000    1.600    0.667    4.600    1.867   11.200 
#    0.000    0.000    0.000    0.000    0.000    9.333 
#    0.000    0.000    0.000    0.000    0.000    0.000 
#
# Total GULP energy -167132.752601 kJ/mol
# GULP energy per Si atom -5571.091753 kJ/mol
# Density = 2.135255 g / cm^3
# Si number density = 21.401264 Si / 1000 Ang^3
#
#
#
# Elastic Constant Matrix: (Units=GPa)
#
#
# Indices 1 2 3 4 5 6 
#
# 1 88.0968 -2.7220 39.8049 0.0000 -5.6980 0.0000
# 2 -2.7220 77.9618 17.4817 0.0000 9.4396 0.0000
# 3 39.8049 17.4817 141.3660 0.0000 10.1420 0.0000
# 4 0.0000 0.0000 0.0000 0.2698 0.0000 20.1816
# 5 -5.6980 9.4396 10.1420 0.0000 39.5459 0.0000
# 6 0.0000 0.0000 0.0000 20.1816 0.0000 -4.0354
#
#
#
# Elastic Compliance Matrix: (Units=1/GPa)
#
#
# Indices 1 2 3 4 5 6 
#
# 1 0.013415 0.001058 -0.004104 0.000000 0.002733 0.000000
# 2 0.001058 0.013583 -0.001789 0.000000 -0.002631 0.000000
# 3 -0.004104 -0.001789 0.008621 0.000000 -0.002375 0.000000
# 4 0.000000 0.000000 0.000000 0.009881 0.000000 0.049418
# 5 0.002733 -0.002631 -0.002375 0.000000 0.026918 0.000000
# 6 0.000000 0.000000 0.000000 0.049418 0.000000 -0.000661
#
#
# Mechanical properties :
#
#
# Convention : Reuss Voigt Hill
#
# Bulk Modulus (GPa) = 38.53711 46.28375 42.41043
# Shear Modulus (GPa) = 55.50721 24.01340 39.76030
#
# Velocity S-wave (km/s) = 5.09831 3.35334 4.31495
# Velocity P-wave (km/s) = 7.25968 6.05531 6.68468
#
# Compressibility (1/GPa) = 0.02594901
#
# Stress axis : x y z
#
# Youngs Moduli (GPa) = 74.54348 73.61915 115.99461
#
# Poissons Ratio (x) = -0.07787 0.47606
# Poissons Ratio (y) = -0.07885 0.20749
# Poissons Ratio (z) = 0.30594 0.13169
#
# Static dielectric constant tensor:
#      x y z
#    x 1.876450 0.000000 -0.028940 
#    y 0.000000 1.771700 0.000000 
#    z -0.028940 0.000000 1.840450 
# 
# From -- ./inp_files/125796.got.cif
#   From: 2010.05.17/outbox.cif.g08.bks.cpg/sg12_63_cif.got.tgz:125796.got - 2010.06.03 13:09:07.
