data_PCOD9196303
_publ_section_title
;
Structure prediction by ZEFSAII (Michael W. Deem and Ramdas Pophale) SiO2 
 PCOD9196303
Probable space group: C 2/M
;
_chemical_formula_sum "Si O2"
_cell_formula_units_Z 58
_cell_length_a 25.522575
_cell_length_b 9.558240
_cell_length_c 31.583248
_cell_angle_alpha 90.000000
_cell_angle_beta 155.609625
_cell_angle_gamma 90.000000
_cell_volume 3181.692435
_symmetry_space_group_name_H-M "C 2/M"
_symmetry_group_IT_number 12
_symmetry_cell_setting 'monoclinic'
loop_
_space_group_symop_operation_xyz
x,y,z
-x,y,-z
-x,-y,-z
x,-y,z
1/2+x,1/2+y,z
1/2-x,1/2+y,-z
1/2-x,1/2-y,-z
1/2+x,1/2-y,z
loop_
_atom_site_type_symbol
_atom_site_label
_atom_site_fract_x
_atom_site_fract_y
_atom_site_fract_z
Si Si1 0.444257 0.335687 0.635973
Si Si2 0.000000 0.000000 0.000000
Si Si3 0.184134 0.338864 0.222261
Si Si4 0.307557 0.662076 0.227951
Si Si5 0.343753 0.663661 0.039100
Si Si6 0.856591 0.835042 0.724697
Si Si7 0.190642 0.663091 0.392844
Si Si8 0.089724 0.254275 0.005266
O O1 0.463052 0.500000 0.662135
O O2 0.568053 0.279024 0.703023
O O3 0.324560 0.331752 0.516156
O O4 0.409419 0.241440 0.650441
O O5 0.042187 0.120727 0.996534
O O6 0.219375 0.500000 0.258180
O O7 0.265124 0.280799 0.242228
O O8 0.191699 0.237776 0.267924
O O9 0.037591 0.338642 0.099336
O O10 0.337094 0.500000 0.257716
O O11 0.190650 0.671663 0.109741
O O12 0.310307 0.500000 0.015982
O O13 0.489937 0.678251 0.161870
O O14 0.250000 0.750000 0.000000
O O15 0.345201 0.714316 0.991426
O O16 0.803778 0.749455 0.646215
O O17 0.826355 0.000000 0.700881
O O18 0.158459 0.500000 0.362124
#
# Coordination Sequence:
#
# PCOD9196303 Si02
#       8
#     8   2   8   8   8   8   8   8
#     4   9  20  38  60  83 113 143 181 232 286 336
#     4  12  20  36  58  80 116 162 198 238 276 346
#     4  10  20  35  56  84 112 144 189 232 272 330
#     4  10  20  35  57  85 111 144 187 235 284 330
#     4  10  23  38  52  78 112 149 187 228 276 334
#     4  10  22  38  59  78 108 151 188 222 281 339
#     4  10  20  38  60  84 109 144 186 231 281 338
#     4  11  21  35  57  80 114 154 193 229 281 329
#
# _framework density 18.229292000000001
#
# number of rings (size 3 to 8) (size 9 to 14) (size 15 to 20)
#    0.000    1.931    2.069    1.241    2.897    4.966 
#    1.241    0.690    0.000    4.138    0.000    0.000 
#    0.000    0.000    0.000    0.000    0.000    0.000 
#
# Total GULP energy -161525.317968 kJ/mol
# GULP energy per Si atom -5569.838551 kJ/mol
# Density = 1.818780 g / cm^3
# Si number density = 18.229292 Si / 1000 Ang^3
#
#
#
# Elastic Constant Matrix: (Units=GPa)
#
#
# Indices 1 2 3 4 5 6 
#
# 1 135.7332 42.6360 31.8740 -0.0013 -6.0289 0.0011
# 2 42.6360 84.0706 17.3362 -0.0005 -8.2612 0.0001
# 3 31.8740 17.3362 19.3042 0.0004 -4.8413 -0.0010
# 4 -0.0013 -0.0005 0.0004 -196.5655 -0.0009 114.4687
# 5 -6.0289 -8.2612 -4.8413 -0.0009 24.1967 0.0004
# 6 0.0011 0.0001 -0.0010 114.4687 0.0004 -29.8359
#
#
#
# Elastic Compliance Matrix: (Units=1/GPa)
#
#
# Indices 1 2 3 4 5 6 
#
# 1 0.012515 -0.002647 -0.018669 0.000000 -0.001521 -0.000001
# 2 -0.002647 0.015301 -0.008661 0.000000 0.002832 0.000000
# 3 -0.018669 -0.008661 0.093172 0.000002 0.011033 0.000002
# 4 0.000000 0.000000 0.000002 0.004122 0.000000 0.015814
# 5 -0.001521 0.002832 0.011033 0.000000 0.044124 0.000000
# 6 -0.000001 0.000000 0.000002 0.015814 0.000000 0.027156
#
#
# Mechanical properties :
#
#
# Convention : Reuss Voigt Hill
#
# Bulk Modulus (GPa) = 16.38391 46.97783 31.68087
# Shear Modulus (GPa) = 18.07086 -30.62350 -6.27632
#
# Velocity S-wave (km/s) = 3.15192 -4.10311 -1.85754
# Velocity P-wave (km/s) = 4.71734 1.83823 3.57997
#
# Compressibility (1/GPa) = 0.06103547
#
# Stress axis : x y z
#
# Youngs Moduli (GPa) = 79.90273 65.35388 10.73282
#
# Poissons Ratio (x) = 0.17298 0.20037
# Poissons Ratio (y) = 0.21148 0.09296
# Poissons Ratio (z) = 1.49169 0.56603
#
# Static dielectric constant tensor:
#      x y z
#    x 1.632590 0.000000 0.007300 
#    y 0.000000 1.625760 0.000000 
#    z 0.007300 0.000000 1.621440 
# 
# From -- ./inp_files/237583.got.cif
#   From: 2010.05.17/outbox.cif.g08.bks.cpg/sg12_119_cif.got.tgz:237583.got - 2010.06.03 13:09:07.
