data_PCOD9196374
_publ_section_title
;
Structure prediction by ZEFSAII (Michael W. Deem and Ramdas Pophale) SiO2 
 PCOD9196374
Probable space group: C 2/M
;
_chemical_formula_sum "Si O2"
_cell_formula_units_Z 64
_cell_length_a 29.856221
_cell_length_b 7.894823
_cell_length_c 15.654288
_cell_angle_alpha 90.000000
_cell_angle_beta 49.176837
_cell_angle_gamma 90.000000
_cell_volume 2792.235117
_symmetry_space_group_name_H-M "C 2/M"
_symmetry_group_IT_number 12
_symmetry_cell_setting 'monoclinic'
loop_
_space_group_symop_operation_xyz
x,y,z
-x,y,-z
-x,-y,-z
x,-y,z
1/2+x,1/2+y,z
1/2-x,1/2+y,-z
1/2-x,1/2-y,-z
1/2+x,1/2-y,z
loop_
_atom_site_type_symbol
_atom_site_label
_atom_site_fract_x
_atom_site_fract_y
_atom_site_fract_z
Si Si1 0.481961 0.196758 0.885224
Si Si2 0.894737 0.796765 0.843978
Si Si3 0.435005 0.795603 0.604697
Si Si4 0.885984 0.806572 0.296245
Si Si5 0.185641 0.709208 0.318504
Si Si6 0.786357 0.804731 0.079407
Si Si7 0.289721 0.191558 0.529126
Si Si8 0.629322 0.797664 0.874110
O O1 0.441493 0.217062 0.851686
O O2 0.543522 0.290259 0.796834
O O3 0.496919 0.000000 0.881215
O O4 0.437818 0.252528 0.015960
O O5 0.914479 0.755594 0.724520
O O6 0.895272 0.000000 0.856519
O O7 0.829016 0.732230 0.952806
O O8 0.500000 0.730477 0.500000
O O9 0.382397 0.740858 0.607416
O O10 0.437260 0.000000 0.599235
O O11 0.856419 0.702919 0.409507
O O12 0.860945 0.745744 0.236241
O O13 0.868963 0.000000 0.331424
O O14 0.187755 0.500000 0.315271
O O15 0.224774 0.770437 0.189345
O O16 0.211632 0.774448 0.375874
O O17 0.827207 0.793578 0.113990
O O18 0.775109 0.000000 0.070919
O O19 0.250000 0.250000 0.500000
O O20 0.272103 0.000000 0.566140
O O21 0.634507 0.000000 0.880939
#
# Coordination Sequence:
#
# PCOD9196374 Si02
#       8
#     8   8   8   8   8   8   8   8
#     4  10  21  37  58  84 116 155 200 251 303 361
#     4  10  21  37  59  90 122 155 192 243 309 367
#     4  10  22  40  63  88 117 159 208 252 298 359
#     4  12  24  36  54  82 118 160 203 250 306 368
#     4   9  20  39  62  88 116 156 205 252 302 358
#     4   9  18  36  61  86 119 156 194 244 306 370
#     4  11  23  40  62  88 120 158 205 257 310 365
#     4  10  20  35  56  85 118 154 200 252 304 360
#
# _framework density 22.920705999999999
#
# number of rings (size 3 to 8) (size 9 to 14) (size 15 to 20)
#    0.000    1.875    0.000    3.750    1.750    5.250 
#    0.000    2.500    0.000    0.000    0.000    0.000 
#    0.000    0.000    0.000    0.000    0.000    0.000 
#
# Total GULP energy -178847.598504 kJ/mol
# GULP energy per Si atom -5588.987453 kJ/mol
# Density = 2.286854 g / cm^3
# Si number density = 22.920706 Si / 1000 Ang^3
#
#
#
# Elastic Constant Matrix: (Units=GPa)
#
#
# Indices 1 2 3 4 5 6 
#
# 1 74.9780 2.9712 56.9161 0.0000 -8.7503 -0.0003
# 2 2.9712 35.1580 -7.5555 0.0000 -6.1313 -0.0007
# 3 56.9161 -7.5555 145.5854 0.0000 -5.6412 -0.0001
# 4 0.0000 0.0000 0.0000 12.4396 0.0000 7.1205
# 5 -8.7503 -6.1313 -5.6412 0.0000 42.4718 0.0000
# 6 -0.0003 -0.0007 -0.0001 7.1205 0.0000 13.9596
#
#
#
# Elastic Compliance Matrix: (Units=1/GPa)
#
#
# Indices 1 2 3 4 5 6 
#
# 1 0.019610 -0.002861 -0.007714 0.000000 0.002603 0.000000
# 2 -0.002861 0.030013 0.002836 -0.000001 0.004120 0.000002
# 3 -0.007714 0.002836 0.010038 0.000000 0.000153 0.000000
# 4 0.000000 -0.000001 0.000000 0.113538 0.000000 -0.057913
# 5 0.002603 0.004120 0.000153 0.000000 0.024696 0.000000
# 6 0.000000 0.000002 0.000000 -0.057913 0.000000 0.101176
#
#
# Mechanical properties :
#
#
# Convention : Reuss Voigt Hill
#
# Bulk Modulus (GPa) = 22.63390 40.04278 31.33834
# Shear Modulus (GPa) = 15.18478 27.33351 21.25914
#
# Velocity S-wave (km/s) = 2.57668 3.45704 3.04881
# Velocity P-wave (km/s) = 4.32998 5.78298 5.10841
#
# Compressibility (1/GPa) = 0.04418151
#
# Stress axis : x y z
#
# Youngs Moduli (GPa) = 50.99386 33.31924 99.62386
#
# Poissons Ratio (x) = 0.09533 0.76852
# Poissons Ratio (y) = 0.14590 -0.28251
# Poissons Ratio (z) = 0.39338 -0.09449
#
# Static dielectric constant tensor:
#      x y z
#    x 1.862000 0.000000 -0.027510 
#    y 0.000000 1.838110 0.000000 
#    z -0.027510 0.000000 1.861060 
# 
# From -- ./inp_files/249895.got.cif
#   From: 2010.05.17/outbox.cif.g08.bks.cpg/sg12_125_cif.got.tgz:249895.got - 2010.06.03 13:09:07.
