data_PCOD9196650
_publ_section_title
;
Structure prediction by ZEFSAII (Michael W. Deem and Ramdas Pophale) SiO2 
 PCOD9196650
Probable space group: C 2/M
;
_chemical_formula_sum "Si O2"
_cell_formula_units_Z 56
_cell_length_a 8.597951
_cell_length_b 22.309395
_cell_length_c 14.748296
_cell_angle_alpha 90.000000
_cell_angle_beta 119.149287
_cell_angle_gamma 90.000000
_cell_volume 2470.669711
_symmetry_space_group_name_H-M "C 2/M"
_symmetry_group_IT_number 12
_symmetry_cell_setting 'monoclinic'
loop_
_space_group_symop_operation_xyz
x,y,z
-x,y,-z
-x,-y,-z
x,-y,z
1/2+x,1/2+y,z
1/2-x,1/2+y,-z
1/2-x,1/2-y,-z
1/2+x,1/2-y,z
loop_
_atom_site_type_symbol
_atom_site_label
_atom_site_fract_x
_atom_site_fract_y
_atom_site_fract_z
Si Si1 0.489335 0.817973 0.284147
Si Si2 0.065370 0.886624 0.722187
Si Si3 0.311579 0.933417 0.639769
Si Si4 0.634601 0.269913 0.622167
Si Si5 0.712964 0.930673 0.040153
Si Si6 0.296032 0.929056 0.434278
Si Si7 0.367440 0.808646 0.048528
O O1 0.527635 0.888129 0.297629
O O2 0.354229 0.791338 0.318048
O O3 0.676828 0.788405 0.365147
O O4 0.457019 0.800649 0.171427
O O5 0.162799 0.926613 0.673329
O O6 0.089569 0.820295 0.686205
O O7 0.175595 0.904356 0.842932
O O8 0.857296 0.901351 0.670623
O O9 0.228596 0.920438 0.518279
O O10 0.383463 0.000000 0.658362
O O11 0.500000 0.268008 0.500000
O O12 0.768121 0.000000 0.034577
O O13 0.500000 0.935023 0.000000
O O14 0.726344 0.874394 0.974749
O O15 0.500000 0.906083 0.500000
O O16 0.306417 0.000000 0.417515
O O17 0.500000 0.810555 0.000000
O O18 0.250000 0.750000 0.000000
#
# Coordination Sequence:
#
# PCOD9196650 Si02
#       7
#     8   8   8   8   8   8   8
#     4  11  23  39  60  87 120 159 200 249 306 364
#     4  11  20  36  61  88 118 155 199 250 307 361
#     4  10  20  35  57  84 114 151 196 246 300 361
#     4  11  23  39  60  90 124 159 201 248 305 371
#     4  10  20  35  61  95 125 155 202 263 316 361
#     4  10  21  35  52  80 118 157 196 237 291 362
#     4  11  22  40  63  88 120 159 208 257 306 365
#
# _framework density 22.66592
#
# number of rings (size 3 to 8) (size 9 to 14) (size 15 to 20)
#    0.000    1.429    0.000    9.000    0.000    4.571 
#    0.000    1.429    0.000    0.429    0.000    0.000 
#    0.000    0.000    0.000    0.000    0.000    0.000 
#
# Total GULP energy -156349.004308 kJ/mol
# GULP energy per Si atom -5583.893011 kJ/mol
# Density = 2.261433 g / cm^3
# Si number density = 22.665920 Si / 1000 Ang^3
#
#
#
# Elastic Constant Matrix: (Units=GPa)
#
#
# Indices 1 2 3 4 5 6 
#
# 1 39.9975 18.3189 16.6841 0.0000 8.5263 0.0000
# 2 18.3189 138.7662 40.4971 0.0000 8.0255 0.0000
# 3 16.6841 40.4971 125.4288 0.0000 14.7543 0.0000
# 4 0.0000 0.0000 0.0000 19.6555 0.0000 10.5960
# 5 8.5263 8.0255 14.7543 0.0000 25.1288 0.0000
# 6 0.0000 0.0000 0.0000 10.5960 0.0000 0.0948
#
#
#
# Elastic Compliance Matrix: (Units=1/GPa)
#
#
# Indices 1 2 3 4 5 6 
#
# 1 0.028749 -0.002759 -0.002030 0.000000 -0.007682 0.000000
# 2 -0.002759 0.008250 -0.002252 0.000000 -0.000376 0.000000
# 3 -0.002030 -0.002252 0.009457 0.000000 -0.004145 0.000000
# 4 0.000000 0.000000 0.000000 -0.000859 0.000000 0.095969
# 5 -0.007682 -0.000376 -0.004145 0.000000 0.044955 0.000000
# 6 0.000000 0.000000 0.000000 0.095969 0.000000 -0.178023
#
#
# Mechanical properties :
#
#
# Convention : Reuss Voigt Hill
#
# Bulk Modulus (GPa) = 30.88828 50.57697 40.73262
# Shear Modulus (GPa) = -79.87574 24.22200 -27.82687
#
# Velocity S-wave (km/s) = -5.94281 3.27257 -3.50765
# Velocity P-wave (km/s) = 5.78205 6.05328 1.26691
#
# Compressibility (1/GPa) = 0.03237474
#
# Stress axis : x y z
#
# Youngs Moduli (GPa) = 34.78351 121.21782 105.73710
#
# Poissons Ratio (x) = 0.33439 0.21463
# Poissons Ratio (y) = 0.09595 0.23816
# Poissons Ratio (z) = 0.07060 0.27302
#
# Static dielectric constant tensor:
#      x y z
#    x 1.887140 0.000000 -0.004750 
#    y 0.000000 1.916500 0.000000 
#    z -0.004750 0.000000 1.877860 
# 
# From -- ./inp_files/198997.got.cif
#   From: 2010.05.17/outbox.cif.g08.bks.cpg/sg12_100_cif.got.tgz:198997.got - 2010.06.03 13:09:07.
