data_PCOD9196550
_publ_section_title
;
Structure prediction by ZEFSAII (Michael W. Deem and Ramdas Pophale) SiO2 
 PCOD9196550
Probable space group: C 2/M
;
_chemical_formula_sum "Si O2"
_cell_formula_units_Z 48
_cell_length_a 28.348574
_cell_length_b 14.287693
_cell_length_c 6.977718
_cell_angle_alpha 90.000000
_cell_angle_beta 97.257924
_cell_angle_gamma 90.000000
_cell_volume 2803.579885
_symmetry_space_group_name_H-M "C 2/M"
_symmetry_group_IT_number 12
_symmetry_cell_setting 'monoclinic'
loop_
_space_group_symop_operation_xyz
x,y,z
-x,y,-z
-x,-y,-z
x,-y,z
1/2+x,1/2+y,z
1/2-x,1/2+y,-z
1/2-x,1/2-y,-z
1/2+x,1/2-y,z
loop_
_atom_site_type_symbol
_atom_site_label
_atom_site_fract_x
_atom_site_fract_y
_atom_site_fract_z
Si Si1 0.108968 0.609721 0.411386
Si Si2 0.946596 0.260822 0.907529
Si Si3 0.776766 0.237073 0.211874
Si Si4 0.221015 0.391055 0.466002
Si Si5 0.610838 0.263681 0.731246
Si Si6 0.051245 0.890457 0.423960
O O1 0.098760 0.500000 0.430250
O O2 0.077161 0.657546 0.231709
O O3 0.164954 0.619900 0.388264
O O4 0.102105 0.668961 0.602919
O O5 0.948080 0.170123 0.769649
O O6 0.915630 0.241776 0.080357
O O7 0.000000 0.283797 0.000000
O O8 0.770065 0.328721 0.341414
O O9 0.753380 0.151810 0.316352
O O10 0.832952 0.224223 0.213373
O O11 0.750000 0.250000 0.000000
O O12 0.230371 0.500000 0.503321
O O13 0.589487 0.346059 0.588687
O O14 0.000000 0.879475 0.500000
O O15 0.059495 0.000000 0.392924
#
# Coordination Sequence:
#
# PCOD9196550 Si02
#       6
#     8   8   8   8   8   8
#     4   9  20  37  57  80 110 147 183 222 272 329
#     4  11  21  35  57  83 111 144 184 231 271 323
#     4  10  20  35  57  83 111 146 181 228 279 326
#     4   9  19  37  57  79 110 147 183 221 272 332
#     4  10  21  37  55  81 114 144 184 230 274 326
#     4  10  21  38  58  78 106 147 186 225 276 328
#
# _framework density 17.120967
#
# number of rings (size 3 to 8) (size 9 to 14) (size 15 to 20)
#    0.000    2.167    1.667    1.000    0.000    4.667 
#    0.000    4.167    0.000    0.000    0.000    0.000 
#    0.000    0.000    0.000    0.000    0.000    0.000 
#
# Total GULP energy -133943.932140 kJ/mol
# GULP energy per Si atom -5580.997173 kJ/mol
# Density = 1.708200 g / cm^3
# Si number density = 17.120967 Si / 1000 Ang^3
#
#
#
# Elastic Constant Matrix: (Units=GPa)
#
#
# Indices 1 2 3 4 5 6 
#
# 1 105.9015 61.6471 80.9581 0.0000 4.0573 0.0000
# 2 61.6471 129.2888 51.2121 0.0000 4.0788 0.0000
# 3 80.9581 51.2121 122.8964 0.0000 3.6981 0.0000
# 4 0.0000 0.0000 0.0000 6.9659 0.0000 -1.4573
# 5 4.0573 4.0788 3.6981 0.0000 39.6764 0.0000
# 6 0.0000 0.0000 0.0000 -1.4573 0.0000 26.2898
#
#
#
# Elastic Compliance Matrix: (Units=1/GPa)
#
#
# Indices 1 2 3 4 5 6 
#
# 1 0.022060 -0.005691 -0.012145 0.000000 -0.000539 0.000000
# 2 -0.005691 0.010746 -0.000715 0.000000 -0.000456 0.000000
# 3 -0.012145 -0.000715 0.016442 0.000000 -0.000217 0.000000
# 4 0.000000 0.000000 0.000000 0.145240 0.000000 0.008051
# 5 -0.000539 -0.000456 -0.000217 0.000000 0.025326 0.000000
# 6 0.000000 0.000000 0.000000 0.008051 0.000000 0.038484
#
#
# Mechanical properties :
#
#
# Convention : Reuss Voigt Hill
#
# Bulk Modulus (GPa) = 82.32953 82.85791 82.59372
# Shear Modulus (GPa) = 16.69737 25.53772 21.11755
#
# Velocity S-wave (km/s) = 3.12630 3.86632 3.51584
# Velocity P-wave (km/s) = 7.82451 8.27236 8.05155
#
# Compressibility (1/GPa) = 0.01214631
#
# Stress axis : x y z
#
# Youngs Moduli (GPa) = 45.32993 93.05821 60.82105
#
# Poissons Ratio (x) = 0.52962 0.73864
# Poissons Ratio (y) = 0.25799 0.04349
# Poissons Ratio (z) = 0.55051 0.06654
#
# Static dielectric constant tensor:
#      x y z
#    x 1.571560 0.000000 -0.000840 
#    y 0.000000 1.558100 0.000000 
#    z -0.000840 0.000000 1.550290 
# 
# From -- ./inp_files/28144.got.cif
#   From: 2010.05.17/outbox.cif.g08.bks.cpg/sg12_15_cif.got.tgz:28144.got - 2010.06.03 13:09:07.
