data_PCOD9196501
_publ_section_title
;
Structure prediction by ZEFSAII (Michael W. Deem and Ramdas Pophale) SiO2 
 PCOD9196501
Probable space group: C 2/M
;
_chemical_formula_sum "Si O2"
_cell_formula_units_Z 56
_cell_length_a 18.648304
_cell_length_b 13.260485
_cell_length_c 13.795911
_cell_angle_alpha 90.000000
_cell_angle_beta 56.557381
_cell_angle_gamma 90.000000
_cell_volume 2846.710417
_symmetry_space_group_name_H-M "C 2/M"
_symmetry_group_IT_number 12
_symmetry_cell_setting 'monoclinic'
loop_
_space_group_symop_operation_xyz
x,y,z
-x,y,-z
-x,-y,-z
x,-y,z
1/2+x,1/2+y,z
1/2-x,1/2+y,-z
1/2-x,1/2-y,-z
1/2+x,1/2-y,z
loop_
_atom_site_type_symbol
_atom_site_label
_atom_site_fract_x
_atom_site_fract_y
_atom_site_fract_z
Si Si1 0.308747 0.619454 0.529847
Si Si2 0.118020 0.703292 0.649485
Si Si3 0.694929 0.881891 0.962661
Si Si4 0.634913 0.247131 0.177208
Si Si5 0.417150 0.614292 0.630823
Si Si6 0.468152 0.118720 0.626925
Si Si7 0.920550 0.386201 0.131625
O O1 0.326155 0.500000 0.506007
O O2 0.208277 0.642398 0.587873
O O3 0.359312 0.690192 0.416420
O O4 0.340890 0.648707 0.614566
O O5 0.044280 0.647528 0.643680
O O6 0.084453 0.699255 0.784265
O O7 0.782736 0.818575 0.896158
O O8 0.660157 0.882615 0.879705
O O9 0.702313 0.000000 0.987633
O O10 0.631690 0.818514 0.081288
O O11 0.569545 0.324354 0.279709
O O12 0.623140 0.161256 0.268175
O O13 0.500000 0.614476 0.500000
O O14 0.397066 0.500000 0.673839
O O15 0.500000 0.159767 0.500000
O O16 0.460813 0.000000 0.625758
O O17 0.925334 0.500000 0.172075
O O18 0.000000 0.376471 0.000000
#
# Coordination Sequence:
#
# PCOD9196501 Si02
#       7
#     8   8   8   8   8   8   8
#     4  10  21  36  57  86 116 148 187 230 279 336
#     4  11  21  36  59  82 112 149 188 232 281 334
#     4  10  22  37  54  80 111 146 190 240 287 332
#     4  11  20  34  56  77 109 146 183 225 280 337
#     4  10  20  35  57  85 116 149 188 234 282 335
#     4  11  23  37  55  83 116 146 181 231 291 348
#     4  10  20  35  57  82 108 143 190 239 283 329
#
# _framework density 19.671828999999999
#
# number of rings (size 3 to 8) (size 9 to 14) (size 15 to 20)
#    0.000    1.571    0.000    6.000    0.000    4.571 
#    0.000    0.714    0.000   10.714    0.000    0.000 
#    0.000    0.000    0.000    0.000    0.000    0.000 
#
# Total GULP energy -155976.731533 kJ/mol
# GULP energy per Si atom -5570.597555 kJ/mol
# Density = 1.962705 g / cm^3
# Si number density = 19.671829 Si / 1000 Ang^3
#
#
#
# Elastic Constant Matrix: (Units=GPa)
#
#
# Indices 1 2 3 4 5 6 
#
# 1 49.4486 24.2816 15.1563 0.0000 4.8330 0.0000
# 2 24.2816 103.0932 35.4299 0.0000 6.2209 0.0000
# 3 15.1563 35.4299 108.4060 0.0000 5.4224 0.0000
# 4 0.0000 0.0000 0.0000 25.2888 0.0000 0.4911
# 5 4.8330 6.2209 5.4224 0.0000 23.4699 0.0000
# 6 0.0000 0.0000 0.0000 0.4911 0.0000 16.7236
#
#
#
# Elastic Compliance Matrix: (Units=1/GPa)
#
#
# Indices 1 2 3 4 5 6 
#
# 1 0.023354 -0.004778 -0.001544 0.000000 -0.003186 0.000000
# 2 -0.004778 0.012007 -0.003183 0.000000 -0.001463 0.000000
# 3 -0.001544 -0.003183 0.010545 0.000000 -0.001274 0.000000
# 4 0.000000 0.000000 0.000000 0.039566 0.000000 -0.001162
# 5 -0.003186 -0.001463 -0.001274 0.000000 0.043946 0.000000
# 6 0.000000 0.000000 0.000000 -0.001162 0.000000 0.059830
#
#
# Mechanical properties :
#
#
# Convention : Reuss Voigt Hill
#
# Bulk Modulus (GPa) = 37.18068 45.63150 41.40609
# Shear Modulus (GPa) = 23.01782 25.50179 24.25981
#
# Velocity S-wave (km/s) = 3.42437 3.60441 3.51554
# Velocity P-wave (km/s) = 5.88019 6.36938 6.12967
#
# Compressibility (1/GPa) = 0.02689569
#
# Stress axis : x y z
#
# Youngs Moduli (GPa) = 42.81969 83.28131 94.83524
#
# Poissons Ratio (x) = 0.39788 0.14646
# Poissons Ratio (y) = 0.20457 0.30188
# Poissons Ratio (z) = 0.06613 0.26510
#
# Static dielectric constant tensor:
#      x y z
#    x 1.734630 0.000000 -0.045450 
#    y 0.000000 1.718570 0.000000 
#    z -0.045450 0.000000 1.743370 
# 
# From -- ./inp_files/156530.got.cif
#   From: 2010.05.17/outbox.cif.g08.bks.cpg/sg12_79_cif.got.tgz:156530.got - 2010.06.03 13:09:07.
