data_PCOD9196481
_publ_section_title
;
Structure prediction by ZEFSAII (Michael W. Deem and Ramdas Pophale) SiO2 
 PCOD9196481
Probable space group: C 2/M
;
_chemical_formula_sum "Si O2"
_cell_formula_units_Z 48
_cell_length_a 29.554735
_cell_length_b 9.092029
_cell_length_c 8.334924
_cell_angle_alpha 90.000000
_cell_angle_beta 101.282810
_cell_angle_gamma 90.000000
_cell_volume 2196.412582
_symmetry_space_group_name_H-M "C 2/M"
_symmetry_group_IT_number 12
_symmetry_cell_setting 'monoclinic'
loop_
_space_group_symop_operation_xyz
x,y,z
-x,y,-z
-x,-y,-z
x,-y,z
1/2+x,1/2+y,z
1/2-x,1/2+y,-z
1/2-x,1/2-y,-z
1/2+x,1/2-y,z
loop_
_atom_site_type_symbol
_atom_site_label
_atom_site_fract_x
_atom_site_fract_y
_atom_site_fract_z
Si Si1 0.773129 0.172475 0.767082
Si Si2 0.071438 0.174365 0.131157
Si Si3 0.403121 0.824549 0.367859
Si Si4 0.315585 0.826196 0.105425
Si Si5 0.980927 0.827196 0.244870
Si Si6 0.650773 0.175186 0.352993
O O1 0.719222 0.196220 0.767979
O O2 0.798906 0.259488 0.645057
O O3 0.780552 0.000000 0.748387
O O4 0.797593 0.226945 0.948609
O O5 0.116856 0.269374 0.188426
O O6 0.032299 0.222562 0.232863
O O7 0.081120 0.000000 0.160914
O O8 0.048008 0.189552 0.941136
O O9 0.367011 0.795117 0.198930
O O10 0.451822 0.752669 0.360867
O O11 0.376020 0.772339 0.506863
O O12 0.408855 0.000000 0.384784
O O13 0.311727 0.000000 0.058590
O O14 0.983376 0.000000 0.282850
O O15 0.653899 0.000000 0.358997
#
# Coordination Sequence:
#
# PCOD9196481 Si02
#       6
#     8   8   8   8   8   8
#     4  10  20  35  57  82 105 134 176 221 262 308
#     4   9  19  37  58  80 105 134 173 219 264 311
#     4  10  22  37  52  75 109 144 176 212 257 312
#     4   9  19  37  58  79 105 138 175 216 262 310
#     4   9  19  36  58  81 104 133 173 220 264 309
#     4  11  23  36  51  76 110 144 176 213 259 310
#
# _framework density 21.853816999999999
#
# number of rings (size 3 to 8) (size 9 to 14) (size 15 to 20)
#    0.000    2.333    0.000    3.000    0.000    8.000 
#    0.000    5.000    0.000    0.000    0.000    0.000 
#    0.000    0.000    0.000    0.000    0.000    0.000 
#
# Total GULP energy -134124.688998 kJ/mol
# GULP energy per Si atom -5588.528708 kJ/mol
# Density = 2.180408 g / cm^3
# Si number density = 21.853817 Si / 1000 Ang^3
#
#
#
# Elastic Constant Matrix: (Units=GPa)
#
#
# Indices 1 2 3 4 5 6 
#
# 1 120.9939 39.0262 11.4784 0.0000 -30.9337 0.0000
# 2 39.0262 32.0904 8.7646 0.0000 -15.5584 0.0000
# 3 11.4784 8.7646 52.1408 0.0000 -23.8459 0.0000
# 4 0.0000 0.0000 0.0000 22.5601 0.0000 -10.8307
# 5 -30.9337 -15.5584 -23.8459 0.0000 40.9970 0.0000
# 6 0.0000 0.0000 0.0000 -10.8307 0.0000 -42.6888
#
#
#
# Elastic Compliance Matrix: (Units=1/GPa)
#
#
# Indices 1 2 3 4 5 6 
#
# 1 0.014661 -0.015251 0.002382 0.000000 0.006660 0.000000
# 2 -0.015251 0.054057 -0.002194 0.000000 0.007731 0.000000
# 3 0.002382 -0.002194 0.026519 0.000000 0.016389 0.000000
# 4 0.000000 0.000000 0.000000 0.039513 0.000000 -0.010025
# 5 0.006660 0.007731 0.016389 0.000000 0.041884 0.000000
# 6 0.000000 0.000000 0.000000 -0.010025 0.000000 -0.020882
#
#
# Mechanical properties :
#
#
# Convention : Reuss Voigt Hill
#
# Bulk Modulus (GPa) = 15.35848 35.97373 25.66610
# Shear Modulus (GPa) = 24.08701 13.90405 18.99553
#
# Velocity S-wave (km/s) = 3.32352 2.52510 2.95143
# Velocity P-wave (km/s) = 4.66592 4.99983 4.83576
#
# Compressibility (1/GPa) = 0.06511062
#
# Stress axis : x y z
#
# Youngs Moduli (GPa) = 68.20907 18.49901 37.70936
#
# Poissons Ratio (x) = 0.28213 -0.08982
# Poissons Ratio (y) = 1.04027 0.08272
# Poissons Ratio (z) = -0.16247 0.04058
#
# Static dielectric constant tensor:
#      x y z
#    x 1.785520 0.000000 -0.025610 
#    y 0.000000 1.729820 0.000000 
#    z -0.025610 0.000000 1.857790 
# 
# From -- ./inp_files/108581.got.cif
#   From: 2010.05.17/outbox.cif.g08.bks.cpg/sg12_55_cif.got.tgz:108581.got - 2010.06.03 13:09:07.
