data_PCOD9196024
_publ_section_title
;
Structure prediction by ZEFSAII (Michael W. Deem and Ramdas Pophale) SiO2 
 PCOD9196024
Probable space group: C 2/M
;
_chemical_formula_sum "Si O2"
_cell_formula_units_Z 48
_cell_length_a 27.255232
_cell_length_b 7.504893
_cell_length_c 15.762158
_cell_angle_alpha 90.000000
_cell_angle_beta 39.986914
_cell_angle_gamma 90.000000
_cell_volume 2071.854837
_symmetry_space_group_name_H-M "C 2/M"
_symmetry_group_IT_number 12
_symmetry_cell_setting 'monoclinic'
loop_
_space_group_symop_operation_xyz
x,y,z
-x,y,-z
-x,-y,-z
x,-y,z
1/2+x,1/2+y,z
1/2-x,1/2+y,-z
1/2-x,1/2-y,-z
1/2+x,1/2-y,z
loop_
_atom_site_type_symbol
_atom_site_label
_atom_site_fract_x
_atom_site_fract_y
_atom_site_fract_z
Si Si1 0.013283 0.205887 0.251096
Si Si2 0.800579 0.287494 0.350134
Si Si3 0.238274 0.217338 0.249500
Si Si4 0.975428 0.795835 0.121570
Si Si5 0.181694 0.711525 0.025872
Si Si6 0.434579 0.718256 0.521647
O O1 0.101294 0.209983 0.161820
O O2 0.006649 0.288381 0.166677
O O3 0.959697 0.281085 0.395081
O O4 0.988792 0.000000 0.274357
O O5 0.810197 0.500000 0.331398
O O6 0.750000 0.250000 0.500000
O O7 0.762939 0.226763 0.311177
O O8 0.884274 0.205668 0.248182
O O9 0.151547 0.273495 0.344567
O O10 0.238855 0.000000 0.248027
O O11 0.294013 0.276573 0.100109
O O12 0.005084 0.000000 0.079869
O O13 0.000000 0.711564 0.000000
O O14 0.171271 0.500000 0.035554
O O15 0.250000 0.750000 0.000000
O O16 0.500000 0.775875 0.500000
O O17 0.435373 0.500000 0.520896
#
# Coordination Sequence:
#
# PCOD9196024 Si02
#       6
#     8   8   8   8   8   8
#     4  10  20  35  56  80 108 142 179 224 277 330
#     4  11  22  37  58  83 114 151 192 238 287 341
#     4   9  19  35  55  80 109 145 188 229 272 329
#     4  10  21  37  57  82 113 148 188 235 285 337
#     4  11  22  37  58  83 112 145 184 229 276 330
#     4   9  16  29  52  77 100 132 177 222 262 313
#
# _framework density 23.167645
#
# number of rings (size 3 to 8) (size 9 to 14) (size 15 to 20)
#    0.000    2.000    0.000    4.000    0.000    6.333 
#    0.000    2.500    0.000    5.500    0.000    0.000 
#    0.000    0.000    0.000    0.000    0.000    0.000 
#
# Total GULP energy -134198.596377 kJ/mol
# GULP energy per Si atom -5591.608182 kJ/mol
# Density = 2.311491 g / cm^3
# Si number density = 23.167645 Si / 1000 Ang^3
#
#
#
# Elastic Constant Matrix: (Units=GPa)
#
#
# Indices 1 2 3 4 5 6 
#
# 1 66.8734 -6.4840 -20.7064 -0.0026 2.1967 0.0032
# 2 -6.4840 73.2057 -8.9717 -0.0050 8.8679 0.0007
# 3 -20.7064 -8.9717 87.5024 0.0051 4.4134 -0.0009
# 4 -0.0026 -0.0050 0.0051 8.5210 -0.0003 -10.6184
# 5 2.1967 8.8679 4.4134 -0.0003 45.9965 -0.0002
# 6 0.0032 0.0007 -0.0009 -10.6184 -0.0002 10.5023
#
#
#
# Elastic Compliance Matrix: (Units=1/GPa)
#
#
# Indices 1 2 3 4 5 6 
#
# 1 0.016522 0.002175 0.004214 0.000009 -0.001613 0.000005
# 2 0.002175 0.014493 0.002157 -0.000022 -0.003105 -0.000024
# 3 0.004214 0.002157 0.012739 0.000022 -0.001840 0.000022
# 4 0.000009 -0.000022 0.000022 -0.451511 -0.000004 -0.456502
# 5 -0.001613 -0.003105 -0.001840 -0.000004 0.022593 -0.000003
# 6 0.000005 -0.000024 0.000022 -0.456502 -0.000003 -0.366331
#
#
# Mechanical properties :
#
#
# Convention : Reuss Voigt Hill
#
# Bulk Modulus (GPa) = 16.43413 17.25080 16.84247
# Shear Modulus (GPa) = -6.68177 30.58685 11.95254
#
# Velocity S-wave (km/s) = -1.70010 3.63745 2.27384
# Velocity P-wave (km/s) = 1.80421 5.01035 3.76556
#
# Compressibility (1/GPa) = 0.06084898
#
# Stress axis : x y z
#
# Youngs Moduli (GPa) = 60.52388 68.99721 78.49609
#
# Poissons Ratio (x) = -0.15009 -0.33080
# Poissons Ratio (y) = -0.13166 -0.16935
# Poissons Ratio (z) = -0.25506 -0.14885
#
# Static dielectric constant tensor:
#      x y z
#    x 1.838380 0.000000 0.045700 
#    y 0.000000 1.874860 0.000000 
#    z 0.045700 0.000000 1.840830 
# 
# From -- ./inp_files/244609.got.cif
#   From: 2010.05.17/outbox.cif.g08.bks.cpg/sg12_123_cif.got.tgz:244609.got - 2010.06.03 13:09:07.
