data_PCOD9196655
_publ_section_title
;
Structure prediction by ZEFSAII (Michael W. Deem and Ramdas Pophale) SiO2 
 PCOD9196655
Probable space group: C 2/M
;
_chemical_formula_sum "Si O2"
_cell_formula_units_Z 44
_cell_length_a 17.783507
_cell_length_b 19.978994
_cell_length_c 6.713752
_cell_angle_alpha 90.000000
_cell_angle_beta 111.941626
_cell_angle_gamma 90.000000
_cell_volume 2212.588690
_symmetry_space_group_name_H-M "C 2/M"
_symmetry_group_IT_number 12
_symmetry_cell_setting 'monoclinic'
loop_
_space_group_symop_operation_xyz
x,y,z
-x,y,-z
-x,-y,-z
x,-y,z
1/2+x,1/2+y,z
1/2-x,1/2+y,-z
1/2-x,1/2-y,-z
1/2+x,1/2-y,z
loop_
_atom_site_type_symbol
_atom_site_label
_atom_site_fract_x
_atom_site_fract_y
_atom_site_fract_z
Si Si1 0.190505 0.800020 0.064338
Si Si2 0.718267 0.424512 0.837612
Si Si3 0.378521 0.072301 0.252747
Si Si4 0.220404 0.623812 0.496736
Si Si5 0.923602 0.709270 0.816962
Si Si6 0.500000 0.812484 0.500000
O O1 0.174761 0.864722 0.911954
O O2 0.250000 0.750000 0.000000
O O3 0.236163 0.825350 0.308637
O O4 0.109960 0.764484 0.064633
O O5 0.689349 0.500000 0.849661
O O6 0.721331 0.409728 0.606145
O O7 0.810927 0.421217 0.014605
O O8 0.326656 0.073384 0.405482
O O9 0.436295 0.136156 0.333633
O O10 0.420198 0.000000 0.270193
O O11 0.152490 0.662830 0.304923
O O12 0.955286 0.728838 0.627793
O O13 0.000000 0.675234 0.000000
#
# Coordination Sequence:
#
# PCOD9196655 Si02
#       6
#     8   8   8   8   8   4
#     4  11  23  38  62  87 118 153 198 243 292 344
#     4  10  20  35  58  84 114 149 197 244 289 343
#     4   9  18  32  50  78 114 156 194 231 274 340
#     4  10  20  35  57  84 115 154 193 238 288 345
#     4  11  23  35  56  85 119 152 192 242 289 346
#     4  10  21  32  50  78 119 158 196 230 284 342
#
# _framework density 19.886209999999998
#
# number of rings (size 3 to 8) (size 9 to 14) (size 15 to 20)
#    0.000    1.818    1.818    2.455    5.091    0.727 
#    0.000    0.000    0.000    9.273    0.000    1.909 
#    0.000    0.000    0.000    0.000    0.000    0.000 
#
# Total GULP energy -122687.947734 kJ/mol
# GULP energy per Si atom -5576.724897 kJ/mol
# Density = 1.984095 g / cm^3
# Si number density = 19.886210 Si / 1000 Ang^3
#
#
#
# Elastic Constant Matrix: (Units=GPa)
#
#
# Indices 1 2 3 4 5 6 
#
# 1 62.2785 32.4501 19.7805 0.0000 -34.2787 0.0000
# 2 32.4501 94.4938 37.0307 0.0000 -27.2370 0.0000
# 3 19.7805 37.0307 71.7021 0.0000 -26.7543 0.0000
# 4 0.0000 0.0000 0.0000 8.5208 0.0000 -6.6310
# 5 -34.2787 -27.2370 -26.7543 0.0000 43.7534 0.0000
# 6 0.0000 0.0000 0.0000 -6.6310 0.0000 16.4429
#
#
#
# Elastic Compliance Matrix: (Units=1/GPa)
#
#
# Indices 1 2 3 4 5 6 
#
# 1 0.029856 -0.004922 0.002449 0.000000 0.021824 0.000000
# 2 -0.004922 0.015090 -0.005661 0.000000 0.002076 0.000000
# 3 0.002449 -0.005661 0.020206 0.000000 0.010750 0.000000
# 4 0.000000 0.000000 0.000000 0.171036 0.000000 0.068974
# 5 0.021824 0.002076 0.010750 0.000000 0.047819 0.000000
# 6 0.000000 0.000000 0.000000 0.068974 0.000000 0.088632
#
#
# Mechanical properties :
#
#
# Convention : Reuss Voigt Hill
#
# Bulk Modulus (GPa) = 20.45662 45.22187 32.83924
# Shear Modulus (GPa) = 12.33960 23.02432 17.68196
#
# Velocity S-wave (km/s) = 2.49371 3.40634 2.98511
# Velocity P-wave (km/s) = 4.31284 6.18551 5.33203
#
# Compressibility (1/GPa) = 0.04888392
#
# Stress axis : x y z
#
# Youngs Moduli (GPa) = 33.49426 66.27066 49.49107
#
# Poissons Ratio (x) = 0.32617 -0.12119
# Poissons Ratio (y) = 0.16485 0.28015
# Poissons Ratio (z) = -0.08202 0.37513
#
# Static dielectric constant tensor:
#      x y z
#    x 1.705600 0.000000 -0.010820 
#    y 0.000000 1.749370 0.000000 
#    z -0.010820 0.000000 1.742130 
# 
# From -- ./inp_files/21081.got.cif
#   From: 2010.05.17/outbox.cif.g08.bks.cpg/sg12_11_cif.got.tgz:21081.got - 2010.06.03 13:09:07.
