data_PCOD9196194
_publ_section_title
;
Structure prediction by ZEFSAII (Michael W. Deem and Ramdas Pophale) SiO2 
 PCOD9196194
Probable space group: C 2/M
;
_chemical_formula_sum "Si O2"
_cell_formula_units_Z 56
_cell_length_a 18.433978
_cell_length_b 11.565258
_cell_length_c 15.795518
_cell_angle_alpha 90.000000
_cell_angle_beta 113.092963
_cell_angle_gamma 90.000000
_cell_volume 3097.665835
_symmetry_space_group_name_H-M "C 2/M"
_symmetry_group_IT_number 12
_symmetry_cell_setting 'monoclinic'
loop_
_space_group_symop_operation_xyz
x,y,z
-x,y,-z
-x,-y,-z
x,-y,z
1/2+x,1/2+y,z
1/2-x,1/2+y,-z
1/2-x,1/2-y,-z
1/2+x,1/2-y,z
loop_
_atom_site_type_symbol
_atom_site_label
_atom_site_fract_x
_atom_site_fract_y
_atom_site_fract_z
Si Si1 0.797212 0.363361 0.553801
Si Si2 0.846473 0.369801 0.769837
Si Si3 0.505765 0.785035 0.906288
Si Si4 0.409094 0.865862 0.219979
Si Si5 0.146488 0.127407 0.984269
Si Si6 0.763305 0.795038 0.135456
Si Si7 0.024084 0.362762 0.420414
O O1 0.770211 0.500000 0.526790
O O2 0.750000 0.250000 0.500000
O O3 0.811616 0.350986 0.661012
O O4 0.883403 0.352739 0.551731
O O5 0.881201 0.500000 0.786795
O O6 0.777322 0.361018 0.806645
O O7 0.917865 0.285096 0.828159
O O8 0.558242 0.852600 0.860789
O O9 0.555569 0.666358 0.935799
O O10 0.500000 0.832328 0.000000
O O11 0.329428 0.795047 0.195441
O O12 0.474461 0.820981 0.316594
O O13 0.393593 0.000000 0.227667
O O14 0.190733 0.130841 0.913915
O O15 0.153875 0.000000 0.024664
O O16 0.193098 0.223813 0.058436
O O17 0.006879 0.500000 0.415403
O O18 0.000000 0.311622 0.500000
#
# Coordination Sequence:
#
# PCOD9196194 Si02
#       7
#     8   8   8   8   8   8   8
#     4  10  22  41  65  90 122 151 192 249 305 360
#     4  11  22  39  60  84 114 151 194 245 291 348
#     4  11  21  37  55  83 112 152 199 234 287 345
#     4  10  20  35  56  82 113 146 193 244 283 339
#     4  10  21  38  53  75 116 155 192 241 290 338
#     4  10  21  36  54  82 108 149 200 231 285 347
#     4   9  18  34  57  84 111 148 187 237 297 347
#
# _framework density 18.078128
#
# number of rings (size 3 to 8) (size 9 to 14) (size 15 to 20)
#    0.000    1.857    2.857    1.286    2.000    1.429 
#    0.000    1.429    0.000    0.429    0.000    0.000 
#    0.000    0.000    0.000    0.000    0.000    0.000 
#
# Total GULP energy -155960.238877 kJ/mol
# GULP energy per Si atom -5570.008531 kJ/mol
# Density = 1.803698 g / cm^3
# Si number density = 18.078128 Si / 1000 Ang^3
#
#
#
# Elastic Constant Matrix: (Units=GPa)
#
#
# Indices 1 2 3 4 5 6 
#
# 1 78.4330 24.4716 37.7644 0.0000 -7.2788 0.0000
# 2 24.4716 71.1794 37.9921 0.0000 6.6007 0.0000
# 3 37.7644 37.9921 90.1563 0.0000 -10.2954 0.0000
# 4 0.0000 0.0000 0.0000 -23.4226 0.0000 -3.4303
# 5 -7.2788 6.6007 -10.2954 0.0000 29.3755 0.0000
# 6 0.0000 0.0000 0.0000 -3.4303 0.0000 15.2135
#
#
#
# Elastic Compliance Matrix: (Units=1/GPa)
#
#
# Indices 1 2 3 4 5 6 
#
# 1 0.016542 -0.003153 -0.005262 0.000000 0.002963 0.000000
# 2 -0.003153 0.020238 -0.008142 0.000000 -0.008182 0.000000
# 3 -0.005262 -0.008142 0.017487 0.000000 0.006654 0.000000
# 4 0.000000 0.000000 0.000000 -0.041329 0.000000 -0.009319
# 5 0.002963 -0.008182 0.006654 0.000000 0.038947 0.000000
# 6 0.000000 0.000000 0.000000 -0.009319 0.000000 0.063630
#
#
# Mechanical properties :
#
#
# Convention : Reuss Voigt Hill
#
# Bulk Modulus (GPa) = 47.27567 48.91385 48.09476
# Shear Modulus (GPa) = 32.11745 13.53600 22.82673
#
# Velocity S-wave (km/s) = 4.21954 2.73930 3.55726
# Velocity P-wave (km/s) = 7.06731 6.09267 6.59801
#
# Compressibility (1/GPa) = 0.02115253
#
# Stress axis : x y z
#
# Youngs Moduli (GPa) = 60.45168 49.41314 57.18638
#
# Poissons Ratio (x) = 0.15582 0.30090
# Poissons Ratio (y) = 0.19063 0.46559
# Poissons Ratio (z) = 0.31809 0.40230
#
# Static dielectric constant tensor:
#      x y z
#    x 1.618970 0.000000 -0.011930 
#    y 0.000000 1.638030 0.000000 
#    z -0.011930 0.000000 1.647100 
# 
# From -- ./inp_files/223918.got.cif
#   From: 2010.05.17/outbox.cif.g08.bks.cpg/sg12_112_cif.got.tgz:223918.got - 2010.06.03 13:09:07.
