data_PCOD9196361
_publ_section_title
;
Structure prediction by ZEFSAII (Michael W. Deem and Ramdas Pophale) SiO2 
 PCOD9196361
Probable space group: C 2/M
;
_chemical_formula_sum "Si O2"
_cell_formula_units_Z 64
_cell_length_a 25.005354
_cell_length_b 8.732070
_cell_length_c 16.575004
_cell_angle_alpha 90.000000
_cell_angle_beta 91.403359
_cell_angle_gamma 90.000000
_cell_volume 3618.041749
_symmetry_space_group_name_H-M "C 2/M"
_symmetry_group_IT_number 12
_symmetry_cell_setting 'monoclinic'
loop_
_space_group_symop_operation_xyz
x,y,z
-x,y,-z
-x,-y,-z
x,-y,z
1/2+x,1/2+y,z
1/2-x,1/2+y,-z
1/2-x,1/2-y,-z
1/2+x,1/2-y,z
loop_
_atom_site_type_symbol
_atom_site_label
_atom_site_fract_x
_atom_site_fract_y
_atom_site_fract_z
Si Si1 0.441989 0.815741 0.029504
Si Si2 0.632991 0.182971 0.376684
Si Si3 0.307106 0.683292 0.474865
Si Si4 0.070449 0.684225 0.784857
Si Si5 0.178131 0.183349 0.713421
Si Si6 0.882953 0.183245 0.880233
Si Si7 0.790324 0.184091 0.758631
Si Si8 0.041359 0.183899 0.267502
O O1 0.432590 0.767537 0.121117
O O2 0.442576 0.000000 0.028031
O O3 0.500000 0.760896 0.000000
O O4 0.397876 0.758308 0.965051
O O5 0.648470 0.245748 0.464800
O O6 0.678373 0.245184 0.316703
O O7 0.577238 0.246764 0.340215
O O8 0.633416 0.000000 0.375782
O O9 0.306172 0.500000 0.484233
O O10 0.250000 0.750000 0.500000
O O11 0.317203 0.719515 0.381685
O O12 0.069212 0.500000 0.781351
O O13 0.124362 0.746792 0.747587
O O14 0.018042 0.750999 0.739465
O O15 0.230658 0.252723 0.757479
O O16 0.178057 0.000000 0.722137
O O17 0.826162 0.224479 0.838042
O O18 0.927507 0.226333 0.814510
O O19 0.884661 0.000000 0.888908
O O20 0.790549 0.000000 0.750412
O O21 0.041249 0.000000 0.273366
#
# Coordination Sequence:
#
# PCOD9196361 Si02
#       8
#     8   8   8   8   8   8   8   8
#     4  10  20  35  56  85 116 148 190 238 283 336
#     4  11  21  34  57  88 118 150 190 237 288 340
#     4  11  22  37  59  87 117 149 192 241 289 338
#     4  11  23  39  59  84 117 156 192 234 290 346
#     4  11  24  40  59  85 116 154 194 234 287 347
#     4   9  19  33  55  86 114 146 187 237 288 334
#     4  10  20  36  57  84 117 151 191 237 288 341
#     4  10  20  36  57  84 117 152 191 237 288 340
#
# _framework density 17.689126000000002
#
# number of rings (size 3 to 8) (size 9 to 14) (size 15 to 20)
#    0.000    1.625    2.500    3.750    0.000    5.250 
#    0.000    1.250    0.000    3.750    0.000    0.000 
#    0.000    0.000    0.000    0.000    0.000    0.000 
#
# Total GULP energy -178758.615527 kJ/mol
# GULP energy per Si atom -5586.206735 kJ/mol
# Density = 1.764886 g / cm^3
# Si number density = 17.689126 Si / 1000 Ang^3
#
#
#
# Elastic Constant Matrix: (Units=GPa)
#
#
# Indices 1 2 3 4 5 6 
#
# 1 171.6003 57.1188 79.6920 0.0000 13.7297 0.0000
# 2 57.1188 66.6843 49.2091 0.0000 2.5308 0.0000
# 3 79.6920 49.2091 103.9631 0.0000 12.8506 0.0000
# 4 0.0000 0.0000 0.0000 29.1412 0.0000 5.4375
# 5 13.7297 2.5308 12.8506 0.0000 30.3343 0.0000
# 6 0.0000 0.0000 0.0000 5.4375 0.0000 34.3486
#
#
#
# Elastic Compliance Matrix: (Units=1/GPa)
#
#
# Indices 1 2 3 4 5 6 
#
# 1 0.009922 -0.004591 -0.005196 0.000000 -0.001906 0.000000
# 2 -0.004591 0.025406 -0.008971 0.000000 0.003759 0.000000
# 3 -0.005196 -0.008971 0.018430 0.000000 -0.004707 0.000000
# 4 0.000000 0.000000 0.000000 0.035360 0.000000 -0.005598
# 5 -0.001906 0.003759 -0.004707 0.000000 0.035509 0.000000
# 6 0.000000 0.000000 0.000000 -0.005598 0.000000 0.029999
#
#
# Mechanical properties :
#
#
# Convention : Reuss Voigt Hill
#
# Bulk Modulus (GPa) = 61.57362 79.36529 70.46945
# Shear Modulus (GPa) = 25.30923 29.18000 27.24462
#
# Velocity S-wave (km/s) = 3.78667 4.06593 3.92878
# Velocity P-wave (km/s) = 7.34866 8.18575 7.77847
#
# Compressibility (1/GPa) = 0.01624072
#
# Stress axis : x y z
#
# Youngs Moduli (GPa) = 100.79102 39.36095 54.25954
#
# Poissons Ratio (x) = 0.18072 0.28195
# Poissons Ratio (y) = 0.46277 0.48674
# Poissons Ratio (z) = 0.52375 0.35309
#
# Static dielectric constant tensor:
#      x y z
#    x 1.587730 0.000000 0.011400 
#    y 0.000000 1.591560 0.000000 
#    z 0.011400 0.000000 1.592980 
# 
# From -- ./inp_files/238647.got.cif
#   From: 2010.05.17/outbox.cif.g08.bks.cpg/sg12_120_cif.got.tgz:238647.got - 2010.06.03 13:09:07.
