data_PCOD9196298
_publ_section_title
;
Structure prediction by ZEFSAII (Michael W. Deem and Ramdas Pophale) SiO2 
 PCOD9196298
Probable space group: C 2/M
;
_chemical_formula_sum "Si O2"
_cell_formula_units_Z 64
_cell_length_a 16.307821
_cell_length_b 24.970857
_cell_length_c 13.004599
_cell_angle_alpha 90.000000
_cell_angle_beta 144.805986
_cell_angle_gamma 90.000000
_cell_volume 3052.181400
_symmetry_space_group_name_H-M "C 2/M"
_symmetry_group_IT_number 12
_symmetry_cell_setting 'monoclinic'
loop_
_space_group_symop_operation_xyz
x,y,z
-x,y,-z
-x,-y,-z
x,-y,z
1/2+x,1/2+y,z
1/2-x,1/2+y,-z
1/2-x,1/2-y,-z
1/2+x,1/2-y,z
loop_
_atom_site_type_symbol
_atom_site_label
_atom_site_fract_x
_atom_site_fract_y
_atom_site_fract_z
Si Si1 0.677026 0.563607 0.766517
Si Si2 0.034421 0.336580 0.715069
Si Si3 0.524641 0.062113 0.813701
Si Si4 0.772236 0.937357 0.410071
Si Si5 0.505735 0.619006 0.250675
Si Si6 0.678889 0.326834 0.103362
Si Si7 0.790809 0.803636 0.637695
Si Si8 0.496479 0.782421 0.108665
O O1 0.628760 0.500000 0.726582
O O2 0.669656 0.581579 0.640474
O O3 0.593372 0.604510 0.754194
O O4 0.839139 0.564078 0.972832
O O5 0.038818 0.400677 0.728833
O O6 0.157533 0.320498 0.763190
O O7 0.877286 0.313177 0.536750
O O8 0.066720 0.316509 0.863946
O O9 0.383723 0.084196 0.725449
O O10 0.503218 0.000000 0.764387
O O11 0.875707 0.927002 0.612268
O O12 0.754479 0.000000 0.375261
O O13 0.612911 0.669877 0.353319
O O14 0.398494 0.628418 0.045953
O O15 0.665996 0.334200 0.211965
O O16 0.600861 0.270639 0.000695
O O17 0.847324 0.742863 0.706695
O O18 0.500000 0.808660 0.000000
#
# Coordination Sequence:
#
# PCOD9196298 Si02
#       8
#     8   8   8   8   8   8   8   8
#     4  10  20  35  56  83 119 160 199 244 302 361
#     4  12  20  39  66  90 113 165 203 241 294 364
#     4  10  21  37  58  87 124 157 195 241 292 351
#     4  10  20  35  56  83 119 160 199 244 302 361
#     4  11  19  35  56  82 113 155 200 245 289 350
#     4  10  22  40  61  87 119 157 199 248 299 351
#     4  10  22  40  61  87 119 157 199 248 299 351
#     4   9  21  39  61  92 124 148 189 250 307 363
#
# _framework density 20.968609000000001
#
# number of rings (size 3 to 8) (size 9 to 14) (size 15 to 20)
#    0.000    1.750    2.500    3.375    0.000    3.500 
#    0.000    0.000    0.000   16.500    0.000    0.000 
#    0.000    0.000    0.000    0.000    0.000    0.000 
#
# Total GULP energy -178312.238411 kJ/mol
# GULP energy per Si atom -5572.257450 kJ/mol
# Density = 2.092088 g / cm^3
# Si number density = 20.968609 Si / 1000 Ang^3
#
#
#
# Elastic Constant Matrix: (Units=GPa)
#
#
# Indices 1 2 3 4 5 6 
#
# 1 90.1170 28.0431 27.6077 0.0000 13.1858 0.0000
# 2 28.0431 31.1634 14.0271 0.0000 -3.2296 0.0000
# 3 27.6077 14.0271 77.2041 0.0000 20.9921 0.0000
# 4 0.0000 0.0000 0.0000 23.2884 0.0000 -3.6479
# 5 13.1858 -3.2296 20.9921 0.0000 33.1238 0.0000
# 6 0.0000 0.0000 0.0000 -3.6479 0.0000 29.2240
#
#
#
# Elastic Compliance Matrix: (Units=1/GPa)
#
#
# Indices 1 2 3 4 5 6 
#
# 1 0.017637 -0.016111 -0.001261 0.000000 -0.007793 0.000000
# 2 -0.016111 0.052023 -0.008233 0.000000 0.016703 0.000000
# 3 -0.001261 -0.008233 0.018100 0.000000 -0.011772 0.000000
# 4 0.000000 0.000000 0.000000 0.043796 0.000000 0.005467
# 5 -0.007793 0.016703 -0.011772 0.000000 0.042381 0.000000
# 6 0.000000 0.000000 0.000000 0.005467 0.000000 0.034901
#
#
# Mechanical properties :
#
#
# Convention : Reuss Voigt Hill
#
# Bulk Modulus (GPa) = 27.35853 37.53781 32.44817
# Shear Modulus (GPa) = 18.36689 25.71438 22.04063
#
# Velocity S-wave (km/s) = 2.96281 3.50569 3.24562
# Velocity P-wave (km/s) = 4.97795 5.85895 5.43633
#
# Compressibility (1/GPa) = 0.03655167
#
# Stress axis : x y z
#
# Youngs Moduli (GPa) = 56.70043 19.22221 55.24857
#
# Poissons Ratio (x) = 0.30968 0.06965
# Poissons Ratio (y) = 0.91349 0.45483
# Poissons Ratio (z) = 0.07149 0.15825
#
# Static dielectric constant tensor:
#      x y z
#    x 1.773020 0.000000 0.017860 
#    y 0.000000 1.778980 0.000000 
#    z 0.017860 0.000000 1.844560 
# 
# From -- ./inp_files/150280.got.cif
#   From: 2010.05.17/outbox.cif.g08.bks.cpg/sg12_76_cif.got.tgz:150280.got - 2010.06.03 13:09:07.
