data_PCOD9196281
_publ_section_title
;
Structure prediction by ZEFSAII (Michael W. Deem and Ramdas Pophale) SiO2 
 PCOD9196281
Probable space group: C 2/M
;
_chemical_formula_sum "Si O2"
_cell_formula_units_Z 56
_cell_length_a 22.834402
_cell_length_b 8.905740
_cell_length_c 14.468031
_cell_angle_alpha 90.000000
_cell_angle_beta 84.351919
_cell_angle_gamma 90.000000
_cell_volume 2927.895152
_symmetry_space_group_name_H-M "C 2/M"
_symmetry_group_IT_number 12
_symmetry_cell_setting 'monoclinic'
loop_
_space_group_symop_operation_xyz
x,y,z
-x,y,-z
-x,-y,-z
x,-y,z
1/2+x,1/2+y,z
1/2-x,1/2+y,-z
1/2-x,1/2-y,-z
1/2+x,1/2-y,z
loop_
_atom_site_type_symbol
_atom_site_label
_atom_site_fract_x
_atom_site_fract_y
_atom_site_fract_z
Si Si1 0.814241 0.321402 0.507547
Si Si2 0.548230 0.178542 0.832417
Si Si3 0.413911 0.819684 0.842111
Si Si4 0.844165 0.177758 0.697501
Si Si5 0.371434 0.673380 0.325188
Si Si6 0.650423 0.820646 0.964496
Si Si7 0.266483 0.673657 0.190096
O O1 0.750000 0.250000 0.500000
O O2 0.838924 0.257681 0.599594
O O3 0.854909 0.272100 0.415895
O O4 0.691656 0.000000 0.486460
O O5 0.480491 0.214761 0.862675
O O6 0.573001 0.266281 0.740281
O O7 0.592521 0.208436 0.910242
O O8 0.551962 0.000000 0.813592
O O9 0.398106 0.737952 0.749949
O O10 0.409781 0.000000 0.831044
O O11 0.367690 0.776900 0.929392
O O12 0.786677 0.226959 0.764687
O O13 0.845893 0.000000 0.685398
O O14 0.378536 0.500000 0.351295
O O15 0.317026 0.681267 0.261116
O O16 0.703784 0.733859 0.908084
O O17 0.661654 0.000000 0.960052
O O18 0.247942 0.500000 0.183091
#
# Coordination Sequence:
#
# PCOD9196281 Si02
#       7
#     8   8   8   8   8   8   8
#     4  12  23  38  62  89 116 147 186 232 283 343
#     4   9  18  35  60  87 115 150 194 239 285 338
#     4  10  21  38  58  82 116 156 194 238 288 341
#     4  12  25  39  57  82 116 154 192 236 286 344
#     4  10  20  35  58  88 118 148 186 236 286 334
#     4   9  18  34  59  87 114 148 194 240 286 340
#     4  10  20  35  56  83 116 150 188 236 288 342
#
# _framework density 19.126367999999999
#
# number of rings (size 3 to 8) (size 9 to 14) (size 15 to 20)
#    0.000    1.714    1.429    3.857    0.000    4.571 
#    0.000    0.714    0.000    8.571    0.000    0.000 
#    0.000    0.000    0.000    0.000    0.000    0.000 
#
# Total GULP energy -156493.527289 kJ/mol
# GULP energy per Si atom -5589.054546 kJ/mol
# Density = 1.908284 g / cm^3
# Si number density = 19.126368 Si / 1000 Ang^3
#
#
#
# Elastic Constant Matrix: (Units=GPa)
#
#
# Indices 1 2 3 4 5 6 
#
# 1 13.7895 5.7617 5.4164 0.0000 -6.0575 0.0000
# 2 5.7617 88.8937 46.3269 0.0000 -0.8542 0.0000
# 3 5.4164 46.3269 107.2427 0.0000 -3.4358 0.0000
# 4 0.0000 0.0000 0.0000 30.3706 0.0000 -3.0459
# 5 -6.0575 -0.8542 -3.4358 0.0000 24.0538 0.0000
# 6 0.0000 0.0000 0.0000 -3.0459 0.0000 25.8358
#
#
#
# Elastic Compliance Matrix: (Units=1/GPa)
#
#
# Indices 1 2 3 4 5 6 
#
# 1 0.084145 -0.004370 -0.001696 0.000000 0.020793 0.000000
# 2 -0.004370 0.014748 -0.006197 0.000000 -0.001462 0.000000
# 3 -0.001696 -0.006197 0.012122 0.000000 0.001084 0.000000
# 4 0.000000 0.000000 0.000000 0.033321 0.000000 0.003928
# 5 0.020793 -0.001462 0.001084 0.000000 0.046913 0.000000
# 6 0.000000 0.000000 0.000000 0.003928 0.000000 0.039169
#
#
# Mechanical properties :
#
#
# Convention : Reuss Voigt Hill
#
# Bulk Modulus (GPa) = 11.56212 36.10399 23.83306
# Shear Modulus (GPa) = 17.61963 26.21344 21.91653
#
# Velocity S-wave (km/s) = 3.03846 3.70610 3.38876
# Velocity P-wave (km/s) = 4.28578 6.10173 5.27252
#
# Compressibility (1/GPa) = 0.08648930
#
# Stress axis : x y z
#
# Youngs Moduli (GPa) = 11.88418 67.80486 82.49429
#
# Poissons Ratio (x) = 0.29633 0.13990
# Poissons Ratio (y) = 0.05194 0.51122
# Poissons Ratio (z) = 0.02015 0.42019
#
# Static dielectric constant tensor:
#      x y z
#    x 1.670690 0.000000 0.014740 
#    y 0.000000 1.638930 0.000000 
#    z 0.014740 0.000000 1.652200 
# 
# From -- ./inp_files/231043.got.cif
#   From: 2010.05.17/outbox.cif.g08.bks.cpg/sg12_116_cif.got.tgz:231043.got - 2010.06.03 13:09:07.
