data_PCOD9196383
_publ_section_title
;
Structure prediction by ZEFSAII (Michael W. Deem and Ramdas Pophale) SiO2 
 PCOD9196383
Probable space group: C 2/M
;
_chemical_formula_sum "Si O2"
_cell_formula_units_Z 64
_cell_length_a 17.443113
_cell_length_b 13.893525
_cell_length_c 26.445548
_cell_angle_alpha 90.000000
_cell_angle_beta 150.651047
_cell_angle_gamma 90.000000
_cell_volume 3141.217147
_symmetry_space_group_name_H-M "C 2/M"
_symmetry_group_IT_number 12
_symmetry_cell_setting 'monoclinic'
loop_
_space_group_symop_operation_xyz
x,y,z
-x,y,-z
-x,-y,-z
x,-y,z
1/2+x,1/2+y,z
1/2-x,1/2+y,-z
1/2-x,1/2-y,-z
1/2+x,1/2-y,z
loop_
_atom_site_type_symbol
_atom_site_label
_atom_site_fract_x
_atom_site_fract_y
_atom_site_fract_z
Si Si1 0.534451 0.115600 0.146034
Si Si2 0.715924 0.294721 0.783476
Si Si3 0.027247 0.615883 0.774999
Si Si4 0.884318 0.114587 0.714924
Si Si5 0.613263 0.614753 0.020861
Si Si6 0.124609 0.766526 0.384840
Si Si7 0.174734 0.113087 0.207237
Si Si8 0.249602 0.616346 0.089356
O O1 0.684421 0.153129 0.202387
O O2 0.533406 0.143684 0.204124
O O3 0.532700 0.000000 0.144129
O O4 0.378296 0.146697 0.025716
O O5 0.531425 0.314217 0.681046
O O6 0.734785 0.182510 0.778844
O O7 0.781492 0.333326 0.874654
O O8 0.018854 0.500000 0.764989
O O9 0.209410 0.647661 0.879200
O O10 0.934546 0.670346 0.677886
O O11 0.070931 0.137191 0.822853
O O12 0.816139 0.166801 0.626893
O O13 0.804706 0.138815 0.722500
O O14 0.872425 0.000000 0.702587
O O15 0.626330 0.500000 0.036852
O O16 0.500000 0.652573 0.000000
O O17 0.509826 0.626650 0.911302
O O18 0.250000 0.750000 0.500000
O O19 0.209731 0.000000 0.218783
O O20 0.237546 0.500000 0.088718
#
# Coordination Sequence:
#
# PCOD9196383 Si02
#       8
#     8   8   8   8   8   8   8   8
#     4  10  20  36  59  88 121 150 178 221 279 342
#     4  11  22  35  56  84 114 150 189 228 277 334
#     4  10  21  38  60  86 116 149 185 228 281 338
#     4   9  19  38  61  83 110 148 190 227 269 327
#     4   9  17  30  51  82 120 155 182 212 258 323
#     4  11  25  43  60  78 104 143 193 247 291 328
#     4  10  20  35  56  85 121 152 179 217 267 331
#     4   9  18  34  57  86 119 152 184 218 263 328
#
# _framework density 20.374268000000001
#
# number of rings (size 3 to 8) (size 9 to 14) (size 15 to 20)
#    0.000    2.125    0.000    3.000    0.000   10.500 
#    0.000    6.875    0.000    3.000    0.000    0.000 
#    0.000    0.000    0.000    0.000    0.000    0.000 
#
# Total GULP energy -178796.140345 kJ/mol
# GULP energy per Si atom -5587.379386 kJ/mol
# Density = 2.032790 g / cm^3
# Si number density = 20.374268 Si / 1000 Ang^3
#
#
#
# Elastic Constant Matrix: (Units=GPa)
#
#
# Indices 1 2 3 4 5 6 
#
# 1 90.3086 11.7364 28.6314 0.0000 -29.5054 0.0001
# 2 11.7364 53.0775 2.5480 -0.0006 -9.8324 -0.0001
# 3 28.6314 2.5480 107.2595 -0.0018 -26.5562 -0.0002
# 4 0.0000 -0.0006 -0.0018 22.8624 -0.0001 -7.6048
# 5 -29.5054 -9.8324 -26.5562 -0.0001 21.5314 0.0001
# 6 0.0001 -0.0001 -0.0002 -7.6048 0.0001 36.1702
#
#
#
# Elastic Compliance Matrix: (Units=1/GPa)
#
#
# Indices 1 2 3 4 5 6 
#
# 1 0.020446 0.001181 0.002281 0.000000 0.031370 0.000000
# 2 0.001181 0.021185 0.002847 0.000001 0.014803 0.000000
# 3 0.002281 0.002847 0.014025 0.000001 0.021724 0.000000
# 4 0.000000 0.000001 0.000001 0.047029 0.000003 0.009888
# 5 0.031370 0.014803 0.021724 0.000003 0.122986 0.000000
# 6 0.000000 0.000000 0.000000 0.009888 0.000000 0.029726
#
#
# Mechanical properties :
#
#
# Convention : Reuss Voigt Hill
#
# Bulk Modulus (GPa) = 14.64702 37.38634 26.01668
# Shear Modulus (GPa) = 18.82974 29.96146 24.39560
#
# Velocity S-wave (km/s) = 3.04335 3.83894 3.46406
# Velocity P-wave (km/s) = 4.42198 6.16762 5.36626
#
# Compressibility (1/GPa) = 0.06827327
#
# Stress axis : x y z
#
# Youngs Moduli (GPa) = 48.90999 47.20348 71.29958
#
# Poissons Ratio (x) = -0.05574 -0.16265
# Poissons Ratio (y) = -0.05775 -0.20297
# Poissons Ratio (z) = -0.11157 -0.13437
#
# Static dielectric constant tensor:
#      x y z
#    x 1.722630 0.000000 -0.017560 
#    y 0.000000 1.802300 0.000000 
#    z -0.017560 0.000000 1.696810 
# 
# From -- ./inp_files/344113.got.cif
#   From: 2010.05.17/outbox.cif.g08.bks.cpg/sg12_173_cif.got.tgz:344113.got - 2010.06.03 13:09:07.
