data_PCOD9196920
_publ_section_title
;
Structure prediction by ZEFSAII (Michael W. Deem and Ramdas Pophale) SiO2 
 PCOD9196920
Probable space group: C 2/M
;
_chemical_formula_sum "Si O2"
_cell_formula_units_Z 48
_cell_length_a 24.113101
_cell_length_b 8.886048
_cell_length_c 12.867709
_cell_angle_alpha 90.000000
_cell_angle_beta 89.327971
_cell_angle_gamma 90.000000
_cell_volume 2756.976580
_symmetry_space_group_name_H-M "C 2/M"
_symmetry_group_IT_number 12
_symmetry_cell_setting 'monoclinic'
loop_
_space_group_symop_operation_xyz
x,y,z
-x,y,-z
-x,-y,-z
x,-y,z
1/2+x,1/2+y,z
1/2-x,1/2+y,-z
1/2-x,1/2-y,-z
1/2+x,1/2-y,z
loop_
_atom_site_type_symbol
_atom_site_label
_atom_site_fract_x
_atom_site_fract_y
_atom_site_fract_z
Si Si1 0.811075 0.819121 0.492993
Si Si2 0.695954 0.180736 0.126838
Si Si3 0.814837 0.679674 0.111935
Si Si4 0.883354 0.180697 0.289594
Si Si5 0.002780 0.181360 0.377340
Si Si6 0.881580 0.680501 0.679541
O O1 0.750000 0.750000 0.500000
O O2 0.841172 0.780127 0.383920
O O3 0.848135 0.754420 0.585277
O O4 0.808505 0.000000 0.500462
O O5 0.755081 0.256467 0.148180
O O6 0.650410 0.220578 0.213520
O O7 0.703711 0.000000 0.129527
O O8 0.678918 0.222597 0.009656
O O9 0.814263 0.500000 0.118741
O O10 0.861937 0.745187 0.184890
O O11 0.945136 0.224126 0.323850
O O12 0.882325 0.000000 0.278530
O O13 0.055985 0.259193 0.326206
O O14 0.000000 0.219817 0.500000
O O15 0.008855 0.000000 0.370967
O O16 0.880866 0.500000 0.668808
#
# Coordination Sequence:
#
# PCOD9196920 Si02
#       6
#     8   8   8   8   8   8
#     4  11  22  36  53  79 113 145 177 222 277 329
#     4   9  20  38  56  79 114 148 177 220 279 327
#     4  10  20  35  58  84 109 142 185 227 268 322
#     4  10  21  37  56  77 109 146 179 221 277 327
#     4  10  20  39  59  77 106 149 187 223 274 325
#     4  11  22  36  56  82 110 143 183 226 273 326
#
# _framework density 17.410375999999999
#
# number of rings (size 3 to 8) (size 9 to 14) (size 15 to 20)
#    0.000    1.833    1.667    2.500    0.000    8.333 
#    0.000    0.833    0.000    5.000    0.000    0.000 
#    0.000    0.000    0.000    0.000    0.000    0.000 
#
# Total GULP energy -134052.531376 kJ/mol
# GULP energy per Si atom -5585.522141 kJ/mol
# Density = 1.737075 g / cm^3
# Si number density = 17.410376 Si / 1000 Ang^3
#
#
#
# Elastic Constant Matrix: (Units=GPa)
#
#
# Indices 1 2 3 4 5 6 
#
# 1 92.2115 25.2112 45.5063 0.0000 24.5597 0.0000
# 2 25.2112 22.4511 26.9826 0.0000 6.5660 0.0000
# 3 45.5063 26.9826 88.5543 0.0000 19.7934 0.0000
# 4 0.0000 0.0000 0.0000 30.5763 0.0000 3.7400
# 5 24.5597 6.5660 19.7934 0.0000 31.4127 0.0000
# 6 0.0000 0.0000 0.0000 3.7400 0.0000 34.6351
#
#
#
# Elastic Compliance Matrix: (Units=1/GPa)
#
#
# Indices 1 2 3 4 5 6 
#
# 1 0.019028 -0.014801 -0.003066 0.000000 -0.009851 0.000000
# 2 -0.014801 0.081842 -0.018732 0.000000 0.006269 0.000000
# 3 -0.003066 -0.018732 0.019979 0.000000 -0.006276 0.000000
# 4 0.000000 0.000000 0.000000 0.033143 0.000000 -0.003579
# 5 -0.009851 0.006269 -0.006276 0.000000 0.042180 0.000000
# 6 0.000000 0.000000 0.000000 -0.003579 0.000000 0.029259
#
#
# Mechanical properties :
#
#
# Convention : Reuss Voigt Hill
#
# Bulk Modulus (GPa) = 20.98676 44.29077 32.63877
# Shear Modulus (GPa) = 15.89748 26.35929 21.12838
#
# Velocity S-wave (km/s) = 3.02504 3.89523 3.48739
# Velocity P-wave (km/s) = 4.92762 6.76203 5.91635
#
# Compressibility (1/GPa) = 0.04764908
#
# Stress axis : x y z
#
# Youngs Moduli (GPa) = 52.55280 12.21862 50.05290
#
# Poissons Ratio (x) = 0.18085 0.15349
# Poissons Ratio (y) = 0.77785 0.93762
# Poissons Ratio (z) = 0.16115 0.22889
#
# Static dielectric constant tensor:
#      x y z
#    x 1.564640 0.000000 -0.002930 
#    y 0.000000 1.583000 0.000000 
#    z -0.002930 0.000000 1.582460 
# 
# From -- ./inp_files/172241.got.cif
#   From: 2010.05.17/outbox.cif.g08.bks.cpg/sg12_87_cif.got.tgz:172241.got - 2010.06.03 13:09:07.
