data_PCOD9196702
_publ_section_title
;
Structure prediction by ZEFSAII (Michael W. Deem and Ramdas Pophale) SiO2 
 PCOD9196702
Probable space group: C 2/M
;
_chemical_formula_sum "Si O2"
_cell_formula_units_Z 56
_cell_length_a 11.938539
_cell_length_b 20.213731
_cell_length_c 11.471443
_cell_angle_alpha 90.000000
_cell_angle_beta 101.868857
_cell_angle_gamma 90.000000
_cell_volume 2709.132289
_symmetry_space_group_name_H-M "C 2/M"
_symmetry_group_IT_number 12
_symmetry_cell_setting 'monoclinic'
loop_
_space_group_symop_operation_xyz
x,y,z
-x,y,-z
-x,-y,-z
x,-y,z
1/2+x,1/2+y,z
1/2-x,1/2+y,-z
1/2-x,1/2-y,-z
1/2+x,1/2-y,z
loop_
_atom_site_type_symbol
_atom_site_label
_atom_site_fract_x
_atom_site_fract_y
_atom_site_fract_z
Si Si1 0.049365 0.729720 0.382802
Si Si2 0.363796 0.574961 0.452056
Si Si3 0.216503 0.324212 0.035565
Si Si4 0.848774 0.324279 0.224070
Si Si5 0.248116 0.314361 0.288518
Si Si6 0.623472 0.630545 0.300970
Si Si7 0.072449 0.925815 0.896569
O O1 0.177779 0.703460 0.389588
O O2 0.063763 0.798836 0.316192
O O3 0.000000 0.744688 0.500000
O O4 0.968909 0.671370 0.315143
O O5 0.500000 0.577407 0.500000
O O6 0.328629 0.500000 0.421482
O O7 0.322328 0.623188 0.341668
O O8 0.324959 0.600420 0.570061
O O9 0.138952 0.342711 0.908857
O O10 0.250000 0.250000 0.000000
O O11 0.168798 0.324693 0.156936
O O12 0.328571 0.370747 0.071244
O O13 0.821989 0.247628 0.257798
O O14 0.732647 0.359599 0.240776
O O15 0.523495 0.587451 0.222166
O O16 0.120348 0.000000 0.892163
O O17 0.000000 0.923059 0.000000
#
# Coordination Sequence:
#
# PCOD9196702 Si02
#       7
#     8   8   8   8   8   8   8
#     4  11  22  37  59  86 118 155 198 252 306 355
#     4  11  22  36  57  83 114 152 194 238 293 362
#     4  10  20  38  57  86 123 157 204 249 299 362
#     4  10  20  35  57  85 114 151 196 245 297 362
#     4  10  22  37  57  85 117 155 193 251 304 350
#     4  11  20  35  58  86 119 153 195 243 301 364
#     4  11  22  37  60  92 130 163 195 248 313 367
#
# _framework density 20.670824
#
# number of rings (size 3 to 8) (size 9 to 14) (size 15 to 20)
#    0.000    1.429    1.429    6.000    0.000    4.571 
#    0.000    0.000    0.000    5.571    0.000    2.000 
#    0.000    0.000    0.000    0.000    0.000    0.000 
#
# Total GULP energy -156040.181269 kJ/mol
# GULP energy per Si atom -5572.863617 kJ/mol
# Density = 2.062378 g / cm^3
# Si number density = 20.670824 Si / 1000 Ang^3
#
#
#
# Elastic Constant Matrix: (Units=GPa)
#
#
# Indices 1 2 3 4 5 6 
#
# 1 47.9741 21.6811 6.2629 0.0000 -7.9317 0.0000
# 2 21.6811 97.0695 16.5357 0.0000 12.1012 0.0000
# 3 6.2629 16.5357 108.4167 0.0000 -3.6537 0.0000
# 4 0.0000 0.0000 0.0000 20.2304 0.0000 13.1635
# 5 -7.9317 12.1012 -3.6537 0.0000 27.1789 0.0000
# 6 0.0000 0.0000 0.0000 13.1635 0.0000 20.3321
#
#
#
# Elastic Compliance Matrix: (Units=1/GPa)
#
#
# Indices 1 2 3 4 5 6 
#
# 1 0.025823 -0.007091 -0.000050 0.000000 0.010687 0.000000
# 2 -0.007091 0.013231 -0.001885 0.000000 -0.008214 0.000000
# 3 -0.000050 -0.001885 0.009585 0.000000 0.002113 0.000000
# 4 0.000000 0.000000 0.000000 0.085412 0.000000 -0.055298
# 5 0.010687 -0.008214 0.002113 0.000000 0.043853 0.000000
# 6 0.000000 0.000000 0.000000 -0.055298 0.000000 0.084985
#
#
# Mechanical properties :
#
#
# Convention : Reuss Voigt Hill
#
# Bulk Modulus (GPa) = 32.69477 38.04663 35.37070
# Shear Modulus (GPa) = 17.17404 27.48031 22.32718
#
# Velocity S-wave (km/s) = 2.88555 3.65008 3.29010
# Velocity P-wave (km/s) = 5.19163 6.01748 5.61975
#
# Compressibility (1/GPa) = 0.03058593
#
# Stress axis : x y z
#
# Youngs Moduli (GPa) = 38.72548 75.58048 104.32642
#
# Poissons Ratio (x) = 0.53597 0.00521
# Poissons Ratio (y) = 0.27462 0.19667
# Poissons Ratio (z) = 0.00194 0.14248
#
# Static dielectric constant tensor:
#      x y z
#    x 1.784350 0.000000 0.006520 
#    y 0.000000 1.758360 0.000000 
#    z 0.006520 0.000000 1.897980 
# 
# From -- ./inp_files/133885.got.cif
#   From: 2010.05.17/outbox.cif.g08.bks.cpg/sg12_67_cif.got.tgz:133885.got - 2010.06.03 13:09:07.
