data_PCOD9196408
_publ_section_title
;
Structure prediction by ZEFSAII (Michael W. Deem and Ramdas Pophale) SiO2 
 PCOD9196408
Probable space group: C 2/M
;
_chemical_formula_sum "Si O2"
_cell_formula_units_Z 56
_cell_length_a 14.865514
_cell_length_b 31.751451
_cell_length_c 12.150580
_cell_angle_alpha 90.000000
_cell_angle_beta 27.552135
_cell_angle_gamma 90.000000
_cell_volume 2652.799339
_symmetry_space_group_name_H-M "C 2/M"
_symmetry_group_IT_number 12
_symmetry_cell_setting 'monoclinic'
loop_
_space_group_symop_operation_xyz
x,y,z
-x,y,-z
-x,-y,-z
x,-y,z
1/2+x,1/2+y,z
1/2-x,1/2+y,-z
1/2-x,1/2-y,-z
1/2+x,1/2-y,z
loop_
_atom_site_type_symbol
_atom_site_label
_atom_site_fract_x
_atom_site_fract_y
_atom_site_fract_z
Si Si1 0.229491 0.667534 0.011944
Si Si2 0.306106 0.548041 0.406413
Si Si3 0.887285 0.190649 0.286567
Si Si4 0.070342 0.286960 0.803168
Si Si5 0.428360 0.407017 0.701657
Si Si6 0.065025 0.454006 0.039175
Si Si7 0.884659 0.378553 0.511535
O O1 0.387605 0.680818 0.931423
O O2 0.362834 0.641031 0.783677
O O3 0.112182 0.704898 0.080472
O O4 0.057384 0.636874 0.241970
O O5 0.377260 0.500000 0.302911
O O6 0.442779 0.576718 0.336581
O O7 0.224889 0.577602 0.397028
O O8 0.119997 0.542281 0.685309
O O9 0.877271 0.237681 0.249507
O O10 0.756229 0.191194 0.541868
O O11 0.781157 0.157210 0.322877
O O12 0.000000 0.301895 0.000000
O O13 0.500000 0.415622 0.500000
O O14 0.233688 0.433483 0.922707
O O15 0.139505 0.500000 0.921835
O O16 0.000000 0.429693 0.000000
O O17 0.000000 0.380558 0.500000
#
# Coordination Sequence:
#
# PCOD9196408 Si02
#       7
#     8   8   8   8   8   8   8
#     4  11  24  41  65  94 133 166 212 267 315 383
#     4  11  23  41  61  90 132 167 214 275 319 377
#     4  10  23  46  64  95 132 166 216 265 314 384
#     4  10  24  41  66  99 133 169 208 257 320 388
#     4  12  23  35  63  96 130 175 209 251 320 387
#     4  10  20  35  56  86 125 164 206 254 310 376
#     4  11  25  44  69  93 119 170 225 272 328 378
#
# _framework density 21.109777000000001
#
# number of rings (size 3 to 8) (size 9 to 14) (size 15 to 20)
#    0.000    1.286    4.286    0.857    4.000    1.429 
#    0.000    0.000    0.000    0.857    0.000    0.000 
#    0.000    0.000    0.000    0.000    0.000    0.000 
#
# Total GULP energy -156040.578209 kJ/mol
# GULP energy per Si atom -5572.877793 kJ/mol
# Density = 2.106173 g / cm^3
# Si number density = 21.109777 Si / 1000 Ang^3
#
#
#
# Elastic Constant Matrix: (Units=GPa)
#
#
# Indices 1 2 3 4 5 6 
#
# 1 114.6270 35.4518 20.0358 0.0000 -18.1360 0.0000
# 2 35.4518 89.4893 6.4069 0.0000 -6.7996 0.0000
# 3 20.0358 6.4069 48.7954 0.0001 -16.0801 -0.0001
# 4 0.0000 0.0000 0.0001 19.6129 -0.0001 -11.1352
# 5 -18.1360 -6.7996 -16.0801 -0.0001 37.4595 0.0001
# 6 0.0000 0.0000 -0.0001 -11.1352 0.0001 25.3500
#
#
#
# Elastic Compliance Matrix: (Units=1/GPa)
#
#
# Indices 1 2 3 4 5 6 
#
# 1 0.010960 -0.003880 -0.002882 0.000000 0.003365 0.000000
# 2 -0.003880 0.012742 0.000074 0.000000 0.000466 0.000000
# 3 -0.002882 0.000074 0.024707 0.000000 0.009224 0.000000
# 4 0.000000 0.000000 0.000000 0.067927 0.000000 0.029838
# 5 0.003365 0.000466 0.009224 0.000000 0.032369 0.000000
# 6 0.000000 0.000000 0.000000 0.029838 0.000000 0.052554
#
#
# Mechanical properties :
#
#
# Convention : Reuss Voigt Hill
#
# Bulk Modulus (GPa) = 28.54491 41.85564 35.20027
# Shear Modulus (GPa) = 22.09332 29.21895 25.65613
#
# Velocity S-wave (km/s) = 3.23862 3.72444 3.48999
# Velocity P-wave (km/s) = 5.24751 6.19403 5.74031
#
# Compressibility (1/GPa) = 0.03503252
#
# Stress axis : x y z
#
# Youngs Moduli (GPa) = 91.24039 78.48239 40.47418
#
# Poissons Ratio (x) = 0.30450 0.11665
# Poissons Ratio (y) = 0.35400 -0.00298
# Poissons Ratio (z) = 0.26295 -0.00579
#
# Static dielectric constant tensor:
#      x y z
#    x 1.867520 0.000000 0.076400 
#    y 0.000000 1.839220 0.000000 
#    z 0.076400 0.000000 1.813640 
# 
# From -- ./inp_files/150396.got.cif
#   From: 2010.05.17/outbox.cif.g08.bks.cpg/sg12_76_cif.got.tgz:150396.got - 2010.06.03 13:09:07.
