data_PCOD9196735
_publ_section_title
;
Structure prediction by ZEFSAII (Michael W. Deem and Ramdas Pophale) SiO2 
 PCOD9196735
Probable space group: C 2/M
;
_chemical_formula_sum "Si O2"
_cell_formula_units_Z 56
_cell_length_a 20.620890
_cell_length_b 8.487293
_cell_length_c 19.946864
_cell_angle_alpha 90.000000
_cell_angle_beta 123.025243
_cell_angle_gamma 90.000000
_cell_volume 2926.970282
_symmetry_space_group_name_H-M "C 2/M"
_symmetry_group_IT_number 12
_symmetry_cell_setting 'monoclinic'
loop_
_space_group_symop_operation_xyz
x,y,z
-x,y,-z
-x,-y,-z
x,-y,z
1/2+x,1/2+y,z
1/2-x,1/2+y,-z
1/2-x,1/2-y,-z
1/2+x,1/2-y,z
loop_
_atom_site_type_symbol
_atom_site_label
_atom_site_fract_x
_atom_site_fract_y
_atom_site_fract_z
Si Si1 0.483842 0.309426 0.566658
Si Si2 0.950244 0.690023 0.143986
Si Si3 0.125563 0.311264 0.266975
Si Si4 0.164920 0.811478 0.436218
Si Si5 0.283110 0.690472 0.805560
Si Si6 0.890308 0.690740 0.256132
Si Si7 0.917144 0.189944 0.982649
O O1 0.500000 0.254829 0.500000
O O2 0.484983 0.500000 0.567075
O O3 0.400096 0.257858 0.547196
O O4 0.548658 0.252097 0.655176
O O5 0.947703 0.500000 0.140341
O O6 0.913943 0.741103 0.194343
O O7 0.040315 0.739827 0.194422
O O8 0.910099 0.755218 0.055085
O O9 0.126859 0.500000 0.270043
O O10 0.139692 0.246481 0.348870
O O11 0.188870 0.250991 0.250463
O O12 0.250000 0.750000 0.500000
O O13 0.166256 0.000000 0.437708
O O14 0.283931 0.500000 0.805192
O O15 0.196627 0.741726 0.775090
O O16 0.346655 0.743818 0.896017
O O17 0.892861 0.500000 0.258669
O O18 0.917978 0.000000 0.981845
O O19 0.000000 0.245634 0.000000
#
# Coordination Sequence:
#
# PCOD9196735 Si02
#       7
#     8   8   8   8   8   8   8
#     4  10  23  42  62  87 120 155 192 240 292 346
#     4  10  21  37  59  85 116 154 196 242 293 349
#     4  11  22  38  61  87 118 156 199 245 291 348
#     4  11  24  41  63  91 123 156 194 243 292 349
#     4  10  22  39  59  87 120 156 199 246 296 351
#     4  10  22  41  61  85 118 156 196 241 294 355
#     4  10  20  35  57  85 118 155 197 244 295 349
#
# _framework density 19.132413
#
# number of rings (size 3 to 8) (size 9 to 14) (size 15 to 20)
#    0.000    1.714    2.857    0.857    2.000    4.000 
#    0.000    0.000    0.000    0.000    0.000    0.000 
#    0.000    0.000    0.000    0.000    0.000    0.000 
#
# Total GULP energy -156441.860547 kJ/mol
# GULP energy per Si atom -5587.209305 kJ/mol
# Density = 1.908887 g / cm^3
# Si number density = 19.132413 Si / 1000 Ang^3
#
#
#
# Elastic Constant Matrix: (Units=GPa)
#
#
# Indices 1 2 3 4 5 6 
#
# 1 178.4665 23.0479 74.9468 0.0000 -9.5457 0.0000
# 2 23.0479 6.0086 13.8225 0.0000 1.4573 0.0000
# 3 74.9468 13.8225 122.7038 0.0000 -17.1235 0.0000
# 4 0.0000 0.0000 0.0000 30.5097 0.0000 3.6666
# 5 -9.5457 1.4573 -17.1235 0.0000 39.8412 0.0000
# 6 0.0000 0.0000 0.0000 3.6666 0.0000 7.4409
#
#
#
# Elastic Compliance Matrix: (Units=1/GPa)
#
#
# Indices 1 2 3 4 5 6 
#
# 1 0.012227 -0.042835 -0.002144 0.000000 0.003575 0.000000
# 2 -0.042835 0.391306 -0.022709 0.000000 -0.034336 0.000000
# 3 -0.002144 -0.022709 0.012831 0.000000 0.005832 0.000000
# 4 0.000000 0.000000 0.000000 0.034840 0.000000 -0.017168
# 5 0.003575 -0.034336 0.005832 0.000000 0.029719 0.000000
# 6 0.000000 0.000000 0.000000 -0.017168 0.000000 0.142851
#
#
# Mechanical properties :
#
#
# Convention : Reuss Voigt Hill
#
# Bulk Modulus (GPa) = 3.55886 58.97925 31.26906
# Shear Modulus (GPa) = 5.86297 28.58248 17.22273
#
# Velocity S-wave (km/s) = 1.75245 3.86933 3.00356
# Velocity P-wave (km/s) = 2.44109 7.13135 5.32987
#
# Compressibility (1/GPa) = 0.28098884
#
# Stress axis : x y z
#
# Youngs Moduli (GPa) = 81.78849 2.55555 77.93595
#
# Poissons Ratio (x) = 0.10947 0.16708
# Poissons Ratio (y) = 3.50340 1.76982
# Poissons Ratio (z) = 0.17534 0.05803
#
# Static dielectric constant tensor:
#      x y z
#    x 1.660990 0.000000 0.004650 
#    y 0.000000 1.655890 0.000000 
#    z 0.004650 0.000000 1.630900 
# 
# From -- ./inp_files/280949.got.cif
#   From: 2010.05.17/outbox.cif.g08.bks.cpg/sg12_141_cif.got.tgz:280949.got - 2010.06.03 13:09:07.
