data_PCOD9196264
_publ_section_title
;
Structure prediction by ZEFSAII (Michael W. Deem and Ramdas Pophale) SiO2 
 PCOD9196264
Probable space group: C 2/M
;
_chemical_formula_sum "Si O2"
_cell_formula_units_Z 64
_cell_length_a 18.758270
_cell_length_b 8.501281
_cell_length_c 21.280648
_cell_angle_alpha 90.000000
_cell_angle_beta 90.143788
_cell_angle_gamma 90.000000
_cell_volume 3393.599872
_symmetry_space_group_name_H-M "C 2/M"
_symmetry_group_IT_number 12
_symmetry_cell_setting 'monoclinic'
loop_
_space_group_symop_operation_xyz
x,y,z
-x,y,-z
-x,-y,-z
x,-y,z
1/2+x,1/2+y,z
1/2-x,1/2+y,-z
1/2-x,1/2-y,-z
1/2+x,1/2-y,z
loop_
_atom_site_type_symbol
_atom_site_label
_atom_site_fract_x
_atom_site_fract_y
_atom_site_fract_z
Si Si1 0.456996 0.809877 0.684241
Si Si2 0.791234 0.688916 0.438890
Si Si3 0.707878 0.811108 0.316900
Si Si4 0.456530 0.309090 0.059362
Si Si5 0.045779 0.189030 0.801530
Si Si6 0.790356 0.188344 0.061044
Si Si7 0.707616 0.187412 0.802853
Si Si8 0.456136 0.808013 0.438588
O O1 0.374708 0.759501 0.679730
O O2 0.495212 0.750070 0.746854
O O3 0.502606 0.757165 0.623981
O O4 0.457806 0.000000 0.684823
O O5 0.791121 0.500000 0.439933
O O6 0.750000 0.750000 0.500000
O O7 0.751919 0.746288 0.376067
O O8 0.873833 0.742588 0.439551
O O9 0.743683 0.754489 0.252474
O O10 0.709571 0.000000 0.319261
O O11 0.461154 0.500000 0.058320
O O12 0.480366 0.259395 0.129064
O O13 0.373533 0.268386 0.053821
O O14 0.500000 0.247794 0.000000
O O15 0.126690 0.250198 0.794020
O O16 0.048265 0.000000 0.800322
O O17 0.766764 0.258690 0.127943
O O18 0.785020 0.000000 0.064594
O O19 0.750000 0.250000 0.000000
O O20 0.706885 0.000000 0.799643
O O21 0.500000 0.757195 0.500000
O O22 0.455847 0.000000 0.438732
#
# Coordination Sequence:
#
# PCOD9196264 Si02
#       8
#     8   8   8   8   8   8   8   8
#     4  10  21  37  58  83 112 147 186 233 290 346
#     4  11  22  37  60  87 116 152 192 235 286 345
#     4  11  23  39  59  85 117 150 190 243 296 345
#     4   8  16  32  53  77 105 139 180 225 275 330
#     4  10  20  35  57  83 112 146 186 235 286 340
#     4  10  20  35  56  83 114 148 188 236 289 344
#     4  11  22  38  59  81 111 153 197 239 288 346
#     4   9  18  35  58  81 106 142 186 228 276 334
#
# _framework density 18.859030000000001
#
# number of rings (size 3 to 8) (size 9 to 14) (size 15 to 20)
#    0.000    2.000    0.000    4.875    0.000    5.000 
#    0.000    1.875    0.000   15.375    0.000    0.000 
#    0.000    0.000    0.000    0.000    0.000    0.000 
#
# Total GULP energy -178724.497509 kJ/mol
# GULP energy per Si atom -5585.140547 kJ/mol
# Density = 1.881611 g / cm^3
# Si number density = 18.859030 Si / 1000 Ang^3
#
#
#
# Elastic Constant Matrix: (Units=GPa)
#
#
# Indices 1 2 3 4 5 6 
#
# 1 151.9717 34.0262 125.8819 0.0000 -0.8076 0.0000
# 2 34.0262 43.1412 36.4666 0.0000 -0.1094 0.0000
# 3 125.8819 36.4666 219.4522 0.0000 -1.0256 0.0000
# 4 0.0000 0.0000 0.0000 34.4209 0.0000 6.6652
# 5 -0.8076 -0.1094 -1.0256 0.0000 43.5326 0.0000
# 6 0.0000 0.0000 0.0000 6.6652 0.0000 19.7555
#
#
#
# Elastic Compliance Matrix: (Units=1/GPa)
#
#
# Indices 1 2 3 4 5 6 
#
# 1 0.013311 -0.004705 -0.006853 0.000000 0.000074 0.000000
# 2 -0.004705 0.028631 -0.002059 0.000000 -0.000064 0.000000
# 3 -0.006853 -0.002059 0.008830 0.000000 0.000076 0.000000
# 4 0.000000 0.000000 0.000000 0.031083 0.000000 -0.010487
# 5 0.000074 -0.000064 0.000076 0.000000 0.022974 0.000000
# 6 0.000000 0.000000 0.000000 -0.010487 0.000000 0.054157
#
#
# Mechanical properties :
#
#
# Convention : Reuss Voigt Hill
#
# Bulk Modulus (GPa) = 42.48540 89.70163 66.09351
# Shear Modulus (GPa) = 25.76440 34.08782 29.92611
#
# Velocity S-wave (km/s) = 3.70017 4.25609 3.98783
# Velocity P-wave (km/s) = 6.38997 8.47467 7.50506
#
# Compressibility (1/GPa) = 0.02353750
#
# Stress axis : x y z
#
# Youngs Moduli (GPa) = 75.12833 34.92709 113.24707
#
# Poissons Ratio (x) = 0.16435 0.77608
# Poissons Ratio (y) = 0.35351 0.23316
# Poissons Ratio (z) = 0.51485 0.07191
#
# Static dielectric constant tensor:
#      x y z
#    x 1.631810 0.000000 -0.008720 
#    y 0.000000 1.648070 0.000000 
#    z -0.008720 0.000000 1.636190 
# 
# From -- ./inp_files/313992.got.cif
#   From: 2010.05.17/outbox.cif.g08.bks.cpg/sg12_157_cif.got.tgz:313992.got - 2010.06.03 13:09:07.
