data_PCOD9196403
_publ_section_title
;
Structure prediction by ZEFSAII (Michael W. Deem and Ramdas Pophale) SiO2 
 PCOD9196403
Probable space group: C 2/M
;
_chemical_formula_sum "Si O2"
_cell_formula_units_Z 40
_cell_length_a 25.485152
_cell_length_b 9.259072
_cell_length_c 8.081569
_cell_angle_alpha 90.000000
_cell_angle_beta 93.766482
_cell_angle_gamma 90.000000
_cell_volume 1902.879614
_symmetry_space_group_name_H-M "C 2/M"
_symmetry_group_IT_number 12
_symmetry_cell_setting 'monoclinic'
loop_
_space_group_symop_operation_xyz
x,y,z
-x,y,-z
-x,-y,-z
x,-y,z
1/2+x,1/2+y,z
1/2-x,1/2+y,-z
1/2-x,1/2-y,-z
1/2+x,1/2-y,z
loop_
_atom_site_type_symbol
_atom_site_label
_atom_site_fract_x
_atom_site_fract_y
_atom_site_fract_z
Si Si1 0.296342 0.844382 0.578149
Si Si2 0.278439 0.339959 0.142949
Si Si3 0.557650 0.332001 0.092340
Si Si4 0.583893 0.826526 0.428337
Si Si5 0.885442 0.674354 0.200642
O O1 0.250000 0.750000 0.500000
O O2 0.271900 0.861985 0.751546
O O3 0.354956 0.788783 0.593676
O O4 0.298642 0.000000 0.491612
O O5 0.298036 0.500000 0.100305
O O6 0.328489 0.249213 0.219209
O O7 0.250000 0.250000 0.000000
O O8 0.575125 0.500000 0.109957
O O9 0.555335 0.258727 0.274514
O O10 0.500000 0.331332 0.000000
O O11 0.592667 0.242847 0.965729
O O12 0.579100 0.796162 0.625522
O O13 0.575949 0.000000 0.405352
O O14 0.881348 0.500000 0.184697
#
# Coordination Sequence:
#
# PCOD9196403 Si02
#       5
#     8   8   8   8   8
#     4  10  20  35  56  86 123 160 201 244 292 357
#     4  11  22  35  57  89 126 170 213 256 307 367
#     4  11  26  46  67  93 125 163 211 269 329 387
#     4  10  22  41  66  96 129 168 214 261 314 377
#     4  11  23  41  66  94 127 166 212 265 319 383
#
# _framework density 21.020772000000001
#
# number of rings (size 3 to 8) (size 9 to 14) (size 15 to 20)
#    0.000    1.400    2.000    3.000    0.000    7.200 
#    0.000    4.000    0.000    0.000    0.000    0.000 
#    0.000    0.000    0.000    0.000    0.000    0.000 
#
# Total GULP energy -111339.169570 kJ/mol
# GULP energy per Si atom -5566.958478 kJ/mol
# Density = 2.097293 g / cm^3
# Si number density = 21.020772 Si / 1000 Ang^3
#
#
#
# Elastic Constant Matrix: (Units=GPa)
#
#
# Indices 1 2 3 4 5 6 
#
# 1 39.7145 13.9094 0.9629 0.0000 5.9823 0.0000
# 2 13.9094 113.3818 65.7086 0.0000 17.3665 0.0000
# 3 0.9629 65.7086 120.1599 0.0000 20.8099 0.0000
# 4 0.0000 0.0000 0.0000 29.8714 0.0000 9.2082
# 5 5.9823 17.3665 20.8099 0.0000 40.6257 0.0000
# 6 0.0000 0.0000 0.0000 9.2082 0.0000 23.3983
#
#
#
# Elastic Compliance Matrix: (Units=1/GPa)
#
#
# Indices 1 2 3 4 5 6 
#
# 1 0.027197 -0.004425 0.002818 0.000000 -0.003557 0.000000
# 2 -0.004425 0.013795 -0.007242 0.000000 -0.001536 0.000000
# 3 0.002818 -0.007242 0.012944 0.000000 -0.003949 0.000000
# 4 0.000000 0.000000 0.000000 0.038099 0.000000 -0.014993
# 5 -0.003557 -0.001536 -0.003949 0.000000 0.027818 0.000000
# 6 0.000000 0.000000 0.000000 -0.014993 0.000000 0.048639
#
#
# Mechanical properties :
#
#
# Convention : Reuss Voigt Hill
#
# Bulk Modulus (GPa) = 27.59588 48.26865 37.93226
# Shear Modulus (GPa) = 25.21829 31.62410 28.42119
#
# Velocity S-wave (km/s) = 3.46740 3.88290 3.68102
# Velocity P-wave (km/s) = 5.40249 6.56618 6.01255
#
# Compressibility (1/GPa) = 0.03623729
#
# Stress axis : x y z
#
# Youngs Moduli (GPa) = 36.76907 72.49070 77.25596
#
# Poissons Ratio (x) = 0.32074 -0.21767
# Poissons Ratio (y) = 0.16269 0.55950
# Poissons Ratio (z) = -0.10360 0.52499
#
# Static dielectric constant tensor:
#      x y z
#    x 1.660720 0.000000 -0.154150 
#    y 0.000000 1.581100 0.000000 
#    z -0.154150 0.000000 1.864050 
# 
# From -- ./inp_files/101092.got.cif
#   From: 2010.05.17/outbox.cif.g08.bks.cpg/sg12_51_cif.got.tgz:101092.got - 2010.06.03 13:09:07.
