data_PCOD9196257
_publ_section_title
;
Structure prediction by ZEFSAII (Michael W. Deem and Ramdas Pophale) SiO2 
 PCOD9196257
Probable space group: C 2/M
;
_chemical_formula_sum "Si O2"
_cell_formula_units_Z 40
_cell_length_a 19.352148
_cell_length_b 8.556174
_cell_length_c 27.465639
_cell_angle_alpha 90.000000
_cell_angle_beta 151.338596
_cell_angle_gamma 90.000000
_cell_volume 2181.258379
_symmetry_space_group_name_H-M "C 2/M"
_symmetry_group_IT_number 12
_symmetry_cell_setting 'monoclinic'
loop_
_space_group_symop_operation_xyz
x,y,z
-x,y,-z
-x,-y,-z
x,-y,z
1/2+x,1/2+y,z
1/2-x,1/2+y,-z
1/2-x,1/2-y,-z
1/2+x,1/2-y,z
loop_
_atom_site_type_symbol
_atom_site_label
_atom_site_fract_x
_atom_site_fract_y
_atom_site_fract_z
Si Si1 0.594598 0.685870 0.314150
Si Si2 0.552156 0.812004 0.678945
Si Si3 0.823195 0.687448 0.093744
Si Si4 0.912702 0.187240 0.494356
Si Si5 0.661397 0.689696 0.092529
O O1 0.589525 0.500000 0.316005
O O2 0.544871 0.760978 0.334844
O O3 0.478763 0.741337 0.202424
O O4 0.753879 0.739842 0.398587
O O5 0.495665 0.739301 0.594319
O O6 0.715913 0.761940 0.793196
O O7 0.547335 0.000000 0.672729
O O8 0.835464 0.500000 0.099822
O O9 0.722680 0.730851 0.077500
O O10 0.750000 0.750000 0.000000
O O11 0.000000 0.235916 0.500000
O O12 0.899337 0.000000 0.485574
O O13 0.656554 0.500000 0.091874
O O14 0.500000 0.749261 0.000000
#
# Coordination Sequence:
#
# PCOD9196257 Si02
#       5
#     8   8   8   8   8
#     4  11  22  38  60  82 109 148 192 233 277 334
#     4  10  20  36  59  84 112 147 188 231 276 334
#     4  10  20  35  56  83 114 147 185 230 280 331
#     4  11  24  40  57  81 114 146 181 232 289 339
#     4   8  16  32  54  80 108 140 180 224 267 316
#
# _framework density 18.338038999999998
#
# number of rings (size 3 to 8) (size 9 to 14) (size 15 to 20)
#    0.000    2.000    0.000    5.400    0.000    3.200 
#    0.000    2.000    0.000   20.400    0.000    0.000 
#    0.000    0.000    0.000    0.000    0.000    0.000 
#
# Total GULP energy -111689.816139 kJ/mol
# GULP energy per Si atom -5584.490807 kJ/mol
# Density = 1.829630 g / cm^3
# Si number density = 18.338039 Si / 1000 Ang^3
#
#
#
# Elastic Constant Matrix: (Units=GPa)
#
#
# Indices 1 2 3 4 5 6 
#
# 1 76.8978 8.3982 88.0834 -0.0004 8.0852 -0.0001
# 2 8.3982 44.5853 17.0256 -0.0001 0.6016 -0.0002
# 3 88.0834 17.0256 166.3136 0.0005 2.8373 -0.0001
# 4 -0.0004 -0.0001 0.0005 32.2508 0.0002 -7.4215
# 5 8.0852 0.6016 2.8373 0.0002 39.6203 0.0000
# 6 -0.0001 -0.0002 -0.0001 -7.4215 0.0000 19.7294
#
#
#
# Elastic Compliance Matrix: (Units=1/GPa)
#
#
# Indices 1 2 3 4 5 6 
#
# 1 0.034315 0.000537 -0.018132 0.000001 -0.005712 0.000001
# 2 0.000537 0.023351 -0.002670 0.000000 -0.000273 0.000000
# 3 -0.018132 -0.002670 0.015845 -0.000001 0.002606 0.000000
# 4 0.000001 0.000000 -0.000001 0.033945 0.000000 0.012769
# 5 -0.005712 -0.000273 0.002606 0.000000 0.026223 0.000000
# 6 0.000001 0.000000 0.000000 0.012769 0.000000 0.055489
#
#
# Mechanical properties :
#
#
# Convention : Reuss Voigt Hill
#
# Bulk Modulus (GPa) = 30.32004 57.20123 43.76064
# Shear Modulus (GPa) = 20.77344 29.93940 25.35642
#
# Velocity S-wave (km/s) = 3.36937 4.04498 3.72253
# Velocity P-wave (km/s) = 5.63087 7.28534 6.51087
#
# Compressibility (1/GPa) = 0.03298149
#
# Stress axis : x y z
#
# Youngs Moduli (GPa) = 29.14142 42.82447 63.11288
#
# Poissons Ratio (x) = -0.02301 1.14435
# Poissons Ratio (y) = -0.01566 0.16853
# Poissons Ratio (z) = 0.52839 0.11436
#
# Static dielectric constant tensor:
#      x y z
#    x 1.606170 0.000000 0.011350 
#    y 0.000000 1.620280 0.000000 
#    z 0.011350 0.000000 1.621890 
# 
# From -- ./inp_files/342754.got.cif
#   From: 2010.05.17/outbox.cif.g08.bks.cpg/sg12_172_cif.got.tgz:342754.got - 2010.06.03 13:09:07.
