data_PCOD9196788
_publ_section_title
;
Structure prediction by ZEFSAII (Michael W. Deem and Ramdas Pophale) SiO2 
 PCOD9196788
Probable space group: C 2/M
;
_chemical_formula_sum "Si O2"
_cell_formula_units_Z 40
_cell_length_a 22.249402
_cell_length_b 8.463390
_cell_length_c 29.697816
_cell_angle_alpha 90.000000
_cell_angle_beta 160.903081
_cell_angle_gamma 90.000000
_cell_volume 1829.602790
_symmetry_space_group_name_H-M "C 2/M"
_symmetry_group_IT_number 12
_symmetry_cell_setting 'monoclinic'
loop_
_space_group_symop_operation_xyz
x,y,z
-x,y,-z
-x,-y,-z
x,-y,z
1/2+x,1/2+y,z
1/2-x,1/2+y,-z
1/2-x,1/2-y,-z
1/2+x,1/2-y,z
loop_
_atom_site_type_symbol
_atom_site_label
_atom_site_fract_x
_atom_site_fract_y
_atom_site_fract_z
Si Si1 0.530212 0.820197 0.575583
Si Si2 0.055246 0.814584 0.346469
Si Si3 0.083541 0.310006 0.171453
Si Si4 0.357426 0.813362 0.684679
Si Si5 0.161895 0.692957 0.081711
O O1 0.500000 0.821629 0.500000
O O2 0.733719 0.751739 0.724214
O O3 0.361880 0.718031 0.475011
O O4 0.515857 0.000000 0.581843
O O5 0.250000 0.750000 0.500000
O O6 0.044252 0.778948 0.285515
O O7 0.868364 0.748784 0.236359
O O8 0.058734 0.000000 0.357074
O O9 0.097462 0.500000 0.182079
O O10 0.085411 0.257758 0.224780
O O11 0.907556 0.265247 0.017583
O O12 0.391694 0.000000 0.704777
O O13 0.166246 0.500000 0.087633
O O14 0.000000 0.747320 0.000000
#
# Coordination Sequence:
#
# PCOD9196788 Si02
#       5
#     8   8   8   8   8
#     4   9  17  30  51  84 122 156 191 238 296 349
#     4  11  24  41  62  89 121 158 200 247 301 361
#     4   9  18  34  59  88 117 155 203 246 294 358
#     4  10  20  35  57  86 120 158 200 246 295 354
#     4   9  20  39  62  88 118 156 200 247 301 359
#
# _framework density 21.862667999999999
#
# number of rings (size 3 to 8) (size 9 to 14) (size 15 to 20)
#    0.000    2.400    0.000    1.800    2.800    4.000 
#    0.000    2.000    0.000    3.000    0.000    0.000 
#    0.000    0.000    0.000    0.000    0.000    0.000 
#
# Total GULP energy -111691.233160 kJ/mol
# GULP energy per Si atom -5584.561658 kJ/mol
# Density = 2.181291 g / cm^3
# Si number density = 21.862668 Si / 1000 Ang^3
#
#
#
# Elastic Constant Matrix: (Units=GPa)
#
#
# Indices 1 2 3 4 5 6 
#
# 1 85.2923 1.8884 55.9217 -0.0002 7.7559 0.0002
# 2 1.8884 20.4178 17.2679 -0.0048 -1.7103 0.0009
# 3 55.9217 17.2679 164.7997 -0.0247 11.6337 0.0028
# 4 -0.0002 -0.0048 -0.0247 14.6407 0.0031 0.7607
# 5 7.7559 -1.7103 11.6337 0.0031 28.7247 0.0006
# 6 0.0002 0.0009 0.0028 0.7607 0.0006 24.5365
#
#
#
# Elastic Compliance Matrix: (Units=1/GPa)
#
#
# Indices 1 2 3 4 5 6 
#
# 1 0.015361 0.002998 -0.005401 -0.000008 -0.001782 0.000001
# 2 0.002998 0.055227 -0.007184 0.000005 0.005389 -0.000002
# 3 -0.005401 -0.007184 0.008833 0.000013 -0.002547 -0.000001
# 4 -0.000008 0.000005 0.000013 0.068413 -0.000010 -0.002121
# 5 -0.001782 0.005389 -0.002547 -0.000010 0.036647 0.000000
# 6 0.000001 -0.000002 -0.000001 -0.002121 0.000000 0.040821
#
#
# Mechanical properties :
#
#
# Convention : Reuss Voigt Hill
#
# Bulk Modulus (GPa) = 16.59853 46.74063 31.66958
# Shear Modulus (GPa) = 18.89935 26.60918 22.75427
#
# Velocity S-wave (km/s) = 2.94336 3.49249 3.22961
# Velocity P-wave (km/s) = 4.37719 6.13913 5.33145
#
# Compressibility (1/GPa) = 0.06024631
#
# Stress axis : x y z
#
# Youngs Moduli (GPa) = 65.09961 18.10710 113.20895
#
# Poissons Ratio (x) = -0.05428 0.61142
# Poissons Ratio (y) = -0.19515 0.81333
# Poissons Ratio (z) = 0.35159 0.13009
#
# Static dielectric constant tensor:
#      x y z
#    x 1.844910 0.000000 -0.018350 
#    y 0.000000 1.754530 0.000000 
#    z -0.018350 0.000000 1.813990 
# 
# From -- ./inp_files/281887.got.cif
#   From: 2010.05.17/outbox.cif.g08.bks.cpg/sg12_141_cif.got.tgz:281887.got - 2010.06.03 13:09:07.
