data_PCOD9196022
_publ_section_title
;
Structure prediction by ZEFSAII (Michael W. Deem and Ramdas Pophale) SiO2 
 PCOD9196022
Probable space group: C 2/M
;
_chemical_formula_sum "Si O2"
_cell_formula_units_Z 48
_cell_length_a 20.812909
_cell_length_b 7.539684
_cell_length_c 26.803751
_cell_angle_alpha 90.000000
_cell_angle_beta 149.987272
_cell_angle_gamma 90.000000
_cell_volume 2103.868389
_symmetry_space_group_name_H-M "C 2/M"
_symmetry_group_IT_number 12
_symmetry_cell_setting 'monoclinic'
loop_
_space_group_symop_operation_xyz
x,y,z
-x,y,-z
-x,-y,-z
x,-y,z
1/2+x,1/2+y,z
1/2-x,1/2+y,-z
1/2-x,1/2-y,-z
1/2+x,1/2-y,z
loop_
_atom_site_type_symbol
_atom_site_label
_atom_site_fract_x
_atom_site_fract_y
_atom_site_fract_z
Si Si1 0.866425 0.206802 0.295860
Si Si2 0.622731 0.712036 0.945365
Si Si3 0.864837 0.214901 0.933252
Si Si4 0.101018 0.212348 0.389292
Si Si5 0.602619 0.718054 0.278117
Si Si6 0.358971 0.203739 0.401154
O O1 0.755784 0.223561 0.180221
O O2 0.825102 0.294869 0.319870
O O3 0.999378 0.279962 0.361832
O O4 0.884630 0.000000 0.319886
O O5 0.606679 0.500000 0.938533
O O6 0.501178 0.778252 0.832166
O O7 0.750000 0.750000 0.000000
O O8 0.637291 0.779653 0.011291
O O9 0.860170 0.000000 0.929856
O O10 0.000000 0.268794 0.000000
O O11 0.250000 0.250000 0.500000
O O12 0.070349 0.275238 0.312560
O O13 0.085087 0.000000 0.378373
O O14 0.602958 0.500000 0.278024
O O15 0.743625 0.780285 0.356108
O O16 0.500000 0.286872 0.500000
O O17 0.371629 0.000000 0.426978
#
# Coordination Sequence:
#
# PCOD9196022 Si02
#       6
#     8   8   8   8   8   8
#     4  11  23  37  56  84 117 148 178 226 288 337
#     4  10  20  35  56  80 108 141 178 224 273 322
#     4  10  21  38  60  83 108 145 192 233 269 324
#     4  10  21  37  57  81 110 145 184 225 271 325
#     4   9  18  35  57  79 105 140 181 222 265 316
#     4  10  20  36  60  84 107 143 188 228 268 324
#
# _framework density 22.815114000000001
#
# number of rings (size 3 to 8) (size 9 to 14) (size 15 to 20)
#    0.000    2.000    0.000    3.500    0.000    8.000 
#    0.000    4.167    0.000    0.000    0.000    0.000 
#    0.000    0.000    0.000    0.000    0.000    0.000 
#
# Total GULP energy -134207.815772 kJ/mol
# GULP energy per Si atom -5591.992324 kJ/mol
# Density = 2.276319 g / cm^3
# Si number density = 22.815114 Si / 1000 Ang^3
#
#
#
# Elastic Constant Matrix: (Units=GPa)
#
#
# Indices 1 2 3 4 5 6 
#
# 1 91.0417 -2.0272 -16.4585 0.0000 3.0325 0.0001
# 2 -2.0272 60.7148 -7.0662 0.0001 1.3417 0.0006
# 3 -16.4585 -7.0662 68.9989 0.0000 -0.5417 0.0000
# 4 0.0000 0.0001 0.0000 20.8539 0.0000 3.2583
# 5 3.0325 1.3417 -0.5417 0.0000 48.2077 0.0000
# 6 0.0001 0.0006 0.0000 3.2583 0.0000 5.1557
#
#
#
# Elastic Compliance Matrix: (Units=1/GPa)
#
#
# Indices 1 2 3 4 5 6 
#
# 1 0.011534 0.000729 0.002820 0.000000 -0.000714 0.000000
# 2 0.000729 0.016725 0.001883 0.000000 -0.000490 -0.000002
# 3 0.002820 0.001883 0.015358 0.000000 -0.000057 0.000000
# 4 0.000000 0.000000 0.000000 0.053207 0.000000 -0.033626
# 5 -0.000714 -0.000490 -0.000057 0.000000 0.020802 0.000000
# 6 0.000000 -0.000002 0.000000 -0.033626 0.000000 0.215213
#
#
# Mechanical properties :
#
#
# Convention : Reuss Voigt Hill
#
# Bulk Modulus (GPa) = 18.35496 18.85017 18.60257
# Shear Modulus (GPa) = 14.70012 31.26393 22.98202
#
# Velocity S-wave (km/s) = 2.54109 3.70579 3.17727
# Velocity P-wave (km/s) = 4.08314 5.15661 4.65095
#
# Compressibility (1/GPa) = 0.05448118
#
# Stress axis : x y z
#
# Youngs Moduli (GPa) = 86.70129 59.79156 65.11227
#
# Poissons Ratio (x) = -0.04359 -0.18363
# Poissons Ratio (y) = -0.06321 -0.12260
# Poissons Ratio (z) = -0.24452 -0.11258
#
# Static dielectric constant tensor:
#      x y z
#    x 1.818040 0.000000 -0.003020 
#    y 0.000000 1.884320 0.000000 
#    z -0.003020 0.000000 1.810660 
# 
# From -- ./inp_files/365366.got.cif
#   From: 2010.05.17/outbox.cif.g08.bks.cpg/sg12_183_cif.got.tgz:365366.got - 2010.06.03 13:09:07.
