data_PCOD9196366
_publ_section_title
;
Structure prediction by ZEFSAII (Michael W. Deem and Ramdas Pophale) SiO2 
 PCOD9196366
Probable space group: C 2/M
;
_chemical_formula_sum "Si O2"
_cell_formula_units_Z 56
_cell_length_a 17.991730
_cell_length_b 15.189601
_cell_length_c 22.872272
_cell_angle_alpha 90.000000
_cell_angle_beta 150.041071
_cell_angle_gamma 90.000000
_cell_volume 3121.468425
_symmetry_space_group_name_H-M "C 2/M"
_symmetry_group_IT_number 12
_symmetry_cell_setting 'monoclinic'
loop_
_space_group_symop_operation_xyz
x,y,z
-x,y,-z
-x,-y,-z
x,-y,z
1/2+x,1/2+y,z
1/2-x,1/2+y,-z
1/2-x,1/2-y,-z
1/2+x,1/2-y,z
loop_
_atom_site_type_symbol
_atom_site_label
_atom_site_fract_x
_atom_site_fract_y
_atom_site_fract_z
Si Si1 0.860495 0.778907 0.361206
Si Si2 0.090093 0.787236 0.738503
Si Si3 0.521223 0.101898 0.309063
Si Si4 0.321361 0.095687 0.372237
Si Si5 0.878899 0.395784 0.969169
Si Si6 0.689683 0.398096 0.412255
Si Si7 0.907770 0.397877 0.779427
O O1 0.912228 0.805076 0.332307
O O2 0.793917 0.680110 0.314110
O O3 0.733566 0.840975 0.299618
O O4 0.000000 0.779408 0.500000
O O5 0.236319 0.834900 0.862618
O O6 0.084734 0.682175 0.744881
O O7 0.943301 0.831092 0.666395
O O8 0.673883 0.114735 0.449784
O O9 0.551626 0.111596 0.260751
O O10 0.472795 0.000000 0.287229
O O11 0.500000 0.090423 0.500000
O O12 0.253987 0.111902 0.390634
O O13 0.268812 0.000000 0.315193
O O14 0.838477 0.500000 0.939755
O O15 0.000000 0.381376 0.000000
O O16 0.958044 0.376648 0.084892
O O17 0.638914 0.500000 0.384054
O O18 0.870851 0.500000 0.764833
#
# Coordination Sequence:
#
# PCOD9196366 Si02
#       7
#     8   8   8   8   8   8   8
#     4  11  21  32  53  84 112 142 182 224 272 328
#     4  12  22  34  59  85 111 146 187 232 272 321
#     4  10  21  36  54  81 117 149 175 218 283 338
#     4   9  18  34  54  76 109 151 185 215 260 322
#     4  10  21  40  60  79 106 143 189 233 277 327
#     4  10  20  35  56  85 117 145 181 228 276 325
#     4  10  21  38  57  77 108 146 181 223 276 334
#
# _framework density 17.940273999999999
#
# number of rings (size 3 to 8) (size 9 to 14) (size 15 to 20)
#    0.000    1.714    1.429    4.286    0.000    3.143 
#    0.000    0.000    0.000    1.286    0.000    0.000 
#    0.000    0.000    0.000    0.000    0.000    0.000 
#
# Total GULP energy -156278.267520 kJ/mol
# GULP energy per Si atom -5581.366697 kJ/mol
# Density = 1.789944 g / cm^3
# Si number density = 17.940274 Si / 1000 Ang^3
#
#
#
# Elastic Constant Matrix: (Units=GPa)
#
#
# Indices 1 2 3 4 5 6 
#
# 1 38.5937 24.4786 29.5877 0.0004 1.3230 0.0000
# 2 24.4786 87.9169 57.8816 -0.0005 17.0130 -0.0003
# 3 29.5877 57.8816 63.8793 0.0002 16.2278 -0.0005
# 4 0.0004 -0.0005 0.0002 47.1126 0.0001 1.4354
# 5 1.3230 17.0130 16.2278 0.0001 10.8189 0.0000
# 6 0.0000 -0.0003 -0.0005 1.4354 0.0000 29.0176
#
#
#
# Elastic Compliance Matrix: (Units=1/GPa)
#
#
# Indices 1 2 3 4 5 6 
#
# 1 0.052192 0.000295 -0.036678 0.000000 0.048170 -0.000001
# 2 0.000295 0.028842 -0.023813 0.000000 -0.009672 0.000000
# 3 -0.036678 -0.023813 0.070390 0.000000 -0.063649 0.000001
# 4 0.000000 0.000000 0.000000 0.021258 0.000000 -0.001052
# 5 0.048170 -0.009672 -0.063649 0.000000 0.197220 -0.000001
# 6 -0.000001 0.000000 0.000001 -0.001052 -0.000001 0.034514
#
#
# Mechanical properties :
#
#
# Convention : Reuss Voigt Hill
#
# Bulk Modulus (GPa) = 32.22702 46.03174 39.12938
# Shear Modulus (GPa) = 9.34313 22.61928 15.98121
#
# Velocity S-wave (km/s) = 2.28456 3.55464 2.98787
# Velocity P-wave (km/s) = 4.99614 6.52390 5.81046
#
# Compressibility (1/GPa) = 0.03102986
#
# Stress axis : x y z
#
# Youngs Moduli (GPa) = 19.16004 34.67168 14.20657
#
# Poissons Ratio (x) = -0.01021 0.52107
# Poissons Ratio (y) = -0.00564 0.33831
# Poissons Ratio (z) = 0.70276 0.82565
#
# Static dielectric constant tensor:
#      x y z
#    x 1.599450 0.000000 -0.015320 
#    y 0.000000 1.654450 0.000000 
#    z -0.015320 0.000000 1.583630 
# 
# From -- ./inp_files/316725.got.cif
#   From: 2010.05.17/outbox.cif.g08.bks.cpg/sg12_159_cif.got.tgz:316725.got - 2010.06.03 13:09:07.
