data_PCOD9196474
_publ_section_title
;
Structure prediction by ZEFSAII (Michael W. Deem and Ramdas Pophale) SiO2 
 PCOD9196474
Probable space group: C 2/M
;
_chemical_formula_sum "Si O2"
_cell_formula_units_Z 56
_cell_length_a 9.268135
_cell_length_b 10.535976
_cell_length_c 35.754210
_cell_angle_alpha 90.000000
_cell_angle_beta 124.639434
_cell_angle_gamma 90.000000
_cell_volume 2872.498090
_symmetry_space_group_name_H-M "C 2/M"
_symmetry_group_IT_number 12
_symmetry_cell_setting 'monoclinic'
loop_
_space_group_symop_operation_xyz
x,y,z
-x,y,-z
-x,-y,-z
x,-y,z
1/2+x,1/2+y,z
1/2-x,1/2+y,-z
1/2-x,1/2-y,-z
1/2+x,1/2-y,z
loop_
_atom_site_type_symbol
_atom_site_label
_atom_site_fract_x
_atom_site_fract_y
_atom_site_fract_z
Si Si1 0.815094 0.000000 0.451821
Si Si2 0.308069 0.259647 0.396008
Si Si3 0.025763 0.500000 0.548084
Si Si4 0.554875 0.347143 0.661192
Si Si5 0.895728 0.644920 0.755671
Si Si6 0.280575 0.750865 0.815012
Si Si7 0.845024 0.144885 0.125552
Si Si8 0.708679 0.852368 0.025682
O O1 0.798084 0.873829 0.424104
O O2 0.000000 0.000000 0.500000
O O3 0.661266 0.000000 0.459307
O O4 0.377018 0.128864 0.424435
O O5 0.426069 0.309968 0.379441
O O6 0.118238 0.224960 0.351187
O O7 0.000000 0.500000 0.500000
O O8 0.537764 0.500000 0.662782
O O9 0.728528 0.302908 0.708645
O O10 0.914339 0.500000 0.746934
O O11 0.844570 0.652983 0.792127
O O12 0.083823 0.707355 0.775924
O O13 0.253843 0.794304 0.853801
O O14 0.444581 0.654459 0.838468
O O15 0.793523 0.195090 0.077194
O O16 0.789071 0.000000 0.117021
O O17 0.766798 0.000000 0.026701
O O18 0.500000 0.856673 0.000000
O O19 0.750000 0.750000 0.000000
#
# Coordination Sequence:
#
# PCOD9196474 Si02
#       8
#     4   8   4   8   8   8   8   8
#     4  12  28  44  68  96 126 162 204 246 300 352
#     4  12  24  44  66  94 126 160 203 244 297 357
#     4  12  28  44  68  96 126 160 204 250 296 352
#     4  11  23  40  65  91 123 162 197 248 297 352
#     4  10  21  37  58  87 118 151 193 241 296 353
#     4  10  20  36  57  84 114 151 197 240 295 360
#     4  10  20  35  57  81 114 154 194 248 302 350
#     4  10  21  37  56  83 118 156 203 251 302 360
#
# _framework density 19.495227
#
# number of rings (size 3 to 8) (size 9 to 14) (size 15 to 20)
#    0.000    1.286    2.857    3.000    2.000    1.429 
#    0.000    3.571    3.143    0.000    0.000    0.000 
#    0.000    0.000    0.000    0.000    0.000    0.000 
#
# Total GULP energy -156179.732846 kJ/mol
# GULP energy per Si atom -5577.847602 kJ/mol
# Density = 1.945085 g / cm^3
# Si number density = 19.495227 Si / 1000 Ang^3
#
#
#
# Elastic Constant Matrix: (Units=GPa)
#
#
# Indices 1 2 3 4 5 6 
#
# 1 87.5419 14.4829 3.8798 0.0000 -0.9870 0.0000
# 2 14.4829 67.5083 14.2511 0.0000 -4.4731 0.0000
# 3 3.8798 14.2511 73.4682 0.0000 2.2611 0.0000
# 4 0.0000 0.0000 0.0000 21.5383 0.0000 3.9488
# 5 -0.9870 -4.4731 2.2611 0.0000 43.8656 0.0000
# 6 0.0000 0.0000 0.0000 3.9488 0.0000 15.4019
#
#
#
# Elastic Compliance Matrix: (Units=1/GPa)
#
#
# Indices 1 2 3 4 5 6 
#
# 1 0.011845 -0.002511 -0.000139 0.000000 0.000018 0.000000
# 2 -0.002511 0.016110 -0.003046 0.000000 0.001743 0.000000
# 3 -0.000139 -0.003046 0.014242 0.000000 -0.001048 0.000000
# 4 0.000000 0.000000 0.000000 0.048719 0.000000 -0.012491
# 5 0.000018 0.001743 -0.001048 0.000000 0.023029 0.000000
# 6 0.000000 0.000000 0.000000 -0.012491 0.000000 0.068130
#
#
# Mechanical properties :
#
#
# Convention : Reuss Voigt Hill
#
# Bulk Modulus (GPa) = 32.46193 32.63843 32.55018
# Shear Modulus (GPa) = 24.54178 29.22146 26.88162
#
# Velocity S-wave (km/s) = 3.55189 3.87577 3.71736
# Velocity P-wave (km/s) = 5.78866 6.06687 5.92940
#
# Compressibility (1/GPa) = 0.03080531
#
# Stress axis : x y z
#
# Youngs Moduli (GPa) = 84.42511 62.07271 70.21590
#
# Poissons Ratio (x) = 0.15584 0.00976
# Poissons Ratio (y) = 0.21196 0.21388
# Poissons Ratio (z) = 0.01174 0.18908
#
# Static dielectric constant tensor:
#      x y z
#    x 1.676670 0.000000 0.003550 
#    y 0.000000 1.673200 0.000000 
#    z 0.003550 0.000000 1.721370 
# 
# From -- ./inp_files/372227.got.cif
#   From: 2010.05.17/outbox.cif.g08.bks.cpg/sg12_187_cif.got.tgz:372227.got - 2010.06.03 13:09:07.
