data_PCOD9196717
_publ_section_title
;
Structure prediction by ZEFSAII (Michael W. Deem and Ramdas Pophale) SiO2 
 PCOD9196717
Probable space group: C 2/M
;
_chemical_formula_sum "Si O2"
_cell_formula_units_Z 64
_cell_length_a 16.088736
_cell_length_b 8.530736
_cell_length_c 24.680276
_cell_angle_alpha 90.000000
_cell_angle_beta 99.276465
_cell_angle_gamma 90.000000
_cell_volume 3343.037713
_symmetry_space_group_name_H-M "C 2/M"
_symmetry_group_IT_number 12
_symmetry_cell_setting 'monoclinic'
loop_
_space_group_symop_operation_xyz
x,y,z
-x,y,-z
-x,-y,-z
x,-y,z
1/2+x,1/2+y,z
1/2-x,1/2+y,-z
1/2-x,1/2-y,-z
1/2+x,1/2-y,z
loop_
_atom_site_type_symbol
_atom_site_label
_atom_site_fract_x
_atom_site_fract_y
_atom_site_fract_z
Si Si1 0.169999 0.191693 0.825626
Si Si2 0.392523 0.689496 0.433828
Si Si3 0.418338 0.690704 0.561049
Si Si4 0.686857 0.812536 0.243455
Si Si5 0.947335 0.811863 0.941681
Si Si6 0.780042 0.812255 0.633350
Si Si7 0.013859 0.811827 0.176145
Si Si8 0.236119 0.314271 0.058402
O O1 0.237858 0.243034 0.788322
O O2 0.201007 0.244550 0.888280
O O3 0.073806 0.240410 0.806283
O O4 0.170565 0.000000 0.826048
O O5 0.389266 0.500000 0.431300
O O6 0.391804 0.736340 0.497265
O O7 0.484211 0.738793 0.420541
O O8 0.311834 0.755546 0.394965
O O9 0.418445 0.500000 0.561876
O O10 0.351460 0.745392 0.598445
O O11 0.699164 0.745641 0.304498
O O12 0.597245 0.763187 0.209433
O O13 0.691106 0.000000 0.246074
O O14 0.990872 0.779397 0.888810
O O15 0.857380 0.729827 0.932890
O O16 0.934883 0.000000 0.944147
O O17 0.000000 0.763192 0.000000
O O18 0.781470 0.000000 0.632608
O O19 0.021230 0.000000 0.183053
O O20 0.246089 0.500000 0.056780
O O21 0.250000 0.250000 0.000000
#
# Coordination Sequence:
#
# PCOD9196717 Si02
#       8
#     8   8   8   8   8   8   8   8
#     4   9  20  39  61  80 108 148 186 227 283 343
#     4   9  17  35  60  85 112 152 196 234 277 336
#     4   8  17  34  58  84 116 153 191 231 282 345
#     4  11  23  41  59  80 111 151 196 241 282 334
#     4  10  20  35  57  85 117 147 181 226 285 350
#     4  11  22  36  55  84 117 150 189 237 290 339
#     4  10  20  38  62  83 107 144 187 231 284 340
#     4  11  21  36  57  84 116 148 186 231 281 342
#
# _framework density 19.144265000000001
#
# number of rings (size 3 to 8) (size 9 to 14) (size 15 to 20)
#    0.000    2.125    1.250    3.000    0.000    3.250 
#    0.000   11.875    0.000    0.000    0.000    0.000 
#    0.000    0.000    0.000    0.000    0.000    0.000 
#
# Total GULP energy -178648.042689 kJ/mol
# GULP energy per Si atom -5582.751334 kJ/mol
# Density = 1.910069 g / cm^3
# Si number density = 19.144265 Si / 1000 Ang^3
#
#
#
# Elastic Constant Matrix: (Units=GPa)
#
#
# Indices 1 2 3 4 5 6 
#
# 1 139.8019 30.1642 71.1132 0.0000 7.4729 0.0000
# 2 30.1642 18.8051 25.8946 0.0000 3.9839 0.0000
# 3 71.1132 25.8946 111.1181 0.0000 14.3388 0.0000
# 4 0.0000 0.0000 0.0000 25.6317 0.0000 5.0068
# 5 7.4729 3.9839 14.3388 0.0000 16.0791 0.0000
# 6 0.0000 0.0000 0.0000 5.0068 0.0000 28.9301
#
#
#
# Elastic Compliance Matrix: (Units=1/GPa)
#
#
# Indices 1 2 3 4 5 6 
#
# 1 0.012591 -0.013507 -0.005183 0.000000 0.002117 0.000000
# 2 -0.013507 0.092973 -0.012271 0.000000 -0.005815 0.000000
# 3 -0.005183 -0.012271 0.016355 0.000000 -0.009136 0.000000
# 4 0.000000 0.000000 0.000000 0.040379 0.000000 -0.006988
# 5 0.002117 -0.005815 -0.009136 0.000000 0.070796 0.000000
# 6 0.000000 0.000000 0.000000 -0.006988 0.000000 0.035776
#
#
# Mechanical properties :
#
#
# Convention : Reuss Voigt Hill
#
# Bulk Modulus (GPa) = 16.66801 58.22991 37.44896
# Shear Modulus (GPa) = 14.25342 23.63171 18.94257
#
# Velocity S-wave (km/s) = 2.73156 3.51722 3.14899
# Velocity P-wave (km/s) = 4.32134 6.85396 5.72935
#
# Compressibility (1/GPa) = 0.05999518
#
# Stress axis : x y z
#
# Youngs Moduli (GPa) = 79.42282 10.75577 61.14247
#
# Poissons Ratio (x) = 0.14528 0.31693
# Poissons Ratio (y) = 1.07279 0.75030
# Poissons Ratio (z) = 0.41168 0.13199
#
# Static dielectric constant tensor:
#      x y z
#    x 1.664350 0.000000 -0.025250 
#    y 0.000000 1.647160 0.000000 
#    z -0.025250 0.000000 1.714600 
# 
# From -- ./inp_files/338828.got.cif
#   From: 2010.05.17/outbox.cif.g08.bks.cpg/sg12_170_cif.got.tgz:338828.got - 2010.06.03 13:09:07.
