data_PCOD9196005
_publ_section_title
;
Structure prediction by ZEFSAII (Michael W. Deem and Ramdas Pophale) SiO2 
 PCOD9196005
Probable space group: C 2/M
;
_chemical_formula_sum "Si O2"
_cell_formula_units_Z 56
_cell_length_a 24.787521
_cell_length_b 7.734623
_cell_length_c 13.639480
_cell_angle_alpha 90.000000
_cell_angle_beta 103.947273
_cell_angle_gamma 90.000000
_cell_volume 2537.894878
_symmetry_space_group_name_H-M "C 2/M"
_symmetry_group_IT_number 12
_symmetry_cell_setting 'monoclinic'
loop_
_space_group_symop_operation_xyz
x,y,z
-x,y,-z
-x,-y,-z
x,-y,z
1/2+x,1/2+y,z
1/2-x,1/2+y,-z
1/2-x,1/2-y,-z
1/2+x,1/2-y,z
loop_
_atom_site_type_symbol
_atom_site_label
_atom_site_fract_x
_atom_site_fract_y
_atom_site_fract_z
Si Si1 0.140811 0.790707 0.132265
Si Si2 0.741082 0.794514 0.882804
Si Si3 0.047004 0.703892 0.944294
Si Si4 0.354821 0.294145 0.300788
Si Si5 0.470858 0.299990 0.283897
Si Si6 0.406070 0.712303 0.678860
Si Si7 0.689161 0.292179 0.512550
O O1 0.204405 0.730180 0.151883
O O2 0.110756 0.732740 0.218720
O O3 0.140872 0.000000 0.132157
O O4 0.105607 0.731331 0.023263
O O5 0.684309 0.729938 0.810364
O O6 0.739859 0.000000 0.873450
O O7 0.750000 0.750000 0.000000
O O8 0.038071 0.500000 0.923849
O O9 0.041714 0.794352 0.837827
O O10 0.000000 0.766879 0.000000
O O11 0.361218 0.500000 0.315980
O O12 0.416736 0.221263 0.312034
O O13 0.323931 0.225833 0.383973
O O14 0.474773 0.500000 0.317345
O O15 0.532514 0.225175 0.323195
O O16 0.407318 0.500000 0.680596
O O17 0.358597 0.767989 0.582878
O O18 0.685748 0.500000 0.513412
O O19 0.750000 0.250000 0.500000
#
# Coordination Sequence:
#
# PCOD9196005 Si02
#       7
#     8   8   8   8   8   8   8
#     4  10  20  35  56  80 106 145 193 233 273 331
#     4  11  23  38  58  83 114 151 192 234 281 338
#     4  11  22  34  51  81 117 149 182 227 283 336
#     4  10  22  38  58  86 117 149 188 235 286 338
#     4  10  20  36  58  82 111 150 191 229 277 339
#     4   9  18  34  58  83 107 140 186 233 276 327
#     4  10  21  39  61  86 115 146 187 237 286 337
#
# _framework density 22.065529999999999
#
# number of rings (size 3 to 8) (size 9 to 14) (size 15 to 20)
#    0.000    1.857    1.429    2.571    0.000    8.000 
#    0.000    4.286    0.000    0.000    0.000    3.000 
#    0.000    0.000    0.000    0.000    0.000    0.000 
#
# Total GULP energy -156506.662904 kJ/mol
# GULP energy per Si atom -5589.523675 kJ/mol
# Density = 2.201531 g / cm^3
# Si number density = 22.065530 Si / 1000 Ang^3
#
#
#
# Elastic Constant Matrix: (Units=GPa)
#
#
# Indices 1 2 3 4 5 6 
#
# 1 209.4309 7.6767 67.9522 0.0000 8.9189 0.0000
# 2 7.6767 36.5821 -6.0990 0.0000 -1.8347 0.0000
# 3 67.9522 -6.0990 108.2027 0.0000 12.9138 0.0000
# 4 0.0000 0.0000 0.0000 6.3435 0.0000 1.2823
# 5 8.9189 -1.8347 12.9138 0.0000 38.7957 0.0000
# 6 0.0000 0.0000 0.0000 1.2823 0.0000 19.9754
#
#
#
# Elastic Compliance Matrix: (Units=1/GPa)
#
#
# Indices 1 2 3 4 5 6 
#
# 1 0.006132 -0.001953 -0.003939 0.000000 -0.000191 0.000000
# 2 -0.001953 0.028242 0.002713 0.000000 0.000881 0.000000
# 3 -0.003939 0.002713 0.012231 0.000000 -0.003037 0.000000
# 4 0.000000 0.000000 0.000000 0.159713 0.000000 -0.010252
# 5 -0.000191 0.000881 -0.003037 0.000000 0.026873 0.000000
# 6 0.000000 0.000000 0.000000 -0.010252 0.000000 0.050720
#
#
# Mechanical properties :
#
#
# Convention : Reuss Voigt Hill
#
# Bulk Modulus (GPa) = 24.84550 54.80839 39.82694
# Shear Modulus (GPa) = 16.46450 32.00199 24.23324
#
# Velocity S-wave (km/s) = 2.73456 3.81243 3.31757
# Velocity P-wave (km/s) = 4.61029 6.65375 5.72395
#
# Compressibility (1/GPa) = 0.04024874
#
# Stress axis : x y z
#
# Youngs Moduli (GPa) = 163.06639 35.40804 81.76092
#
# Poissons Ratio (x) = 0.06916 0.32202
# Poissons Ratio (y) = 0.31849 -0.22184
# Poissons Ratio (z) = 0.64224 -0.09607
#
# Static dielectric constant tensor:
#      x y z
#    x 1.826910 0.000000 -0.015180 
#    y 0.000000 1.837280 0.000000 
#    z -0.015180 0.000000 1.750660 
# 
# From -- ./inp_files/237814.got.cif
#   From: 2010.05.17/outbox.cif.g08.bks.cpg/sg12_119_cif.got.tgz:237814.got - 2010.06.03 13:09:07.
