data_PCOD9196805
_publ_section_title
;
Structure prediction by ZEFSAII (Michael W. Deem and Ramdas Pophale) SiO2 
 PCOD9196805
Probable space group: C 2/M
;
_chemical_formula_sum "Si O2"
_cell_formula_units_Z 64
_cell_length_a 20.535249
_cell_length_b 21.935500
_cell_length_c 11.653859
_cell_angle_alpha 90.000000
_cell_angle_beta 140.092733
_cell_angle_gamma 90.000000
_cell_volume 3367.795410
_symmetry_space_group_name_H-M "C 2/M"
_symmetry_group_IT_number 12
_symmetry_cell_setting 'monoclinic'
loop_
_space_group_symop_operation_xyz
x,y,z
-x,y,-z
-x,-y,-z
x,-y,z
1/2+x,1/2+y,z
1/2-x,1/2+y,-z
1/2-x,1/2-y,-z
1/2+x,1/2-y,z
loop_
_atom_site_type_symbol
_atom_site_label
_atom_site_fract_x
_atom_site_fract_y
_atom_site_fract_z
Si Si1 0.896421 0.294323 0.136334
Si Si2 0.396005 0.785123 0.499960
Si Si3 0.735110 0.318776 0.093104
Si Si4 0.200542 0.068272 0.749014
Si Si5 0.276710 0.821680 0.544834
Si Si6 0.399355 0.125940 0.924276
Si Si7 0.089776 0.856488 0.408481
Si Si8 0.380749 0.429165 0.099399
O O1 0.795734 0.322996 0.055320
O O2 0.986374 0.303379 0.349331
O O3 0.859921 0.225973 0.057269
O O4 0.929009 0.326210 0.063043
O O5 0.314991 0.787749 0.287958
O O6 0.345555 0.829418 0.526616
O O7 0.412815 0.715806 0.567861
O O8 0.695187 0.385127 0.073835
O O9 0.318317 0.081743 0.876985
O O10 0.136140 0.114714 0.586316
O O11 0.164641 0.071369 0.832110
O O12 0.176723 0.000000 0.676313
O O13 0.250000 0.750000 0.500000
O O14 0.338968 0.837806 0.743275
O O15 0.172831 0.859476 0.418289
O O16 0.500000 0.099229 0.000000
O O17 0.988030 0.893611 0.245079
O O18 0.388626 0.500000 0.074967
#
# Coordination Sequence:
#
# PCOD9196805 Si02
#       8
#     8   8   8   8   8   8   8   8
#     4  11  21  36  58  90 118 151 194 244 307 349
#     4  11  21  36  59  88 123 158 191 242 304 359
#     4  11  23  36  57  89 122 156 195 248 293 357
#     4  10  21  36  56  82 114 151 194 246 300 352
#     4   9  19  34  52  82 118 150 188 231 295 358
#     4  11  20  35  59  83 119 148 188 245 296 358
#     4  10  20  35  57  87 114 152 194 249 303 358
#     4  11  22  38  59  83 121 162 202 246 295 359
#
# _framework density 19.003529
#
# number of rings (size 3 to 8) (size 9 to 14) (size 15 to 20)
#    0.000    1.500    3.750    3.375    1.750    2.250 
#    0.000    0.625    0.000    6.750    0.000    0.000 
#    0.000    0.000    0.000    0.000    0.000    0.000 
#
# Total GULP energy -178169.916773 kJ/mol
# GULP energy per Si atom -5567.809899 kJ/mol
# Density = 1.896028 g / cm^3
# Si number density = 19.003529 Si / 1000 Ang^3
#
#
#
# Elastic Constant Matrix: (Units=GPa)
#
#
# Indices 1 2 3 4 5 6 
#
# 1 74.8474 18.4639 25.1586 0.0000 15.3174 0.0000
# 2 18.4639 76.1032 25.3215 0.0000 13.5746 0.0000
# 3 25.1586 25.3215 76.7002 0.0000 13.9291 0.0000
# 4 0.0000 0.0000 0.0000 15.8319 0.0000 -1.3026
# 5 15.3174 13.5746 13.9291 0.0000 25.9586 0.0000
# 6 0.0000 0.0000 0.0000 -1.3026 0.0000 20.5086
#
#
#
# Elastic Compliance Matrix: (Units=1/GPa)
#
#
# Indices 1 2 3 4 5 6 
#
# 1 0.016367 -0.001537 -0.003605 0.000000 -0.006920 0.000000
# 2 -0.001537 0.015695 -0.003713 0.000000 -0.005308 0.000000
# 3 -0.003605 -0.003713 0.016295 0.000000 -0.004675 0.000000
# 4 0.000000 0.000000 0.000000 0.063495 0.000000 0.004033
# 5 -0.006920 -0.005308 -0.004675 0.000000 0.047890 0.000000
# 6 0.000000 0.000000 0.000000 0.004033 0.000000 0.049016
#
#
# Mechanical properties :
#
#
# Convention : Reuss Voigt Hill
#
# Bulk Modulus (GPa) = 32.62933 40.61541 36.62237
# Shear Modulus (GPa) = 21.12504 23.04029 22.08267
#
# Velocity S-wave (km/s) = 3.33774 3.48576 3.41255
# Velocity P-wave (km/s) = 5.66228 6.13349 5.90259
#
# Compressibility (1/GPa) = 0.03064727
#
# Stress axis : x y z
#
# Youngs Moduli (GPa) = 61.09671 63.71308 61.36844
#
# Poissons Ratio (x) = 0.09795 0.22120
# Poissons Ratio (y) = 0.09393 0.22788
# Poissons Ratio (z) = 0.22022 0.23659
#
# Static dielectric constant tensor:
#      x y z
#    x 1.715000 0.000000 0.027830 
#    y 0.000000 1.663300 0.000000 
#    z 0.027830 0.000000 1.705770 
# 
# From -- ./inp_files/169701.got.cif
#   From: 2010.05.17/outbox.cif.g08.bks.cpg/sg12_85_cif.got.tgz:169701.got - 2010.06.03 13:09:07.
