data_PCOD9196370
_publ_section_title
;
Structure prediction by ZEFSAII (Michael W. Deem and Ramdas Pophale) SiO2 
 PCOD9196370
Probable space group: C 2/M
;
_chemical_formula_sum "Si O2"
_cell_formula_units_Z 56
_cell_length_a 10.835964
_cell_length_b 14.524846
_cell_length_c 16.458108
_cell_angle_alpha 90.000000
_cell_angle_beta 85.375791
_cell_angle_gamma 90.000000
_cell_volume 2581.921426
_symmetry_space_group_name_H-M "C 2/M"
_symmetry_group_IT_number 12
_symmetry_cell_setting 'monoclinic'
loop_
_space_group_symop_operation_xyz
x,y,z
-x,y,-z
-x,-y,-z
x,-y,z
1/2+x,1/2+y,z
1/2-x,1/2+y,-z
1/2-x,1/2-y,-z
1/2+x,1/2-y,z
loop_
_atom_site_type_symbol
_atom_site_label
_atom_site_fract_x
_atom_site_fract_y
_atom_site_fract_z
Si Si1 0.783729 0.608183 0.795276
Si Si2 0.470017 0.314419 0.619156
Si Si3 0.412682 0.897080 0.613480
Si Si4 0.004703 0.891538 0.789612
Si Si5 0.621239 0.635365 0.038244
Si Si6 0.380358 0.852638 0.959341
Si Si7 0.206229 0.854210 0.506261
O O1 0.516560 0.500000 0.767578
O O2 0.834361 0.618244 0.701030
O O3 0.641989 0.643297 0.809302
O O4 0.873483 0.643313 0.861696
O O5 0.478307 0.203489 0.601775
O O6 0.464437 0.334070 0.713930
O O7 0.592943 0.359973 0.575388
O O8 0.356148 0.364530 0.578623
O O9 0.322068 0.903905 0.540438
O O10 0.275973 0.000000 0.811145
O O11 0.905789 0.881853 0.866281
O O12 0.473201 0.000000 0.618024
O O13 0.753342 0.603304 0.998900
O O14 0.500000 0.597403 0.000000
O O15 0.622280 0.744302 0.021330
O O16 0.500000 0.890310 0.000000
O O17 0.250000 0.750000 0.500000
#
# Coordination Sequence:
#
# PCOD9196370 Si02
#       7
#     8   8   8   8   8   8   8
#     4  10  20  35  56  85 117 155 202 248 304 370
#     4  10  20  37  59  88 122 156 200 257 309 365
#     4  10  20  37  61  90 121 160 203 247 307 380
#     4  11  22  36  59  89 119 160 210 257 310 369
#     4  10  20  37  58  84 116 153 206 257 305 368
#     4  10  21  37  58  84 115 160 205 251 313 373
#     4   9  19  36  58  85 118 159 200 243 304 368
#
# _framework density 21.689274000000001
#
# number of rings (size 3 to 8) (size 9 to 14) (size 15 to 20)
#    0.000    2.000    2.857    0.857    0.000    1.714 
#    0.000    7.143    0.000    4.286    0.000    0.000 
#    0.000    0.000    0.000    0.000    0.000    0.000 
#
# Total GULP energy -156079.476738 kJ/mol
# GULP energy per Si atom -5574.267026 kJ/mol
# Density = 2.163991 g / cm^3
# Si number density = 21.689274 Si / 1000 Ang^3
#
#
#
# Elastic Constant Matrix: (Units=GPa)
#
#
# Indices 1 2 3 4 5 6 
#
# 1 68.2898 16.3287 42.0488 0.0000 20.7503 0.0000
# 2 16.3287 86.4893 7.5394 0.0000 6.2426 0.0000
# 3 42.0488 7.5394 123.3260 0.0000 18.6380 0.0000
# 4 0.0000 0.0000 0.0000 -291.6764 0.0000 134.6370
# 5 20.7503 6.2426 18.6380 0.0000 31.3532 0.0000
# 6 0.0000 0.0000 0.0000 134.6370 0.0000 -55.6854
#
#
#
# Elastic Compliance Matrix: (Units=1/GPa)
#
#
# Indices 1 2 3 4 5 6 
#
# 1 0.022113 -0.002906 -0.005755 0.000000 -0.010636 0.000000
# 2 -0.002906 0.012130 0.000355 0.000000 -0.000704 0.000000
# 3 -0.005755 0.000355 0.010420 0.000000 -0.002456 0.000000
# 4 0.000000 0.000000 0.000000 0.029541 0.000000 0.071426
# 5 -0.010636 -0.000704 -0.002456 0.000000 0.040534 0.000000
# 6 0.000000 0.000000 0.000000 0.071426 0.000000 0.154736
#
#
# Mechanical properties :
#
#
# Convention : Reuss Voigt Hill
#
# Bulk Modulus (GPa) = 35.64510 45.54877 40.59694
# Shear Modulus (GPa) = 16.92411 -49.05585 -16.06587
#
# Velocity S-wave (km/s) = 2.79641 -4.76095 -2.72459
# Velocity P-wave (km/s) = 5.18620 3.02920 2.97663
#
# Compressibility (1/GPa) = 0.02805434
#
# Stress axis : x y z
#
# Youngs Moduli (GPa) = 45.22149 82.43694 95.96740
#
# Poissons Ratio (x) = 0.23953 0.55226
# Poissons Ratio (y) = 0.13139 -0.03411
# Poissons Ratio (z) = 0.26024 -0.02930
#
# Static dielectric constant tensor:
#      x y z
#    x 1.845290 0.000000 0.006960 
#    y 0.000000 1.838240 0.000000 
#    z 0.006960 0.000000 1.826490 
# 
# From -- ./inp_files/205028.got.cif
#   From: 2010.05.17/outbox.cif.g08.bks.cpg/sg12_103_cif.got.tgz:205028.got - 2010.06.03 13:09:07.
