data_PCOD9196087
_publ_section_title
;
Structure prediction by ZEFSAII (Michael W. Deem and Ramdas Pophale) SiO2 
 PCOD9196087
Probable space group: C 2/M
;
_chemical_formula_sum "Si O2"
_cell_formula_units_Z 56
_cell_length_a 16.684147
_cell_length_b 7.567142
_cell_length_c 22.863343
_cell_angle_alpha 90.000000
_cell_angle_beta 131.501810
_cell_angle_gamma 90.000000
_cell_volume 2161.820482
_symmetry_space_group_name_H-M "C 2/M"
_symmetry_group_IT_number 12
_symmetry_cell_setting 'monoclinic'
loop_
_space_group_symop_operation_xyz
x,y,z
-x,y,-z
-x,-y,-z
x,-y,z
1/2+x,1/2+y,z
1/2-x,1/2+y,-z
1/2-x,1/2-y,-z
1/2+x,1/2-y,z
loop_
_atom_site_type_symbol
_atom_site_label
_atom_site_fract_x
_atom_site_fract_y
_atom_site_fract_z
Si Si1 0.655035 0.286215 0.315321
Si Si2 0.886748 0.205924 0.022754
Si Si3 0.890587 0.706542 0.833093
Si Si4 0.617244 0.795333 0.549119
Si Si5 0.427293 0.286334 0.597430
Si Si6 0.346726 0.283341 0.257930
Si Si7 0.828172 0.797770 0.121775
O O1 0.656800 0.500000 0.317096
O O2 0.589052 0.233091 0.226356
O O3 0.777624 0.218119 0.369731
O O4 0.611977 0.229721 0.357612
O O5 0.859755 0.281710 0.074677
O O6 0.014202 0.219585 0.081111
O O7 0.858397 0.000000 0.006492
O O8 0.801938 0.296442 0.939081
O O9 0.887376 0.500000 0.843742
O O10 0.771552 0.781822 0.784190
O O11 0.500000 0.711195 0.500000
O O12 0.635905 0.788657 0.488155
O O13 0.610106 0.000000 0.563646
O O14 0.420972 0.500000 0.591735
O O15 0.552608 0.232284 0.654099
O O16 0.344540 0.500000 0.256756
O O17 0.369040 0.223549 0.202222
O O18 0.866511 0.000000 0.137711
#
# Coordination Sequence:
#
# PCOD9196087 Si02
#       7
#     8   8   8   8   8   8   8
#     4  10  21  37  56  78 107 142 178 220 269 315
#     4  10  20  35  56  81 109 139 174 219 268 315
#     4  11  22  35  54  79 106 138 178 220 264 318
#     4  10  21  36  54  80 114 145 173 214 271 324
#     4  10  20  36  58  80 104 139 183 223 260 310
#     4   9  19  35  54  77 104 137 178 222 265 309
#     4   9  18  36  59  78 103 141 181 218 258 311
#
# _framework density 25.904095000000002
#
# number of rings (size 3 to 8) (size 9 to 14) (size 15 to 20)
#    0.000    2.143    0.000    3.000    0.000    4.857 
#    0.000    5.714    0.000    0.000    0.000    0.000 
#    0.000    0.000    0.000    0.000    0.000    0.000 
#
# Total GULP energy -156628.328280 kJ/mol
# GULP energy per Si atom -5593.868867 kJ/mol
# Density = 2.584514 g / cm^3
# Si number density = 25.904095 Si / 1000 Ang^3
#
#
#
# Elastic Constant Matrix: (Units=GPa)
#
#
# Indices 1 2 3 4 5 6 
#
# 1 65.0253 -0.2079 -1.9509 0.0000 15.6174 0.0000
# 2 -0.2079 80.1933 -6.3322 0.0000 2.9461 0.0000
# 3 -1.9509 -6.3322 128.9731 0.0000 16.7858 0.0000
# 4 0.0000 0.0000 0.0000 20.4635 0.0000 -0.6161
# 5 15.6174 2.9461 16.7858 0.0000 50.0891 0.0000
# 6 0.0000 0.0000 0.0000 -0.6161 0.0000 8.0915
#
#
#
# Elastic Compliance Matrix: (Units=1/GPa)
#
#
# Indices 1 2 3 4 5 6 
#
# 1 0.016748 0.000327 0.000995 0.000000 -0.005575 0.000000
# 2 0.000327 0.012571 0.000765 0.000000 -0.001098 0.000000
# 3 0.000995 0.000765 0.008211 0.000000 -0.003107 0.000000
# 4 0.000000 0.000000 0.000000 0.048980 0.000000 0.003729
# 5 -0.005575 -0.001098 -0.003107 0.000000 0.022808 0.000000
# 6 0.000000 0.000000 0.000000 0.003729 0.000000 0.123870
#
#
# Mechanical properties :
#
#
# Convention : Reuss Voigt Hill
#
# Bulk Modulus (GPa) = 23.97864 28.57889 26.27877
# Shear Modulus (GPa) = 20.58320 34.57432 27.57876
#
# Velocity S-wave (km/s) = 2.82191 3.65732 3.26644
# Velocity P-wave (km/s) = 4.46031 5.37506 4.93891
#
# Compressibility (1/GPa) = 0.04170377
#
# Stress axis : x y z
#
# Youngs Moduli (GPa) = 59.70718 79.54537 121.79524
#
# Poissons Ratio (x) = -0.02599 -0.12118
# Poissons Ratio (y) = -0.01951 -0.09318
# Poissons Ratio (z) = -0.05940 -0.06085
#
# Static dielectric constant tensor:
#      x y z
#    x 2.165710 0.000000 0.021460 
#    y 0.000000 1.973140 0.000000 
#    z 0.021460 0.000000 1.961130 
# 
# From -- ./inp_files/342585.got.cif
#   From: 2010.05.17/outbox.cif.g08.bks.cpg/sg12_172_cif.got.tgz:342585.got - 2010.06.03 13:09:07.
