data_PCOD9196352
_publ_section_title
;
Structure prediction by ZEFSAII (Michael W. Deem and Ramdas Pophale) SiO2 
 PCOD9196352
Probable space group: C 2/M
;
_chemical_formula_sum "Si O2"
_cell_formula_units_Z 56
_cell_length_a 29.603499
_cell_length_b 15.186430
_cell_length_c 6.944209
_cell_angle_alpha 90.000000
_cell_angle_beta 65.535153
_cell_angle_gamma 90.000000
_cell_volume 2841.618439
_symmetry_space_group_name_H-M "C 2/M"
_symmetry_group_IT_number 12
_symmetry_cell_setting 'monoclinic'
loop_
_space_group_symop_operation_xyz
x,y,z
-x,y,-z
-x,-y,-z
x,-y,z
1/2+x,1/2+y,z
1/2-x,1/2+y,-z
1/2-x,1/2-y,-z
1/2+x,1/2-y,z
loop_
_atom_site_type_symbol
_atom_site_label
_atom_site_fract_x
_atom_site_fract_y
_atom_site_fract_z
Si Si1 0.691294 0.745458 0.585434
Si Si2 0.872778 0.168948 0.960663
Si Si3 0.882990 0.604274 0.385019
Si Si4 0.038825 0.400371 0.072645
Si Si5 0.946727 0.896474 0.155836
Si Si6 0.638981 0.398009 0.421452
Si Si7 0.053553 0.709641 0.409182
O O1 0.750000 0.750000 0.500000
O O2 0.666198 0.836205 0.553210
O O3 0.675643 0.668206 0.464759
O O4 0.667051 0.717310 0.833439
O O5 0.853936 0.107769 0.820341
O O6 0.905026 0.236669 0.779414
O O7 0.909243 0.120451 0.045950
O O8 0.877095 0.500000 0.451602
O O9 0.920316 0.660006 0.457709
O O10 0.909385 0.603638 0.129882
O O11 0.022008 0.500000 0.122199
O O12 0.039948 0.365160 0.281056
O O13 0.000000 0.353004 0.000000
O O14 0.916071 0.867579 0.401072
O O15 0.954795 0.000000 0.171373
O O16 0.000000 0.857457 0.000000
O O17 0.644952 0.500000 0.471533
O O18 0.000000 0.760178 0.500000
#
# Coordination Sequence:
#
# PCOD9196352 Si02
#       7
#     8   8   8   8   8   8   8
#     4  11  25  46  70  90 120 163 217 270 327 373
#     4  11  23  38  62  90 127 162 211 260 313 370
#     4  11  23  41  61  90 129 166 209 260 311 371
#     4  10  20  35  56  84 124 168 206 246 298 368
#     4   9  20  36  57  88 127 169 208 248 303 374
#     4  10  22  42  66  93 127 161 207 264 319 375
#     4  12  23  34  59  95 130 169 204 245 303 380
#
# _framework density 19.707079
#
# number of rings (size 3 to 8) (size 9 to 14) (size 15 to 20)
#    0.000    1.429    4.286    0.857    2.000    2.857 
#    0.000    2.143    0.000    0.000    0.000    0.000 
#    0.000    0.000    0.000    0.000    0.000    0.000 
#
# Total GULP energy -155987.193188 kJ/mol
# GULP energy per Si atom -5570.971185 kJ/mol
# Density = 1.966222 g / cm^3
# Si number density = 19.707079 Si / 1000 Ang^3
#
#
#
# Elastic Constant Matrix: (Units=GPa)
#
#
# Indices 1 2 3 4 5 6 
#
# 1 119.3753 27.1605 31.9737 0.0000 -16.7673 0.0000
# 2 27.1605 67.7460 0.4621 0.0000 -5.6673 0.0000
# 3 31.9737 0.4621 90.0068 0.0000 10.7957 0.0000
# 4 0.0000 0.0000 0.0000 28.1185 0.0000 5.3939
# 5 -16.7673 -5.6673 10.7957 0.0000 23.8031 0.0000
# 6 0.0000 0.0000 0.0000 5.3939 0.0000 22.6828
#
#
#
# Elastic Compliance Matrix: (Units=1/GPa)
#
#
# Indices 1 2 3 4 5 6 
#
# 1 0.012192 -0.004002 -0.005527 0.000000 0.010143 0.000000
# 2 -0.004002 0.016399 0.001277 0.000000 0.000506 0.000000
# 3 -0.005527 0.001277 0.014274 0.000000 -0.010063 0.000000
# 4 0.000000 0.000000 0.000000 0.037264 0.000000 -0.008861
# 5 0.010143 0.000506 -0.010063 0.000000 0.053841 0.000000
# 6 0.000000 0.000000 0.000000 -0.008861 0.000000 0.046193
#
#
# Mechanical properties :
#
#
# Convention : Reuss Voigt Hill
#
# Bulk Modulus (GPa) = 37.93497 44.03564 40.98531
# Shear Modulus (GPa) = 24.33619 29.42301 26.87960
#
# Velocity S-wave (km/s) = 3.51792 3.86815 3.69718
# Velocity P-wave (km/s) = 5.98266 6.50720 6.25044
#
# Compressibility (1/GPa) = 0.02636090
#
# Stress axis : x y z
#
# Youngs Moduli (GPa) = 82.01764 60.97882 70.05633
#
# Poissons Ratio (x) = 0.24404 0.38722
# Poissons Ratio (y) = 0.32823 -0.08944
# Poissons Ratio (z) = 0.45333 -0.07785
#
# Static dielectric constant tensor:
#      x y z
#    x 1.721710 0.000000 0.027840 
#    y 0.000000 1.740270 0.000000 
#    z 0.027840 0.000000 1.773110 
# 
# From -- ./inp_files/28746.got.cif
#   From: 2010.05.17/outbox.cif.g08.bks.cpg/sg12_15_cif.got.tgz:28746.got - 2010.06.03 13:09:07.
