data_PCOD9196319
_publ_section_title
;
Structure prediction by ZEFSAII (Michael W. Deem and Ramdas Pophale) SiO2 
 PCOD9196319
Probable space group: C 2/M
;
_chemical_formula_sum "Si O2"
_cell_formula_units_Z 56
_cell_length_a 24.256010
_cell_length_b 8.726550
_cell_length_c 14.864419
_cell_angle_alpha 90.000000
_cell_angle_beta 109.977410
_cell_angle_gamma 90.000000
_cell_volume 2957.045341
_symmetry_space_group_name_H-M "C 2/M"
_symmetry_group_IT_number 12
_symmetry_cell_setting 'monoclinic'
loop_
_space_group_symop_operation_xyz
x,y,z
-x,y,-z
-x,-y,-z
x,-y,z
1/2+x,1/2+y,z
1/2-x,1/2+y,-z
1/2-x,1/2-y,-z
1/2+x,1/2-y,z
loop_
_atom_site_type_symbol
_atom_site_label
_atom_site_fract_x
_atom_site_fract_y
_atom_site_fract_z
Si Si1 0.941586 0.818741 0.072148
Si Si2 0.067121 0.317244 0.128315
Si Si3 0.692949 0.816556 0.674237
Si Si4 0.814858 0.317027 0.698516
Si Si5 0.356310 0.316477 0.538942
Si Si6 0.099092 0.317897 0.771266
Si Si7 0.991803 0.817777 0.602154
O O1 0.903089 0.767526 0.135043
O O2 0.008793 0.768462 0.129306
O O3 0.939266 0.000000 0.056731
O O4 0.924893 0.733000 0.970750
O O5 0.057228 0.500000 0.127581
O O6 0.124535 0.278237 0.217374
O O7 0.759182 0.757341 0.715675
O O8 0.664729 0.745049 0.568752
O O9 0.653398 0.773388 0.737833
O O10 0.691968 0.000000 0.665680
O O11 0.808280 0.500000 0.693790
O O12 0.819739 0.255513 0.599747
O O13 0.350827 0.500000 0.537233
O O14 0.425084 0.276947 0.589525
O O15 0.100492 0.500000 0.787094
O O16 0.040148 0.273958 0.684219
O O17 0.000000 0.791911 0.500000
O O18 0.000225 0.000000 0.623343
#
# Coordination Sequence:
#
# PCOD9196319 Si02
#       7
#     8   8   8   8   8   8   8
#     4  11  22  37  63  93 120 151 186 232 288 347
#     4  10  21  40  64  90 119 149 187 238 289 341
#     4  11  24  40  58  81 114 155 198 241 285 338
#     4  11  24  40  60  84 113 151 195 240 287 339
#     4  11  22  37  59  84 116 154 193 239 287 341
#     4  11  23  38  58  85 118 156 194 237 288 344
#     4  10  20  35  56  84 116 150 188 234 286 338
#
# _framework density 18.937823000000002
#
# number of rings (size 3 to 8) (size 9 to 14) (size 15 to 20)
#    0.000    1.286    1.429    5.571    0.000    7.714 
#    0.000    0.714    0.000    0.000    0.000    0.000 
#    0.000    0.000    0.000    0.000    0.000    0.000 
#
# Total GULP energy -156617.422687 kJ/mol
# GULP energy per Si atom -5593.479382 kJ/mol
# Density = 1.889472 g / cm^3
# Si number density = 18.937823 Si / 1000 Ang^3
#
#
#
# Elastic Constant Matrix: (Units=GPa)
#
#
# Indices 1 2 3 4 5 6 
#
# 1 74.4825 9.6276 34.8169 0.0000 -13.4063 0.0000
# 2 9.6276 24.2614 8.0503 0.0000 -1.1308 0.0000
# 3 34.8169 8.0503 49.1741 0.0000 -15.6861 0.0000
# 4 0.0000 0.0000 0.0000 18.4220 0.0000 4.4973
# 5 -13.4063 -1.1308 -15.6861 0.0000 22.6005 0.0000
# 6 0.0000 0.0000 0.0000 4.4973 0.0000 28.1607
#
#
#
# Elastic Compliance Matrix: (Units=1/GPa)
#
#
# Indices 1 2 3 4 5 6 
#
# 1 0.020497 -0.003696 -0.012956 0.000000 0.002981 0.000000
# 2 -0.003696 0.044476 -0.005977 0.000000 -0.004115 0.000000
# 3 -0.012956 -0.005977 0.035886 0.000000 0.016923 0.000000
# 4 0.000000 0.000000 0.000000 0.056485 0.000000 -0.009021
# 5 0.002981 -0.004115 0.016923 0.000000 0.057554 0.000000
# 6 0.000000 0.000000 0.000000 -0.009021 0.000000 0.036951
#
#
# Mechanical properties :
#
#
# Convention : Reuss Voigt Hill
#
# Bulk Modulus (GPa) = 17.98560 28.10085 23.04323
# Shear Modulus (GPa) = 15.84076 20.19819 18.01947
#
# Velocity S-wave (km/s) = 2.89530 3.26935 3.08800
# Velocity P-wave (km/s) = 4.54916 5.39651 4.99085
#
# Compressibility (1/GPa) = 0.05560002
#
# Stress axis : x y z
#
# Youngs Moduli (GPa) = 48.78827 22.48409 27.86585
#
# Poissons Ratio (x) = 0.08309 0.36104
# Poissons Ratio (y) = 0.18030 0.16656
# Poissons Ratio (z) = 0.63212 0.13439
#
# Static dielectric constant tensor:
#      x y z
#    x 1.652430 0.000000 -0.003220 
#    y 0.000000 1.629980 0.000000 
#    z -0.003220 0.000000 1.638540 
# 
# From -- ./inp_files/237809.got.cif
#   From: 2010.05.17/outbox.cif.g08.bks.cpg/sg12_119_cif.got.tgz:237809.got - 2010.06.03 13:09:07.
