data_PCOD9196187
_publ_section_title
;
Structure prediction by ZEFSAII (Michael W. Deem and Ramdas Pophale) SiO2 
 PCOD9196187
Probable space group: C 2/M
;
_chemical_formula_sum "Si O2"
_cell_formula_units_Z 48
_cell_length_a 30.623045
_cell_length_b 8.881643
_cell_length_c 24.026517
_cell_angle_alpha 90.000000
_cell_angle_beta 154.731193
_cell_angle_gamma 90.000000
_cell_volume 2789.482618
_symmetry_space_group_name_H-M "C 2/M"
_symmetry_group_IT_number 12
_symmetry_cell_setting 'monoclinic'
loop_
_space_group_symop_operation_xyz
x,y,z
-x,y,-z
-x,-y,-z
x,-y,z
1/2+x,1/2+y,z
1/2-x,1/2+y,-z
1/2-x,1/2-y,-z
1/2+x,1/2-y,z
loop_
_atom_site_type_symbol
_atom_site_label
_atom_site_fract_x
_atom_site_fract_y
_atom_site_fract_z
Si Si1 0.811643 0.678205 0.860872
Si Si2 0.136450 0.825630 0.503609
Si Si3 0.399372 0.179381 0.420437
Si Si4 0.640004 0.179540 0.389934
Si Si5 0.123837 0.329185 0.190408
Si Si6 0.007327 0.176788 0.870802
O O1 0.800890 0.500000 0.857735
O O2 0.700958 0.752377 0.724846
O O3 0.868690 0.696750 0.866816
O O4 0.881621 0.754489 0.988111
O O5 0.092457 0.754339 0.509294
O O6 0.113829 0.733157 0.422028
O O7 0.259512 0.824158 0.653678
O O8 0.105382 0.000000 0.461923
O O9 0.500000 0.208130 0.500000
O O10 0.385966 0.000000 0.411324
O O11 0.750000 0.250000 0.500000
O O12 0.554161 0.240148 0.248903
O O13 0.647744 0.000000 0.395313
O O14 0.084358 0.500000 0.155106
O O15 0.059294 0.211103 0.150687
O O16 0.012761 0.000000 0.866256
#
# Coordination Sequence:
#
# PCOD9196187 Si02
#       6
#     8   8   8   8   8   8
#     4  10  21  36  54  77 108 143 184 230 276 329
#     4  10  20  35  56  82 112 145 186 231 274 324
#     4  10  21  38  61  87 113 141 179 230 282 331
#     4  12  23  36  54  77 111 152 193 229 267 321
#     4   9  18  32  50  73 107 145 182 224 270 320
#     4  12  23  33  50  76 110 150 187 224 271 327
#
# _framework density 17.207492999999999
#
# number of rings (size 3 to 8) (size 9 to 14) (size 15 to 20)
#    0.000    1.500    1.667    6.000    0.000    6.667 
#    0.000    0.000    0.000    1.000    0.000    0.000 
#    0.000    0.000    0.000    0.000    0.000    0.000 
#
# Total GULP energy -134096.558299 kJ/mol
# GULP energy per Si atom -5587.356596 kJ/mol
# Density = 1.716833 g / cm^3
# Si number density = 17.207493 Si / 1000 Ang^3
#
#
#
# Elastic Constant Matrix: (Units=GPa)
#
#
# Indices 1 2 3 4 5 6 
#
# 1 75.6765 68.4659 58.8097 0.0000 0.0302 0.0000
# 2 68.4659 158.6694 78.0176 0.0000 -10.2385 0.0000
# 3 58.8097 78.0176 118.6768 0.0000 -25.7850 0.0000
# 4 0.0000 0.0000 0.0000 28.5868 0.0000 -3.7385
# 5 0.0302 -10.2385 -25.7850 0.0000 21.2750 0.0000
# 6 0.0000 0.0000 0.0000 -3.7385 0.0000 25.9462
#
#
#
# Elastic Compliance Matrix: (Units=1/GPa)
#
#
# Indices 1 2 3 4 5 6 
#
# 1 0.032886 -0.007653 -0.016393 0.000000 -0.023597 0.000000
# 2 -0.007653 0.011350 -0.003366 0.000000 0.001393 0.000000
# 3 -0.016393 -0.003366 0.024998 0.000000 0.028701 0.000000
# 4 0.000000 0.000000 0.000000 0.035653 0.000000 0.005137
# 5 -0.023597 0.001393 0.028701 0.000000 0.082493 0.000000
# 6 0.000000 0.000000 0.000000 0.005137 0.000000 0.039282
#
#
# Mechanical properties :
#
#
# Convention : Reuss Voigt Hill
#
# Bulk Modulus (GPa) = 69.39230 84.84547 77.11888
# Shear Modulus (GPa) = 17.46487 25.01022 21.23754
#
# Velocity S-wave (km/s) = 3.18930 3.81655 3.51693
# Velocity P-wave (km/s) = 7.34687 8.29673 7.83620
#
# Compressibility (1/GPa) = 0.01441082
#
# Stress axis : x y z
#
# Youngs Moduli (GPa) = 30.40772 88.10813 40.00248
#
# Poissons Ratio (x) = 0.67428 0.65575
# Poissons Ratio (y) = 0.23271 0.13466
# Poissons Ratio (z) = 0.49847 0.29659
#
# Static dielectric constant tensor:
#      x y z
#    x 1.567650 0.000000 -0.011040 
#    y 0.000000 1.577120 0.000000 
#    z -0.011040 0.000000 1.593630 
# 
# From -- ./inp_files/249375.got.cif
#   From: 2010.05.17/outbox.cif.g08.bks.cpg/sg12_125_cif.got.tgz:249375.got - 2010.06.03 13:09:07.
