data_PCOD9196491
_publ_section_title
;
Structure prediction by ZEFSAII (Michael W. Deem and Ramdas Pophale) SiO2 
 PCOD9196491
Probable space group: C 2/M
;
_chemical_formula_sum "Si O2"
_cell_formula_units_Z 64
_cell_length_a 14.491336
_cell_length_b 9.173144
_cell_length_c 22.469453
_cell_angle_alpha 90.000000
_cell_angle_beta 93.874579
_cell_angle_gamma 90.000000
_cell_volume 2980.062410
_symmetry_space_group_name_H-M "C 2/M"
_symmetry_group_IT_number 12
_symmetry_cell_setting 'monoclinic'
loop_
_space_group_symop_operation_xyz
x,y,z
-x,y,-z
-x,-y,-z
x,-y,z
1/2+x,1/2+y,z
1/2-x,1/2+y,-z
1/2-x,1/2-y,-z
1/2+x,1/2-y,z
loop_
_atom_site_type_symbol
_atom_site_label
_atom_site_fract_x
_atom_site_fract_y
_atom_site_fract_z
Si Si1 0.571464 0.672247 0.339060
Si Si2 0.028545 0.826410 0.122441
Si Si3 0.115509 0.333316 0.458247
Si Si4 0.623195 0.831559 0.949805
Si Si5 0.701576 0.168798 0.087961
Si Si6 0.668601 0.332963 0.573840
Si Si7 0.086872 0.828303 0.764233
Si Si8 0.724147 0.173514 0.694536
O O1 0.576353 0.500000 0.353013
O O2 0.566006 0.758637 0.400322
O O3 0.487393 0.698470 0.291265
O O4 0.667723 0.709829 0.309881
O O5 0.125954 0.743833 0.126445
O O6 0.966651 0.764881 0.066025
O O7 0.966977 0.793601 0.177718
O O8 0.042514 0.000000 0.118816
O O9 0.087116 0.500000 0.464646
O O10 0.224749 0.335007 0.444644
O O11 0.110967 0.244116 0.519255
O O12 0.705466 0.761998 0.914276
O O13 0.604713 0.000000 0.933238
O O14 0.657330 0.828840 0.019448
O O15 0.720548 0.000000 0.104136
O O16 0.639233 0.500000 0.582696
O O17 0.673324 0.243909 0.635098
O O18 0.177650 0.738670 0.751334
O O19 0.109438 0.000000 0.765956
O O20 0.714240 0.000000 0.693087
#
# Coordination Sequence:
#
# PCOD9196491 Si02
#       8
#     8   8   8   8   8   8   8   8
#     4   9  19  37  57  76 105 144 181 221 276 335
#     4  11  23  38  58  85 118 156 196 239 285 335
#     4   9  16  27  48  79 108 134 173 223 272 327
#     4  10  21  38  61  89 121 155 191 234 285 340
#     4  10  21  38  61  90 121 153 191 235 285 341
#     4   9  16  28  49  76 107 142 175 214 273 339
#     4  10  23  41  57  78 110 148 190 231 273 328
#     4  10  20  35  57  82 107 140 183 232 281 328
#
# _framework density 21.47606
#
# number of rings (size 3 to 8) (size 9 to 14) (size 15 to 20)
#    0.000    2.250    0.000    2.625    0.000    9.000 
#    0.000    1.875    0.000    3.750    0.000    0.000 
#    0.000    0.000    0.000    0.000    0.000    0.000 
#
# Total GULP energy -178967.021027 kJ/mol
# GULP energy per Si atom -5592.719407 kJ/mol
# Density = 2.142718 g / cm^3
# Si number density = 21.476060 Si / 1000 Ang^3
#
#
#
# Elastic Constant Matrix: (Units=GPa)
#
#
# Indices 1 2 3 4 5 6 
#
# 1 76.5477 28.0992 27.8447 0.0000 -28.6205 0.0000
# 2 28.0992 61.9069 24.4340 0.0000 -19.8715 0.0000
# 3 27.8447 24.4340 45.4976 0.0000 -19.7507 0.0000
# 4 0.0000 0.0000 0.0000 29.1448 0.0000 -7.1518
# 5 -28.6205 -19.8715 -19.7507 0.0000 30.9169 0.0000
# 6 0.0000 0.0000 0.0000 -7.1518 0.0000 16.3078
#
#
#
# Elastic Compliance Matrix: (Units=1/GPa)
#
#
# Indices 1 2 3 4 5 6 
#
# 1 0.021555 -0.003017 -0.005191 0.000000 0.014699 0.000000
# 2 -0.003017 0.022672 -0.007218 0.000000 0.007169 0.000000
# 3 -0.005191 -0.007218 0.034500 0.000000 0.012595 0.000000
# 4 0.000000 0.000000 0.000000 0.038449 0.000000 0.016862
# 5 0.014699 0.007169 0.012595 0.000000 0.058606 0.000000
# 6 0.000000 0.000000 0.000000 0.016862 0.000000 0.068715
#
#
# Mechanical properties :
#
#
# Convention : Reuss Voigt Hill
#
# Bulk Modulus (GPa) = 20.88692 38.30088 29.59390
# Shear Modulus (GPa) = 17.16404 22.17887 19.67146
#
# Velocity S-wave (km/s) = 2.83011 3.21709 3.02979
# Velocity P-wave (km/s) = 4.51953 5.62783 5.10385
#
# Compressibility (1/GPa) = 0.04787686
#
# Stress axis : x y z
#
# Youngs Moduli (GPa) = 46.39254 44.10640 28.98577
#
# Poissons Ratio (x) = 0.13306 0.15046
# Poissons Ratio (y) = 0.13996 0.20921
# Poissons Ratio (z) = 0.24081 0.31835
#
# Static dielectric constant tensor:
#      x y z
#    x 1.819150 0.000000 -0.010360 
#    y 0.000000 1.721380 0.000000 
#    z -0.010360 0.000000 1.778350 
# 
# From -- ./inp_files/338848.got.cif
#   From: 2010.05.17/outbox.cif.g08.bks.cpg/sg12_170_cif.got.tgz:338848.got - 2010.06.03 13:09:07.
