data_PCOD9196982
_publ_section_title
;
Structure prediction by ZEFSAII (Michael W. Deem and Ramdas Pophale) SiO2 
 PCOD9196982
Probable space group: C 2/M
;
_chemical_formula_sum "Si O2"
_cell_formula_units_Z 64
_cell_length_a 33.468876
_cell_length_b 9.152963
_cell_length_c 19.213382
_cell_angle_alpha 90.000000
_cell_angle_beta 36.622765
_cell_angle_gamma 90.000000
_cell_volume 3511.146844
_symmetry_space_group_name_H-M "C 2/M"
_symmetry_group_IT_number 12
_symmetry_cell_setting 'monoclinic'
loop_
_space_group_symop_operation_xyz
x,y,z
-x,y,-z
-x,-y,-z
x,-y,z
1/2+x,1/2+y,z
1/2-x,1/2+y,-z
1/2-x,1/2-y,-z
1/2+x,1/2-y,z
loop_
_atom_site_type_symbol
_atom_site_label
_atom_site_fract_x
_atom_site_fract_y
_atom_site_fract_z
Si Si1 0.825960 0.825881 0.314636
Si Si2 0.174162 0.666144 0.178747
Si Si3 0.169192 0.673566 0.542978
Si Si4 0.573032 0.172104 0.932626
Si Si5 0.952014 0.825446 0.357712
Si Si6 0.927593 0.825710 0.917457
Si Si7 0.195685 0.333162 0.982005
Si Si8 0.036321 0.167684 0.375354
O O1 0.840661 0.754364 0.369264
O O2 0.746506 0.802579 0.412742
O O3 0.872088 0.750963 0.192371
O O4 0.838277 0.000000 0.300057
O O5 0.178373 0.500000 0.197972
O O6 0.231757 0.763736 0.132861
O O7 0.101290 0.733122 0.289729
O O8 0.186827 0.665310 0.077885
O O9 0.159385 0.500000 0.565540
O O10 0.115430 0.739147 0.564993
O O11 0.588669 0.000000 0.916984
O O12 0.500000 0.186288 0.000000
O O13 0.569476 0.247179 0.012651
O O14 0.006804 0.794677 0.220964
O O15 0.986766 0.786474 0.382417
O O16 0.938886 0.000000 0.376322
O O17 0.922774 0.000000 0.932509
O O18 0.862858 0.764404 0.968017
O O19 0.191112 0.500000 0.963273
O O20 0.000000 0.168345 0.500000
O O21 0.057172 0.000000 0.329669
#
# Coordination Sequence:
#
# PCOD9196982 Si02
#       8
#     8   8   8   8   8   8   8   8
#     4  10  21  39  61  86 118 156 196 237 286 343
#     4  10  20  35  58  85 114 149 189 238 291 345
#     4  10  21  37  61  89 116 152 194 241 287 338
#     4  11  24  40  59  87 121 156 194 239 290 346
#     4  10  21  37  59  86 114 150 194 239 290 349
#     4  11  22  37  59  86 117 152 193 242 292 347
#     4  10  20  35  58  85 113 149 191 236 288 345
#     4  10  21  39  60  83 115 153 195 242 292 350
#
# _framework density 18.227661000000001
#
# number of rings (size 3 to 8) (size 9 to 14) (size 15 to 20)
#    0.000    1.750    1.250    3.000    0.000    7.250 
#    2.250    0.000    0.000    0.000    0.000    0.000 
#    0.000    0.000    0.000    0.000    0.000    0.000 
#
# Total GULP energy -178753.784371 kJ/mol
# GULP energy per Si atom -5586.055762 kJ/mol
# Density = 1.818617 g / cm^3
# Si number density = 18.227661 Si / 1000 Ang^3
#
#
#
# Elastic Constant Matrix: (Units=GPa)
#
#
# Indices 1 2 3 4 5 6 
#
# 1 50.5582 38.8088 41.5651 -0.0044 -13.2077 0.0036
# 2 38.8088 102.2110 61.6397 -0.0081 -9.3513 0.0068
# 3 41.5651 61.6397 85.6669 -0.0048 -1.5651 0.0007
# 4 -0.0044 -0.0081 -0.0048 27.2205 0.0005 -3.3084
# 5 -13.2077 -9.3513 -1.5651 0.0005 27.0711 0.0008
# 6 0.0036 0.0068 0.0007 -3.3084 0.0008 34.6733
#
#
#
# Elastic Compliance Matrix: (Units=1/GPa)
#
#
# Indices 1 2 3 4 5 6 
#
# 1 0.041343 -0.003820 -0.016984 0.000002 0.017869 -0.000003
# 2 -0.003820 0.018417 -0.011328 0.000002 0.003843 -0.000003
# 3 -0.016984 -0.011328 0.027871 -0.000001 -0.010588 0.000004
# 4 0.000002 0.000002 -0.000001 0.037168 0.000001 0.003546
# 5 0.017869 0.003843 -0.010588 0.000001 0.046373 -0.000003
# 6 -0.000003 -0.000003 0.000004 0.003546 -0.000003 0.029179
#
#
# Mechanical properties :
#
#
# Convention : Reuss Voigt Hill
#
# Bulk Modulus (GPa) = 42.79625 58.05150 50.42387
# Shear Modulus (GPa) = 18.35505 24.22115 21.28810
#
# Velocity S-wave (km/s) = 3.17675 3.64924 3.42116
# Velocity P-wave (km/s) = 6.08156 7.04792 6.58250
#
# Compressibility (1/GPa) = 0.02336653
#
# Stress axis : x y z
#
# Youngs Moduli (GPa) = 24.18810 54.29674 35.87961
#
# Poissons Ratio (x) = 0.20743 0.60938
# Poissons Ratio (y) = 0.09240 0.40644
# Poissons Ratio (z) = 0.41081 0.61507
#
# Static dielectric constant tensor:
#      x y z
#    x 1.609600 -0.000010 0.011250 
#    y -0.000010 1.618200 -0.000010 
#    z 0.011250 -0.000010 1.633940 
# 
# From -- ./inp_files/295441.got.cif
#   From: 2010.05.17/outbox.cif.g08.bks.cpg/sg12_148_cif.got.tgz:295441.got - 2010.06.03 13:09:07.
