data_PCOD9196425
_publ_section_title
;
Structure prediction by ZEFSAII (Michael W. Deem and Ramdas Pophale) SiO2 
 PCOD9196425
Probable space group: C 2/M
;
_chemical_formula_sum "Si O2"
_cell_formula_units_Z 56
_cell_length_a 14.924028
_cell_length_b 12.573949
_cell_length_c 19.716550
_cell_angle_alpha 90.000000
_cell_angle_beta 55.043961
_cell_angle_gamma 90.000000
_cell_volume 3032.398864
_symmetry_space_group_name_H-M "C 2/M"
_symmetry_group_IT_number 12
_symmetry_cell_setting 'monoclinic'
loop_
_space_group_symop_operation_xyz
x,y,z
-x,y,-z
-x,-y,-z
x,-y,z
1/2+x,1/2+y,z
1/2-x,1/2+y,-z
1/2-x,1/2-y,-z
1/2+x,1/2-y,z
loop_
_atom_site_type_symbol
_atom_site_label
_atom_site_fract_x
_atom_site_fract_y
_atom_site_fract_z
Si Si1 0.281126 0.625117 0.880536
Si Si2 0.109394 0.877145 0.027711
Si Si3 0.374687 0.282965 0.113225
Si Si4 0.652191 0.773842 0.595558
Si Si5 0.911010 0.500000 0.434543
Si Si6 0.061916 0.871179 0.314009
Si Si7 0.846042 0.500000 0.610841
Si Si8 0.260452 0.229428 0.690717
O O1 0.267680 0.500000 0.885294
O O2 0.316208 0.655040 0.941323
O O3 0.169217 0.676853 0.903612
O O4 0.378702 0.649810 0.784631
O O5 0.001612 0.804269 0.071877
O O6 0.075888 0.000000 0.053278
O O7 0.159607 0.867499 0.930505
O O8 0.314513 0.283582 0.210705
O O9 0.750000 0.750000 0.500000
O O10 0.555615 0.686130 0.631663
O O11 0.698052 0.771202 0.651787
O O12 0.607290 0.891392 0.598119
O O13 0.835106 0.500000 0.534246
O O14 0.030885 0.500000 0.414874
O O15 0.141095 0.810145 0.332851
O O16 0.056452 0.000000 0.325958
O O17 0.797841 0.610327 0.657491
#
# Coordination Sequence:
#
# PCOD9196425 Si02
#       8
#     8   8   8   8   4   8   4   8
#     4   9  19  38  61  81 115 155 194 234 288 340
#     4  10  20  35  56  89 118 152 190 240 282 341
#     4  10  20  35  59  86 118 149 193 237 285 343
#     4  12  25  41  61  89 116 156 197 243 297 359
#     4  11  24  44  62  84 123 150 198 250 305 345
#     4  10  23  42  60  88 120 157 200 243 289 358
#     4  11  22  42  64  84 120 158 190 256 298 349
#     4  11  24  39  63  88 118 157 200 241 301 345
#
# _framework density 18.467227000000001
#
# number of rings (size 3 to 8) (size 9 to 14) (size 15 to 20)
#    0.000    1.571    2.857    2.143    5.000    0.571 
#    0.000    2.143    0.000    1.714    0.000    0.000 
#    0.000    0.000    0.000    0.000    0.000    0.000 
#
# Total GULP energy -156079.628074 kJ/mol
# GULP energy per Si atom -5574.272431 kJ/mol
# Density = 1.842519 g / cm^3
# Si number density = 18.467227 Si / 1000 Ang^3
#
#
#
# Elastic Constant Matrix: (Units=GPa)
#
#
# Indices 1 2 3 4 5 6 
#
# 1 116.5217 62.6491 67.3036 0.0000 24.6465 0.0000
# 2 62.6491 116.4501 51.3954 0.0000 9.7567 0.0000
# 3 67.3036 51.3954 99.4329 0.0000 22.1223 0.0000
# 4 0.0000 0.0000 0.0000 31.3333 0.0000 2.8985
# 5 24.6465 9.7567 22.1223 0.0000 32.3937 0.0000
# 6 0.0000 0.0000 0.0000 2.8985 0.0000 25.9917
#
#
#
# Elastic Compliance Matrix: (Units=1/GPa)
#
#
# Indices 1 2 3 4 5 6 
#
# 1 0.017081 -0.005413 -0.007352 0.000000 -0.006345 0.000000
# 2 -0.005413 0.012853 -0.003579 0.000000 0.002691 0.000000
# 3 -0.007352 -0.003579 0.018158 0.000000 -0.005729 0.000000
# 4 0.000000 0.000000 0.000000 0.032248 0.000000 -0.003596
# 5 -0.006345 0.002691 -0.005729 0.000000 0.038799 0.000000
# 6 0.000000 0.000000 0.000000 -0.003596 0.000000 0.038875
#
#
# Mechanical properties :
#
#
# Convention : Reuss Voigt Hill
#
# Bulk Modulus (GPa) = 64.91486 77.23342 71.07414
# Shear Modulus (GPa) = 25.53146 28.01418 26.77282
#
# Velocity S-wave (km/s) = 3.72227 3.89905 3.81169
# Velocity P-wave (km/s) = 7.32813 7.88561 7.61197
#
# Compressibility (1/GPa) = 0.01540479
#
# Stress axis : x y z
#
# Youngs Moduli (GPa) = 58.54379 77.80020 55.07256
#
# Poissons Ratio (x) = 0.42113 0.40491
# Poissons Ratio (y) = 0.31690 0.19708
# Poissons Ratio (z) = 0.43043 0.27841
#
# Static dielectric constant tensor:
#      x y z
#    x 1.622420 0.000000 -0.006350 
#    y 0.000000 1.653410 0.000000 
#    z -0.006350 0.000000 1.675860 
# 
# From -- ./inp_files/269236.got.cif
#   From: 2010.05.17/outbox.cif.g08.bks.cpg/sg12_135_cif.got.tgz:269236.got - 2010.06.03 13:09:07.
