data_PCOD9196521
_publ_section_title
;
Structure prediction by ZEFSAII (Michael W. Deem and Ramdas Pophale) SiO2 
 PCOD9196521
Probable space group: C 2/M
;
_chemical_formula_sum "Si O2"
_cell_formula_units_Z 48
_cell_length_a 9.426152
_cell_length_b 16.354473
_cell_length_c 16.728871
_cell_angle_alpha 90.000000
_cell_angle_beta 121.227694
_cell_angle_gamma 90.000000
_cell_volume 2205.268762
_symmetry_space_group_name_H-M "C 2/M"
_symmetry_group_IT_number 12
_symmetry_cell_setting 'monoclinic'
loop_
_space_group_symop_operation_xyz
x,y,z
-x,y,-z
-x,-y,-z
x,-y,z
1/2+x,1/2+y,z
1/2-x,1/2+y,-z
1/2-x,1/2-y,-z
1/2+x,1/2-y,z
loop_
_atom_site_type_symbol
_atom_site_label
_atom_site_fract_x
_atom_site_fract_y
_atom_site_fract_z
Si Si1 0.190383 0.407246 0.581616
Si Si2 0.062521 0.088999 0.828081
Si Si3 0.671708 0.590861 0.097941
Si Si4 0.291260 0.252904 0.306418
Si Si5 0.469374 0.589457 0.375283
Si Si6 0.419390 0.233237 0.174493
O O1 0.211867 0.500000 0.622939
O O2 0.221117 0.326739 0.643048
O O3 0.332907 0.402657 0.555205
O O4 0.000000 0.403011 0.500000
O O5 0.045640 0.088689 0.727093
O O6 0.142484 0.176889 0.870953
O O7 0.890792 0.092932 0.828173
O O8 0.137190 0.000000 0.872207
O O9 0.737379 0.500000 0.101131
O O10 0.802334 0.659945 0.114520
O O11 0.500000 0.601417 0.000000
O O12 0.364553 0.332741 0.371380
O O13 0.413186 0.232560 0.269109
O O14 0.114219 0.274245 0.213894
O O15 0.412792 0.500000 0.386912
#
# Coordination Sequence:
#
# PCOD9196521 Si02
#       6
#     8   8   8   8   8   8
#     4  10  20  35  57  82 112 152 189 220 269 338
#     4   9  17  33  55  74 103 146 181 218 273 330
#     4  10  21  36  55  81 114 147 181 228 280 329
#     4  11  20  35  57  85 108 142 188 232 272 323
#     4   9  18  34  54  76 108 145 182 228 279 326
#     4  11  20  35  58  85 106 144 191 226 274 330
#
# _framework density 21.766052999999999
#
# number of rings (size 3 to 8) (size 9 to 14) (size 15 to 20)
#    0.000    2.000    5.000    0.000    0.000    2.667 
#    0.000    0.000    0.000    1.000    0.000    0.000 
#    0.000    0.000    0.000    0.000    0.000    0.000 
#
# Total GULP energy -133710.041138 kJ/mol
# GULP energy per Si atom -5571.251714 kJ/mol
# Density = 2.171651 g / cm^3
# Si number density = 21.766053 Si / 1000 Ang^3
#
#
#
# Elastic Constant Matrix: (Units=GPa)
#
#
# Indices 1 2 3 4 5 6 
#
# 1 31.6120 41.2203 10.4692 0.0000 2.4764 0.0000
# 2 41.2203 258.1338 57.8177 0.0000 36.1430 0.0000
# 3 10.4692 57.8177 52.0121 0.0000 11.3960 0.0000
# 4 0.0000 0.0000 0.0000 24.4455 0.0000 13.7889
# 5 2.4764 36.1430 11.3960 0.0000 26.8943 0.0000
# 6 0.0000 0.0000 0.0000 13.7889 0.0000 35.6948
#
#
#
# Elastic Compliance Matrix: (Units=1/GPa)
#
#
# Indices 1 2 3 4 5 6 
#
# 1 0.040892 -0.007021 -0.001839 0.000000 0.006450 0.000000
# 2 -0.007021 0.007044 -0.004944 0.000000 -0.006725 0.000000
# 3 -0.001839 -0.004944 0.026014 0.000000 -0.004210 0.000000
# 4 0.000000 0.000000 0.000000 0.052304 0.000000 -0.020205
# 5 0.006450 -0.006725 -0.004210 0.000000 0.047411 0.000000
# 6 0.000000 0.000000 0.000000 -0.020205 0.000000 0.035821
#
#
# Mechanical properties :
#
#
# Convention : Reuss Voigt Hill
#
# Bulk Modulus (GPa) = 21.57831 62.30803 41.94317
# Shear Modulus (GPa) = 19.79868 32.89031 26.34449
#
# Velocity S-wave (km/s) = 3.01925 3.89148 3.48278
# Velocity P-wave (km/s) = 4.69998 6.99142 5.95691
#
# Compressibility (1/GPa) = 0.04634283
#
# Stress axis : x y z
#
# Youngs Moduli (GPa) = 24.45437 141.96421 38.44030
#
# Poissons Ratio (x) = 0.99673 0.07071
# Poissons Ratio (y) = 0.17169 0.19003
# Poissons Ratio (z) = 0.04498 0.70181
#
# Static dielectric constant tensor:
#      x y z
#    x 1.776260 0.000000 -0.043830 
#    y 0.000000 1.838290 0.000000 
#    z -0.043830 0.000000 1.856120 
# 
# From -- ./inp_files/300934.got.cif
#   From: 2010.05.17/outbox.cif.g08.bks.cpg/sg12_151_cif.got.tgz:300934.got - 2010.06.03 13:09:07.
