data_PCOD9196161
_publ_section_title
;
Structure prediction by ZEFSAII (Michael W. Deem and Ramdas Pophale) SiO2 
 PCOD9196161
Probable space group: C 2/M
;
_chemical_formula_sum "Si O2"
_cell_formula_units_Z 40
_cell_length_a 8.988318
_cell_length_b 26.286547
_cell_length_c 9.024357
_cell_angle_alpha 90.000000
_cell_angle_beta 59.605481
_cell_angle_gamma 90.000000
_cell_volume 1839.156116
_symmetry_space_group_name_H-M "C 2/M"
_symmetry_group_IT_number 12
_symmetry_cell_setting 'monoclinic'
loop_
_space_group_symop_operation_xyz
x,y,z
-x,y,-z
-x,-y,-z
x,-y,z
1/2+x,1/2+y,z
1/2-x,1/2+y,-z
1/2-x,1/2-y,-z
1/2+x,1/2-y,z
loop_
_atom_site_type_symbol
_atom_site_label
_atom_site_fract_x
_atom_site_fract_y
_atom_site_fract_z
Si Si1 0.190281 0.166863 0.330498
Si Si2 0.805665 0.055576 0.157741
Si Si3 0.188063 0.720849 0.332973
Si Si4 0.308823 0.339832 0.022215
Si Si5 0.807584 0.615902 0.532187
O O1 0.266954 0.223766 0.317199
O O2 0.297192 0.123540 0.362429
O O3 0.000000 0.163785 0.500000
O O4 0.182321 0.161625 0.158221
O O5 0.734170 0.105212 0.109803
O O6 0.799643 0.071870 0.333622
O O7 0.723814 0.000000 0.178636
O O8 0.000000 0.052388 0.000000
O O9 0.196910 0.704427 0.156681
O O10 0.262986 0.670665 0.373772
O O11 0.000000 0.724657 0.500000
O O12 0.500000 0.334845 0.000000
O O13 0.000000 0.610415 0.500000
#
# Coordination Sequence:
#
# PCOD9196161 Si02
#       5
#     8   8   8   8   8
#     4  11  20  34  58  84 113 150 188 225 269 328
#     4   9  18  36  59  79 106 145 185 228 278 330
#     4   9  19  35  53  78 114 150 183 222 269 324
#     4  10  20  35  56  82 110 143 186 230 273 324
#     4  10  21  36  55  82 113 142 180 230 278 323
#
# _framework density 21.749103999999999
#
# number of rings (size 3 to 8) (size 9 to 14) (size 15 to 20)
#    0.000    2.200    0.000    4.800    0.000    3.600 
#    0.000   10.000    0.000    8.400    0.000    0.000 
#    0.000    0.000    0.000    0.000    0.000    0.000 
#
# Total GULP energy -111490.661975 kJ/mol
# GULP energy per Si atom -5574.533099 kJ/mol
# Density = 2.169960 g / cm^3
# Si number density = 21.749104 Si / 1000 Ang^3
#
#
#
# Elastic Constant Matrix: (Units=GPa)
#
#
# Indices 1 2 3 4 5 6 
#
# 1 80.8906 15.1868 54.9397 0.0000 8.4303 0.0000
# 2 15.1868 100.6918 40.4107 0.0000 -6.9143 0.0000
# 3 54.9397 40.4107 178.9466 0.0000 21.1505 0.0000
# 4 0.0000 0.0000 0.0000 -24.3944 0.0000 10.3385
# 5 8.4303 -6.9143 21.1505 0.0000 25.4862 0.0000
# 6 0.0000 0.0000 0.0000 10.3385 0.0000 3.5907
#
#
#
# Elastic Compliance Matrix: (Units=1/GPa)
#
#
# Indices 1 2 3 4 5 6 
#
# 1 0.015700 -0.000690 -0.004466 0.000000 -0.001674 0.000000
# 2 -0.000690 0.011710 -0.003143 0.000000 0.006014 0.000000
# 3 -0.004466 -0.003143 0.008422 0.000000 -0.006364 0.000000
# 4 0.000000 0.000000 0.000000 -0.018463 0.000000 0.053160
# 5 -0.001674 0.006014 -0.006364 0.000000 0.046704 0.000000
# 6 0.000000 0.000000 0.000000 0.053160 0.000000 0.125435
#
#
# Mechanical properties :
#
#
# Convention : Reuss Voigt Hill
#
# Bulk Modulus (GPa) = 51.99838 64.62259 58.31049
# Shear Modulus (GPa) = 23.52749 17.60263 20.56506
#
# Velocity S-wave (km/s) = 3.29259 2.84799 3.07833
# Velocity P-wave (km/s) = 6.19799 6.37119 6.28518
#
# Compressibility (1/GPa) = 0.01923137
#
# Stress axis : x y z
#
# Youngs Moduli (GPa) = 63.69447 85.39829 118.74289
#
# Poissons Ratio (x) = 0.05896 0.53035
# Poissons Ratio (y) = 0.04397 0.37323
# Poissons Ratio (z) = 0.28449 0.26842
#
# Static dielectric constant tensor:
#      x y z
#    x 1.854630 0.000000 0.026690 
#    y 0.000000 1.809740 0.000000 
#    z 0.026690 0.000000 1.907690 
# 
# From -- ./inp_files/51879.got.cif
#   From: 2010.05.17/outbox.cif.g08.bks.cpg/sg12_26_cif.got.tgz:51879.got - 2010.06.03 13:09:07.
