data_PCOD9196463
_publ_section_title
;
Structure prediction by ZEFSAII (Michael W. Deem and Ramdas Pophale) SiO2 
 PCOD9196463
Probable space group: C 2/M
;
_chemical_formula_sum "Si O2"
_cell_formula_units_Z 64
_cell_length_a 12.419376
_cell_length_b 13.601093
_cell_length_c 20.645694
_cell_angle_alpha 90.000000
_cell_angle_beta 82.758426
_cell_angle_gamma 90.000000
_cell_volume 3459.593173
_symmetry_space_group_name_H-M "C 2/M"
_symmetry_group_IT_number 12
_symmetry_cell_setting 'monoclinic'
loop_
_space_group_symop_operation_xyz
x,y,z
-x,y,-z
-x,-y,-z
x,-y,z
1/2+x,1/2+y,z
1/2-x,1/2+y,-z
1/2-x,1/2-y,-z
1/2+x,1/2-y,z
loop_
_atom_site_type_symbol
_atom_site_label
_atom_site_fract_x
_atom_site_fract_y
_atom_site_fract_z
Si Si1 0.155258 0.115516 0.971740
Si Si2 0.498713 0.613240 0.239643
Si Si3 0.181211 0.116020 0.463451
Si Si4 0.085227 0.707075 0.548477
Si Si5 0.904670 0.235894 0.653484
Si Si6 0.244315 0.384016 0.264421
Si Si7 0.633825 0.888047 0.131844
Si Si8 0.041290 0.191183 0.099392
O O1 0.271318 0.120580 0.928929
O O2 0.067666 0.166270 0.931417
O O3 0.408031 0.000000 0.866057
O O4 0.138849 0.163779 0.043123
O O5 0.504943 0.500000 0.258622
O O6 0.566328 0.677170 0.284394
O O7 0.371360 0.641640 0.249638
O O8 0.542251 0.627156 0.163981
O O9 0.126723 0.184023 0.523314
O O10 0.309691 0.138767 0.456188
O O11 0.136854 0.163271 0.399966
O O12 0.158722 0.000000 0.470782
O O13 0.000000 0.673915 0.500000
O O14 0.015232 0.715350 0.618524
O O15 0.815914 0.317515 0.678270
O O16 0.236227 0.500000 0.280868
O O17 0.187671 0.370923 0.198375
O O18 0.548809 0.803750 0.121337
O O19 0.127596 0.000000 0.979151
#
# Coordination Sequence:
#
# PCOD9196463 Si02
#       8
#     8   8   8   8   8   8   8   8
#     4  10  20  35  57  81 108 142 187 237 285 329
#     4  11  21  34  55  81 111 145 186 232 277 333
#     4  10  21  39  61  87 118 145 179 229 277 321
#     4   9  21  39  60  85 113 150 188 221 264 325
#     4  11  21  37  57  85 115 147 183 226 278 327
#     4  10  21  37  55  78 109 149 190 226 268 328
#     4  10  20  36  55  77 106 145 186 229 280 333
#     4  11  19  33  56  83 105 142 188 236 278 332
#
# _framework density 18.499283999999999
#
# number of rings (size 3 to 8) (size 9 to 14) (size 15 to 20)
#    0.000    1.750    2.500    3.000    0.000    3.500 
#    0.000    8.750    0.000    4.500    0.000    0.000 
#    0.000    0.000    0.000    0.000    0.000    0.000 
#
# Total GULP energy -178632.022330 kJ/mol
# GULP energy per Si atom -5582.250698 kJ/mol
# Density = 1.845718 g / cm^3
# Si number density = 18.499284 Si / 1000 Ang^3
#
#
#
# Elastic Constant Matrix: (Units=GPa)
#
#
# Indices 1 2 3 4 5 6 
#
# 1 34.4303 16.5925 -2.5518 0.0000 4.5161 0.0000
# 2 16.5925 92.9851 4.9174 0.0000 5.7872 0.0000
# 3 -2.5518 4.9174 54.0931 0.0000 -8.0129 0.0000
# 4 0.0000 0.0000 0.0000 23.8160 0.0000 3.1566
# 5 4.5161 5.7872 -8.0129 0.0000 22.7305 0.0000
# 6 0.0000 0.0000 0.0000 3.1566 0.0000 21.9109
#
#
#
# Elastic Compliance Matrix: (Units=1/GPa)
#
#
# Indices 1 2 3 4 5 6 
#
# 1 0.032428 -0.005576 0.001364 0.000000 -0.004542 0.000000
# 2 -0.005576 0.012000 -0.001733 0.000000 -0.002558 0.000000
# 3 0.001364 -0.001733 0.019766 0.000000 0.007138 0.000000
# 4 0.000000 0.000000 0.000000 0.042806 0.000000 -0.006167
# 5 -0.004542 -0.002558 0.007138 0.000000 0.048064 0.000000
# 6 0.000000 0.000000 0.000000 -0.006167 0.000000 0.046528
#
#
# Mechanical properties :
#
#
# Convention : Reuss Voigt Hill
#
# Bulk Modulus (GPa) = 19.11893 24.38053 21.74973
# Shear Modulus (GPa) = 21.65279 24.52817 23.09048
#
# Velocity S-wave (km/s) = 3.42492 3.64524 3.53680
# Velocity P-wave (km/s) = 5.09877 5.56101 5.33490
#
# Compressibility (1/GPa) = 0.05230419
#
# Stress axis : x y z
#
# Youngs Moduli (GPa) = 30.83730 83.33141 50.59220
#
# Poissons Ratio (x) = 0.46466 -0.06900
# Poissons Ratio (y) = 0.17195 0.08767
# Poissons Ratio (z) = -0.04206 0.14441
#
# Static dielectric constant tensor:
#      x y z
#    x 1.629720 0.000000 -0.008350 
#    y 0.000000 1.630320 0.000000 
#    z -0.008350 0.000000 1.640710 
# 
# From -- ./inp_files/335222.got.cif
#   From: 2010.05.17/outbox.cif.g08.bks.cpg/sg12_168_cif.got.tgz:335222.got - 2010.06.03 13:09:07.
