data_PCOD9196203
_publ_section_title
;
Structure prediction by ZEFSAII (Michael W. Deem and Ramdas Pophale) SiO2 
 PCOD9196203
Probable space group: C 2/M
;
_chemical_formula_sum "Si O2"
_cell_formula_units_Z 50
_cell_length_a 14.720049
_cell_length_b 7.389289
_cell_length_c 17.962532
_cell_angle_alpha 90.000000
_cell_angle_beta 74.898706
_cell_angle_gamma 90.000000
_cell_volume 1886.326141
_symmetry_space_group_name_H-M "C 2/M"
_symmetry_group_IT_number 12
_symmetry_cell_setting 'monoclinic'
loop_
_space_group_symop_operation_xyz
x,y,z
-x,y,-z
-x,-y,-z
x,-y,z
1/2+x,1/2+y,z
1/2-x,1/2+y,-z
1/2-x,1/2-y,-z
1/2+x,1/2-y,z
loop_
_atom_site_type_symbol
_atom_site_label
_atom_site_fract_x
_atom_site_fract_y
_atom_site_fract_z
Si Si1 0.961080 0.711216 0.348555
Si Si2 0.669021 0.700106 0.316069
Si Si3 0.145452 0.719527 0.943211
Si Si4 0.561545 0.208267 0.804248
Si Si5 0.847559 0.786830 0.518239
Si Si6 0.500000 0.500000 0.000000
Si Si7 0.659998 0.281478 0.157270
O O1 0.980524 0.500000 0.330965
O O2 0.906380 0.774303 0.285284
O O3 0.920001 0.723226 0.440132
O O4 0.057373 0.816737 0.327645
O O5 0.713326 0.500000 0.314854
O O6 0.667687 0.793439 0.396517
O O7 0.697711 0.781277 0.231129
O O8 0.134280 0.500000 0.954745
O O9 0.104103 0.785455 0.870735
O O10 0.256389 0.766762 0.917097
O O11 0.077844 0.840656 0.007860
O O12 0.447310 0.218795 0.829795
O O13 0.589820 0.000000 0.802749
O O14 0.750000 0.750000 0.500000
O O15 0.866692 0.000000 0.524363
O O16 0.657725 0.500000 0.161880
#
# Coordination Sequence:
#
# PCOD9196203 Si02
#       7
#     8   8   8   8   8   2   8
#     4  10  20  35  56  82 113 154 200 252 305 358
#     4   9  19  36  56  79 111 156 201 250 308 360
#     4  10  23  44  69  95 134 167 203 258 310 377
#     4   9  20  38  64  92 125 163 208 256 310 368
#     4  11  23  35  49  75 115 156 203 255 305 363
#     4  12  26  44  72 102 128 170 206 248 312 386
#     4   9  19  37  65  92 121 161 211 258 310 370
#
# _framework density 26.506549
#
# number of rings (size 3 to 8) (size 9 to 14) (size 15 to 20)
#    0.000    2.240    0.000    1.680    4.480    3.840 
#    0.000    0.800    0.000    0.000    0.000    0.000 
#    0.000    0.000    0.000    0.000    0.000    0.000 
#
# Total GULP energy -139333.371536 kJ/mol
# GULP energy per Si atom -5573.334861 kJ/mol
# Density = 2.644622 g / cm^3
# Si number density = 26.506549 Si / 1000 Ang^3
#
#
#
# Elastic Constant Matrix: (Units=GPa)
#
#
# Indices 1 2 3 4 5 6 
#
# 1 63.7513 -1.8589 18.9564 0.0000 -25.5092 0.0000
# 2 -1.8589 130.9902 5.2246 0.0000 -15.4927 0.0000
# 3 18.9564 5.2246 172.4902 0.0000 -1.1845 0.0000
# 4 0.0000 0.0000 0.0000 -13.7379 0.0000 -20.3817
# 5 -25.5092 -15.4927 -1.1845 0.0000 63.1489 0.0000
# 6 0.0000 0.0000 0.0000 -20.3817 0.0000 15.0313
#
#
#
# Elastic Compliance Matrix: (Units=1/GPa)
#
#
# Indices 1 2 3 4 5 6 
#
# 1 0.019655 0.001338 -0.002144 0.000000 0.008227 0.000000
# 2 0.001338 0.007962 -0.000371 0.000000 0.002487 0.000000
# 3 -0.002144 -0.000371 0.006039 0.000000 -0.000844 0.000000
# 4 0.000000 0.000000 0.000000 -0.024169 0.000000 -0.032773
# 5 0.008227 0.002487 -0.000844 0.000000 0.019753 0.000000
# 6 0.000000 0.000000 0.000000 -0.032773 0.000000 0.022090
#
#
# Mechanical properties :
#
#
# Convention : Reuss Voigt Hill
#
# Bulk Modulus (GPa) = 31.94891 45.76399 38.85645
# Shear Modulus (GPa) = 77.98212 35.88242 56.93227
#
# Velocity S-wave (km/s) = 5.42990 3.68328 4.63953
# Velocity P-wave (km/s) = 7.16876 5.94907 6.58721
#
# Compressibility (1/GPa) = 0.03129998
#
# Stress axis : x y z
#
# Youngs Moduli (GPa) = 50.87873 125.59573 165.60400
#
# Poissons Ratio (x) = -0.16799 0.35506
# Poissons Ratio (y) = -0.06805 0.06145
# Poissons Ratio (z) = 0.10909 0.04661
#
# Static dielectric constant tensor:
#      x y z
#    x 2.063030 0.000000 0.016070 
#    y 0.000000 2.071620 0.000000 
#    z 0.016070 0.000000 2.462830 
# 
# From -- ./inp_files/274199.got.cif
#   From: 2010.05.17/outbox.cif.g08.bks.cpg/sg12_138_cif.got.tgz:274199.got - 2010.06.03 13:09:07.
