data_PCOD9196314
_publ_section_title
;
Structure prediction by ZEFSAII (Michael W. Deem and Ramdas Pophale) SiO2 
 PCOD9196314
Probable space group: C 2/M
;
_chemical_formula_sum "Si O2"
_cell_formula_units_Z 56
_cell_length_a 10.334936
_cell_length_b 21.626712
_cell_length_c 24.961255
_cell_angle_alpha 90.000000
_cell_angle_beta 149.151485
_cell_angle_gamma 90.000000
_cell_volume 2860.798807
_symmetry_space_group_name_H-M "C 2/M"
_symmetry_group_IT_number 12
_symmetry_cell_setting 'monoclinic'
loop_
_space_group_symop_operation_xyz
x,y,z
-x,y,-z
-x,-y,-z
x,-y,z
1/2+x,1/2+y,z
1/2-x,1/2+y,-z
1/2-x,1/2-y,-z
1/2+x,1/2-y,z
loop_
_atom_site_type_symbol
_atom_site_label
_atom_site_fract_x
_atom_site_fract_y
_atom_site_fract_z
Si Si1 0.987663 0.171461 0.873028
Si Si2 0.848663 0.695123 0.088556
Si Si3 0.582383 0.312661 0.434698
Si Si4 0.917242 0.429779 0.532723
Si Si5 0.617521 0.670807 0.756712
Si Si6 0.537759 0.202654 0.269817
Si Si7 0.039001 0.930397 0.224031
O O1 0.148322 0.230201 0.908771
O O2 0.687359 0.186816 0.768796
O O3 0.023258 0.112283 0.848789
O O4 0.101323 0.167371 0.973560
O O5 0.935942 0.674009 0.178102
O O6 0.085418 0.681298 0.134287
O O7 0.750000 0.250000 0.500000
O O8 0.745191 0.375130 0.494666
O O9 0.472003 0.315768 0.335161
O O10 0.330414 0.313754 0.382159
O O11 0.808309 0.500000 0.493025
O O12 0.000000 0.415821 0.500000
O O13 0.163299 0.431463 0.657608
O O14 0.467646 0.722697 0.736718
O O15 0.565611 0.603485 0.760474
O O16 0.947689 0.000000 0.185163
#
# Coordination Sequence:
#
# PCOD9196314 Si02
#       7
#     8   8   8   8   8   8   8
#     4  10  20  36  56  83 114 148 194 234 293 351
#     4   9  19  34  59  82 111 148 186 249 293 339
#     4  11  23  34  58  89 120 154 194 246 295 342
#     4  10  21  38  59  81 113 158 199 235 286 349
#     4  10  20  36  54  87 119 147 195 238 295 347
#     4  10  20  35  56  84 115 149 186 245 295 345
#     4  11  22  38  59  83 120 157 191 238 288 355
#
# _framework density 19.574953000000001
#
# number of rings (size 3 to 8) (size 9 to 14) (size 15 to 20)
#    0.000    1.857    2.857    1.286    4.000    0.571 
#    0.000    2.143    0.000    5.143    0.000    0.000 
#    0.000    0.000    0.000    0.000    0.000    0.000 
#
# Total GULP energy -156006.168140 kJ/mol
# GULP energy per Si atom -5571.648862 kJ/mol
# Density = 1.953040 g / cm^3
# Si number density = 19.574953 Si / 1000 Ang^3
#
#
#
# Elastic Constant Matrix: (Units=GPa)
#
#
# Indices 1 2 3 4 5 6 
#
# 1 37.9382 34.4272 23.6604 0.0003 10.9139 0.0004
# 2 34.4272 135.0806 42.8660 -0.0004 15.6417 -0.0002
# 3 23.6604 42.8660 81.2890 0.0011 6.7181 -0.0001
# 4 0.0003 -0.0004 0.0011 27.2791 0.0002 -3.7236
# 5 10.9139 15.6417 6.7181 0.0002 35.5309 0.0001
# 6 0.0004 -0.0002 -0.0001 -3.7236 0.0001 22.5449
#
#
#
# Elastic Compliance Matrix: (Units=1/GPa)
#
#
# Indices 1 2 3 4 5 6 
#
# 1 0.039254 -0.006833 -0.007186 0.000000 -0.007690 -0.000001
# 2 -0.006833 0.010424 -0.003355 0.000000 -0.001856 0.000000
# 3 -0.007186 -0.003355 0.016110 -0.000001 0.000638 0.000000
# 4 0.000000 0.000000 -0.000001 0.037504 0.000000 0.006194
# 5 -0.007690 -0.001856 0.000638 0.000000 0.031203 0.000000
# 6 -0.000001 0.000000 0.000000 0.006194 0.000000 0.045379
#
#
# Mechanical properties :
#
#
# Convention : Reuss Voigt Hill
#
# Bulk Modulus (GPa) = 32.21772 50.69058 41.45415
# Shear Modulus (GPa) = 22.22536 27.29457 24.75996
#
# Velocity S-wave (km/s) = 3.37322 3.73817 3.56037
# Velocity P-wave (km/s) = 5.62724 6.67710 6.17453
#
# Compressibility (1/GPa) = 0.03103882
#
# Stress axis : x y z
#
# Youngs Moduli (GPa) = 25.47523 95.93278 62.07434
#
# Poissons Ratio (x) = 0.65554 0.44609
# Poissons Ratio (y) = 0.17408 0.20823
# Poissons Ratio (z) = 0.18308 0.32181
#
# Static dielectric constant tensor:
#      x y z
#    x 1.789100 0.000000 -0.017490 
#    y 0.000000 1.680140 0.000000 
#    z -0.017490 0.000000 1.750640 
# 
# From -- ./inp_files/358942.got.cif
#   From: 2010.05.17/outbox.cif.g08.bks.cpg/sg12_180_cif.got.tgz:358942.got - 2010.06.03 13:09:07.
