data_PCOD9196172
_publ_section_title
;
Structure prediction by ZEFSAII (Michael W. Deem and Ramdas Pophale) SiO2 
 PCOD9196172
Probable space group: C 2/M
;
_chemical_formula_sum "Si O2"
_cell_formula_units_Z 64
_cell_length_a 13.085935
_cell_length_b 13.089018
_cell_length_c 19.313970
_cell_angle_alpha 90.000000
_cell_angle_beta 92.997257
_cell_angle_gamma 90.000000
_cell_volume 3303.610757
_symmetry_space_group_name_H-M "C 2/M"
_symmetry_group_IT_number 12
_symmetry_cell_setting 'monoclinic'
loop_
_space_group_symop_operation_xyz
x,y,z
-x,y,-z
-x,-y,-z
x,-y,z
1/2+x,1/2+y,z
1/2-x,1/2+y,-z
1/2-x,1/2-y,-z
1/2+x,1/2-y,z
loop_
_atom_site_type_symbol
_atom_site_label
_atom_site_fract_x
_atom_site_fract_y
_atom_site_fract_z
Si Si1 0.349292 0.882246 0.821035
Si Si2 0.549014 0.322506 0.160132
Si Si3 0.833891 0.170814 0.083260
Si Si4 0.771521 0.877906 0.318401
Si Si5 0.504410 0.377588 0.315224
Si Si6 0.307114 0.885438 0.529273
Si Si7 0.596623 0.321905 0.460853
Si Si8 0.265801 0.613969 0.928734
O O1 0.434154 0.799871 0.844557
O O2 0.256208 0.875005 0.872322
O O3 0.301613 0.844363 0.746276
O O4 0.383321 0.000000 0.816919
O O5 0.443840 0.352991 0.119079
O O6 0.542802 0.354189 0.239817
O O7 0.646520 0.371329 0.125732
O O8 0.813840 0.293122 0.081510
O O9 0.819247 0.130215 0.005260
O O10 0.727122 0.862254 0.392930
O O11 0.887118 0.838379 0.316606
O O12 0.779470 0.000000 0.308854
O O13 0.505367 0.500000 0.326312
O O14 0.568936 0.328665 0.379428
O O15 0.382350 0.793889 0.513040
O O16 0.202728 0.878072 0.481524
O O17 0.348919 0.000000 0.526670
O O18 0.500000 0.364828 0.500000
O O19 0.222073 0.500000 0.923386
#
# Coordination Sequence:
#
# PCOD9196172 Si02
#       8
#     8   8   8   8   8   8   8   8
#     4  10  20  35  56  82 111 145 185 226 270 324
#     4  11  22  36  57  84 110 144 183 225 272 327
#     4  10  21  37  56  82 112 144 184 224 272 329
#     4   9  17  32  55  78 104 142 183 222 267 316
#     4  11  21  34  57  84 110 142 182 229 274 321
#     4  10  21  37  57  81 112 148 184 226 275 326
#     4  11  22  36  57  85 111 143 185 229 274 325
#     4  10  22  38  57  81 112 145 180 227 276 324
#
# _framework density 19.372743
#
# number of rings (size 3 to 8) (size 9 to 14) (size 15 to 20)
#    0.000    1.750    2.500    2.250    0.000    3.250 
#    0.000    0.000    0.000    4.500    0.000    0.000 
#    0.000    0.000    0.000    0.000    0.000    0.000 
#
# Total GULP energy -178672.988223 kJ/mol
# GULP energy per Si atom -5583.530882 kJ/mol
# Density = 1.932865 g / cm^3
# Si number density = 19.372743 Si / 1000 Ang^3
#
#
#
# Elastic Constant Matrix: (Units=GPa)
#
#
# Indices 1 2 3 4 5 6 
#
# 1 35.2022 -5.9197 -1.3204 0.0000 5.6547 0.0000
# 2 -5.9197 83.6943 -22.3978 0.0000 3.6376 0.0000
# 3 -1.3204 -22.3978 61.8793 0.0000 10.4608 0.0000
# 4 0.0000 0.0000 0.0000 19.0395 0.0000 -1.8835
# 5 5.6547 3.6376 10.4608 0.0000 10.6045 0.0000
# 6 0.0000 0.0000 0.0000 -1.8835 0.0000 3.7773
#
#
#
# Elastic Compliance Matrix: (Units=1/GPa)
#
#
# Indices 1 2 3 4 5 6 
#
# 1 0.034001 0.005558 0.007350 0.000000 -0.027288 0.000000
# 2 0.005558 0.015328 0.008469 0.000000 -0.016576 0.000000
# 3 0.007350 0.008469 0.024647 0.000000 -0.031137 0.000000
# 4 0.000000 0.000000 0.000000 0.055248 0.000000 0.027548
# 5 -0.027288 -0.016576 -0.031137 0.000000 0.145253 0.000000
# 6 0.000000 0.000000 0.000000 0.027548 0.000000 0.278478
#
#
# Mechanical properties :
#
#
# Convention : Reuss Voigt Hill
#
# Bulk Modulus (GPa) = 8.56672 13.49999 11.03335
# Shear Modulus (GPa) = 9.10566 20.71183 14.90875
#
# Velocity S-wave (km/s) = 2.17036 3.27329 2.77713
# Velocity P-wave (km/s) = 3.27296 4.61190 3.99886
#
# Compressibility (1/GPa) = 0.11673083
#
# Stress axis : x y z
#
# Youngs Moduli (GPa) = 29.41083 65.23905 40.57355
#
# Poissons Ratio (x) = -0.36260 -0.29823
# Poissons Ratio (y) = -0.16347 -0.34362
# Poissons Ratio (z) = -0.21618 -0.55251
#
# Static dielectric constant tensor:
#      x y z
#    x 1.649740 0.000000 0.002850 
#    y 0.000000 1.695890 0.000000 
#    z 0.002850 0.000000 1.666730 
# 
# From -- ./inp_files/263357.got.cif
#   From: 2010.05.17/outbox.cif.g08.bks.cpg/sg12_132_cif.got.tgz:263357.got - 2010.06.03 13:09:07.
