data_PCOD9196617
_publ_section_title
;
Structure prediction by ZEFSAII (Michael W. Deem and Ramdas Pophale) SiO2 
 PCOD9196617
Probable space group: C 2/M
;
_chemical_formula_sum "Si O2"
_cell_formula_units_Z 40
_cell_length_a 31.789308
_cell_length_b 14.692436
_cell_length_c 10.038351
_cell_angle_alpha 90.000000
_cell_angle_beta 155.078973
_cell_angle_gamma 90.000000
_cell_volume 1975.602156
_symmetry_space_group_name_H-M "C 2/M"
_symmetry_group_IT_number 12
_symmetry_cell_setting 'monoclinic'
loop_
_space_group_symop_operation_xyz
x,y,z
-x,y,-z
-x,-y,-z
x,-y,z
1/2+x,1/2+y,z
1/2-x,1/2+y,-z
1/2-x,1/2-y,-z
1/2+x,1/2-y,z
loop_
_atom_site_type_symbol
_atom_site_label
_atom_site_fract_x
_atom_site_fract_y
_atom_site_fract_z
Si Si1 0.791703 0.607910 0.131911
Si Si2 0.660821 0.319913 0.230334
Si Si3 0.663062 0.602024 0.521809
Si Si4 0.464807 0.225680 0.757260
Si Si5 0.613998 0.607731 0.815105
O O1 0.804795 0.500000 0.196758
O O2 0.887249 0.662780 0.456434
O O3 0.764335 0.617064 0.897169
O O4 0.692221 0.640775 0.927402
O O5 0.750000 0.250000 0.500000
O O6 0.668553 0.386032 0.379673
O O7 0.560970 0.259002 0.953386
O O8 0.662745 0.372649 0.097586
O O9 0.627850 0.500000 0.455031
O O10 0.589858 0.680659 0.359443
O O11 0.500000 0.183233 0.000000
O O12 0.500000 0.643685 0.500000
O O13 0.604527 0.500000 0.762626
#
# Coordination Sequence:
#
# PCOD9196617 Si02
#       5
#     8   8   8   8   8
#     4  10  21  39  61  84 114 153 195 236 281 342
#     4  11  23  37  55  82 116 149 186 234 288 338
#     4  10  21  38  61  86 113 148 190 236 286 340
#     4  10  21  36  58  84 113 151 193 236 283 341
#     4  10  20  35  57  84 111 141 183 236 288 332
#
# _framework density 20.246991000000001
#
# number of rings (size 3 to 8) (size 9 to 14) (size 15 to 20)
#    0.000    1.800    0.000    4.800    0.000    8.000 
#    0.000    2.000    0.000    2.400    0.000    0.000 
#    0.000    0.000    0.000    0.000    0.000    0.000 
#
# Total GULP energy -111664.358257 kJ/mol
# GULP energy per Si atom -5583.217913 kJ/mol
# Density = 2.020091 g / cm^3
# Si number density = 20.246991 Si / 1000 Ang^3
#
#
#
# Elastic Constant Matrix: (Units=GPa)
#
#
# Indices 1 2 3 4 5 6 
#
# 1 49.9990 1.1370 24.4789 0.0000 -22.9711 0.0000
# 2 1.1370 62.7914 39.5116 0.0000 1.3833 0.0000
# 3 24.4789 39.5116 123.4792 0.0000 -21.1796 0.0000
# 4 0.0000 0.0000 0.0000 32.6215 0.0000 -11.0886
# 5 -22.9711 1.3833 -21.1796 0.0000 27.8526 0.0000
# 6 0.0000 0.0000 0.0000 -11.0886 0.0000 12.1547
#
#
#
# Elastic Compliance Matrix: (Units=1/GPa)
#
#
# Indices 1 2 3 4 5 6 
#
# 1 0.032687 0.000256 -0.002231 0.000000 0.025249 0.000000
# 2 0.000256 0.021100 -0.007988 0.000000 -0.006911 0.000000
# 3 -0.002231 -0.007988 0.012477 0.000000 0.008044 0.000000
# 4 0.000000 0.000000 0.000000 0.044434 0.000000 0.040536
# 5 0.025249 -0.006911 0.008044 0.000000 0.063187 0.000000
# 6 0.000000 0.000000 0.000000 0.040536 0.000000 0.119254
#
#
# Mechanical properties :
#
#
# Convention : Reuss Voigt Hill
#
# Bulk Modulus (GPa) = 21.58095 40.72497 31.15296
# Shear Modulus (GPa) = 15.22026 25.93522 20.57774
#
# Velocity S-wave (km/s) = 2.74474 3.58291 3.19146
# Velocity P-wave (km/s) = 4.55267 6.10525 5.38520
#
# Compressibility (1/GPa) = 0.04633715
#
# Stress axis : x y z
#
# Youngs Moduli (GPa) = 30.59327 47.39418 80.15065
#
# Poissons Ratio (x) = -0.01212 0.17882
# Poissons Ratio (y) = -0.00782 0.64022
# Poissons Ratio (z) = 0.06825 0.37857
#
# Static dielectric constant tensor:
#      x y z
#    x 1.743070 0.000000 -0.020050 
#    y 0.000000 1.713380 0.000000 
#    z -0.020050 0.000000 1.742560 
# 
# From -- ./inp_files/112120.got.cif
#   From: 2010.05.17/outbox.cif.g08.bks.cpg/sg12_57_cif.got.tgz:112120.got - 2010.06.03 13:09:07.
