data_PCOD9196815
_publ_section_title
;
Structure prediction by ZEFSAII (Michael W. Deem and Ramdas Pophale) SiO2 
 PCOD9196815
Probable space group: C 2/M
;
_chemical_formula_sum "Si O2"
_cell_formula_units_Z 64
_cell_length_a 22.860684
_cell_length_b 14.783306
_cell_length_c 17.550579
_cell_angle_alpha 90.000000
_cell_angle_beta 146.369562
_cell_angle_gamma 90.000000
_cell_volume 3284.973072
_symmetry_space_group_name_H-M "C 2/M"
_symmetry_group_IT_number 12
_symmetry_cell_setting 'monoclinic'
loop_
_space_group_symop_operation_xyz
x,y,z
-x,y,-z
-x,-y,-z
x,-y,z
1/2+x,1/2+y,z
1/2-x,1/2+y,-z
1/2-x,1/2-y,-z
1/2+x,1/2-y,z
loop_
_atom_site_type_symbol
_atom_site_label
_atom_site_fract_x
_atom_site_fract_y
_atom_site_fract_z
Si Si1 0.120910 0.250739 0.127396
Si Si2 0.821940 0.103434 0.921175
Si Si3 0.657039 0.108276 0.876250
Si Si4 0.187418 0.604020 0.085241
Si Si5 0.025868 0.250893 0.349680
Si Si6 0.571116 0.401448 0.650623
Si Si7 0.236950 0.214644 0.398478
Si Si8 0.051808 0.102414 0.245486
O O1 0.188964 0.172438 0.160120
O O2 0.120974 0.333319 0.068257
O O3 0.171508 0.272650 0.264633
O O4 0.000000 0.219608 0.000000
O O5 0.748762 0.129360 0.914253
O O6 0.795847 0.000000 0.872131
O O7 0.944664 0.105175 0.080054
O O8 0.552934 0.166141 0.748072
O O9 0.639433 0.000000 0.853066
O O10 0.688778 0.130172 0.997667
O O11 0.152881 0.500000 0.052472
O O12 0.308300 0.611476 0.242270
O O13 0.141853 0.287574 0.497168
O O14 0.037981 0.184298 0.290037
O O15 0.972284 0.182806 0.350642
O O16 0.500000 0.408558 0.500000
O O17 0.567838 0.500000 0.688770
O O18 0.250000 0.250000 0.500000
O O19 0.161579 0.126407 0.321937
O O20 0.059288 0.000000 0.285148
#
# Coordination Sequence:
#
# PCOD9196815 Si02
#       8
#     8   8   8   8   8   8   8   8
#     4  12  23  39  65  90 121 165 213 259 312 364
#     4  10  21  38  63  95 125 156 207 262 308 369
#     4  10  22  39  62  93 127 166 206 253 316 376
#     4  10  22  39  61  91 126 161 210 262 310 372
#     4  11  21  36  60  85 123 158 204 251 305 374
#     4  10  20  35  57  87 120 156 199 255 319 369
#     4  10  24  41  56  85 125 165 208 255 303 369
#     4  10  20  37  60  87 117 157 204 255 305 356
#
# _framework density 19.482655999999999
#
# number of rings (size 3 to 8) (size 9 to 14) (size 15 to 20)
#    0.000    1.625    1.250    3.375    1.750    5.000 
#    0.000    2.500    0.000    1.875    0.000    0.000 
#    0.000    0.000    0.000    0.000    0.000    0.000 
#
# Total GULP energy -178387.819618 kJ/mol
# GULP energy per Si atom -5574.619363 kJ/mol
# Density = 1.943831 g / cm^3
# Si number density = 19.482656 Si / 1000 Ang^3
#
#
#
# Elastic Constant Matrix: (Units=GPa)
#
#
# Indices 1 2 3 4 5 6 
#
# 1 64.4499 41.4819 5.7968 0.0000 -9.0658 0.0000
# 2 41.4819 65.3946 20.7211 0.0000 5.5712 0.0000
# 3 5.7968 20.7211 70.0608 0.0000 3.1794 0.0000
# 4 0.0000 0.0000 0.0000 18.8452 0.0000 21.0784
# 5 -9.0658 5.5712 3.1794 0.0000 28.4413 0.0000
# 6 0.0000 0.0000 0.0000 21.0784 0.0000 -113.4499
#
#
#
# Elastic Compliance Matrix: (Units=1/GPa)
#
#
# Indices 1 2 3 4 5 6 
#
# 1 0.031496 -0.022229 0.003332 0.000000 0.014021 0.000000
# 2 -0.022229 0.032781 -0.007280 0.000000 -0.012693 0.000000
# 3 0.003332 -0.007280 0.016120 0.000000 0.000686 0.000000
# 4 0.000000 0.000000 0.000000 0.043934 0.000000 0.008163
# 5 0.014021 -0.012693 0.000686 0.000000 0.042039 0.000000
# 6 0.000000 0.000000 0.000000 0.008163 0.000000 -0.007298
#
#
# Mechanical properties :
#
#
# Convention : Reuss Voigt Hill
#
# Bulk Modulus (GPa) = 35.66043 37.32275 36.49159
# Shear Modulus (GPa) = 22.64775 -4.43898 9.10439
#
# Velocity S-wave (km/s) = 3.41318 -1.51108 2.16407
# Velocity P-wave (km/s) = 5.82035 4.01920 5.00152
#
# Compressibility (1/GPa) = 0.02804229
#
# Stress axis : x y z
#
# Youngs Moduli (GPa) = 31.75014 30.50587 62.03643
#
# Poissons Ratio (x) = 0.67812 -0.20672
# Poissons Ratio (y) = 0.70578 0.45162
# Poissons Ratio (z) = -0.10580 0.22208
#
# Static dielectric constant tensor:
#      x y z
#    x 1.212490 0.000000 0.053130 
#    y 0.000000 1.720420 0.000000 
#    z 0.053130 0.000000 1.652890 
# 
# From -- ./inp_files/290137.got.cif
#   From: 2010.05.17/outbox.cif.g08.bks.cpg/sg12_146_cif.got.tgz:290137.got - 2010.06.03 13:09:07.
