data_PCOD9196199
_publ_section_title
;
Structure prediction by ZEFSAII (Michael W. Deem and Ramdas Pophale) SiO2 
 PCOD9196199
Probable space group: C 2/M
;
_chemical_formula_sum "Si O2"
_cell_formula_units_Z 48
_cell_length_a 29.587976
_cell_length_b 7.728852
_cell_length_c 17.120889
_cell_angle_alpha 90.000000
_cell_angle_beta 150.594071
_cell_angle_gamma 90.000000
_cell_volume 1922.350881
_symmetry_space_group_name_H-M "C 2/M"
_symmetry_group_IT_number 12
_symmetry_cell_setting 'monoclinic'
loop_
_space_group_symop_operation_xyz
x,y,z
-x,y,-z
-x,-y,-z
x,-y,z
1/2+x,1/2+y,z
1/2-x,1/2+y,-z
1/2-x,1/2-y,-z
1/2+x,1/2-y,z
loop_
_atom_site_type_symbol
_atom_site_label
_atom_site_fract_x
_atom_site_fract_y
_atom_site_fract_z
Si Si1 0.395750 0.197894 0.346860
Si Si2 0.103390 0.800325 0.817556
Si Si3 0.777939 0.289873 0.679881
Si Si4 0.290849 0.801084 0.871027
Si Si5 0.932867 0.788015 0.653204
Si Si6 0.449986 0.702548 0.849740
O O1 0.500000 0.268868 0.500000
O O2 0.361188 0.202499 0.204905
O O3 0.319688 0.292257 0.283956
O O4 0.400658 0.000000 0.381049
O O5 0.002767 0.732617 0.691421
O O6 0.097294 0.000000 0.784773
O O7 0.163048 0.790150 0.986000
O O8 0.780642 0.500000 0.681967
O O9 0.813592 0.232113 0.819135
O O10 0.672283 0.234973 0.514235
O O11 0.842392 0.218581 0.709054
O O12 0.319385 0.000000 0.917855
O O13 0.967542 0.726206 0.790262
O O14 0.934887 0.000000 0.656375
O O15 0.474947 0.500000 0.884266
O O16 0.500000 0.783913 0.000000
#
# Coordination Sequence:
#
# PCOD9196199 Si02
#       6
#     8   8   8   8   8   8
#     4  11  24  41  61  87 118 150 189 236 284 339
#     4  11  22  39  63  86 114 152 192 235 286 342
#     4  10  21  37  57  82 112 147 189 235 282 335
#     4  11  23  39  59  84 116 152 193 239 287 341
#     4   9  19  36  57  82 112 148 189 232 282 342
#     4  10  20  35  56  82 113 148 187 231 281 339
#
# _framework density 24.969428000000001
#
# number of rings (size 3 to 8) (size 9 to 14) (size 15 to 20)
#    0.000    1.667    0.000    4.500    0.000    5.667 
#    0.000    3.333    0.000    0.000    0.000    0.000 
#    0.000    0.000    0.000    0.000    0.000    0.000 
#
# Total GULP energy -134363.417553 kJ/mol
# GULP energy per Si atom -5598.475731 kJ/mol
# Density = 2.491260 g / cm^3
# Si number density = 24.969428 Si / 1000 Ang^3
#
#
#
# Elastic Constant Matrix: (Units=GPa)
#
#
# Indices 1 2 3 4 5 6 
#
# 1 103.6793 0.1073 -13.3777 0.0000 -3.2294 0.0000
# 2 0.1073 61.9991 1.1099 0.0000 -5.2158 0.0000
# 3 -13.3777 1.1099 64.2203 0.0000 -1.0559 0.0000
# 4 0.0000 0.0000 0.0000 23.0711 0.0000 7.1358
# 5 -3.2294 -5.2158 -1.0559 0.0000 46.5983 0.0000
# 6 0.0000 0.0000 0.0000 7.1358 0.0000 12.5017
#
#
#
# Elastic Compliance Matrix: (Units=1/GPa)
#
#
# Indices 1 2 3 4 5 6 
#
# 1 0.009937 0.000008 0.002082 0.000000 0.000737 0.000000
# 2 0.000008 0.016287 -0.000250 0.000000 0.001818 0.000000
# 3 0.002082 -0.000250 0.016017 0.000000 0.000479 0.000000
# 4 0.000000 0.000000 0.000000 0.052637 0.000000 -0.030045
# 5 0.000737 0.001818 0.000479 0.000000 0.021725 0.000000
# 6 0.000000 0.000000 0.000000 -0.030045 0.000000 0.097138
#
#
# Mechanical properties :
#
#
# Convention : Reuss Voigt Hill
#
# Bulk Modulus (GPa) = 21.77729 22.84196 22.30963
# Shear Modulus (GPa) = 22.18586 32.57151 27.37868
#
# Velocity S-wave (km/s) = 2.98404 3.61564 3.31492
# Velocity P-wave (km/s) = 4.54017 5.15736 4.85858
#
# Compressibility (1/GPa) = 0.04591939
#
# Stress axis : x y z
#
# Youngs Moduli (GPa) = 100.63717 61.39998 62.43255
#
# Poissons Ratio (x) = -0.00046 -0.12998
# Poissons Ratio (y) = -0.00076 0.01561
# Poissons Ratio (z) = -0.20952 0.01535
#
# Static dielectric constant tensor:
#      x y z
#    x 1.905610 0.000000 -0.010660 
#    y 0.000000 1.873710 0.000000 
#    z -0.010660 0.000000 2.051220 
# 
# From -- ./inp_files/295341.got.cif
#   From: 2010.05.17/outbox.cif.g08.bks.cpg/sg12_148_cif.got.tgz:295341.got - 2010.06.03 13:09:07.
