data_PCOD9196228
_publ_section_title
;
Structure prediction by ZEFSAII (Michael W. Deem and Ramdas Pophale) SiO2 
 PCOD9196228
Probable space group: C 2/M
;
_chemical_formula_sum "Si O2"
_cell_formula_units_Z 40
_cell_length_a 23.060152
_cell_length_b 13.306057
_cell_length_c 7.883017
_cell_angle_alpha 90.000000
_cell_angle_beta 112.940724
_cell_angle_gamma 90.000000
_cell_volume 2227.514476
_symmetry_space_group_name_H-M "C 2/M"
_symmetry_group_IT_number 12
_symmetry_cell_setting 'monoclinic'
loop_
_space_group_symop_operation_xyz
x,y,z
-x,y,-z
-x,-y,-z
x,-y,z
1/2+x,1/2+y,z
1/2-x,1/2+y,-z
1/2-x,1/2-y,-z
1/2+x,1/2-y,z
loop_
_atom_site_type_symbol
_atom_site_label
_atom_site_fract_x
_atom_site_fract_y
_atom_site_fract_z
Si Si1 0.281958 0.116114 0.187278
Si Si2 0.340425 0.761179 0.952496
Si Si3 0.443687 0.386088 0.191774
Si Si4 0.820668 0.709355 0.563527
Si Si5 0.587060 0.613551 0.441211
O O1 0.216992 0.179920 0.116942
O O2 0.316932 0.130152 0.407343
O O3 0.268819 0.000000 0.137869
O O4 0.324732 0.166069 0.090524
O O5 0.340860 0.820427 0.775509
O O6 0.403654 0.697334 0.050537
O O7 0.430595 0.500000 0.115484
O O8 0.423468 0.382163 0.367494
O O9 0.518800 0.371151 0.277684
O O10 0.750000 0.750000 0.500000
O O11 0.864518 0.802023 0.558220
O O12 0.608766 0.500000 0.424930
#
# Coordination Sequence:
#
# PCOD9196228 Si02
#       5
#     8   8   8   8   8
#     4  10  21  37  54  77 111 146 183 225 270 321
#     4  10  20  35  56  83 108 143 184 223 273 326
#     4   9  17  32  57  85 113 144 179 221 277 335
#     4  10  21  35  52  79 112 145 180 221 268 322
#     4   9  18  33  55  84 115 146 177 221 279 332
#
# _framework density 17.957234
#
# number of rings (size 3 to 8) (size 9 to 14) (size 15 to 20)
#    0.000    2.400    2.000    1.800    0.000    5.600 
#    0.000    2.000    0.000    2.400    0.000    2.800 
#    0.000    0.000    0.000    0.000    0.000    0.000 
#
# Total GULP energy -111560.368005 kJ/mol
# GULP energy per Si atom -5578.018400 kJ/mol
# Density = 1.791636 g / cm^3
# Si number density = 17.957234 Si / 1000 Ang^3
#
#
#
# Elastic Constant Matrix: (Units=GPa)
#
#
# Indices 1 2 3 4 5 6 
#
# 1 54.7793 21.2093 3.4976 0.0000 -1.3895 0.0000
# 2 21.2093 63.7175 23.2848 0.0000 -8.7219 0.0000
# 3 3.4976 23.2848 90.0522 0.0000 -8.1768 0.0000
# 4 0.0000 0.0000 0.0000 19.1733 0.0000 11.8536
# 5 -1.3895 -8.7219 -8.1768 0.0000 18.5377 0.0000
# 6 0.0000 0.0000 0.0000 11.8536 0.0000 10.8325
#
#
#
# Elastic Compliance Matrix: (Units=1/GPa)
#
#
# Indices 1 2 3 4 5 6 
#
# 1 0.021095 -0.007601 0.001005 0.000000 -0.001552 0.000000
# 2 -0.007601 0.020841 -0.004433 0.000000 0.007281 0.000000
# 3 0.001005 -0.004433 0.012531 0.000000 0.003517 0.000000
# 4 0.000000 0.000000 0.000000 0.161228 0.000000 -0.176426
# 5 -0.001552 0.007281 0.003517 0.000000 0.058805 0.000000
# 6 0.000000 0.000000 0.000000 -0.176426 0.000000 0.285370
#
#
# Mechanical properties :
#
#
# Convention : Reuss Voigt Hill
#
# Bulk Modulus (GPa) = 30.85530 33.83692 32.34611
# Shear Modulus (GPa) = 8.43554 20.41254 14.42404
#
# Velocity S-wave (km/s) = 2.16974 3.37520 2.83723
# Velocity P-wave (km/s) = 4.84737 5.83723 5.36518
#
# Compressibility (1/GPa) = 0.03240934
#
# Stress axis : x y z
#
# Youngs Moduli (GPa) = 47.40544 47.98250 79.80137
#
# Poissons Ratio (x) = 0.36474 -0.08022
# Poissons Ratio (y) = 0.36035 0.35372
# Poissons Ratio (z) = -0.04766 0.21268
#
# Static dielectric constant tensor:
#      x y z
#    x 1.605300 0.000000 -0.031420 
#    y 0.000000 1.567200 0.000000 
#    z -0.031420 0.000000 1.665930 
# 
# From -- ./inp_files/83473.got.cif
#   From: 2010.05.17/outbox.cif.g08.bks.cpg/sg12_42_cif.got.tgz:83473.got - 2010.06.03 13:09:07.
