data_PCOD9196771
_publ_section_title
;
Structure prediction by ZEFSAII (Michael W. Deem and Ramdas Pophale) SiO2 
 PCOD9196771
Probable space group: C 2/M
;
_chemical_formula_sum "Si O2"
_cell_formula_units_Z 46
_cell_length_a 17.336814
_cell_length_b 23.463824
_cell_length_c 8.057568
_cell_angle_alpha 90.000000
_cell_angle_beta 128.686114
_cell_angle_gamma 90.000000
_cell_volume 2558.530197
_symmetry_space_group_name_H-M "C 2/M"
_symmetry_group_IT_number 12
_symmetry_cell_setting 'monoclinic'
loop_
_space_group_symop_operation_xyz
x,y,z
-x,y,-z
-x,-y,-z
x,-y,z
1/2+x,1/2+y,z
1/2-x,1/2+y,-z
1/2-x,1/2-y,-z
1/2+x,1/2-y,z
loop_
_atom_site_type_symbol
_atom_site_label
_atom_site_fract_x
_atom_site_fract_y
_atom_site_fract_z
Si Si1 0.705591 0.840608 0.383125
Si Si2 0.155308 0.067088 0.286298
Si Si3 0.000000 0.304567 0.000000
Si Si4 0.295612 0.758069 0.306203
Si Si5 0.912070 0.226676 0.160653
Si Si6 0.000000 0.000000 0.500000
Si Si7 0.551737 0.404262 0.811797
O O1 0.757271 0.897923 0.511185
O O2 0.598070 0.841894 0.155435
O O3 0.692523 0.801303 0.527762
O O4 0.776851 0.804729 0.356768
O O5 0.054535 0.079170 0.252405
O O6 0.173007 0.000000 0.312954
O O7 0.131048 0.086634 0.066158
O O8 0.982263 0.262832 0.133769
O O9 0.385099 0.756024 0.298005
O O10 0.193948 0.774879 0.076765
O O11 0.947746 0.162179 0.232677
O O12 0.064221 0.949267 0.681573
#
# Coordination Sequence:
#
# PCOD9196771 Si02
#       7
#     8   8   4   8   8   2   8
#     4  10  21  37  56  82 115 154 195 243 279 346
#     4  11  21  40  57  78 113 162 192 225 290 342
#     4  10  22  38  57  85 118 144 194 248 292 334
#     4   9  20  35  56  85 116 150 192 229 299 342
#     4  10  20  35  57  86 117 152 183 236 291 355
#     4  12  24  34  48  88 120 144 196 230 274 350
#     4  11  22  35  55  84 118 149 186 231 284 355
#
# _framework density 17.979074000000001
#
# number of rings (size 3 to 8) (size 9 to 14) (size 15 to 20)
#    0.000    1.739    3.478    1.565    7.304    0.696 
#    0.000    0.435    0.000    0.000    0.000    2.435 
#    0.000    0.000    0.000    0.000    0.000    0.000 
#
# Total GULP energy -128157.331093 kJ/mol
# GULP energy per Si atom -5572.057874 kJ/mol
# Density = 1.793815 g / cm^3
# Si number density = 17.979074 Si / 1000 Ang^3
#
#
#
# Elastic Constant Matrix: (Units=GPa)
#
#
# Indices 1 2 3 4 5 6 
#
# 1 69.5751 18.1550 12.2477 0.0000 -6.1001 0.0000
# 2 18.1550 92.9434 34.3471 0.0000 14.4744 0.0000
# 3 12.2477 34.3471 59.8533 0.0000 5.7933 0.0000
# 4 0.0000 0.0000 0.0000 38.3189 0.0000 2.7611
# 5 -6.1001 14.4744 5.7933 0.0000 24.1790 0.0000
# 6 0.0000 0.0000 0.0000 2.7611 0.0000 11.1140
#
#
#
# Elastic Compliance Matrix: (Units=1/GPa)
#
#
# Indices 1 2 3 4 5 6 
#
# 1 0.016207 -0.003473 -0.001966 0.000000 0.006639 0.000000
# 2 -0.003473 0.015457 -0.007349 0.000000 -0.008368 0.000000
# 3 -0.001966 -0.007349 0.021447 0.000000 -0.001235 0.000000
# 4 0.000000 0.000000 0.000000 0.026572 0.000000 -0.006602
# 5 0.006639 -0.008368 -0.001235 0.000000 0.048339 0.000000
# 6 0.000000 0.000000 0.000000 -0.006602 0.000000 0.091616
#
#
# Mechanical properties :
#
#
# Convention : Reuss Voigt Hill
#
# Bulk Modulus (GPa) = 36.31870 39.09682 37.70776
# Shear Modulus (GPa) = 19.65457 25.23053 22.44255
#
# Velocity S-wave (km/s) = 3.30993 3.75017 3.53690
# Velocity P-wave (km/s) = 5.90355 6.36746 6.13989
#
# Compressibility (1/GPa) = 0.02753403
#
# Stress axis : x y z
#
# Youngs Moduli (GPa) = 61.69987 64.69621 46.62705
#
# Poissons Ratio (x) = 0.22471 0.09167
# Poissons Ratio (y) = 0.21430 0.34267
# Poissons Ratio (z) = 0.12130 0.47547
#
# Static dielectric constant tensor:
#      x y z
#    x 1.639010 0.000000 -0.029050 
#    y 0.000000 1.578100 0.000000 
#    z -0.029050 0.000000 1.677940 
# 
# From -- ./inp_files/90504.got.cif
#   From: 2010.05.17/outbox.cif.g08.bks.cpg/sg12_46_cif.got.tgz:90504.got - 2010.06.03 13:09:07.
