data_PCOD9196489
_publ_section_title
;
Structure prediction by ZEFSAII (Michael W. Deem and Ramdas Pophale) SiO2 
 PCOD9196489
Probable space group: C 2/M
;
_chemical_formula_sum "Si O2"
_cell_formula_units_Z 48
_cell_length_a 16.895415
_cell_length_b 13.111329
_cell_length_c 13.112731
_cell_angle_alpha 90.000000
_cell_angle_beta 111.983893
_cell_angle_gamma 90.000000
_cell_volume 2693.542910
_symmetry_space_group_name_H-M "C 2/M"
_symmetry_group_IT_number 12
_symmetry_cell_setting 'monoclinic'
loop_
_space_group_symop_operation_xyz
x,y,z
-x,y,-z
-x,-y,-z
x,-y,z
1/2+x,1/2+y,z
1/2-x,1/2+y,-z
1/2-x,1/2-y,-z
1/2+x,1/2-y,z
loop_
_atom_site_type_symbol
_atom_site_label
_atom_site_fract_x
_atom_site_fract_y
_atom_site_fract_z
Si Si1 0.584256 0.780391 0.302985
Si Si2 0.755031 0.383785 0.720426
Si Si3 0.412183 0.880484 0.298614
Si Si4 0.596185 0.706960 0.534568
Si Si5 0.923306 0.119309 0.883430
Si Si6 0.749808 0.290556 0.114462
O O1 0.660979 0.850860 0.300999
O O2 0.498374 0.843288 0.284650
O O3 0.610441 0.731600 0.423496
O O4 0.568893 0.693266 0.210510
O O5 0.760574 0.500000 0.755111
O O6 0.670386 0.364075 0.613124
O O7 0.749193 0.308513 0.812942
O O8 0.402336 0.810235 0.395231
O O9 0.332480 0.855596 0.186738
O O10 0.415637 0.000000 0.324947
O O11 0.500000 0.664791 0.500000
O O12 0.834985 0.146884 0.897446
O O13 0.923960 0.000000 0.854208
O O14 0.000000 0.137117 0.000000
O O15 0.750000 0.250000 0.000000
#
# Coordination Sequence:
#
# PCOD9196489 Si02
#       6
#     8   8   8   8   8   8
#     4  10  20  36  55  80 110 140 176 220 264 314
#     4  10  21  35  53  78 107 139 174 216 266 315
#     4  10  20  35  57  82 107 140 180 221 266 314
#     4   9  20  36  53  78 109 140 177 219 262 314
#     4  10  21  37  57  80 107 142 180 218 265 318
#     4  10  21  38  56  78 108 138 177 224 264 315
#
# _framework density 17.820395999999999
#
# number of rings (size 3 to 8) (size 9 to 14) (size 15 to 20)
#    0.000    2.167    0.000    2.500    0.000    6.000 
#    0.000   10.000    0.000    5.500    0.000    0.000 
#    0.000    0.000    0.000    0.000    0.000    0.000 
#
# Total GULP energy -133972.390240 kJ/mol
# GULP energy per Si atom -5582.182927 kJ/mol
# Density = 1.777984 g / cm^3
# Si number density = 17.820396 Si / 1000 Ang^3
#
#
#
# Elastic Constant Matrix: (Units=GPa)
#
#
# Indices 1 2 3 4 5 6 
#
# 1 81.0973 31.6912 39.3970 0.0000 11.9256 0.0000
# 2 31.6912 85.6850 12.8736 0.0000 6.2740 0.0000
# 3 39.3970 12.8736 83.2712 0.0000 5.8584 0.0000
# 4 0.0000 0.0000 0.0000 4.1232 0.0000 -3.3464
# 5 11.9256 6.2740 5.8584 0.0000 33.4846 0.0000
# 6 0.0000 0.0000 0.0000 -3.3464 0.0000 9.2306
#
#
#
# Elastic Compliance Matrix: (Units=1/GPa)
#
#
# Indices 1 2 3 4 5 6 
#
# 1 0.018902 -0.005504 -0.007787 0.000000 -0.004339 0.000000
# 2 -0.005504 0.013676 0.000539 0.000000 -0.000697 0.000000
# 3 -0.007787 0.000539 0.015614 0.000000 -0.000059 0.000000
# 4 0.000000 0.000000 0.000000 0.343639 0.000000 0.124580
# 5 -0.004339 -0.000697 -0.000059 0.000000 0.031551 0.000000
# 6 0.000000 0.000000 0.000000 0.124580 0.000000 0.153500
#
#
# Mechanical properties :
#
#
# Convention : Reuss Voigt Hill
#
# Bulk Modulus (GPa) = 44.07490 46.44190 45.25840
# Shear Modulus (GPa) = 8.19741 20.44046 14.31894
#
# Velocity S-wave (km/s) = 2.14709 3.39045 2.83771
# Velocity P-wave (km/s) = 5.56176 6.43774 6.01572
#
# Compressibility (1/GPa) = 0.02268865
#
# Stress axis : x y z
#
# Youngs Moduli (GPa) = 52.90313 73.11923 64.04492
#
# Poissons Ratio (x) = 0.40242 0.49872
# Poissons Ratio (y) = 0.29116 -0.03449
# Poissons Ratio (z) = 0.41196 -0.03938
#
# Static dielectric constant tensor:
#      x y z
#    x 1.610770 0.000000 0.013620 
#    y 0.000000 1.575290 0.000000 
#    z 0.013620 0.000000 1.584630 
# 
# From -- ./inp_files/154192.got.cif
#   From: 2010.05.17/outbox.cif.g08.bks.cpg/sg12_78_cif.got.tgz:154192.got - 2010.06.03 13:09:07.
