data_PCOD9196503
_publ_section_title
;
Structure prediction by ZEFSAII (Michael W. Deem and Ramdas Pophale) SiO2 
 PCOD9196503
Probable space group: C 2/M
;
_chemical_formula_sum "Si O2"
_cell_formula_units_Z 64
_cell_length_a 21.731777
_cell_length_b 12.892227
_cell_length_c 21.512520
_cell_angle_alpha 90.000000
_cell_angle_beta 35.017762
_cell_angle_gamma 90.000000
_cell_volume 3458.581272
_symmetry_space_group_name_H-M "C 2/M"
_symmetry_group_IT_number 12
_symmetry_cell_setting 'monoclinic'
loop_
_space_group_symop_operation_xyz
x,y,z
-x,y,-z
-x,-y,-z
x,-y,z
1/2+x,1/2+y,z
1/2-x,1/2+y,-z
1/2-x,1/2-y,-z
1/2+x,1/2-y,z
loop_
_atom_site_type_symbol
_atom_site_label
_atom_site_fract_x
_atom_site_fract_y
_atom_site_fract_z
Si Si1 0.975032 0.194768 0.451655
Si Si2 0.847121 0.182450 0.339355
Si Si3 0.788314 0.622284 0.903390
Si Si4 0.902273 0.376867 0.032315
Si Si5 0.299717 0.238021 0.766259
Si Si6 0.213754 0.113696 0.474297
Si Si7 0.420491 0.250202 0.889723
Si Si8 0.329732 0.120165 0.611539
O O1 0.885404 0.131034 0.490071
O O2 0.924702 0.310503 0.502828
O O3 0.000000 0.154070 0.500000
O O4 0.086798 0.203009 0.323758
O O5 0.830476 0.128016 0.419393
O O6 0.799992 0.298081 0.388516
O O7 0.771543 0.129430 0.350665
O O8 0.968768 0.193138 0.217113
O O9 0.793511 0.500000 0.906040
O O10 0.794435 0.657330 0.826946
O O11 0.882127 0.677290 0.864995
O O12 0.675583 0.667749 0.021386
O O13 0.883208 0.500000 0.038641
O O14 0.797929 0.318400 0.146015
O O15 0.928270 0.319470 0.945723
O O16 0.000000 0.365409 0.000000
O O17 0.300653 0.177464 0.700035
O O18 0.260631 0.000000 0.427893
O O19 0.358464 0.000000 0.596640
#
# Coordination Sequence:
#
# PCOD9196503 Si02
#       8
#     8   8   8   8   8   8   8   8
#     4   9  20  36  53  79 111 141 178 220 263 317
#     4  10  21  38  56  80 110 140 178 221 265 318
#     4  10  21  35  54  80 106 137 178 222 268 316
#     4  10  21  37  57  80 107 142 182 222 267 317
#     4  10  20  36  55  80 111 141 177 223 267 316
#     4  10  21  36  55  80 109 141 177 218 266 319
#     4  10  21  38  56  77 108 140 177 223 266 317
#     4  10  20  35  57  82 109 143 180 219 266 318
#
# _framework density 18.504698000000001
#
# number of rings (size 3 to 8) (size 9 to 14) (size 15 to 20)
#    0.000    2.125    0.000    2.625    0.000    5.500 
#    0.000    7.500    0.000    4.125    0.000    0.000 
#    0.000    0.000    0.000    0.000    0.000    0.000 
#
# Total GULP energy -178681.414032 kJ/mol
# GULP energy per Si atom -5583.794188 kJ/mol
# Density = 1.846258 g / cm^3
# Si number density = 18.504698 Si / 1000 Ang^3
#
#
#
# Elastic Constant Matrix: (Units=GPa)
#
#
# Indices 1 2 3 4 5 6 
#
# 1 71.8391 -13.9400 -2.5864 0.0000 -2.6932 0.0000
# 2 -13.9400 47.5762 -15.8455 0.0000 4.9448 0.0000
# 3 -2.5864 -15.8455 58.3376 0.0000 -9.6848 0.0000
# 4 0.0000 0.0000 0.0000 2.8777 0.0000 -3.2620
# 5 -2.6932 4.9448 -9.6848 0.0000 24.3322 0.0000
# 6 0.0000 0.0000 0.0000 -3.2620 0.0000 -0.0597
#
#
#
# Elastic Compliance Matrix: (Units=1/GPa)
#
#
# Indices 1 2 3 4 5 6 
#
# 1 0.015031 0.005003 0.002284 0.000000 0.001556 0.000000
# 2 0.005003 0.024901 0.006679 0.000000 -0.001848 0.000000
# 3 0.002284 0.006679 0.020209 0.000000 0.006939 0.000000
# 4 0.000000 0.000000 0.000000 0.005519 0.000000 -0.301688
# 5 0.001556 -0.001848 0.006939 0.000000 0.044408 0.000000
# 6 0.000000 0.000000 0.000000 -0.301688 0.000000 -0.266144
#
#
# Mechanical properties :
#
#
# Convention : Reuss Voigt Hill
#
# Bulk Modulus (GPa) = 11.35431 12.55655 11.95543
# Shear Modulus (GPa) = -32.33117 19.43837 -6.44640
#
# Velocity S-wave (km/s) = -4.18447 3.24459 -1.86848
# Velocity P-wave (km/s) = 4.14695 4.56474 1.34901
#
# Compressibility (1/GPa) = 0.08807227
#
# Stress axis : x y z
#
# Youngs Moduli (GPa) = 66.52748 40.15855 49.48324
#
# Poissons Ratio (x) = -0.20092 -0.11300
# Poissons Ratio (y) = -0.33285 -0.33048
# Poissons Ratio (z) = -0.15193 -0.26820
#
# Static dielectric constant tensor:
#      x y z
#    x 1.634550 0.000000 0.012380 
#    y 0.000000 1.613000 0.000000 
#    z 0.012380 0.000000 1.612620 
# 
# From -- ./inp_files/321232.got.cif
#   From: 2010.05.17/outbox.cif.g08.bks.cpg/sg12_161_cif.got.tgz:321232.got - 2010.06.03 13:09:07.
