data_PCOD9196931
_publ_section_title
;
Structure prediction by ZEFSAII (Michael W. Deem and Ramdas Pophale) SiO2 
 PCOD9196931
Probable space group: C 2/M
;
_chemical_formula_sum "Si O2"
_cell_formula_units_Z 64
_cell_length_a 33.626677
_cell_length_b 9.318551
_cell_length_c 19.240678
_cell_angle_alpha 90.000000
_cell_angle_beta 36.627748
_cell_angle_gamma 90.000000
_cell_volume 3597.044932
_symmetry_space_group_name_H-M "C 2/M"
_symmetry_group_IT_number 12
_symmetry_cell_setting 'monoclinic'
loop_
_space_group_symop_operation_xyz
x,y,z
-x,y,-z
-x,-y,-z
x,-y,z
1/2+x,1/2+y,z
1/2-x,1/2+y,-z
1/2-x,1/2-y,-z
1/2+x,1/2-y,z
loop_
_atom_site_type_symbol
_atom_site_label
_atom_site_fract_x
_atom_site_fract_y
_atom_site_fract_z
Si Si1 0.327444 0.170948 0.967936
Si Si2 0.033447 0.833969 0.877876
Si Si3 0.430898 0.169041 0.556035
Si Si4 0.202958 0.664612 0.468860
Si Si5 0.579666 0.671126 0.573584
Si Si6 0.045179 0.171110 0.150033
Si Si7 0.669917 0.164033 0.679686
Si Si8 0.190216 0.329516 0.169995
O O1 0.389477 0.242767 0.919681
O O2 0.332602 0.199082 0.877471
O O3 0.326906 0.000000 0.978944
O O4 0.257287 0.240418 0.089085
O O5 0.098080 0.735362 0.786695
O O6 0.982349 0.793870 0.888174
O O7 0.053681 0.000000 0.835421
O O8 0.000000 0.827628 0.000000
O O9 0.500000 0.187694 0.500000
O O10 0.430734 0.265732 0.488188
O O11 0.368989 0.203219 0.693486
O O12 0.425794 0.000000 0.543897
O O13 0.204809 0.500000 0.441789
O O14 0.144256 0.752550 0.515152
O O15 0.273762 0.742561 0.361244
O O16 0.187777 0.663188 0.572665
O O17 0.588859 0.500000 0.559784
O O18 0.515320 0.702323 0.711851
O O19 0.058812 0.000000 0.133710
O O20 0.670464 0.000000 0.703500
O O21 0.204887 0.500000 0.153891
#
# Coordination Sequence:
#
# PCOD9196931 Si02
#       8
#     8   8   8   8   8   8   8   8
#     4  10  20  35  60  87 110 146 192 235 276 327
#     4  10  21  39  60  81 110 151 193 232 281 344
#     4  10  21  38  59  84 117 155 191 228 277 340
#     4  10  20  35  58  84 111 148 188 227 279 341
#     4  11  22  36  57  85 116 147 186 239 288 332
#     4  10  21  37  57  82 112 145 186 234 284 338
#     4  10  20  35  58  85 113 144 183 235 285 332
#     4   9  19  37  58  82 115 151 187 228 276 334
#
# _framework density 17.792383000000001
#
# number of rings (size 3 to 8) (size 9 to 14) (size 15 to 20)
#    0.000    2.000    1.250    2.250    0.000    5.000 
#    2.250    0.000    0.000    0.000    0.000    0.000 
#    0.000    0.000    0.000    0.000    0.000    0.000 
#
# Total GULP energy -178683.330274 kJ/mol
# GULP energy per Si atom -5583.854071 kJ/mol
# Density = 1.775189 g / cm^3
# Si number density = 17.792383 Si / 1000 Ang^3
#
#
#
# Elastic Constant Matrix: (Units=GPa)
#
#
# Indices 1 2 3 4 5 6 
#
# 1 115.6482 78.7213 77.8111 -0.0041 -25.8648 0.0027
# 2 78.7213 104.8831 70.7595 -0.0121 -20.3132 0.0085
# 3 77.8111 70.7595 93.1992 -0.0003 -12.6109 0.0020
# 4 -0.0041 -0.0121 -0.0003 27.1133 0.0007 -4.4111
# 5 -25.8648 -20.3132 -12.6109 0.0007 30.6205 -0.0003
# 6 0.0027 0.0085 0.0020 -4.4111 -0.0003 35.1724
#
#
#
# Elastic Compliance Matrix: (Units=1/GPa)
#
#
# Indices 1 2 3 4 5 6 
#
# 1 0.026024 -0.007696 -0.014404 0.000000 0.010945 0.000001
# 2 -0.007696 0.023475 -0.010770 0.000009 0.004637 -0.000003
# 3 -0.014404 -0.010770 0.029991 -0.000006 -0.006960 0.000001
# 4 0.000000 0.000009 -0.000006 0.037650 0.000002 0.004722
# 5 0.010945 0.004637 -0.006960 0.000002 0.042113 -0.000001
# 6 0.000001 -0.000003 0.000001 0.004722 -0.000001 0.029024
#
#
# Mechanical properties :
#
#
# Convention : Reuss Voigt Hill
#
# Bulk Modulus (GPa) = 72.72533 85.36825 79.04679
# Shear Modulus (GPa) = 19.33496 24.34383 21.83939
#
# Velocity S-wave (km/s) = 3.30009 3.70295 3.50731
# Velocity P-wave (km/s) = 7.44875 8.14659 7.80547
#
# Compressibility (1/GPa) = 0.01375037
#
# Stress axis : x y z
#
# Youngs Moduli (GPa) = 38.42536 42.59926 33.34380
#
# Poissons Ratio (x) = 0.32783 0.48028
# Poissons Ratio (y) = 0.29571 0.35912
# Poissons Ratio (z) = 0.55347 0.45880
#
# Static dielectric constant tensor:
#      x y z
#    x 1.584560 0.000000 0.010370 
#    y 0.000000 1.600040 0.000000 
#    z 0.010370 0.000000 1.582250 
# 
# From -- ./inp_files/295541.got.cif
#   From: 2010.05.17/outbox.cif.g08.bks.cpg/sg12_148_cif.got.tgz:295541.got - 2010.06.03 13:09:07.
