data_PCOD9196045
_publ_section_title
;
Structure prediction by ZEFSAII (Michael W. Deem and Ramdas Pophale) SiO2 
 PCOD9196045
Probable space group: C 2/M
;
_chemical_formula_sum "Si O2"
_cell_formula_units_Z 40
_cell_length_a 15.084648
_cell_length_b 17.191953
_cell_length_c 12.022339
_cell_angle_alpha 90.000000
_cell_angle_beta 35.794678
_cell_angle_gamma 90.000000
_cell_volume 1823.550818
_symmetry_space_group_name_H-M "C 2/M"
_symmetry_group_IT_number 12
_symmetry_cell_setting 'monoclinic'
loop_
_space_group_symop_operation_xyz
x,y,z
-x,y,-z
-x,-y,-z
x,-y,z
1/2+x,1/2+y,z
1/2-x,1/2+y,-z
1/2-x,1/2-y,-z
1/2+x,1/2-y,z
loop_
_atom_site_type_symbol
_atom_site_label
_atom_site_fract_x
_atom_site_fract_y
_atom_site_fract_z
Si Si1 0.383025 0.197159 0.816317
Si Si2 0.066569 0.089896 0.809747
Si Si3 0.074455 0.406697 0.801330
Si Si4 0.360676 0.693069 0.454697
Si Si5 0.177326 0.414888 0.307962
O O1 0.469355 0.141954 0.819879
O O2 0.512918 0.249446 0.623035
O O3 0.296251 0.145323 0.814636
O O4 0.250000 0.250000 0.000000
O O5 0.038218 0.143953 0.735439
O O6 0.245618 0.101010 0.653130
O O7 0.039690 0.000000 0.811473
O O8 0.000000 0.108802 0.000000
O O9 0.083718 0.500000 0.763664
O O10 0.242390 0.366045 0.633997
O O11 0.000000 0.400399 0.000000
O O12 0.250000 0.750000 0.500000
O O13 0.235038 0.500000 0.215403
O O14 0.000000 0.418924 0.500000
#
# Coordination Sequence:
#
# PCOD9196045 Si02
#       5
#     8   8   8   8   8
#     4  11  23  36  57  89 121 149 183 242 307 354
#     4  10  20  35  57  82 109 143 183 230 283 342
#     4  10  22  42  63  80 110 162 212 244 278 341
#     4  10  21  36  57  85 115 151 192 237 288 347
#     4  10  20  35  56  80 109 145 182 226 282 341
#
# _framework density 21.935227000000001
#
# number of rings (size 3 to 8) (size 9 to 14) (size 15 to 20)
#    0.000    1.800    0.000    4.800    0.000    9.600 
#    0.000    3.000    0.000    2.400    0.000    0.000 
#    0.000    0.000    0.000    0.000    0.000    0.000 
#
# Total GULP energy -111514.265264 kJ/mol
# GULP energy per Si atom -5575.713263 kJ/mol
# Density = 2.188530 g / cm^3
# Si number density = 21.935227 Si / 1000 Ang^3
#
#
#
# Elastic Constant Matrix: (Units=GPa)
#
#
# Indices 1 2 3 4 5 6 
#
# 1 50.3267 40.7349 5.1837 -0.0003 -2.0514 0.0004
# 2 40.7349 142.4752 53.0781 -0.0002 13.8175 0.0004
# 3 5.1837 53.0781 108.1592 -0.0004 -2.5395 0.0007
# 4 -0.0003 -0.0002 -0.0004 40.1370 0.0003 17.2968
# 5 -2.0514 13.8175 -2.5395 0.0003 35.0471 -0.0005
# 6 0.0004 0.0004 0.0007 17.2968 -0.0005 -5.0877
#
#
#
# Elastic Compliance Matrix: (Units=1/GPa)
#
#
# Indices 1 2 3 4 5 6 
#
# 1 0.027684 -0.009826 0.003630 0.000000 0.005757 0.000001
# 2 -0.009826 0.012583 -0.005844 0.000000 -0.005960 0.000000
# 3 0.003630 -0.005844 0.012019 0.000000 0.003388 0.000001
# 4 0.000000 0.000000 0.000000 0.010107 0.000000 0.034361
# 5 0.005757 -0.005960 0.003388 0.000000 0.031465 -0.000001
# 6 0.000001 0.000000 0.000001 0.034361 -0.000001 -0.079734
#
#
# Mechanical properties :
#
#
# Convention : Reuss Voigt Hill
#
# Bulk Modulus (GPa) = 35.45201 55.43937 45.44569
# Shear Modulus (GPa) = 105.02812 27.48358 66.25585
#
# Velocity S-wave (km/s) = 6.92712 3.54353 5.50189
# Velocity P-wave (km/s) = 8.95417 6.48623 7.81819
#
# Compressibility (1/GPa) = 0.02820715
#
# Stress axis : x y z
#
# Youngs Moduli (GPa) = 36.12169 79.47056 83.20065
#
# Poissons Ratio (x) = 0.78088 -0.30205
# Poissons Ratio (y) = 0.35493 0.48624
# Poissons Ratio (z) = -0.13114 0.46444
#
# Static dielectric constant tensor:
#      x y z
#    x 1.840760 0.000000 -0.002570 
#    y 0.000000 1.782700 0.000000 
#    z -0.002570 0.000000 1.937850 
# 
# From -- ./inp_files/61396.got.cif
#   From: 2010.05.17/outbox.cif.g08.bks.cpg/sg12_31_cif.got.tgz:61396.got - 2010.06.03 13:09:07.
