data_PCOD9196695
_publ_section_title
;
Structure prediction by ZEFSAII (Michael W. Deem and Ramdas Pophale) SiO2 
 PCOD9196695
Probable space group: C 2/M
;
_chemical_formula_sum "Si O2"
_cell_formula_units_Z 48
_cell_length_a 11.620761
_cell_length_b 18.753650
_cell_length_c 11.784235
_cell_angle_alpha 90.000000
_cell_angle_beta 100.888201
_cell_angle_gamma 90.000000
_cell_volume 2521.925257
_symmetry_space_group_name_H-M "C 2/M"
_symmetry_group_IT_number 12
_symmetry_cell_setting 'monoclinic'
loop_
_space_group_symop_operation_xyz
x,y,z
-x,y,-z
-x,-y,-z
x,-y,z
1/2+x,1/2+y,z
1/2-x,1/2+y,-z
1/2-x,1/2-y,-z
1/2+x,1/2-y,z
loop_
_atom_site_type_symbol
_atom_site_label
_atom_site_fract_x
_atom_site_fract_y
_atom_site_fract_z
Si Si1 0.267751 0.582272 0.534265
Si Si2 0.855819 0.325234 0.673641
Si Si3 0.310030 0.315377 0.153288
Si Si4 0.430907 0.334562 0.714551
Si Si5 0.262035 0.652733 0.893877
Si Si6 0.915034 0.419707 0.291961
O O1 0.271372 0.500000 0.496676
O O2 0.231830 0.637740 0.430906
O O3 0.386631 0.606053 0.618847
O O4 0.167154 0.588223 0.612735
O O5 0.799005 0.334386 0.787038
O O6 0.879360 0.241260 0.661870
O O7 0.978977 0.365058 0.685756
O O8 0.431131 0.330275 0.239975
O O9 0.299653 0.230382 0.129052
O O10 0.302336 0.353841 0.030584
O O11 0.369366 0.347799 0.825192
O O12 0.168318 0.596190 0.830674
O O13 0.961222 0.500000 0.298621
#
# Coordination Sequence:
#
# PCOD9196695 Si02
#       6
#     8   8   8   8   8   8
#     4  10  22  40  59  80 112 154 191 228 278 337
#     4  11  21  35  56  87 114 145 189 235 282 331
#     4  10  20  35  57  85 114 146 184 235 283 326
#     4  10  20  37  59  84 111 148 190 233 274 335
#     4   9  19  36  58  83 112 147 189 229 277 334
#     4  10  20  38  60  83 114 150 190 232 278 334
#
# _framework density 19.033079000000001
#
# number of rings (size 3 to 8) (size 9 to 14) (size 15 to 20)
#    0.000    2.000    1.667    2.000    0.000    2.667 
#    3.000    5.833    0.000    4.000    0.000    0.000 
#    0.000    0.000    0.000    0.000    0.000    0.000 
#
# Total GULP energy -134000.274501 kJ/mol
# GULP energy per Si atom -5583.344771 kJ/mol
# Density = 1.898976 g / cm^3
# Si number density = 19.033079 Si / 1000 Ang^3
#
#
#
# Elastic Constant Matrix: (Units=GPa)
#
#
# Indices 1 2 3 4 5 6 
#
# 1 26.7268 -6.8237 -10.4176 0.0000 14.5854 0.0000
# 2 -6.8237 30.2579 22.7963 0.0000 -9.1449 0.0000
# 3 -10.4176 22.7963 73.2391 0.0000 4.9724 0.0000
# 4 0.0000 0.0000 0.0000 13.6508 0.0000 -0.4611
# 5 14.5854 -9.1449 4.9724 0.0000 16.7312 0.0000
# 6 0.0000 0.0000 0.0000 -0.4611 0.0000 22.0288
#
#
#
# Elastic Compliance Matrix: (Units=1/GPa)
#
#
# Indices 1 2 3 4 5 6 
#
# 1 0.118283 -0.046715 0.040925 0.000000 -0.140809 0.000000
# 2 -0.046715 0.080224 -0.038126 0.000000 0.095904 0.000000
# 3 0.040925 -0.038126 0.035904 0.000000 -0.067186 0.000000
# 4 0.000000 0.000000 0.000000 0.073308 0.000000 0.001535
# 5 -0.140809 0.095904 -0.067186 0.000000 0.254905 0.000000
# 6 0.000000 0.000000 0.000000 0.001535 0.000000 0.045427
#
#
# Mechanical properties :
#
#
# Convention : Reuss Voigt Hill
#
# Bulk Modulus (GPa) = 6.82233 15.70375 11.26304
# Shear Modulus (GPa) = 6.71373 18.79340 12.75356
#
# Velocity S-wave (km/s) = 1.88017 3.14571 2.59139
# Velocity P-wave (km/s) = 2.88195 4.63278 3.85800
#
# Compressibility (1/GPa) = 0.14657743
#
# Stress axis : x y z
#
# Youngs Moduli (GPa) = 8.45430 12.46515 27.85228
#
# Poissons Ratio (x) = 0.58231 -1.13986
# Poissons Ratio (y) = 0.39495 1.06190
# Poissons Ratio (z) = -0.34599 0.47525
#
# Static dielectric constant tensor:
#      x y z
#    x 1.640020 0.000000 -0.002280 
#    y 0.000000 1.643470 0.000000 
#    z -0.002280 0.000000 1.661210 
# 
# From -- ./inp_files/131160.got.cif
#   From: 2010.05.17/outbox.cif.g08.bks.cpg/sg12_66_cif.got.tgz:131160.got - 2010.06.03 13:09:07.
