data_PCOD9196929
_publ_section_title
;
Structure prediction by ZEFSAII (Michael W. Deem and Ramdas Pophale) SiO2 
 PCOD9196929
Probable space group: C 2/M
;
_chemical_formula_sum "Si O2"
_cell_formula_units_Z 40
_cell_length_a 16.959883
_cell_length_b 11.402460
_cell_length_c 9.428379
_cell_angle_alpha 90.000000
_cell_angle_beta 79.350384
_cell_angle_gamma 90.000000
_cell_volume 1791.896183
_symmetry_space_group_name_H-M "C 2/M"
_symmetry_group_IT_number 12
_symmetry_cell_setting 'monoclinic'
loop_
_space_group_symop_operation_xyz
x,y,z
-x,y,-z
-x,-y,-z
x,-y,z
1/2+x,1/2+y,z
1/2-x,1/2+y,-z
1/2-x,1/2-y,-z
1/2+x,1/2-y,z
loop_
_atom_site_type_symbol
_atom_site_label
_atom_site_fract_x
_atom_site_fract_y
_atom_site_fract_z
Si Si1 0.563097 0.668108 0.779792
Si Si2 0.615922 0.628117 0.083850
Si Si3 0.993603 0.371139 0.348524
Si Si4 0.672626 0.871578 0.167076
Si Si5 0.276499 0.628755 0.415963
O O1 0.469343 0.633111 0.803452
O O2 0.558480 0.806384 0.751398
O O3 0.628023 0.626768 0.644596
O O4 0.591950 0.634601 0.926212
O O5 0.651765 0.500000 0.102029
O O6 0.668247 0.744003 0.094813
O O7 0.040622 0.500000 0.614499
O O8 0.000000 0.309946 0.500000
O O9 0.083498 0.378707 0.262285
O O10 0.735082 0.866824 0.275031
O O11 0.684316 0.000000 0.089864
O O12 0.254173 0.500000 0.486793
O O13 0.250000 0.750000 0.500000
#
# Coordination Sequence:
#
# PCOD9196929 Si02
#       5
#     8   8   8   8   8
#     4  10  20  35  58  84 111 145 185 230 277 325
#     4  10  20  37  60  83 110 145 186 230 275 326
#     4   9  17  32  54  79 109 146 187 229 272 322
#     4   9  20  36  53  78 112 146 182 226 275 325
#     4  11  23  39  58  82 114 149 184 226 276 330
#
# _framework density 22.322723
#
# number of rings (size 3 to 8) (size 9 to 14) (size 15 to 20)
#    0.000    2.200    0.000    3.600    0.000    4.800 
#    0.000    4.000    0.000    9.600    0.000    0.000 
#    0.000    0.000    0.000    0.000    0.000    0.000 
#
# Total GULP energy -111372.417420 kJ/mol
# GULP energy per Si atom -5568.620871 kJ/mol
# Density = 2.227192 g / cm^3
# Si number density = 22.322723 Si / 1000 Ang^3
#
#
#
# Elastic Constant Matrix: (Units=GPa)
#
#
# Indices 1 2 3 4 5 6 
#
# 1 69.7164 53.3574 18.7556 0.0000 -20.8061 0.0000
# 2 53.3574 219.5638 49.1490 0.0000 -0.0503 0.0000
# 3 18.7556 49.1490 38.3735 0.0000 -20.2071 0.0000
# 4 0.0000 0.0000 0.0000 4300.8384 0.0000 5247.4948
# 5 -20.8061 -0.0503 -20.2071 0.0000 33.3599 0.0000
# 6 0.0000 0.0000 0.0000 5247.4948 0.0000 6383.0538
#
#
#
# Elastic Compliance Matrix: (Units=1/GPa)
#
#
# Indices 1 2 3 4 5 6 
#
# 1 0.024047 -0.007892 0.009172 0.000000 0.020542 0.000000
# 2 -0.007892 0.010449 -0.017781 0.000000 -0.015677 0.000000
# 3 0.009172 -0.017781 0.069526 0.000000 0.047808 0.000000
# 4 0.000000 0.000000 0.000000 -0.076244 0.000000 0.062680
# 5 0.020542 -0.015677 0.047808 0.000000 0.071723 0.000000
# 6 0.000000 0.000000 0.000000 0.062680 0.000000 -0.051373
#
#
# Mechanical properties :
#
#
# Convention : Reuss Voigt Hill
#
# Bulk Modulus (GPa) = 14.08061 63.35308 38.71685
# Shear Modulus (GPa) = 47.70791 2157.20987 1102.45889
#
# Velocity S-wave (km/s) = 4.62799 31.12028 22.24736
# Velocity P-wave (km/s) = 5.90586 36.32820 26.02515
#
# Compressibility (1/GPa) = 0.07101965
#
# Stress axis : x y z
#
# Youngs Moduli (GPa) = 41.58508 95.70126 14.38304
#
# Poissons Ratio (x) = 0.75530 -0.13192
# Poissons Ratio (y) = 0.32820 0.25575
# Poissons Ratio (z) = -0.38143 1.70170
#
# Static dielectric constant tensor:
#      x y z
#    x 1.870590 0.000000 -0.006060 
#    y 0.000000 2.009560 0.000000 
#    z -0.006060 0.000000 1.833590 
# 
# From -- ./inp_files/140302.got.cif
#   From: 2010.05.17/outbox.cif.g08.bks.cpg/sg12_71_cif.got.tgz:140302.got - 2010.06.03 13:09:07.
