data_PCOD9196407
_publ_section_title
;
Structure prediction by ZEFSAII (Michael W. Deem and Ramdas Pophale) SiO2 
 PCOD9196407
Probable space group: C 2/M
;
_chemical_formula_sum "Si O2"
_cell_formula_units_Z 48
_cell_length_a 14.273002
_cell_length_b 23.717741
_cell_length_c 13.543161
_cell_angle_alpha 90.000000
_cell_angle_beta 31.214642
_cell_angle_gamma 90.000000
_cell_volume 2375.988304
_symmetry_space_group_name_H-M "C 2/M"
_symmetry_group_IT_number 12
_symmetry_cell_setting 'monoclinic'
loop_
_space_group_symop_operation_xyz
x,y,z
-x,y,-z
-x,-y,-z
x,-y,z
1/2+x,1/2+y,z
1/2-x,1/2+y,-z
1/2-x,1/2-y,-z
1/2+x,1/2-y,z
loop_
_atom_site_type_symbol
_atom_site_label
_atom_site_fract_x
_atom_site_fract_y
_atom_site_fract_z
Si Si1 0.526981 0.561548 0.359980
Si Si2 0.372960 0.638747 0.354332
Si Si3 0.113791 0.765732 0.209938
Si Si4 0.362383 0.135501 0.033092
Si Si5 0.465717 0.858228 0.707625
Si Si6 0.127232 0.933676 0.981511
O O1 0.500000 0.559287 0.500000
O O2 0.491914 0.500000 0.348479
O O3 0.385464 0.606036 0.446045
O O4 0.729919 0.581732 0.154038
O O5 0.443796 0.701657 0.313914
O O6 0.519997 0.605306 0.156682
O O7 0.173451 0.631726 0.493572
O O8 0.224659 0.811669 0.172612
O O9 0.072418 0.705616 0.294199
O O10 0.250000 0.750000 0.000000
O O11 0.500000 0.133564 0.000000
O O12 0.445215 0.140729 0.847405
O O13 0.321201 0.902871 0.796724
O O14 0.148813 0.000000 0.988232
O O15 0.000000 0.931696 0.000000
#
# Coordination Sequence:
#
# PCOD9196407 Si02
#       6
#     8   8   8   8   8   8
#     4  10  20  35  56  86 125 163 201 242 293 361
#     4  11  21  39  66  88 127 158 203 254 311 363
#     4   9  18  38  60  89 123 165 197 250 302 367
#     4  10  20  35  58  89 125 160 199 245 303 365
#     4  11  22  40  65  91 123 162 205 251 314 368
#     4  11  25  44  65  88 121 163 213 265 309 362
#
# _framework density 20.202119
#
# number of rings (size 3 to 8) (size 9 to 14) (size 15 to 20)
#    0.000    1.667    5.000    2.000    0.000    3.000 
#    0.000    1.667   11.000    0.000    0.000    0.000 
#    0.000    0.000    0.000    0.000    0.000    0.000 
#
# Total GULP energy -133794.663324 kJ/mol
# GULP energy per Si atom -5574.777638 kJ/mol
# Density = 2.015614 g / cm^3
# Si number density = 20.202119 Si / 1000 Ang^3
#
#
#
# Elastic Constant Matrix: (Units=GPa)
#
#
# Indices 1 2 3 4 5 6 
#
# 1 64.3861 13.2503 8.7395 0.0005 -22.1521 0.0014
# 2 13.2503 114.5100 30.7845 0.0032 -17.5007 -0.0010
# 3 8.7395 30.7845 74.2705 0.0131 -37.2854 0.0004
# 4 0.0005 0.0032 0.0131 12.4411 -0.0076 -5.9903
# 5 -22.1521 -17.5007 -37.2854 -0.0076 38.9202 -0.0037
# 6 0.0014 -0.0010 0.0004 -5.9903 -0.0037 20.8598
#
#
#
# Elastic Compliance Matrix: (Units=1/GPa)
#
#
# Indices 1 2 3 4 5 6 
#
# 1 0.021217 -0.001636 0.007464 0.000004 0.018491 0.000003
# 2 -0.001636 0.009974 -0.004157 0.000002 -0.000428 0.000001
# 3 0.007464 -0.004157 0.029868 -0.000011 0.030993 0.000001
# 4 0.000004 0.000002 -0.000011 0.093276 0.000014 0.026786
# 5 0.018491 -0.000428 0.030993 0.000014 0.065716 0.000014
# 6 0.000003 0.000001 0.000001 0.026786 0.000014 0.055631
#
#
# Mechanical properties :
#
#
# Convention : Reuss Voigt Hill
#
# Bulk Modulus (GPa) = 15.52736 39.85726 27.69231
# Shear Modulus (GPa) = 17.01805 27.80372 22.41089
#
# Velocity S-wave (km/s) = 2.90554 3.71385 3.33428
# Velocity P-wave (km/s) = 4.35419 6.17756 5.34421
#
# Compressibility (1/GPa) = 0.06440247
#
# Stress axis : x y z
#
# Youngs Moduli (GPa) = 47.13292 100.25901 33.48084
#
# Poissons Ratio (x) = 0.16399 -0.24991
# Poissons Ratio (y) = 0.07710 0.13917
# Poissons Ratio (z) = -0.35181 0.41674
#
# Static dielectric constant tensor:
#      x y z
#    x 1.753990 0.000000 0.023520 
#    y 0.000000 1.749740 0.000010 
#    z 0.023520 0.000010 1.746510 
# 
# From -- ./inp_files/218435.got.cif
#   From: 2010.05.17/outbox.cif.g08.bks.cpg/sg12_110_cif.got.tgz:218435.got - 2010.06.03 13:09:07.
