data_PCOD9196512
_publ_section_title
;
Structure prediction by ZEFSAII (Michael W. Deem and Ramdas Pophale) SiO2 
 PCOD9196512
Probable space group: C 2/M
;
_chemical_formula_sum "Si O2"
_cell_formula_units_Z 48
_cell_length_a 17.520915
_cell_length_b 13.758307
_cell_length_c 16.848901
_cell_angle_alpha 90.000000
_cell_angle_beta 36.516740
_cell_angle_gamma 90.000000
_cell_volume 2416.864931
_symmetry_space_group_name_H-M "C 2/M"
_symmetry_group_IT_number 12
_symmetry_cell_setting 'monoclinic'
loop_
_space_group_symop_operation_xyz
x,y,z
-x,y,-z
-x,-y,-z
x,-y,z
1/2+x,1/2+y,z
1/2-x,1/2+y,-z
1/2-x,1/2-y,-z
1/2+x,1/2-y,z
loop_
_atom_site_type_symbol
_atom_site_label
_atom_site_fract_x
_atom_site_fract_y
_atom_site_fract_z
Si Si1 0.900501 0.613031 0.407581
Si Si2 0.826837 0.390790 0.747755
Si Si3 0.533956 0.237018 0.160827
Si Si4 0.774959 0.807475 0.873545
Si Si5 0.221580 0.199970 0.679486
Si Si6 0.151643 0.110544 0.356921
O O1 0.877339 0.500000 0.410816
O O2 0.778333 0.662767 0.549311
O O3 0.019405 0.620063 0.370932
O O4 0.951428 0.668992 0.288201
O O5 0.794568 0.500000 0.800148
O O6 0.769740 0.305212 0.849149
O O7 0.777451 0.369757 0.701007
O O8 0.619092 0.307112 0.145819
O O9 0.431501 0.294187 0.193959
O O10 0.635184 0.173478 0.026190
O O11 0.816641 0.868180 0.762102
O O12 0.275121 0.307081 0.655080
O O13 0.000000 0.122242 0.500000
O O14 0.187537 0.000000 0.347080
#
# Coordination Sequence:
#
# PCOD9196512 Si02
#       6
#     8   8   8   8   8   8
#     4  10  20  35  57  82 110 145 182 221 269 324
#     4   9  18  34  57  81 106 140 181 222 269 323
#     4  10  21  36  55  78 110 148 182 219 271 322
#     4   9  20  40  57  74 109 151 182 219 270 325
#     4  11  20  34  56  83 110 137 177 232 274 312
#     4  10  21  37  58  82 108 143 182 221 270 325
#
# _framework density 19.860440000000001
#
# number of rings (size 3 to 8) (size 9 to 14) (size 15 to 20)
#    0.000    2.167    0.000    4.500    0.000    5.333 
#    0.000    9.167    0.000    1.000    0.000    0.000 
#    0.000    0.000    0.000    0.000    0.000    0.000 
#
# Total GULP energy -133972.016017 kJ/mol
# GULP energy per Si atom -5582.167334 kJ/mol
# Density = 1.981524 g / cm^3
# Si number density = 19.860440 Si / 1000 Ang^3
#
#
#
# Elastic Constant Matrix: (Units=GPa)
#
#
# Indices 1 2 3 4 5 6 
#
# 1 31.2101 0.6819 14.1375 0.0000 -8.2531 0.0000
# 2 0.6819 57.1114 -10.0251 0.0000 -8.6703 0.0000
# 3 14.1375 -10.0251 66.3878 0.0000 0.2787 0.0000
# 4 0.0000 0.0000 0.0000 2.1578 0.0000 -4.5702
# 5 -8.2531 -8.6703 0.2787 0.0000 23.4116 0.0000
# 6 0.0000 0.0000 0.0000 -4.5702 0.0000 9.4158
#
#
#
# Elastic Compliance Matrix: (Units=1/GPa)
#
#
# Indices 1 2 3 4 5 6 
#
# 1 0.039609 0.000187 -0.008466 0.000004 0.014133 0.000002
# 2 0.000187 0.019078 0.002811 -0.000006 0.007098 -0.000003
# 3 -0.008466 0.002811 0.017299 -0.000011 -0.002149 -0.000005
# 4 0.000004 -0.000006 -0.000011-16.539088 0.000010 -8.027672
# 5 0.014133 0.007098 -0.002149 0.000010 0.050350 0.000005
# 6 0.000002 -0.000003 -0.000005 -8.027672 0.000005 -3.790233
#
#
# Mechanical properties :
#
#
# Convention : Reuss Voigt Hill
#
# Bulk Modulus (GPa) = 15.37255 18.25531 16.81393
# Shear Modulus (GPa) = -0.24789 16.99137 8.37174
#
# Velocity S-wave (km/s) = -0.35368 2.92813 2.05534
# Velocity P-wave (km/s) = 2.75505 4.54353 3.75726
#
# Compressibility (1/GPa) = 0.06505100
#
# Stress axis : x y z
#
# Youngs Moduli (GPa) = 25.24678 52.41507 57.80534
#
# Poissons Ratio (x) = -0.00978 0.48938
# Poissons Ratio (y) = -0.00471 -0.16252
# Poissons Ratio (z) = 0.21374 -0.14736
#
# Static dielectric constant tensor:
#      x y z
#    x 1.730280 0.000000 0.019090 
#    y 0.000000 1.679240 0.000000 
#    z 0.019090 0.000000 1.697980 
# 
# From -- ./inp_files/105055.got.cif
#   From: 2010.05.17/outbox.cif.g08.bks.cpg/sg12_53_cif.got.tgz:105055.got - 2010.06.03 13:09:07.
