data_PCOD9196398
_publ_section_title
;
Structure prediction by ZEFSAII (Michael W. Deem and Ramdas Pophale) SiO2 
 PCOD9196398
Probable space group: C 2/M
;
_chemical_formula_sum "Si O2"
_cell_formula_units_Z 58
_cell_length_a 19.893273
_cell_length_b 7.611908
_cell_length_c 21.948319
_cell_angle_alpha 90.000000
_cell_angle_beta 130.829758
_cell_angle_gamma 90.000000
_cell_volume 2514.775832
_symmetry_space_group_name_H-M "C 2/M"
_symmetry_group_IT_number 12
_symmetry_cell_setting 'monoclinic'
loop_
_space_group_symop_operation_xyz
x,y,z
-x,y,-z
-x,-y,-z
x,-y,z
1/2+x,1/2+y,z
1/2-x,1/2+y,-z
1/2-x,1/2-y,-z
1/2+x,1/2-y,z
loop_
_atom_site_type_symbol
_atom_site_label
_atom_site_fract_x
_atom_site_fract_y
_atom_site_fract_z
Si Si1 0.379436 0.293203 0.062408
Si Si2 0.575749 0.800916 0.351418
Si Si3 0.000000 0.500000 0.500000
Si Si4 0.732541 0.201448 0.887560
Si Si5 0.119807 0.201402 0.505814
Si Si6 0.926736 0.286967 0.788364
Si Si7 0.389502 0.700140 0.290240
Si Si8 0.765554 0.788997 0.318215
O O1 0.359033 0.500000 0.055469
O O2 0.337377 0.207380 0.097730
O O3 0.484555 0.269811 0.124914
O O4 0.324172 0.229487 0.971036
O O5 0.627234 0.712359 0.437491
O O6 0.572831 0.724614 0.281749
O O7 0.473036 0.799060 0.312365
O O8 0.608797 0.000000 0.365810
O O9 0.950488 0.344466 0.512290
O O10 0.688772 0.301187 0.805860
O O11 0.744395 0.000000 0.875147
O O12 0.209534 0.241784 0.596899
O O13 0.095351 0.000000 0.507722
O O14 0.928386 0.500000 0.788548
O O15 0.831839 0.226407 0.757575
O O16 0.419385 0.500000 0.319564
O O17 0.345973 0.781219 0.324816
O O18 0.765538 0.000000 0.308373
#
# Coordination Sequence:
#
# PCOD9196398 Si02
#       8
#     8   8   2   8   8   8   8   8
#     4  10  20  35  57  87 118 151 197 248 305 366
#     4  11  22  37  61  93 122 155 207 262 308 363
#     4  12  22  40  64  94 128 156 212 254 318 374
#     4  10  20  35  56  86 121 153 192 250 307 361
#     4  11  23  41  63  90 127 169 207 260 313 368
#     4  10  21  40  63  86 120 161 204 251 307 366
#     4  11  21  36  60  88 120 156 200 251 305 362
#     4   9  22  42  61  85 121 165 204 249 307 366
#
# _framework density 23.063686000000001
#
# number of rings (size 3 to 8) (size 9 to 14) (size 15 to 20)
#    0.000    1.655    2.069    2.690    0.000    3.862 
#    2.483    0.690    0.000    4.138    0.000    0.000 
#    0.000    0.000    0.000    0.000    0.000    0.000 
#
# Total GULP energy -161821.098541 kJ/mol
# GULP energy per Si atom -5580.037881 kJ/mol
# Density = 2.301119 g / cm^3
# Si number density = 23.063686 Si / 1000 Ang^3
#
#
#
# Elastic Constant Matrix: (Units=GPa)
#
#
# Indices 1 2 3 4 5 6 
#
# 1 44.2372 -11.5244 -0.2806 0.0000 20.0119 0.0000
# 2 -11.5244 89.1069 -10.6184 0.0000 1.1026 0.0000
# 3 -0.2806 -10.6184 102.8118 0.0000 17.4094 0.0000
# 4 0.0000 0.0000 0.0000 21.9383 0.0000 0.0011
# 5 20.0119 1.1026 17.4094 0.0000 30.5542 0.0000
# 6 0.0000 0.0000 0.0000 0.0011 0.0000 11.1350
#
#
#
# Elastic Compliance Matrix: (Units=1/GPa)
#
#
# Indices 1 2 3 4 5 6 
#
# 1 0.036320 0.005657 0.005253 0.000000 -0.026986 0.000000
# 2 0.005657 0.012283 0.002199 0.000000 -0.005401 0.000000
# 3 0.005253 0.002199 0.011692 0.000000 -0.010182 0.000000
# 4 0.000000 0.000000 0.000000 0.045582 0.000000 -0.000005
# 5 -0.026986 -0.005401 -0.010182 0.000000 0.056400 0.000000
# 6 0.000000 0.000000 0.000000 -0.000005 0.000000 0.089807
#
#
# Mechanical properties :
#
#
# Convention : Reuss Voigt Hill
#
# Bulk Modulus (GPa) = 11.55896 21.25657 16.40776
# Shear Modulus (GPa) = 19.63061 29.96413 24.79737
#
# Velocity S-wave (km/s) = 2.92061 3.60834 3.28253
# Velocity P-wave (km/s) = 4.04919 5.15719 4.63641
#
# Compressibility (1/GPa) = 0.08651299
#
# Stress axis : x y z
#
# Youngs Moduli (GPa) = 27.53288 81.41347 85.52836
#
# Poissons Ratio (x) = -0.46058 -0.44928
# Poissons Ratio (y) = -0.15576 -0.18805
# Poissons Ratio (z) = -0.14463 -0.17900
#
# Static dielectric constant tensor:
#      x y z
#    x 1.852620 0.000000 0.012570 
#    y 0.000000 1.840060 0.000000 
#    z 0.012570 0.000000 1.893620 
# 
# From -- ./inp_files/314864.got.cif
#   From: 2010.05.17/outbox.cif.g08.bks.cpg/sg12_158_cif.got.tgz:314864.got - 2010.06.03 13:09:07.
