data_PCOD9196141
_publ_section_title
;
Structure prediction by ZEFSAII (Michael W. Deem and Ramdas Pophale) SiO2 
 PCOD9196141
Probable space group: C 2/M
;
_chemical_formula_sum "Si O2"
_cell_formula_units_Z 36
_cell_length_a 7.831740
_cell_length_b 12.827556
_cell_length_c 15.473617
_cell_angle_alpha 90.000000
_cell_angle_beta 84.893223
_cell_angle_gamma 90.000000
_cell_volume 1548.341236
_symmetry_space_group_name_H-M "C 2/M"
_symmetry_group_IT_number 12
_symmetry_cell_setting 'monoclinic'
loop_
_space_group_symop_operation_xyz
x,y,z
-x,y,-z
-x,-y,-z
x,-y,z
1/2+x,1/2+y,z
1/2-x,1/2+y,-z
1/2-x,1/2-y,-z
1/2+x,1/2-y,z
loop_
_atom_site_type_symbol
_atom_site_label
_atom_site_fract_x
_atom_site_fract_y
_atom_site_fract_z
Si Si1 0.664591 0.339658 0.888320
Si Si2 0.718101 0.189198 0.629062
Si Si3 0.722284 0.613874 0.087133
Si Si4 0.500000 0.316004 0.500000
Si Si5 0.385393 0.113783 0.718522
O O1 0.473657 0.374348 0.870367
O O2 0.671042 0.214006 0.889493
O O3 0.808830 0.380522 0.817682
O O4 0.702371 0.376838 0.983942
O O5 0.604552 0.240385 0.558794
O O6 0.867526 0.128508 0.570817
O O7 0.588885 0.127739 0.696500
O O8 0.798503 0.287168 0.676109
O O9 0.790700 0.500000 0.106571
O O10 0.338124 0.000000 0.683352
#
# Coordination Sequence:
#
# PCOD9196141 Si02
#       5
#     8   8   8   4   8
#     4  10  20  35  56  81 113 146 189 233 273 324
#     4   9  19  36  59  82 110 145 181 221 275 329
#     4  10  20  37  56  78 109 153 192 229 274 321
#     4   8  16  38  58  78 116 142 172 234 264 314
#     4  11  21  36  56  83 113 145 180 228 280 326
#
# _framework density 23.250688
#
# number of rings (size 3 to 8) (size 9 to 14) (size 15 to 20)
#    0.000    2.222    0.000    4.000    0.000    0.000 
#    0.000   40.000    0.000    0.000    0.000    0.000 
#    0.000    0.000    0.000    0.000    0.000    0.000 
#
# Total GULP energy -100539.794987 kJ/mol
# GULP energy per Si atom -5585.544166 kJ/mol
# Density = 2.319777 g / cm^3
# Si number density = 23.250688 Si / 1000 Ang^3
#
#
#
# Elastic Constant Matrix: (Units=GPa)
#
#
# Indices 1 2 3 4 5 6 
#
# 1 59.6766 15.4666 48.5190 0.0000 -33.9262 0.0000
# 2 15.4666 159.7524 18.8035 0.0000 -10.1054 0.0000
# 3 48.5190 18.8035 116.6505 0.0000 -57.1014 0.0000
# 4 0.0000 0.0000 0.0000 -17.3759 0.0000 2.2352
# 5 -33.9262 -10.1054 -57.1014 0.0000 46.5837 0.0000
# 6 0.0000 0.0000 0.0000 2.2352 0.0000 15.0703
#
#
#
# Elastic Compliance Matrix: (Units=1/GPa)
#
#
# Indices 1 2 3 4 5 6 
#
# 1 0.029751 -0.001358 -0.004234 0.000000 0.016183 0.000000
# 2 -0.001358 0.006445 -0.000684 0.000000 -0.000430 0.000000
# 3 -0.004234 -0.000684 0.022156 0.000000 0.023927 0.000000
# 4 0.000000 0.000000 0.000000 -0.056473 0.000000 0.008376
# 5 0.016183 -0.000430 0.023927 0.000000 0.062488 0.000000
# 6 0.000000 0.000000 0.000000 0.008376 0.000000 0.065114
#
#
# Mechanical properties :
#
#
# Convention : Reuss Voigt Hill
#
# Bulk Modulus (GPa) = 21.83477 55.73976 38.78726
# Shear Modulus (GPa) = 31.78631 25.74163 28.76397
#
# Velocity S-wave (km/s) = 3.70146 3.33097 3.52109
# Velocity P-wave (km/s) = 5.26110 6.23051 5.76621
#
# Compressibility (1/GPa) = 0.04579851
#
# Stress axis : x y z
#
# Youngs Moduli (GPa) = 33.61192 155.16999 45.13362
#
# Poissons Ratio (x) = 0.21078 0.19110
# Poissons Ratio (y) = 0.04566 0.03089
# Poissons Ratio (z) = 0.14232 0.10621
#
# Static dielectric constant tensor:
#      x y z
#    x 1.900030 0.000000 -0.040940 
#    y 0.000000 1.847110 0.000000 
#    z -0.040940 0.000000 1.907140 
# 
# From -- ./inp_files/254536.got.cif
#   From: 2010.05.17/outbox.cif.g08.bks.cpg/sg12_128_cif.got.tgz:254536.got - 2010.06.03 13:09:07.
