data_PCOD9196714
_publ_section_title
;
Structure prediction by ZEFSAII (Michael W. Deem and Ramdas Pophale) SiO2 
 PCOD9196714
Probable space group: C 2/M
;
_chemical_formula_sum "Si O2"
_cell_formula_units_Z 64
_cell_length_a 17.771178
_cell_length_b 13.599204
_cell_length_c 23.755943
_cell_angle_alpha 90.000000
_cell_angle_beta 31.607711
_cell_angle_gamma 90.000000
_cell_volume 3008.961132
_symmetry_space_group_name_H-M "C 2/M"
_symmetry_group_IT_number 12
_symmetry_cell_setting 'monoclinic'
loop_
_space_group_symop_operation_xyz
x,y,z
-x,y,-z
-x,-y,-z
x,-y,z
1/2+x,1/2+y,z
1/2-x,1/2+y,-z
1/2-x,1/2-y,-z
1/2+x,1/2-y,z
loop_
_atom_site_type_symbol
_atom_site_label
_atom_site_fract_x
_atom_site_fract_y
_atom_site_fract_z
Si Si1 0.650583 0.883701 0.474069
Si Si2 0.539104 0.291177 0.413158
Si Si3 0.715708 0.616343 0.491326
Si Si4 0.791844 0.383989 0.191720
Si Si5 0.164198 0.804513 0.158074
Si Si6 0.071820 0.114731 0.772955
Si Si7 0.495237 0.885446 0.759453
Si Si8 0.043962 0.701222 0.091961
O O1 0.505224 0.822939 0.560140
O O2 0.726444 0.852874 0.484419
O O3 0.767262 0.862586 0.351146
O O4 0.624463 0.000000 0.492394
O O5 0.500000 0.328979 0.500000
O O6 0.431091 0.337943 0.436472
O O7 0.697041 0.323283 0.296799
O O8 0.692340 0.500000 0.510248
O O9 0.843056 0.632894 0.365167
O O10 0.777973 0.500000 0.209811
O O11 0.728622 0.355266 0.171681
O O12 0.953128 0.349596 0.100550
O O13 0.033900 0.864504 0.212780
O O14 0.104817 0.694681 0.207595
O O15 0.291587 0.796631 0.031498
O O16 0.016657 0.190334 0.855108
O O17 0.063655 0.000000 0.793602
O O18 0.478927 0.860202 0.835834
O O19 0.461439 0.000000 0.770163
#
# Coordination Sequence:
#
# PCOD9196714 Si02
#       8
#     8   8   8   8   8   8   8   8
#     4  10  21  38  61  87 118 156 194 234 284 346
#     4  12  23  37  59  87 122 154 188 235 287 348
#     4  10  20  35  57  85 116 151 189 233 288 345
#     4  12  26  42  60  85 118 156 197 242 296 357
#     4  11  23  39  61  87 116 153 201 249 295 346
#     4  10  20  38  64  92 120 154 199 246 292 345
#     4  10  20  37  62  89 118 151 192 244 297 351
#     4  11  24  40  58  85 119 156 200 249 296 346
#
# _framework density 21.269801000000001
#
# number of rings (size 3 to 8) (size 9 to 14) (size 15 to 20)
#    0.000    1.250    0.000    7.875    0.000    7.250 
#    0.000    1.250    0.000    1.500    0.000    0.000 
#    0.000    0.000    0.000    0.000    0.000    0.000 
#
# Total GULP energy -179045.585928 kJ/mol
# GULP energy per Si atom -5595.174560 kJ/mol
# Density = 2.122139 g / cm^3
# Si number density = 21.269801 Si / 1000 Ang^3
#
#
#
# Elastic Constant Matrix: (Units=GPa)
#
#
# Indices 1 2 3 4 5 6 
#
# 1 62.7498 12.6628 -6.9816 0.0002 -6.8906 0.0000
# 2 12.6628 109.3372 24.0619 0.0005 -12.0490 0.0000
# 3 -6.9816 24.0619 73.9969 0.0001 -5.0641 -0.0002
# 4 0.0002 0.0005 0.0001 15.3401 0.0001 -0.0919
# 5 -6.8906 -12.0490 -5.0641 0.0001 32.6186 0.0000
# 6 0.0000 0.0000 -0.0002 -0.0919 0.0000 15.6247
#
#
#
# Elastic Compliance Matrix: (Units=1/GPa)
#
#
# Indices 1 2 3 4 5 6 
#
# 1 0.017006 -0.002176 0.002530 0.000000 0.003182 0.000000
# 2 -0.002176 0.010466 -0.003412 0.000000 0.002877 0.000000
# 3 0.002530 -0.003412 0.014972 0.000000 0.001599 0.000000
# 4 0.000000 0.000000 0.000000 0.065191 0.000000 0.000383
# 5 0.003182 0.002877 0.001599 0.000000 0.032640 0.000000
# 6 0.000000 0.000000 0.000000 0.000383 0.000000 0.064004
#
#
# Mechanical properties :
#
#
# Convention : Reuss Voigt Hill
#
# Bulk Modulus (GPa) = 27.52663 33.95222 30.73942
# Shear Modulus (GPa) = 22.47161 27.13939 24.80550
#
# Velocity S-wave (km/s) = 3.25392 3.57593 3.41872
# Velocity P-wave (km/s) = 5.20452 5.74865 5.48334
#
# Compressibility (1/GPa) = 0.03632846
#
# Stress axis : x y z
#
# Youngs Moduli (GPa) = 58.80210 95.54935 66.79349
#
# Poissons Ratio (x) = 0.20788 -0.16897
# Poissons Ratio (y) = 0.12793 0.22787
# Poissons Ratio (z) = -0.14875 0.32598
#
# Static dielectric constant tensor:
#      x y z
#    x 1.773160 0.000000 0.025840 
#    y 0.000000 1.765840 0.000000 
#    z 0.025840 0.000000 1.743170 
# 
# From -- ./inp_files/344025.got.cif
#   From: 2010.05.17/outbox.cif.g08.bks.cpg/sg12_173_cif.got.tgz:344025.got - 2010.06.03 13:09:07.
