data_PCOD9196330
_publ_section_title
;
Structure prediction by ZEFSAII (Michael W. Deem and Ramdas Pophale) SiO2 
 PCOD9196330
Probable space group: C 2/M
;
_chemical_formula_sum "Si O2"
_cell_formula_units_Z 64
_cell_length_a 33.025725
_cell_length_b 7.846368
_cell_length_c 15.113986
_cell_angle_alpha 90.000000
_cell_angle_beta 131.997579
_cell_angle_gamma 90.000000
_cell_volume 2910.650295
_symmetry_space_group_name_H-M "C 2/M"
_symmetry_group_IT_number 12
_symmetry_cell_setting 'monoclinic'
loop_
_space_group_symop_operation_xyz
x,y,z
-x,y,-z
-x,-y,-z
x,-y,z
1/2+x,1/2+y,z
1/2-x,1/2+y,-z
1/2-x,1/2-y,-z
1/2+x,1/2-y,z
loop_
_atom_site_type_symbol
_atom_site_label
_atom_site_fract_x
_atom_site_fract_y
_atom_site_fract_z
Si Si1 0.009592 0.298674 0.797148
Si Si2 0.326683 0.698666 0.746956
Si Si3 0.186449 0.796156 0.907031
Si Si4 0.707180 0.202991 0.571456
Si Si5 0.850381 0.793781 0.339538
Si Si6 0.026927 0.793595 0.446882
Si Si7 0.629474 0.201431 0.005779
Si Si8 0.894096 0.699656 0.689308
O O1 0.011193 0.500000 0.819968
O O2 0.003631 0.276153 0.683146
O O3 0.953656 0.225835 0.756572
O O4 0.067641 0.228432 0.912991
O O5 0.327763 0.500000 0.724980
O O6 0.266995 0.772286 0.636381
O O7 0.336712 0.716139 0.865709
O O8 0.374421 0.785256 0.760985
O O9 0.160812 0.735295 0.776681
O O10 0.180936 0.000000 0.901369
O O11 0.250000 0.750000 0.000000
O O12 0.156725 0.726548 0.950171
O O13 0.693929 0.232419 0.655011
O O14 0.655878 0.274254 0.441562
O O15 0.709449 0.000000 0.559111
O O16 0.910025 0.738876 0.459923
O O17 0.849536 0.000000 0.337962
O O18 0.000000 0.742242 0.500000
O O19 0.025154 0.000000 0.439651
O O20 0.628194 0.000000 0.022139
O O21 0.897647 0.500000 0.670090
#
# Coordination Sequence:
#
# PCOD9196330 Si02
#       8
#     8   8   8   8   8   8   8   8
#     4  10  22  40  62  87 118 157 202 246 297 357
#     4  11  24  40  61  90 118 155 203 252 305 364
#     4  11  23  40  61  88 123 163 206 251 298 353
#     4  10  21  38  61  88 121 155 195 246 301 359
#     4  10  21  35  56  86 118 154 193 237 295 356
#     4  10  20  35  56  84 117 153 192 237 294 352
#     4  11  24  42  62  87 120 162 206 250 299 357
#     4  10  21  40  63  88 119 155 195 250 308 360
#
# _framework density 21.988213999999999
#
# number of rings (size 3 to 8) (size 9 to 14) (size 15 to 20)
#    0.000    1.625    1.250    3.000    0.000    7.750 
#    0.000    2.500    0.000    0.000    0.000    0.000 
#    0.000    0.000    0.000    0.000    0.000    0.000 
#
# Total GULP energy -178899.255586 kJ/mol
# GULP energy per Si atom -5590.601737 kJ/mol
# Density = 2.193817 g / cm^3
# Si number density = 21.988214 Si / 1000 Ang^3
#
#
#
# Elastic Constant Matrix: (Units=GPa)
#
#
# Indices 1 2 3 4 5 6 
#
# 1 106.2857 -1.5376 12.0901 0.0000 16.0103 0.0000
# 2 -1.5376 31.9343 1.2699 0.0000 7.9766 0.0000
# 3 12.0901 1.2699 78.6770 0.0000 14.0110 0.0000
# 4 0.0000 0.0000 0.0000 16.9492 0.0000 -9.4510
# 5 16.0103 7.9766 14.0110 0.0000 41.6118 0.0000
# 6 0.0000 0.0000 0.0000 -9.4510 0.0000 20.0517
#
#
#
# Elastic Compliance Matrix: (Units=1/GPa)
#
#
# Indices 1 2 3 4 5 6 
#
# 1 0.010115 0.001491 -0.000888 0.000000 -0.003879 0.000000
# 2 0.001491 0.033138 0.000499 0.000000 -0.007094 0.000000
# 3 -0.000888 0.000499 0.013611 0.000000 -0.004337 0.000000
# 4 0.000000 0.000000 0.000000 0.080034 0.000000 0.037722
# 5 -0.003879 -0.007094 -0.004337 0.000000 0.028344 0.000000
# 6 0.000000 0.000000 0.000000 0.037722 0.000000 0.067651
#
#
# Mechanical properties :
#
#
# Convention : Reuss Voigt Hill
#
# Bulk Modulus (GPa) = 16.92900 26.72687 21.82794
# Shear Modulus (GPa) = 19.96981 29.39418 24.68199
#
# Velocity S-wave (km/s) = 3.01691 3.66021 3.35402
# Velocity P-wave (km/s) = 4.45551 5.48127 4.99479
#
# Compressibility (1/GPa) = 0.05907022
#
# Stress axis : x y z
#
# Youngs Moduli (GPa) = 98.85871 30.17660 73.47055
#
# Poissons Ratio (x) = -0.04500 0.06522
# Poissons Ratio (y) = -0.14742 -0.03668
# Poissons Ratio (z) = 0.08776 -0.01507
#
# Static dielectric constant tensor:
#      x y z
#    x 1.794170 0.000000 0.026240 
#    y 0.000000 1.817240 0.000000 
#    z 0.026240 0.000000 1.803390 
# 
# From -- ./inp_files/249936.got.cif
#   From: 2010.05.17/outbox.cif.g08.bks.cpg/sg12_125_cif.got.tgz:249936.got - 2010.06.03 13:09:07.
