data_PCOD9196149
_publ_section_title
;
Structure prediction by ZEFSAII (Michael W. Deem and Ramdas Pophale) SiO2 
 PCOD9196149
Probable space group: C 2/M
;
_chemical_formula_sum "Si O2"
_cell_formula_units_Z 48
_cell_length_a 17.339693
_cell_length_b 24.119992
_cell_length_c 9.009992
_cell_angle_alpha 90.000000
_cell_angle_beta 135.942848
_cell_angle_gamma 90.000000
_cell_volume 2620.368627
_symmetry_space_group_name_H-M "C 2/M"
_symmetry_group_IT_number 12
_symmetry_cell_setting 'monoclinic'
loop_
_space_group_symop_operation_xyz
x,y,z
-x,y,-z
-x,-y,-z
x,-y,z
1/2+x,1/2+y,z
1/2-x,1/2+y,-z
1/2-x,1/2-y,-z
1/2+x,1/2-y,z
loop_
_atom_site_type_symbol
_atom_site_label
_atom_site_fract_x
_atom_site_fract_y
_atom_site_fract_z
Si Si1 0.572731 0.835148 0.455362
Si Si2 0.167095 0.842199 0.135297
Si Si3 0.424931 0.934960 0.753035
Si Si4 0.835163 0.064144 0.622081
Si Si5 0.013769 0.861785 0.345641
Si Si6 0.619629 0.737372 0.314240
O O1 0.500000 0.823269 0.500000
O O2 0.701199 0.834177 0.685722
O O3 0.548531 0.894761 0.347689
O O4 0.561145 0.791229 0.303453
O O5 0.145706 0.894557 0.213762
O O6 0.111731 0.788459 0.137642
O O7 0.104744 0.854673 0.897702
O O8 0.293330 0.927327 0.604055
O O9 0.441681 0.000000 0.740473
O O10 0.500000 0.921757 0.000000
O O11 0.922257 0.083154 0.618570
O O12 0.848811 0.000000 0.680969
O O13 0.088438 0.812106 0.382889
O O14 0.000000 0.858475 0.500000
O O15 0.750000 0.750000 0.500000
#
# Coordination Sequence:
#
# PCOD9196149 Si02
#       6
#     8   8   8   8   8   8
#     4  10  20  35  56  82 106 133 176 219 261 310
#     4   9  20  37  54  75 107 142 173 213 261 310
#     4   9  19  35  54  78 108 141 176 214 256 306
#     4   9  18  35  57  76 100 142 185 211 248 316
#     4  11  22  35  52  79 113 137 165 220 275 303
#     4   9  18  36  55  73 100 137 177 209 248 310
#
# _framework density 18.318033
#
# number of rings (size 3 to 8) (size 9 to 14) (size 15 to 20)
#    0.000    2.500    0.000    3.500    0.000    4.667 
#    0.000    9.167    0.000    0.000    0.000    0.000 
#    0.000    0.000    0.000    0.000    0.000    0.000 
#
# Total GULP energy -133744.378009 kJ/mol
# GULP energy per Si atom -5572.682417 kJ/mol
# Density = 1.827634 g / cm^3
# Si number density = 18.318033 Si / 1000 Ang^3
#
#
#
# Elastic Constant Matrix: (Units=GPa)
#
#
# Indices 1 2 3 4 5 6 
#
# 1 92.1088 26.4502 38.5319 0.0000 -14.9940 0.0000
# 2 26.4502 74.1245 33.5219 0.0000 -3.1566 0.0000
# 3 38.5319 33.5219 123.0769 0.0000 -13.2810 0.0000
# 4 0.0000 0.0000 0.0000 16.6369 0.0000 7.2359
# 5 -14.9940 -3.1566 -13.2810 0.0000 26.9692 0.0000
# 6 0.0000 0.0000 0.0000 7.2359 0.0000 21.9381
#
#
#
# Elastic Compliance Matrix: (Units=1/GPa)
#
#
# Indices 1 2 3 4 5 6 
#
# 1 0.013999 -0.003479 -0.002787 0.000000 0.006003 0.000000
# 2 -0.003479 0.016253 -0.003528 0.000000 -0.001770 0.000000
# 3 -0.002787 -0.003528 0.010294 0.000000 0.003107 0.000000
# 4 0.000000 0.000000 0.000000 0.070174 0.000000 -0.023146
# 5 0.006003 -0.001770 0.003107 0.000000 0.041740 0.000000
# 6 0.000000 0.000000 0.000000 -0.023146 0.000000 0.053217
#
#
# Mechanical properties :
#
#
# Convention : Reuss Voigt Hill
#
# Bulk Modulus (GPa) = 47.71943 54.03536 50.87739
# Shear Modulus (GPa) = 21.52841 25.82925 23.67883
#
# Velocity S-wave (km/s) = 3.43192 3.75913 3.59925
# Velocity P-wave (km/s) = 6.46616 6.95729 6.71622
#
# Compressibility (1/GPa) = 0.02095582
#
# Stress axis : x y z
#
# Youngs Moduli (GPa) = 71.43330 61.52859 97.14530
#
# Poissons Ratio (x) = 0.21407 0.27077
# Poissons Ratio (y) = 0.24853 0.34276
# Poissons Ratio (z) = 0.19911 0.21710
#
# Static dielectric constant tensor:
#      x y z
#    x 1.613430 0.000000 0.028680 
#    y 0.000000 1.660870 0.000000 
#    z 0.028680 0.000000 1.654490 
# 
# From -- ./inp_files/78899.got.cif
#   From: 2010.05.17/outbox.cif.g08.bks.cpg/sg12_40_cif.got.tgz:78899.got - 2010.06.03 13:09:07.
