data_PCOD9196262
_publ_section_title
;
Structure prediction by ZEFSAII (Michael W. Deem and Ramdas Pophale) SiO2 
 PCOD9196262
Probable space group: C 2/M
;
_chemical_formula_sum "Si O2"
_cell_formula_units_Z 56
_cell_length_a 25.446863
_cell_length_b 14.462270
_cell_length_c 23.419881
_cell_angle_alpha 90.000000
_cell_angle_beta 159.866374
_cell_angle_gamma 90.000000
_cell_volume 2966.742562
_symmetry_space_group_name_H-M "C 2/M"
_symmetry_group_IT_number 12
_symmetry_cell_setting 'monoclinic'
loop_
_space_group_symop_operation_xyz
x,y,z
-x,y,-z
-x,-y,-z
x,-y,z
1/2+x,1/2+y,z
1/2-x,1/2+y,-z
1/2-x,1/2-y,-z
1/2+x,1/2-y,z
loop_
_atom_site_type_symbol
_atom_site_label
_atom_site_fract_x
_atom_site_fract_y
_atom_site_fract_z
Si Si1 0.587508 0.608494 0.474252
Si Si2 0.065440 0.208999 0.002716
Si Si3 0.925925 0.279724 0.363483
Si Si4 0.582720 0.277611 0.351600
Si Si5 0.924441 0.895689 0.759583
Si Si6 0.434546 0.898789 0.868217
Si Si7 0.055417 0.393120 0.391055
O O1 0.544536 0.500000 0.427957
O O2 0.473029 0.676738 0.390508
O O3 0.599921 0.653939 0.423668
O O4 0.752050 0.612724 0.674447
O O5 0.000419 0.129417 0.896642
O O6 0.007290 0.306643 0.917162
O O7 0.246156 0.210629 0.186444
O O8 0.000000 0.201349 0.000000
O O9 0.000000 0.296063 0.500000
O O10 0.991766 0.352870 0.385200
O O11 0.750000 0.250000 0.500000
O O12 0.513391 0.329842 0.226909
O O13 0.504345 0.182784 0.292144
O O14 0.740753 0.886896 0.580060
O O15 0.955411 0.000000 0.773899
O O16 0.472301 0.000000 0.881599
O O17 0.500000 0.900586 0.000000
O O18 0.013832 0.500000 0.338765
#
# Coordination Sequence:
#
# PCOD9196262 Si02
#       7
#     8   8   8   8   8   8   8
#     4  10  20  35  56  83 114 148 188 231 278 332
#     4  11  22  37  56  79 112 146 185 233 279 333
#     4  11  22  36  56  80 110 149 187 229 280 334
#     4   9  17  33  58  85 112 142 184 229 274 328
#     4  10  20  36  59  84 111 145 184 227 276 329
#     4   9  17  31  52  77 107 142 179 222 269 318
#     4   9  19  36  57  83 114 145 182 228 274 325
#
# _framework density 18.875921999999999
#
# number of rings (size 3 to 8) (size 9 to 14) (size 15 to 20)
#    0.000    2.143    0.000    5.571    0.000    2.571 
#    0.000    3.571    0.000    1.714    0.000    0.000 
#    0.000    0.000    0.000    0.000    0.000    0.000 
#
# Total GULP energy -156087.519513 kJ/mol
# GULP energy per Si atom -5574.554268 kJ/mol
# Density = 1.883296 g / cm^3
# Si number density = 18.875922 Si / 1000 Ang^3
#
#
#
# Elastic Constant Matrix: (Units=GPa)
#
#
# Indices 1 2 3 4 5 6 
#
# 1 115.0551 63.3745 25.9831 -0.0011 1.7835 -0.0004
# 2 63.3745 137.1007 40.6414 -0.0015 8.3798 -0.0007
# 3 25.9831 40.6414 51.1089 -0.0037 -3.5173 -0.0014
# 4 -0.0011 -0.0015 -0.0037 104.9384 -0.0016 25.0529
# 5 1.7835 8.3798 -3.5173 -0.0016 14.9422 -0.0007
# 6 -0.0004 -0.0007 -0.0014 25.0529 -0.0007 27.6831
#
#
#
# Elastic Compliance Matrix: (Units=1/GPa)
#
#
# Indices 1 2 3 4 5 6 
#
# 1 0.011854 -0.004924 -0.002051 0.000000 0.000864 0.000000
# 2 -0.004924 0.012431 -0.007950 0.000000 -0.008255 0.000000
# 3 -0.002051 -0.007950 0.027703 0.000001 0.011225 0.000001
# 4 0.000000 0.000000 0.000001 0.012156 0.000001 -0.011001
# 5 0.000864 -0.008255 0.011225 0.000001 0.074093 0.000001
# 6 0.000000 0.000000 0.000001 -0.011001 0.000001 0.046079
#
#
# Mechanical properties :
#
#
# Convention : Reuss Voigt Hill
#
# Bulk Modulus (GPa) = 45.17236 62.58474 53.87855
# Shear Modulus (GPa) = 22.56871 41.06380 31.81625
#
# Velocity S-wave (km/s) = 3.46155 4.66924 4.11000
# Velocity P-wave (km/s) = 6.32136 7.89284 7.15040
#
# Compressibility (1/GPa) = 0.02213743
#
# Stress axis : x y z
#
# Youngs Moduli (GPa) = 84.36269 80.44199 36.09689
#
# Poissons Ratio (x) = 0.39610 0.07404
# Poissons Ratio (y) = 0.41541 0.28697
# Poissons Ratio (z) = 0.17304 0.63952
#
# Static dielectric constant tensor:
#      x y z
#    x 1.644820 0.000000 -0.009410 
#    y 0.000000 1.704360 0.000000 
#    z -0.009410 0.000000 1.642740 
# 
# From -- ./inp_files/349782.got.cif
#   From: 2010.05.17/outbox.cif.g08.bks.cpg/sg12_175_cif.got.tgz:349782.got - 2010.06.03 13:09:07.
