data_PCOD9196180
_publ_section_title
;
Structure prediction by ZEFSAII (Michael W. Deem and Ramdas Pophale) SiO2 
 PCOD9196180
Probable space group: C 2/M
;
_chemical_formula_sum "Si O2"
_cell_formula_units_Z 48
_cell_length_a 22.685545
_cell_length_b 7.768794
_cell_length_c 12.529936
_cell_angle_alpha 90.000000
_cell_angle_beta 72.115277
_cell_angle_gamma 90.000000
_cell_volume 2101.555867
_symmetry_space_group_name_H-M "C 2/M"
_symmetry_group_IT_number 12
_symmetry_cell_setting 'monoclinic'
loop_
_space_group_symop_operation_xyz
x,y,z
-x,y,-z
-x,-y,-z
x,-y,z
1/2+x,1/2+y,z
1/2-x,1/2+y,-z
1/2-x,1/2-y,-z
1/2+x,1/2-y,z
loop_
_atom_site_type_symbol
_atom_site_label
_atom_site_fract_x
_atom_site_fract_y
_atom_site_fract_z
Si Si1 0.619038 0.799073 0.320609
Si Si2 0.677609 0.703133 0.741805
Si Si3 0.539096 0.204314 0.878831
Si Si4 0.512945 0.795355 0.654032
Si Si5 0.770533 0.291987 0.869854
Si Si6 0.848659 0.802341 0.472565
O O1 0.549395 0.728380 0.366728
O O2 0.661724 0.727311 0.202859
O O3 0.656910 0.785607 0.409779
O O4 0.608547 0.000000 0.303703
O O5 0.690169 0.500000 0.723415
O O6 0.607389 0.721370 0.822877
O O7 0.722777 0.774437 0.806881
O O8 0.681174 0.775091 0.618685
O O9 0.503635 0.223733 0.786368
O O10 0.548115 0.000000 0.890897
O O11 0.500000 0.273479 0.000000
O O12 0.577426 0.705878 0.591504
O O13 0.522927 0.000000 0.624123
O O14 0.771591 0.500000 0.861483
O O15 0.750000 0.250000 0.000000
O O16 0.829667 0.000000 0.495225
#
# Coordination Sequence:
#
# PCOD9196180 Si02
#       6
#     8   8   8   8   8   8
#     4  10  21  36  56  80 110 146 182 223 273 323
#     4   9  20  38  55  77 111 145 177 223 277 324
#     4   9  18  31  53  81 106 139 185 228 265 316
#     4   9  18  33  52  79 112 143 176 222 276 323
#     4  10  23  41  59  80 109 146 186 227 272 324
#     4  10  20  35  56  82 112 142 179 225 272 325
#
# _framework density 22.840222000000001
#
# number of rings (size 3 to 8) (size 9 to 14) (size 15 to 20)
#    0.000    2.500    0.000    1.000    2.333    5.667 
#    0.000    0.000    0.000    0.000    0.000    0.000 
#    0.000    0.000    0.000    0.000    0.000    0.000 
#
# Total GULP energy -133998.392717 kJ/mol
# GULP energy per Si atom -5583.266363 kJ/mol
# Density = 2.278824 g / cm^3
# Si number density = 22.840222 Si / 1000 Ang^3
#
#
#
# Elastic Constant Matrix: (Units=GPa)
#
#
# Indices 1 2 3 4 5 6 
#
# 1 79.3046 3.6387 12.8740 0.0000 17.0979 0.0000
# 2 3.6387 33.4676 -2.8930 0.0000 2.2356 0.0000
# 3 12.8740 -2.8930 95.4284 0.0000 -3.1282 0.0000
# 4 0.0000 0.0000 0.0000 21.7912 0.0000 3.7978
# 5 17.0979 2.2356 -3.1282 0.0000 26.3766 0.0000
# 6 0.0000 0.0000 0.0000 3.7978 0.0000 13.1215
#
#
#
# Elastic Compliance Matrix: (Units=1/GPa)
#
#
# Indices 1 2 3 4 5 6 
#
# 1 0.015225 -0.001193 -0.002420 0.000000 -0.010055 0.000000
# 2 -0.001193 0.030209 0.001022 0.000000 -0.001666 0.000000
# 3 -0.002420 0.001022 0.010928 0.000000 0.002778 0.000000
# 4 0.000000 0.000000 0.000000 0.048328 0.000000 -0.013988
# 5 -0.010055 -0.001666 0.002778 0.000000 0.044901 0.000000
# 6 0.000000 0.000000 0.000000 -0.013988 0.000000 0.080260
#
#
# Mechanical properties :
#
#
# Convention : Reuss Voigt Hill
#
# Bulk Modulus (GPa) = 19.53861 26.16000 22.84931
# Shear Modulus (GPa) = 19.83412 25.22993 22.53202
#
# Velocity S-wave (km/s) = 2.95004 3.32720 3.14428
# Velocity P-wave (km/s) = 4.49184 5.12237 4.81743
#
# Compressibility (1/GPa) = 0.05118070
#
# Stress axis : x y z
#
# Youngs Moduli (GPa) = 65.68153 33.10270 91.51189
#
# Poissons Ratio (x) = 0.03949 0.22143
# Poissons Ratio (y) = 0.07835 -0.09354
# Poissons Ratio (z) = 0.15893 -0.03384
#
# Static dielectric constant tensor:
#      x y z
#    x 1.880510 0.000000 0.003260 
#    y 0.000000 1.850760 0.000000 
#    z 0.003260 0.000000 1.863030 
# 
# From -- ./inp_files/172125.got.cif
#   From: 2010.05.17/outbox.cif.g08.bks.cpg/sg12_87_cif.got.tgz:172125.got - 2010.06.03 13:09:07.
