data_PCOD9196118
_publ_section_title
;
Structure prediction by ZEFSAII (Michael W. Deem and Ramdas Pophale) SiO2 
 PCOD9196118
Probable space group: C 2/M
;
_chemical_formula_sum "Si O2"
_cell_formula_units_Z 64
_cell_length_a 23.389439
_cell_length_b 7.672408
_cell_length_c 15.598791
_cell_angle_alpha 90.000000
_cell_angle_beta 85.587361
_cell_angle_gamma 90.000000
_cell_volume 2790.957277
_symmetry_space_group_name_H-M "C 2/M"
_symmetry_group_IT_number 12
_symmetry_cell_setting 'monoclinic'
loop_
_space_group_symop_operation_xyz
x,y,z
-x,y,-z
-x,-y,-z
x,-y,z
1/2+x,1/2+y,z
1/2-x,1/2+y,-z
1/2-x,1/2-y,-z
1/2+x,1/2-y,z
loop_
_atom_site_type_symbol
_atom_site_label
_atom_site_fract_x
_atom_site_fract_y
_atom_site_fract_z
Si Si1 0.351249 0.709591 0.343702
Si Si2 0.266609 0.706876 0.705910
Si Si3 0.709844 0.795614 0.112946
Si Si4 0.835691 0.201305 0.052828
Si Si5 0.951674 0.703769 0.572371
Si Si6 0.538989 0.286303 0.916288
Si Si7 0.022364 0.788849 0.727284
Si Si8 0.328191 0.699352 0.534104
O O1 0.355244 0.500000 0.349302
O O2 0.300937 0.752304 0.283321
O O3 0.414258 0.770865 0.310285
O O4 0.332414 0.780049 0.439163
O O5 0.274542 0.500000 0.703718
O O6 0.299581 0.774523 0.785252
O O7 0.289972 0.781691 0.613273
O O8 0.774301 0.722191 0.088311
O O9 0.709522 0.000000 0.092031
O O10 0.666938 0.708901 0.050530
O O11 0.895295 0.275116 0.079935
O O12 0.834284 0.000000 0.081616
O O13 0.941480 0.500000 0.555324
O O14 0.892586 0.800381 0.562864
O O15 0.000000 0.767463 0.500000
O O16 0.976161 0.724372 0.664663
O O17 0.540471 0.500000 0.917984
O O18 0.514866 0.234795 0.826519
O O19 0.500000 0.229436 0.000000
O O20 0.021573 0.000000 0.724538
O O21 0.308067 0.500000 0.524848
#
# Coordination Sequence:
#
# PCOD9196118 Si02
#       8
#     8   8   8   8   8   8   8   8
#     4  10  20  36  58  81 109 147 191 234 283 339
#     4  11  23  36  54  83 115 146 186 233 287 342
#     4  10  20  35  56  81 110 146 186 228 281 340
#     4   9  18  35  58  81 109 143 185 232 278 332
#     4  11  23  38  58  85 116 147 187 240 289 331
#     4   9  18  33  55  84 113 142 181 230 279 328
#     4  10  20  36  61  86 112 152 195 231 277 342
#     4  10  22  39  58  80 109 150 191 232 282 341
#
# _framework density 22.931198999999999
#
# number of rings (size 3 to 8) (size 9 to 14) (size 15 to 20)
#    0.000    2.000    1.250    2.250    0.000    6.000 
#    0.000    3.125    0.000    0.750    0.000    0.000 
#    0.000    0.000    0.000    0.000    0.000    0.000 
#
# Total GULP energy -178852.652663 kJ/mol
# GULP energy per Si atom -5589.145396 kJ/mol
# Density = 2.287901 g / cm^3
# Si number density = 22.931199 Si / 1000 Ang^3
#
#
#
# Elastic Constant Matrix: (Units=GPa)
#
#
# Indices 1 2 3 4 5 6 
#
# 1 57.1313 -5.0284 10.0422 0.0000 15.6122 0.0000
# 2 -5.0284 51.5113 -3.4741 0.0000 -6.5388 0.0000
# 3 10.0422 -3.4741 127.0376 0.0000 14.0060 0.0000
# 4 0.0000 0.0000 0.0000 26.9581 0.0000 -0.2451
# 5 15.6122 -6.5388 14.0060 0.0000 35.0548 0.0000
# 6 0.0000 0.0000 0.0000 -0.2451 0.0000 18.0118
#
#
#
# Elastic Compliance Matrix: (Units=1/GPa)
#
#
# Indices 1 2 3 4 5 6 
#
# 1 0.020011 0.000831 -0.000621 0.000000 -0.008509 0.000000
# 2 0.000831 0.019921 0.000115 0.000000 0.003300 0.000000
# 3 -0.000621 0.000115 0.008255 0.000000 -0.003000 0.000000
# 4 0.000000 0.000000 0.000000 0.037099 0.000000 0.000505
# 5 -0.008509 0.003300 -0.003000 0.000000 0.034131 0.000000
# 6 0.000000 0.000000 0.000000 0.000505 0.000000 0.055526
#
#
# Mechanical properties :
#
#
# Convention : Reuss Voigt Hill
#
# Bulk Modulus (GPa) = 20.47574 26.52883 23.50229
# Shear Modulus (GPa) = 26.23698 31.61430 28.92564
#
# Velocity S-wave (km/s) = 3.38621 3.71706 3.55549
# Velocity P-wave (km/s) = 4.92313 5.47869 5.20832
#
# Compressibility (1/GPa) = 0.04883828
#
# Stress axis : x y z
#
# Youngs Moduli (GPa) = 49.97213 50.19825 121.14330
#
# Poissons Ratio (x) = -0.04174 0.07523
# Poissons Ratio (y) = -0.04155 -0.01397
# Poissons Ratio (z) = 0.03103 -0.00579
#
# Static dielectric constant tensor:
#      x y z
#    x 1.827060 0.000000 -0.029110 
#    y 0.000000 1.861540 0.000000 
#    z -0.029110 0.000000 1.880650 
# 
# From -- ./inp_files/238795.got.cif
#   From: 2010.05.17/outbox.cif.g08.bks.cpg/sg12_120_cif.got.tgz:238795.got - 2010.06.03 13:09:07.
