data_PCOD9196902
_publ_section_title
;
Structure prediction by ZEFSAII (Michael W. Deem and Ramdas Pophale) SiO2 
 PCOD9196902
Probable space group: C 2/M
;
_chemical_formula_sum "Si O2"
_cell_formula_units_Z 56
_cell_length_a 15.834665
_cell_length_b 7.910232
_cell_length_c 24.998733
_cell_angle_alpha 90.000000
_cell_angle_beta 117.867185
_cell_angle_gamma 90.000000
_cell_volume 2768.119362
_symmetry_space_group_name_H-M "C 2/M"
_symmetry_group_IT_number 12
_symmetry_cell_setting 'monoclinic'
loop_
_space_group_symop_operation_xyz
x,y,z
-x,y,-z
-x,-y,-z
x,-y,z
1/2+x,1/2+y,z
1/2-x,1/2+y,-z
1/2-x,1/2-y,-z
1/2+x,1/2-y,z
loop_
_atom_site_type_symbol
_atom_site_label
_atom_site_fract_x
_atom_site_fract_y
_atom_site_fract_z
Si Si1 0.901712 0.793917 0.500735
Si Si2 0.560207 0.703637 0.368400
Si Si3 0.345458 0.297667 0.290834
Si Si4 0.752386 0.296537 0.629959
Si Si5 0.765439 0.200227 0.848240
Si Si6 0.171686 0.798047 0.932315
Si Si7 0.479717 0.293082 0.932580
O O1 0.906009 0.734091 0.563062
O O2 0.813097 0.734097 0.438791
O O3 0.000000 0.748249 0.500000
O O4 0.898427 0.000000 0.500893
O O5 0.556284 0.500000 0.370239
O O6 0.454171 0.767085 0.323939
O O7 0.638830 0.750560 0.348384
O O8 0.351607 0.500000 0.298799
O O9 0.289351 0.232525 0.326342
O O10 0.290593 0.264193 0.219924
O O11 0.744892 0.500000 0.627874
O O12 0.708040 0.236506 0.885717
O O13 0.874232 0.267082 0.884917
O O14 0.773397 0.000000 0.845238
O O15 0.067469 0.736344 0.921122
O O16 0.166803 0.000000 0.928572
O O17 0.250000 0.750000 0.000000
O O18 0.479313 0.500000 0.931616
O O19 0.500000 0.243642 0.000000
#
# Coordination Sequence:
#
# PCOD9196902 Si02
#       7
#     8   8   8   8   8   8   8
#     4   9  15  30  57  84 108 146 193 236 283 341
#     4  10  20  35  58  83 112 150 192 233 286 348
#     4  10  22  40  57  78 112 155 193 229 279 345
#     4  10  20  35  58  84 113 147 191 242 286 332
#     4  11  23  40  61  85 114 150 191 236 284 336
#     4  11  21  37  62  90 119 150 186 229 279 337
#     4   9  18  36  60  84 113 147 180 219 276 338
#
# _framework density 20.230340999999999
#
# number of rings (size 3 to 8) (size 9 to 14) (size 15 to 20)
#    0.000    2.000    2.857    1.286    0.000    2.286 
#    0.000    7.857    0.000    0.857    0.000    0.000 
#    0.000    0.000    0.000    0.000    0.000    0.000 
#
# Total GULP energy -156385.775766 kJ/mol
# GULP energy per Si atom -5585.206277 kJ/mol
# Density = 2.018430 g / cm^3
# Si number density = 20.230341 Si / 1000 Ang^3
#
#
#
# Elastic Constant Matrix: (Units=GPa)
#
#
# Indices 1 2 3 4 5 6 
#
# 1 209.3185 0.3154 101.4275 0.0000 14.5415 0.0000
# 2 0.3154 16.5933 0.0228 0.0000 2.5397 0.0000
# 3 101.4275 0.0228 163.5578 0.0000 9.6124 0.0000
# 4 0.0000 0.0000 0.0000 13.6915 0.0000 6.5771
# 5 14.5415 2.5397 9.6124 0.0000 5.7948 0.0000
# 6 0.0000 0.0000 0.0000 6.5771 0.0000 18.6199
#
#
#
# Elastic Compliance Matrix: (Units=1/GPa)
#
#
# Indices 1 2 3 4 5 6 
#
# 1 0.007612 0.001914 -0.003932 0.000000 -0.013418 0.000000
# 2 0.001914 0.065580 0.000859 0.000000 -0.034971 0.000000
# 3 -0.003932 0.000859 0.008858 0.000000 -0.005203 0.000000
# 4 0.000000 0.000000 0.000000 0.087964 0.000000 -0.031072
# 5 -0.013418 -0.034971 -0.005203 0.000000 0.230197 0.000000
# 6 0.000000 0.000000 0.000000 -0.031072 0.000000 0.064681
#
#
# Mechanical properties :
#
#
# Convention : Reuss Voigt Hill
#
# Bulk Modulus (GPa) = 12.54184 65.88898 39.21541
# Shear Modulus (GPa) = 10.12579 26.80150 18.46365
#
# Velocity S-wave (km/s) = 2.23967 3.64375 3.02432
# Velocity P-wave (km/s) = 3.59181 7.09526 5.62334
#
# Compressibility (1/GPa) = 0.07973311
#
# Stress axis : x y z
#
# Youngs Moduli (GPa) = 131.37050 15.24846 112.89008
#
# Poissons Ratio (x) = -0.02919 0.44390
# Poissons Ratio (y) = -0.25150 -0.09697
# Poissons Ratio (z) = 0.51657 -0.01310
#
# Static dielectric constant tensor:
#      x y z
#    x 1.713000 0.000000 0.015230 
#    y 0.000000 1.744690 0.000000 
#    z 0.015230 0.000000 1.678900 
# 
# From -- ./inp_files/308983.got.cif
#   From: 2010.05.17/outbox.cif.g08.bks.cpg/sg12_155_cif.got.tgz:308983.got - 2010.06.03 13:09:07.
