data_PCOD9196569
_publ_section_title
;
Structure prediction by ZEFSAII (Michael W. Deem and Ramdas Pophale) SiO2 
 PCOD9196569
Probable space group: C 2/M
;
_chemical_formula_sum "Si O2"
_cell_formula_units_Z 56
_cell_length_a 8.329573
_cell_length_b 19.325569
_cell_length_c 16.147287
_cell_angle_alpha 90.000000
_cell_angle_beta 83.102959
_cell_angle_gamma 90.000000
_cell_volume 2580.479504
_symmetry_space_group_name_H-M "C 2/M"
_symmetry_group_IT_number 12
_symmetry_cell_setting 'monoclinic'
loop_
_space_group_symop_operation_xyz
x,y,z
-x,y,-z
-x,-y,-z
x,-y,z
1/2+x,1/2+y,z
1/2-x,1/2+y,-z
1/2-x,1/2-y,-z
1/2+x,1/2-y,z
loop_
_atom_site_type_symbol
_atom_site_label
_atom_site_fract_x
_atom_site_fract_y
_atom_site_fract_z
Si Si1 0.190391 0.201648 0.076661
Si Si2 0.273549 0.920673 0.166422
Si Si3 0.098413 0.074822 0.752986
Si Si4 0.085630 0.662983 0.694159
Si Si5 0.691316 0.675447 0.469548
Si Si6 0.330613 0.919935 0.596600
Si Si7 0.382293 0.282010 0.189160
O O1 0.260844 0.124621 0.082837
O O2 0.246294 0.234392 0.160049
O O3 0.000595 0.205300 0.103464
O O4 0.250000 0.250000 0.000000
O O5 0.388791 0.886909 0.228271
O O6 0.092130 0.918334 0.217479
O O7 0.314967 0.000000 0.148286
O O8 0.158499 0.076934 0.655422
O O9 0.178482 0.142186 0.786359
O O10 0.150226 0.000000 0.783814
O O11 0.248740 0.669365 0.628830
O O12 0.054202 0.739444 0.734904
O O13 0.950917 0.628730 0.642810
O O14 0.500000 0.669448 0.500000
O O15 0.750000 0.750000 0.500000
O O16 0.790305 0.616489 0.513006
O O17 0.388084 0.000000 0.587953
#
# Coordination Sequence:
#
# PCOD9196569 Si02
#       7
#     8   8   8   8   8   8   8
#     4  10  20  35  57  83 113 145 183 234 289 356
#     4   9  19  36  58  83 112 152 197 241 297 359
#     4   9  18  34  55  81 113 148 191 240 289 348
#     4  11  22  37  60  85 116 156 199 251 297 357
#     4  12  26  42  60  85 119 160 207 255 306 355
#     4  11  23  38  59  88 121 156 198 251 305 356
#     4  10  20  35  58  84 111 149 191 232 290 354
#
# _framework density 21.701392999999999
#
# number of rings (size 3 to 8) (size 9 to 14) (size 15 to 20)
#    0.000    1.714    0.000    4.714    0.000    6.571 
#    0.000    0.714    0.000   11.143    0.000    0.000 
#    0.000    0.000    0.000    0.000    0.000    0.000 
#
# Total GULP energy -156109.113993 kJ/mol
# GULP energy per Si atom -5575.325500 kJ/mol
# Density = 2.165200 g / cm^3
# Si number density = 21.701393 Si / 1000 Ang^3
#
#
#
# Elastic Constant Matrix: (Units=GPa)
#
#
# Indices 1 2 3 4 5 6 
#
# 1 55.0303 15.0315 26.0401 0.0000 -1.3786 0.0000
# 2 15.0315 160.0614 47.0872 0.0000 4.6552 0.0000
# 3 26.0401 47.0872 95.8149 0.0000 -17.5938 0.0000
# 4 0.0000 0.0000 0.0000 32.5377 0.0000 -1.3016
# 5 -1.3786 4.6552 -17.5938 0.0000 36.9244 0.0000
# 6 0.0000 0.0000 0.0000 -1.3016 0.0000 22.2093
#
#
#
# Elastic Compliance Matrix: (Units=1/GPa)
#
#
# Indices 1 2 3 4 5 6 
#
# 1 0.021007 -0.000142 -0.006019 0.000000 -0.002066 0.000000
# 2 -0.000142 0.007596 -0.004242 0.000000 -0.002984 0.000000
# 3 -0.006019 -0.004242 0.015577 0.000000 0.007732 0.000000
# 4 0.000000 0.000000 0.000000 0.030806 0.000000 0.001805
# 5 -0.002066 -0.002984 0.007732 0.000000 0.031066 0.000000
# 6 0.000000 0.000000 0.000000 0.001805 0.000000 0.045132
#
#
# Mechanical properties :
#
#
# Convention : Reuss Voigt Hill
#
# Bulk Modulus (GPa) = 42.78276 54.13602 48.45939
# Shear Modulus (GPa) = 27.81172 33.18413 30.49793
#
# Velocity S-wave (km/s) = 3.58378 3.91464 3.75286
# Velocity P-wave (km/s) = 6.07303 6.74037 6.41538
#
# Compressibility (1/GPa) = 0.02337390
#
# Stress axis : x y z
#
# Youngs Moduli (GPa) = 47.60348 131.65308 64.19682
#
# Poissons Ratio (x) = 0.01871 0.38637
# Poissons Ratio (y) = 0.00677 0.27233
# Poissons Ratio (z) = 0.28650 0.55850
#
# Static dielectric constant tensor:
#      x y z
#    x 1.853980 0.000000 -0.005160 
#    y 0.000000 1.823350 0.000000 
#    z -0.005160 0.000000 1.773150 
# 
# From -- ./inp_files/197507.got.cif
#   From: 2010.05.17/outbox.cif.g08.bks.cpg/sg12_99_cif.got.tgz:197507.got - 2010.06.03 13:09:07.
