data_PCOD9196985
_publ_section_title
;
Structure prediction by ZEFSAII (Michael W. Deem and Ramdas Pophale) SiO2 
 PCOD9196985
Probable space group: C 2/M
;
_chemical_formula_sum "Si O2"
_cell_formula_units_Z 56
_cell_length_a 20.495670
_cell_length_b 13.136781
_cell_length_c 15.902948
_cell_angle_alpha 90.000000
_cell_angle_beta 143.376737
_cell_angle_gamma 90.000000
_cell_volume 2554.324909
_symmetry_space_group_name_H-M "C 2/M"
_symmetry_group_IT_number 12
_symmetry_cell_setting 'monoclinic'
loop_
_space_group_symop_operation_xyz
x,y,z
-x,y,-z
-x,-y,-z
x,-y,z
1/2+x,1/2+y,z
1/2-x,1/2+y,-z
1/2-x,1/2-y,-z
1/2+x,1/2-y,z
loop_
_atom_site_type_symbol
_atom_site_label
_atom_site_fract_x
_atom_site_fract_y
_atom_site_fract_z
Si Si1 0.043836 0.614009 0.388199
Si Si2 0.532610 0.799946 0.943662
Si Si3 0.167290 0.118101 0.124331
Si Si4 0.315477 0.835251 0.617315
Si Si5 0.684661 0.729332 0.630887
Si Si6 0.700473 0.879521 0.911622
Si Si7 0.272878 0.381180 0.157320
O O1 0.029253 0.500000 0.411624
O O2 0.136481 0.602345 0.411905
O O3 0.085425 0.703340 0.492784
O O4 0.927288 0.648007 0.228645
O O5 0.429656 0.808133 0.778473
O O6 0.500000 0.843349 0.000000
O O7 0.562716 0.681411 0.986474
O O8 0.642708 0.859160 0.033084
O O9 0.221845 0.184698 0.254475
O O10 0.247081 0.127500 0.126144
O O11 0.151030 0.000000 0.127468
O O12 0.250000 0.750000 0.500000
O O13 0.233639 0.851068 0.612931
O O14 0.669462 0.675797 0.705487
O O15 0.695489 0.000000 0.926991
O O16 0.782478 0.841196 0.070890
O O17 0.299623 0.500000 0.191540
#
# Coordination Sequence:
#
# PCOD9196985 Si02
#       7
#     8   8   8   8   8   8   8
#     4  10  20  36  60  85 117 152 185 234 290 336
#     4  11  20  36  54  85 113 142 195 240 276 347
#     4  10  21  36  57  82 118 154 187 235 286 334
#     4  10  20  36  51  77 119 146 182 236 273 334
#     4  10  21  36  54  85 120 148 187 233 275 350
#     4   9  19  35  57  88 114 144 195 240 279 338
#     4  10  20  35  58  85 114 146 185 239 292 328
#
# _framework density 21.923601999999999
#
# number of rings (size 3 to 8) (size 9 to 14) (size 15 to 20)
#    0.000    2.000    4.286    0.429    0.000    4.000 
#    0.000    2.857    0.000    0.857    0.000    8.000 
#    0.000    0.000    0.000    0.000    0.000    0.000 
#
# Total GULP energy -155882.824019 kJ/mol
# GULP energy per Si atom -5567.243715 kJ/mol
# Density = 2.187370 g / cm^3
# Si number density = 21.923602 Si / 1000 Ang^3
#
#
#
# Elastic Constant Matrix: (Units=GPa)
#
#
# Indices 1 2 3 4 5 6 
#
# 1 53.5558 9.7078 16.2798 0.0000 -9.6210 0.0000
# 2 9.7078 76.5060 25.3602 0.0000 -11.9468 0.0000
# 3 16.2798 25.3602 117.8972 0.0000 -20.4094 0.0000
# 4 0.0000 0.0000 0.0000 -11.5223 0.0000 -12.0325
# 5 -9.6210 -11.9468 -20.4094 0.0000 27.1067 0.0000
# 6 0.0000 0.0000 0.0000 -12.0325 0.0000 20.0287
#
#
#
# Elastic Compliance Matrix: (Units=1/GPa)
#
#
# Indices 1 2 3 4 5 6 
#
# 1 0.020363 -0.001194 -0.001604 0.000000 0.005493 0.000000
# 2 -0.001194 0.014641 -0.002232 0.000000 0.004349 0.000000
# 3 -0.001604 -0.002232 0.010251 0.000000 0.006165 0.000000
# 4 0.000000 0.000000 0.000000 -0.053331 0.000000 -0.032039
# 5 0.005493 0.004349 0.006165 0.000000 0.045400 0.000000
# 6 0.000000 0.000000 0.000000 -0.032039 0.000000 0.030680
#
#
# Mechanical properties :
#
#
# Convention : Reuss Voigt Hill
#
# Bulk Modulus (GPa) = 28.41297 38.96161 33.68729
# Shear Modulus (GPa) = 55.68174 20.23005 37.95590
#
# Velocity S-wave (km/s) = 5.04512 3.04098 4.16538
# Velocity P-wave (km/s) = 6.85024 5.49001 6.20749
#
# Compressibility (1/GPa) = 0.03519519
#
# Stress axis : x y z
#
# Youngs Moduli (GPa) = 49.10860 68.30022 97.55371
#
# Poissons Ratio (x) = 0.08157 0.15647
# Poissons Ratio (y) = 0.05865 0.21771
# Poissons Ratio (z) = 0.07877 0.15242
#
# Static dielectric constant tensor:
#      x y z
#    x 1.909530 0.000000 -0.059250 
#    y 0.000000 1.874380 0.000000 
#    z -0.059250 0.000000 1.796700 
# 
# From -- ./inp_files/233716.got.cif
#   From: 2010.05.17/outbox.cif.g08.bks.cpg/sg12_117_cif.got.tgz:233716.got - 2010.06.03 13:09:07.
