data_PCOD9196893
_publ_section_title
;
Structure prediction by ZEFSAII (Michael W. Deem and Ramdas Pophale) SiO2 
 PCOD9196893
Probable space group: C 2/M
;
_chemical_formula_sum "Si O2"
_cell_formula_units_Z 50
_cell_length_a 29.264321
_cell_length_b 9.488256
_cell_length_c 9.965971
_cell_angle_alpha 90.000000
_cell_angle_beta 55.045934
_cell_angle_gamma 90.000000
_cell_volume 2268.049716
_symmetry_space_group_name_H-M "C 2/M"
_symmetry_group_IT_number 12
_symmetry_cell_setting 'monoclinic'
loop_
_space_group_symop_operation_xyz
x,y,z
-x,y,-z
-x,-y,-z
x,-y,z
1/2+x,1/2+y,z
1/2-x,1/2+y,-z
1/2-x,1/2-y,-z
1/2+x,1/2-y,z
loop_
_atom_site_type_symbol
_atom_site_label
_atom_site_fract_x
_atom_site_fract_y
_atom_site_fract_z
Si Si1 0.195732 0.337237 0.265884
Si Si2 0.449055 0.661877 0.254748
Si Si3 0.420181 0.730834 0.602027
Si Si4 0.810959 0.171813 0.165453
Si Si5 0.156727 0.663492 0.642164
Si Si6 0.500000 0.000000 0.500000
Si Si7 0.932426 0.160946 0.879267
O O1 0.193378 0.500000 0.224777
O O2 0.146587 0.251646 0.278870
O O3 0.259529 0.286595 0.156715
O O4 0.179828 0.334818 0.451556
O O5 0.446715 0.500000 0.209517
O O6 0.433352 0.658066 0.439151
O O7 0.403611 0.760577 0.262220
O O8 0.512063 0.721962 0.146240
O O9 0.439456 0.661302 0.707350
O O10 0.453183 0.877930 0.544223
O O11 0.806676 0.245104 0.317155
O O12 0.809119 0.000000 0.179229
O O13 0.871685 0.220806 0.012462
O O14 0.153158 0.500000 0.689806
O O15 0.930935 0.000000 0.926976
#
# Coordination Sequence:
#
# PCOD9196893 Si02
#       7
#     8   8   8   8   8   2   8
#     4   9  19  35  57  81 109 143 186 227 275 325
#     4  10  20  35  58  83 108 143 184 229 275 330
#     4  11  20  34  57  86 114 145 181 226 276 330
#     4  10  21  39  57  77 109 152 187 225 271 328
#     4  10  21  37  58  84 110 139 184 237 282 328
#     4  12  20  32  58  88 118 148 178 226 282 330
#     4  10  21  36  55  79 112 147 185 226 271 327
#
# _framework density 22.045373000000001
#
# number of rings (size 3 to 8) (size 9 to 14) (size 15 to 20)
#    0.000    1.920    2.400    1.440    1.120    2.560 
#    1.440    7.200    0.000    0.000    0.000    0.000 
#    0.000    0.000    0.000    0.000    0.000    0.000 
#
# Total GULP energy -139302.028558 kJ/mol
# GULP energy per Si atom -5572.081142 kJ/mol
# Density = 2.199520 g / cm^3
# Si number density = 22.045373 Si / 1000 Ang^3
#
#
#
# Elastic Constant Matrix: (Units=GPa)
#
#
# Indices 1 2 3 4 5 6 
#
# 1 149.7516 27.7761 17.8778 0.0000 -29.6060 0.0000
# 2 27.7761 61.5762 4.5589 0.0000 -7.1807 0.0000
# 3 17.8778 4.5589 53.2018 0.0000 -10.6996 0.0000
# 4 0.0000 0.0000 0.0000 32.2766 0.0000 5.6940
# 5 -29.6060 -7.1807 -10.6996 0.0000 50.6150 0.0000
# 6 0.0000 0.0000 0.0000 5.6940 0.0000 21.4627
#
#
#
# Elastic Compliance Matrix: (Units=1/GPa)
#
#
# Indices 1 2 3 4 5 6 
#
# 1 0.008257 -0.003129 -0.001697 0.000000 0.004027 0.000000
# 2 -0.003129 0.017749 -0.000346 0.000000 0.000615 0.000000
# 3 -0.001697 -0.000346 0.020039 0.000000 0.003195 0.000000
# 4 0.000000 0.000000 0.000000 0.032503 0.000000 -0.008623
# 5 0.004027 0.000615 0.003195 0.000000 0.022875 0.000000
# 6 0.000000 0.000000 0.000000 -0.008623 0.000000 0.048880
#
#
# Mechanical properties :
#
#
# Convention : Reuss Voigt Hill
#
# Bulk Modulus (GPa) = 28.01041 40.55059 34.28050
# Shear Modulus (GPa) = 28.97772 35.15865 32.06819
#
# Velocity S-wave (km/s) = 3.62948 3.99787 3.81812
# Velocity P-wave (km/s) = 5.50432 6.30434 5.91786
#
# Compressibility (1/GPa) = 0.03570102
#
# Stress axis : x y z
#
# Youngs Moduli (GPa) = 121.11164 56.34159 49.90380
#
# Poissons Ratio (x) = 0.17631 0.08466
# Poissons Ratio (y) = 0.37900 0.01725
# Poissons Ratio (z) = 0.20547 0.01948
#
# Static dielectric constant tensor:
#      x y z
#    x 1.815050 0.000000 -0.036400 
#    y 0.000000 1.752960 0.000000 
#    z -0.036400 0.000000 1.894470 
# 
# From -- ./inp_files/180596.got.cif
#   From: 2010.05.17/outbox.cif.g08.bks.cpg/sg12_91_cif.got.tgz:180596.got - 2010.06.03 13:09:07.
