data_PCOD9196885
_publ_section_title
;
Structure prediction by ZEFSAII (Michael W. Deem and Ramdas Pophale) SiO2 
 PCOD9196885
Probable space group: C 2/M
;
_chemical_formula_sum "Si O2"
_cell_formula_units_Z 48
_cell_length_a 14.620023
_cell_length_b 15.080725
_cell_length_c 11.676783
_cell_angle_alpha 90.000000
_cell_angle_beta 78.596623
_cell_angle_gamma 90.000000
_cell_volume 2523.681569
_symmetry_space_group_name_H-M "C 2/M"
_symmetry_group_IT_number 12
_symmetry_cell_setting 'monoclinic'
loop_
_space_group_symop_operation_xyz
x,y,z
-x,y,-z
-x,-y,-z
x,-y,z
1/2+x,1/2+y,z
1/2-x,1/2+y,-z
1/2-x,1/2-y,-z
1/2+x,1/2-y,z
loop_
_atom_site_type_symbol
_atom_site_label
_atom_site_fract_x
_atom_site_fract_y
_atom_site_fract_z
Si Si1 0.856064 0.784603 0.312140
Si Si2 0.932287 0.245547 0.766356
Si Si3 0.301367 0.600242 0.913613
Si Si4 0.400035 0.357988 0.548359
Si Si5 0.213099 0.407029 0.702154
Si Si6 0.213470 0.394456 0.186194
O O1 0.863453 0.828264 0.434549
O O2 0.824969 0.683508 0.336960
O O3 0.782806 0.840470 0.254351
O O4 0.959649 0.773692 0.233375
O O5 0.872222 0.176324 0.856729
O O6 0.920669 0.220555 0.634452
O O7 0.885180 0.341886 0.792257
O O8 0.342313 0.500000 0.897952
O O9 0.220305 0.602400 0.837501
O O10 0.259696 0.613416 0.049149
O O11 0.500000 0.401622 0.500000
O O12 0.319347 0.410579 0.631634
O O13 0.165616 0.500000 0.683847
O O14 0.206228 0.500000 0.215400
#
# Coordination Sequence:
#
# PCOD9196885 Si02
#       6
#     8   8   8   8   8   8
#     4  11  22  37  59  87 117 151 195 239 284 344
#     4  10  21  38  61  83 117 157 187 235 293 345
#     4   9  19  38  60  83 114 148 190 238 290 337
#     4   9  19  37  58  82 114 146 188 238 287 338
#     4  10  20  35  58  82 112 152 191 233 283 342
#     4  11  23  39  60  87 119 153 191 242 290 341
#
# _framework density 19.019832999999998
#
# number of rings (size 3 to 8) (size 9 to 14) (size 15 to 20)
#    0.000    2.000    3.333    1.000    0.000    3.000 
#    0.000    5.000    0.000    6.000    0.000    0.000 
#    0.000    0.000    0.000    0.000    0.000    0.000 
#
# Total GULP energy -133670.157956 kJ/mol
# GULP energy per Si atom -5569.589915 kJ/mol
# Density = 1.897654 g / cm^3
# Si number density = 19.019833 Si / 1000 Ang^3
#
#
#
# Elastic Constant Matrix: (Units=GPa)
#
#
# Indices 1 2 3 4 5 6 
#
# 1 25.9037 15.1350 0.5364 0.0000 -5.5423 0.0000
# 2 15.1350 109.3144 16.9459 0.0000 -2.0098 0.0000
# 3 0.5364 16.9459 73.3532 0.0000 2.7870 0.0000
# 4 0.0000 0.0000 0.0000 98.5543 0.0000 -5.3787
# 5 -5.5423 -2.0098 2.7870 0.0000 22.0398 0.0000
# 6 0.0000 0.0000 0.0000 -5.3787 0.0000 -10.7018
#
#
#
# Elastic Compliance Matrix: (Units=1/GPa)
#
#
# Indices 1 2 3 4 5 6 
#
# 1 0.044380 -0.006056 0.000675 0.000000 0.010523 0.000000
# 2 -0.006056 0.010343 -0.002334 0.000000 -0.000284 0.000000
# 3 0.000675 -0.002334 0.014237 0.000000 -0.001844 0.000000
# 4 0.000000 0.000000 0.000000 0.009876 0.000000 -0.004964
# 5 0.010523 -0.000284 -0.001844 0.000000 0.048226 0.000000
# 6 0.000000 0.000000 0.000000 -0.004964 0.000000 -0.090948
#
#
# Mechanical properties :
#
#
# Convention : Reuss Voigt Hill
#
# Bulk Modulus (GPa) = 18.68133 30.42290 24.55212
# Shear Modulus (GPa) = 72.05828 33.70871 52.88349
#
# Velocity S-wave (km/s) = 6.16183 4.21443 5.27871
# Velocity P-wave (km/s) = 7.77609 6.30174 7.07741
#
# Compressibility (1/GPa) = 0.05352937
#
# Stress axis : x y z
#
# Youngs Moduli (GPa) = 22.53259 96.68368 70.23925
#
# Poissons Ratio (x) = 0.58549 -0.04739
# Poissons Ratio (y) = 0.13645 0.16396
# Poissons Ratio (z) = -0.01520 0.22569
#
# Static dielectric constant tensor:
#      x y z
#    x 1.689500 0.000000 -0.006760 
#    y 0.000000 1.694190 0.000000 
#    z -0.006760 0.000000 1.641680 
# 
# From -- ./inp_files/142864.got.cif
#   From: 2010.05.17/outbox.cif.g08.bks.cpg/sg12_72_cif.got.tgz:142864.got - 2010.06.03 13:09:07.
