data_PCOD9196901
_publ_section_title
;
Structure prediction by ZEFSAII (Michael W. Deem and Ramdas Pophale) SiO2 
 PCOD9196901
Probable space group: C 2/M
;
_chemical_formula_sum "Si O2"
_cell_formula_units_Z 56
_cell_length_a 14.401172
_cell_length_b 13.961050
_cell_length_c 14.197771
_cell_angle_alpha 90.000000
_cell_angle_beta 125.457596
_cell_angle_gamma 90.000000
_cell_volume 2325.151230
_symmetry_space_group_name_H-M "C 2/M"
_symmetry_group_IT_number 12
_symmetry_cell_setting 'monoclinic'
loop_
_space_group_symop_operation_xyz
x,y,z
-x,y,-z
-x,-y,-z
x,-y,z
1/2+x,1/2+y,z
1/2-x,1/2+y,-z
1/2-x,1/2-y,-z
1/2+x,1/2-y,z
loop_
_atom_site_type_symbol
_atom_site_label
_atom_site_fract_x
_atom_site_fract_y
_atom_site_fract_z
Si Si1 0.821348 0.390140 0.836725
Si Si2 0.868315 0.396807 0.387817
Si Si3 0.974317 0.715091 0.770415
Si Si4 0.870518 0.819552 0.393319
Si Si5 0.191935 0.386655 0.955225
Si Si6 0.301487 0.110419 0.553705
Si Si7 0.542045 0.387551 0.920433
O O1 0.859333 0.500000 0.856812
O O2 0.691991 0.383435 0.721851
O O3 0.825100 0.357023 0.946043
O O4 0.901637 0.331984 0.813310
O O5 0.846478 0.500000 0.324525
O O6 0.853623 0.288734 0.344358
O O7 0.790332 0.395366 0.435750
O O8 0.000000 0.401627 0.500000
O O9 0.908736 0.678144 0.640477
O O10 0.984865 0.825232 0.804624
O O11 0.099546 0.670624 0.842529
O O12 0.799357 0.843285 0.446092
O O13 0.000000 0.835609 0.500000
O O14 0.168541 0.500000 0.934649
O O15 0.322290 0.371791 0.004027
O O16 0.321327 0.000000 0.598203
O O17 0.518827 0.500000 0.894036
O O18 0.500000 0.359494 0.000000
#
# Coordination Sequence:
#
# PCOD9196901 Si02
#       7
#     8   8   8   8   8   8   8
#     4  10  21  36  57  88 117 141 184 240 285 332
#     4   9  19  37  58  80 109 145 186 233 278 325
#     4  11  20  35  61  86 113 149 186 228 283 337
#     4  10  20  35  58  83 112 150 185 227 286 341
#     4  10  20  36  60  87 115 148 185 230 283 333
#     4  10  21  37  59  88 117 143 183 237 284 334
#     4  10  22  38  53  75 112 155 194 227 263 320
#
# _framework density 24.084454000000001
#
# number of rings (size 3 to 8) (size 9 to 14) (size 15 to 20)
#    0.000    2.000    0.000    4.714    0.000    4.571 
#    0.000    5.714    0.000   19.714    0.000    0.000 
#    0.000    0.000    0.000    0.000    0.000    0.000 
#
# Total GULP energy -156640.021410 kJ/mol
# GULP energy per Si atom -5594.286479 kJ/mol
# Density = 2.402964 g / cm^3
# Si number density = 24.084454 Si / 1000 Ang^3
#
#
#
# Elastic Constant Matrix: (Units=GPa)
#
#
# Indices 1 2 3 4 5 6 
#
# 1 77.0507 10.7047 17.7242 0.0000 -2.9011 0.0000
# 2 10.7047 121.4211 19.2059 0.0000 13.3517 0.0000
# 3 17.7242 19.2059 61.8852 0.0000 12.9680 0.0000
# 4 0.0000 0.0000 0.0000 23.3597 0.0000 2.9693
# 5 -2.9011 13.3517 12.9680 0.0000 19.8466 0.0000
# 6 0.0000 0.0000 0.0000 2.9693 0.0000 22.5966
#
#
#
# Elastic Compliance Matrix: (Units=1/GPa)
#
#
# Indices 1 2 3 4 5 6 
#
# 1 0.014552 -0.001161 -0.005118 0.000000 0.006252 0.000000
# 2 -0.001161 0.009152 -0.001370 0.000000 -0.005432 0.000000
# 3 -0.005118 -0.001370 0.020871 0.000000 -0.013464 0.000000
# 4 0.000000 0.000000 0.000000 0.043536 0.000000 -0.005721
# 5 0.006252 -0.005432 -0.013464 0.000000 0.063752 0.000000
# 6 0.000000 0.000000 0.000000 -0.005721 0.000000 0.045006
#
#
# Mechanical properties :
#
#
# Convention : Reuss Voigt Hill
#
# Bulk Modulus (GPa) = 34.15406 39.51407 36.83406
# Shear Modulus (GPa) = 22.52999 27.34206 24.93603
#
# Velocity S-wave (km/s) = 3.06184 3.37301 3.22119
# Velocity P-wave (km/s) = 5.16833 5.62243 5.40015
#
# Compressibility (1/GPa) = 0.02927910
#
# Stress axis : x y z
#
# Youngs Moduli (GPa) = 68.71706 109.26468 47.91299
#
# Poissons Ratio (x) = 0.12685 0.24521
# Poissons Ratio (y) = 0.07978 0.06562
# Poissons Ratio (z) = 0.35168 0.14965
#
# Static dielectric constant tensor:
#      x y z
#    x 1.913520 0.000000 -0.012600 
#    y 0.000000 1.949840 0.000000 
#    z -0.012600 0.000000 1.924260 
# 
# From -- ./inp_files/270382.got.cif
#   From: 2010.05.17/outbox.cif.g08.bks.cpg/sg12_136_cif.got.tgz:270382.got - 2010.06.03 13:09:07.
