data_PCOD9196486
_publ_section_title
;
Structure prediction by ZEFSAII (Michael W. Deem and Ramdas Pophale) SiO2 
 PCOD9196486
Probable space group: C 2/M
;
_chemical_formula_sum "Si O2"
_cell_formula_units_Z 64
_cell_length_a 16.134209
_cell_length_b 8.051626
_cell_length_c 20.891216
_cell_angle_alpha 90.000000
_cell_angle_beta 112.438936
_cell_angle_gamma 90.000000
_cell_volume 2508.428752
_symmetry_space_group_name_H-M "C 2/M"
_symmetry_group_IT_number 12
_symmetry_cell_setting 'monoclinic'
loop_
_space_group_symop_operation_xyz
x,y,z
-x,y,-z
-x,-y,-z
x,-y,z
1/2+x,1/2+y,z
1/2-x,1/2+y,-z
1/2-x,1/2-y,-z
1/2+x,1/2-y,z
loop_
_atom_site_type_symbol
_atom_site_label
_atom_site_fract_x
_atom_site_fract_y
_atom_site_fract_z
Si Si1 0.721290 0.692392 0.575942
Si Si2 0.031719 0.202555 0.910554
Si Si3 0.113028 0.312995 0.661379
Si Si4 0.310871 0.696670 0.959081
Si Si5 0.078089 0.194599 0.785471
Si Si6 0.941679 0.194532 0.548578
Si Si7 0.873588 0.704314 0.704970
Si Si8 0.828988 0.308361 0.828491
O O1 0.732833 0.500000 0.562592
O O2 0.664513 0.698230 0.626022
O O3 0.655145 0.765195 0.502491
O O4 0.816799 0.761987 0.626825
O O5 0.085278 0.250229 0.861275
O O6 0.934330 0.280846 0.875742
O O7 0.021296 0.000000 0.907631
O O8 0.090243 0.253540 0.988672
O O9 0.137930 0.500000 0.652322
O O10 0.128091 0.278117 0.740643
O O11 0.006257 0.289771 0.616261
O O12 0.314416 0.500000 0.958295
O O13 0.282890 0.751713 0.880287
O O14 0.250000 0.750000 0.000000
O O15 0.972518 0.224372 0.740104
O O16 0.097593 0.000000 0.788521
O O17 0.000000 0.198695 0.500000
O O18 0.934849 0.000000 0.564773
O O19 0.878024 0.500000 0.705889
O O20 0.822754 0.763233 0.755034
O O21 0.807677 0.500000 0.815205
#
# Coordination Sequence:
#
# PCOD9196486 Si02
#       8
#     8   8   8   8   8   8   8   8
#     4   9  18  34  55  76 102 137 173 211 257 308
#     4   9  20  38  58  77 100 137 178 214 254 304
#     4  11  21  32  50  77 107 136 171 215 260 306
#     4  11  23  38  55  78 109 139 172 215 260 303
#     4  10  20  36  56  76 102 136 175 215 257 306
#     4   8  15  30  51  73  98 133 175 212 252 305
#     4   9  19  36  56  79 107 136 169 212 259 306
#     4  10  20  35  57  82 107 137 172 209 254 310
#
# _framework density 25.513978999999999
#
# number of rings (size 3 to 8) (size 9 to 14) (size 15 to 20)
#    0.000    2.375    0.000    3.375    0.000    7.250 
#    0.000    5.625    0.000    0.000    0.000    0.000 
#    0.000    0.000    0.000    0.000    0.000    0.000 
#
# Total GULP energy -178937.312086 kJ/mol
# GULP energy per Si atom -5591.791003 kJ/mol
# Density = 2.545591 g / cm^3
# Si number density = 25.513979 Si / 1000 Ang^3
#
#
#
# Elastic Constant Matrix: (Units=GPa)
#
#
# Indices 1 2 3 4 5 6 
#
# 1 78.2104 -9.8139 12.4383 0.0000 -7.0956 0.0000
# 2 -9.8139 38.4321 7.0008 0.0000 -6.8088 0.0000
# 3 12.4383 7.0008 165.6082 0.0000 -11.5782 0.0000
# 4 0.0000 0.0000 0.0000 23.2958 0.0000 -5.2432
# 5 -7.0956 -6.8088 -11.5782 0.0000 51.7348 0.0000
# 6 0.0000 0.0000 0.0000 -5.2432 0.0000 26.0666
#
#
#
# Elastic Compliance Matrix: (Units=1/GPa)
#
#
# Indices 1 2 3 4 5 6 
#
# 1 0.013659 0.004064 -0.001046 0.000000 0.002174 0.000000
# 2 0.004064 0.027981 -0.001211 0.000000 0.003969 0.000000
# 3 -0.001046 -0.001211 0.006245 0.000000 0.001095 0.000000
# 4 0.000000 0.000000 0.000000 0.044962 0.000000 0.009044
# 5 0.002174 0.003969 0.001095 0.000000 0.020395 0.000000
# 6 0.000000 0.000000 0.000000 0.009044 0.000000 0.040182
#
#
# Mechanical properties :
#
#
# Convention : Reuss Voigt Hill
#
# Bulk Modulus (GPa) = 19.41736 33.50011 26.45874
# Shear Modulus (GPa) = 29.94438 38.39448 34.16943
#
# Velocity S-wave (km/s) = 3.42957 3.88344 3.66354
# Velocity P-wave (km/s) = 4.82800 5.76773 5.31866
#
# Compressibility (1/GPa) = 0.05150032
#
# Stress axis : x y z
#
# Youngs Moduli (GPa) = 73.20912 35.73814 160.13831
#
# Poissons Ratio (x) = -0.14523 0.16746
# Poissons Ratio (y) = -0.29750 0.19386
# Poissons Ratio (z) = 0.07655 0.04326
#
# Static dielectric constant tensor:
#      x y z
#    x 2.142400 0.000000 -0.006130 
#    y 0.000000 1.881860 0.000000 
#    z -0.006130 0.000000 2.017500 
# 
# From -- ./inp_files/320031.got.cif
#   From: 2010.05.17/outbox.cif.g08.bks.cpg/sg12_161_cif.got.tgz:320031.got - 2010.06.03 13:09:07.
