data_PCOD9196729
_publ_section_title
;
Structure prediction by ZEFSAII (Michael W. Deem and Ramdas Pophale) SiO2 
 PCOD9196729
Probable space group: C 2/M
;
_chemical_formula_sum "Si O2"
_cell_formula_units_Z 56
_cell_length_a 23.835080
_cell_length_b 8.081549
_cell_length_c 15.160248
_cell_angle_alpha 90.000000
_cell_angle_beta 68.003219
_cell_angle_gamma 90.000000
_cell_volume 2707.654506
_symmetry_space_group_name_H-M "C 2/M"
_symmetry_group_IT_number 12
_symmetry_cell_setting 'monoclinic'
loop_
_space_group_symop_operation_xyz
x,y,z
-x,y,-z
-x,-y,-z
x,-y,z
1/2+x,1/2+y,z
1/2-x,1/2+y,-z
1/2-x,1/2-y,-z
1/2+x,1/2-y,z
loop_
_atom_site_type_symbol
_atom_site_label
_atom_site_fract_x
_atom_site_fract_y
_atom_site_fract_z
Si Si1 0.191158 0.700352 0.088995
Si Si2 0.918231 0.803566 0.348143
Si Si3 0.060496 0.300602 0.854070
Si Si4 0.804813 0.304206 0.529014
Si Si5 0.468371 0.300788 0.612526
Si Si6 0.077960 0.701786 0.040202
Si Si7 0.669239 0.803917 0.295592
O O1 0.188069 0.500000 0.093328
O O2 0.130500 0.759158 0.074368
O O3 0.192576 0.764007 0.188676
O O4 0.250000 0.750000 0.000000
O O5 0.907451 0.759940 0.252923
O O6 0.867183 0.736917 0.443138
O O7 0.984278 0.743314 0.340905
O O8 0.918297 0.000000 0.358178
O O9 0.060772 0.500000 0.852938
O O10 0.989995 0.245654 0.894057
O O11 0.087517 0.247558 0.932453
O O12 0.801114 0.500000 0.539875
O O13 0.750000 0.250000 0.500000
O O14 0.804928 0.232017 0.628170
O O15 0.500000 0.265374 0.500000
O O16 0.460419 0.500000 0.622773
O O17 0.403110 0.219873 0.658843
O O18 0.077767 0.500000 0.041632
O O19 0.682143 0.000000 0.287263
#
# Coordination Sequence:
#
# PCOD9196729 Si02
#       7
#     8   8   8   8   8   8   8
#     4  10  21  38  57  81 111 145 186 232 279 332
#     4  11  22  36  55  84 118 151 186 229 279 336
#     4   9  17  33  58  84 109 143 184 230 281 336
#     4  11  24  41  59  81 111 150 190 231 279 335
#     4  10  20  35  57  85 118 151 184 227 281 340
#     4   8  16  33  57  82 110 142 182 230 283 338
#     4  10  22  39  61  87 114 145 189 241 286 332
#
# _framework density 20.682106999999998
#
# number of rings (size 3 to 8) (size 9 to 14) (size 15 to 20)
#    0.000    2.143    1.429    2.571    0.000    4.857 
#    0.000    5.714    0.000    0.000    0.000    0.000 
#    0.000    0.000    0.000    0.000    0.000    0.000 
#
# Total GULP energy -156364.757595 kJ/mol
# GULP energy per Si atom -5584.455628 kJ/mol
# Density = 2.063503 g / cm^3
# Si number density = 20.682107 Si / 1000 Ang^3
#
#
#
# Elastic Constant Matrix: (Units=GPa)
#
#
# Indices 1 2 3 4 5 6 
#
# 1 97.7061 6.4645 63.6854 0.0000 27.2527 0.0000
# 2 6.4645 14.8126 9.9776 0.0000 8.4533 0.0000
# 3 63.6854 9.9776 173.7987 0.0000 28.5977 0.0000
# 4 0.0000 0.0000 0.0000 10.9947 0.0000 -10.5559
# 5 27.2527 8.4533 28.5977 0.0000 28.2695 0.0000
# 6 0.0000 0.0000 0.0000 -10.5559 0.0000 22.1665
#
#
#
# Elastic Compliance Matrix: (Units=1/GPa)
#
#
# Indices 1 2 3 4 5 6 
#
# 1 0.016106 0.002678 -0.004042 0.000000 -0.012239 0.000000
# 2 0.002678 0.081939 -0.001474 0.000000 -0.025592 0.000000
# 3 -0.004042 -0.001474 0.007925 0.000000 -0.003680 0.000000
# 4 0.000000 0.000000 0.000000 0.167563 0.000000 0.079795
# 5 -0.012239 -0.025592 -0.003680 0.000000 0.058547 0.000000
# 6 0.000000 0.000000 0.000000 0.079795 0.000000 0.083112
#
#
# Mechanical properties :
#
#
# Convention : Reuss Voigt Hill
#
# Bulk Modulus (GPa) = 9.97071 49.61916 29.79493
# Shear Modulus (GPa) = 11.00597 26.03214 18.51905
#
# Velocity S-wave (km/s) = 2.30934 3.55164 2.99559
# Velocity P-wave (km/s) = 3.45574 6.39236 5.13831
#
# Compressibility (1/GPa) = 0.10029375
#
# Stress axis : x y z
#
# Youngs Moduli (GPa) = 62.09049 12.20418 126.18514
#
# Poissons Ratio (x) = -0.03268 0.50998
# Poissons Ratio (y) = -0.16627 0.18603
# Poissons Ratio (z) = 0.25094 0.01799
#
# Static dielectric constant tensor:
#      x y z
#    x 1.716510 0.000000 0.037090 
#    y 0.000000 1.734930 0.000000 
#    z 0.037090 0.000000 1.751960 
# 
# From -- ./inp_files/242987.got.cif
#   From: 2010.05.17/outbox.cif.g08.bks.cpg/sg12_122_cif.got.tgz:242987.got - 2010.06.03 13:09:07.
