data_PCOD9196193
_publ_section_title
;
Structure prediction by ZEFSAII (Michael W. Deem and Ramdas Pophale) SiO2 
 PCOD9196193
Probable space group: C 2/M
;
_chemical_formula_sum "Si O2"
_cell_formula_units_Z 58
_cell_length_a 5.147000
_cell_length_b 20.116487
_cell_length_c 31.591572
_cell_angle_alpha 90.000000
_cell_angle_beta 64.565036
_cell_angle_gamma 90.000000
_cell_volume 2953.932610
_symmetry_space_group_name_H-M "C 2/M"
_symmetry_group_IT_number 12
_symmetry_cell_setting 'monoclinic'
loop_
_space_group_symop_operation_xyz
x,y,z
-x,y,-z
-x,-y,-z
x,-y,z
1/2+x,1/2+y,z
1/2-x,1/2+y,-z
1/2-x,1/2-y,-z
1/2+x,1/2-y,z
loop_
_atom_site_type_symbol
_atom_site_label
_atom_site_fract_x
_atom_site_fract_y
_atom_site_fract_z
Si Si1 0.188111 0.362175 0.527981
Si Si2 0.355831 0.795108 0.626478
Si Si3 0.941210 0.150023 0.827338
Si Si4 0.877708 0.574696 0.852632
Si Si5 0.699564 0.924145 0.044785
Si Si6 0.638647 0.791652 0.927940
Si Si7 0.000000 0.000000 0.500000
Si Si8 0.720125 0.708396 0.725216
O O1 0.500000 0.328016 0.500000
O O2 0.261291 0.440425 0.524600
O O3 0.000000 0.348411 0.500000
O O4 0.025090 0.339286 0.581211
O O5 0.571717 0.735483 0.624948
O O6 0.274218 0.829269 0.677072
O O7 0.710900 0.091817 0.835685
O O8 0.777807 0.199269 0.871223
O O9 0.220091 0.124814 0.832675
O O10 0.035374 0.177141 0.775587
O O11 0.836966 0.500000 0.840261
O O12 0.743786 0.580945 0.908825
O O13 0.479004 0.864329 0.050912
O O14 0.589248 0.000000 0.044752
O O15 0.000000 0.916139 0.000000
O O16 0.876138 0.759623 0.941377
O O17 0.526191 0.770631 0.723188
#
# Coordination Sequence:
#
# PCOD9196193 Si02
#       8
#     8   8   8   8   8   8   2   8
#     4  10  20  35  57  77 111 147 190 233 271 334
#     4  10  21  35  54  85 115 144 182 233 291 333
#     4  11  20  36  60  82 112 151 188 229 286 345
#     4  10  21  37  59  83 111 145 191 243 278 328
#     4   9  20  40  62  85 115 157 198 232 285 357
#     4  11  22  37  58  87 116 143 186 238 288 334
#     4   8  22  36  54  80 102 156 198 230 270 324
#     4  10  20  35  56  82 113 146 181 226 281 345
#
# _framework density 19.634841000000002
#
# number of rings (size 3 to 8) (size 9 to 14) (size 15 to 20)
#    0.414    1.517    0.000    4.759    0.000    2.759 
#    0.000    6.207    3.034   19.034    0.000    0.000 
#    0.000    0.000    0.000    0.000    0.000    0.000 
#
# Total GULP energy -161667.199669 kJ/mol
# GULP energy per Si atom -5574.731023 kJ/mol
# Density = 1.959015 g / cm^3
# Si number density = 19.634841 Si / 1000 Ang^3
#
#
#
# Elastic Constant Matrix: (Units=GPa)
#
#
# Indices 1 2 3 4 5 6 
#
# 1 59.0525 2.9323 11.6119 0.0000 -4.7709 0.0000
# 2 2.9323 49.0681 21.5351 0.0000 -1.7805 0.0000
# 3 11.6119 21.5351 153.9679 0.0000 -3.1208 0.0000
# 4 0.0000 0.0000 0.0000 11.1985 0.0000 2.3259
# 5 -4.7709 -1.7805 -3.1208 0.0000 27.2500 0.0000
# 6 0.0000 0.0000 0.0000 2.3259 0.0000 0.2656
#
#
#
# Elastic Compliance Matrix: (Units=1/GPa)
#
#
# Indices 1 2 3 4 5 6 
#
# 1 0.017423 -0.000411 -0.001198 0.000000 0.002886 0.000000
# 2 -0.000411 0.021754 -0.002991 0.000000 0.001007 0.000000
# 3 -0.001198 -0.002991 0.007012 0.000000 0.000398 0.000000
# 4 0.000000 0.000000 0.000000 -0.109043 0.000000 0.954965
# 5 0.002886 0.001007 0.000398 0.000000 0.037314 0.000000
# 6 0.000000 0.000000 0.000000 0.954965 0.000000 -4.597927
#
#
# Mechanical properties :
#
#
# Convention : Reuss Voigt Hill
#
# Bulk Modulus (GPa) = 27.03532 37.13857 32.08695
# Shear Modulus (GPa) = -1.08650 22.81010 10.86180
#
# Velocity S-wave (km/s) = -0.74468 3.41209 2.35455
# Velocity P-wave (km/s) = 3.61380 5.87187 4.87537
#
# Compressibility (1/GPa) = 0.03698865
#
# Stress axis : x y z
#
# Youngs Moduli (GPa) = 57.39458 45.96910 142.61963
#
# Poissons Ratio (x) = 0.01888 0.17087
# Poissons Ratio (y) = 0.02357 0.42661
# Poissons Ratio (z) = 0.06876 0.13751
#
# Static dielectric constant tensor:
#      x y z
#    x 1.690710 0.000000 -0.009180 
#    y 0.000000 1.683270 0.000000 
#    z -0.009180 0.000000 1.711890 
# 
# From -- ./inp_files/355106.got.cif
#   From: 2010.05.17/outbox.cif.g08.bks.cpg/sg12_178_cif.got.tgz:355106.got - 2010.06.03 13:09:07.
