data_PCOD9196544
_publ_section_title
;
Structure prediction by ZEFSAII (Michael W. Deem and Ramdas Pophale) SiO2 
 PCOD9196544
Probable space group: C 2/M
;
_chemical_formula_sum "Si O2"
_cell_formula_units_Z 56
_cell_length_a 8.923317
_cell_length_b 27.944972
_cell_length_c 18.403546
_cell_angle_alpha 90.000000
_cell_angle_beta 135.675436
_cell_angle_gamma 90.000000
_cell_volume 3206.534841
_symmetry_space_group_name_H-M "C 2/M"
_symmetry_group_IT_number 12
_symmetry_cell_setting 'monoclinic'
loop_
_space_group_symop_operation_xyz
x,y,z
-x,y,-z
-x,-y,-z
x,-y,z
1/2+x,1/2+y,z
1/2-x,1/2+y,-z
1/2-x,1/2-y,-z
1/2+x,1/2-y,z
loop_
_atom_site_type_symbol
_atom_site_label
_atom_site_fract_x
_atom_site_fract_y
_atom_site_fract_z
Si Si1 0.154866 0.945441 0.193048
Si Si2 0.735710 0.942172 0.602848
Si Si3 0.086644 0.195082 0.904675
Si Si4 0.173748 0.287749 0.858414
Si Si5 0.904697 0.057268 0.386676
Si Si6 0.294673 0.906044 0.978126
Si Si7 0.530943 0.888287 0.799990
O O1 0.204821 0.932218 0.293594
O O2 0.279536 0.908419 0.185420
O O3 0.900350 0.943181 0.091601
O O4 0.231814 0.000000 0.206861
O O5 0.500000 0.923942 0.500000
O O6 0.919105 0.926478 0.610960
O O7 0.728917 0.000000 0.593863
O O8 0.109358 0.232548 0.846347
O O9 0.172332 0.143018 0.911551
O O10 0.852859 0.202944 0.859112
O O11 0.230606 0.203910 0.027179
O O12 0.007597 0.330726 0.788171
O O13 0.684597 0.084765 0.296610
O O14 0.000000 0.064960 0.500000
O O15 0.868455 0.000000 0.365961
O O16 0.500000 0.916668 0.000000
O O17 0.388580 0.900315 0.091237
#
# Coordination Sequence:
#
# PCOD9196544 Si02
#       7
#     8   8   8   8   8   8   8
#     4  11  22  36  53  74 109 153 186 222 271 325
#     4   9  18  34  54  76 102 136 183 230 269 312
#     4   9  18  32  50  74 104 136 174 223 272 325
#     4   9  18  31  51  75 103 136 174 221 276 321
#     4  10  20  35  57  83 110 144 185 230 276 323
#     4  11  23  35  50  77 112 146 185 225 270 333
#     4  11  21  35  52  80 110 142 185 226 271 332
#
# _framework density 17.464334999999998
#
# number of rings (size 3 to 8) (size 9 to 14) (size 15 to 20)
#    0.000    2.000    1.429    2.571    6.000    4.286 
#    0.000    0.000    0.000    0.000    0.000    2.000 
#    0.000    0.000    0.000    0.000    0.000    0.000 
#
# Total GULP energy -155996.002442 kJ/mol
# GULP energy per Si atom -5571.285801 kJ/mol
# Density = 1.742459 g / cm^3
# Si number density = 17.464335 Si / 1000 Ang^3
#
#
#
# Elastic Constant Matrix: (Units=GPa)
#
#
# Indices 1 2 3 4 5 6 
#
# 1 97.8872 27.2421 30.5854 0.0000 11.8909 0.0000
# 2 27.2421 70.6345 34.3322 0.0000 4.0777 0.0000
# 3 30.5854 34.3322 81.1237 0.0000 15.3464 0.0000
# 4 0.0000 0.0000 0.0000 14.6506 0.0000 1.8777
# 5 11.8909 4.0777 15.3464 0.0000 23.9625 0.0000
# 6 0.0000 0.0000 0.0000 1.8777 0.0000 7.5567
#
#
#
# Elastic Compliance Matrix: (Units=1/GPa)
#
#
# Indices 1 2 3 4 5 6 
#
# 1 0.012414 -0.003335 -0.002516 0.000000 -0.003981 0.000000
# 2 -0.003335 0.018808 -0.007294 0.000000 0.003126 0.000000
# 3 -0.002516 -0.007294 0.018082 0.000000 -0.009091 0.000000
# 4 0.000000 0.000000 0.000000 0.070502 0.000000 -0.017518
# 5 -0.003981 0.003126 -0.009091 0.000000 0.048998 0.000000
# 6 0.000000 0.000000 0.000000 -0.017518 0.000000 0.136686
#
#
# Mechanical properties :
#
#
# Convention : Reuss Voigt Hill
#
# Bulk Modulus (GPa) = 43.44996 48.21830 45.83413
# Shear Modulus (GPa) = 14.72970 19.73300 17.23135
#
# Velocity S-wave (km/s) = 2.90731 3.36505 3.14452
# Velocity P-wave (km/s) = 6.01691 6.53969 6.28374
#
# Compressibility (1/GPa) = 0.02301498
#
# Stress axis : x y z
#
# Youngs Moduli (GPa) = 80.55640 53.16779 55.30430
#
# Poissons Ratio (x) = 0.17732 0.13912
# Poissons Ratio (y) = 0.26866 0.40337
# Poissons Ratio (z) = 0.20265 0.38779
#
# Static dielectric constant tensor:
#      x y z
#    x 1.609290 0.000000 0.007350 
#    y 0.000000 1.639550 0.000000 
#    z 0.007350 0.000000 1.563870 
# 
# From -- ./inp_files/260170.got.cif
#   From: 2010.05.17/outbox.cif.g08.bks.cpg/sg12_131_cif.got.tgz:260170.got - 2010.06.03 13:09:07.
