data_PCOD9196331
_publ_section_title
;
Structure prediction by ZEFSAII (Michael W. Deem and Ramdas Pophale) SiO2 
 PCOD9196331
Probable space group: C 2/M
;
_chemical_formula_sum "Si O2"
_cell_formula_units_Z 64
_cell_length_a 30.840019
_cell_length_b 8.084852
_cell_length_c 16.633771
_cell_angle_alpha 90.000000
_cell_angle_beta 46.918961
_cell_angle_gamma 90.000000
_cell_volume 3029.223162
_symmetry_space_group_name_H-M "C 2/M"
_symmetry_group_IT_number 12
_symmetry_cell_setting 'monoclinic'
loop_
_space_group_symop_operation_xyz
x,y,z
-x,y,-z
-x,-y,-z
x,-y,z
1/2+x,1/2+y,z
1/2-x,1/2+y,-z
1/2-x,1/2-y,-z
1/2+x,1/2-y,z
loop_
_atom_site_type_symbol
_atom_site_label
_atom_site_fract_x
_atom_site_fract_y
_atom_site_fract_z
Si Si1 0.228219 0.801039 0.440495
Si Si2 0.839979 0.700002 0.199054
Si Si3 0.609657 0.699975 0.507553
Si Si4 0.827036 0.310166 0.732060
Si Si5 0.960707 0.198989 0.124350
Si Si6 0.196468 0.307196 0.923555
Si Si7 0.998442 0.797696 0.751324
Si Si8 0.371891 0.693362 0.843268
O O1 0.250000 0.750000 0.500000
O O2 0.277585 0.742522 0.314880
O O3 0.162970 0.742841 0.498699
O O4 0.226991 0.000000 0.438701
O O5 0.839989 0.500000 0.197982
O O6 0.893320 0.758516 0.187317
O O7 0.842234 0.755296 0.103409
O O8 0.608881 0.500000 0.508348
O O9 0.628867 0.755296 0.394647
O O10 0.547297 0.755389 0.623746
O O11 0.810744 0.500000 0.739749
O O12 0.765399 0.209600 0.812357
O O13 0.857197 0.287054 0.780315
O O14 0.982386 0.259724 0.183911
O O15 0.966002 0.000000 0.119319
O O16 0.000000 0.262512 0.000000
O O17 0.183377 0.500000 0.953497
O O18 0.180046 0.213707 0.025484
O O19 0.932652 0.747549 0.808308
O O20 0.998890 0.000000 0.752818
O O21 0.378387 0.500000 0.814633
#
# Coordination Sequence:
#
# PCOD9196331 Si02
#       8
#     8   8   8   8   8   8   8   8
#     4  10  20  35  56  84 117 154 194 240 291 347
#     4  10  21  36  56  85 119 156 194 237 297 354
#     4  10  20  40  63  84 119 164 204 248 298 356
#     4  12  25  41  62  91 121 155 200 253 312 365
#     4  10  20  36  59  88 121 158 203 250 292 346
#     4  11  22  41  64  89 123 160 199 248 304 365
#     4   9  20  38  62  89 120 162 208 249 297 356
#     4  11  23  41  64  91 120 156 203 252 302 362
#
# _framework density 21.12753
#
# number of rings (size 3 to 8) (size 9 to 14) (size 15 to 20)
#    0.000    1.625    1.250    3.750    0.000    4.750 
#    0.000    5.625    0.000    0.000    0.000    0.000 
#    0.000    0.000    0.000    0.000    0.000    0.000 
#
# Total GULP energy -178861.321479 kJ/mol
# GULP energy per Si atom -5589.416296 kJ/mol
# Density = 2.107944 g / cm^3
# Si number density = 21.127530 Si / 1000 Ang^3
#
#
#
# Elastic Constant Matrix: (Units=GPa)
#
#
# Indices 1 2 3 4 5 6 
#
# 1 96.4621 -4.7170 29.6538 0.0001 15.4360 0.0002
# 2 -4.7170 15.9177 -2.5768 0.0008 1.1932 -0.0002
# 3 29.6538 -2.5768 112.2027 0.0004 12.1769 -0.0001
# 4 0.0001 0.0008 0.0004 20.9652 -0.0001 1.5014
# 5 15.4360 1.1932 12.1769 -0.0001 39.5546 0.0000
# 6 0.0002 -0.0002 -0.0001 1.5014 0.0000 26.5496
#
#
#
# Elastic Compliance Matrix: (Units=1/GPa)
#
#
# Indices 1 2 3 4 5 6 
#
# 1 0.011985 0.003418 -0.002659 0.000000 -0.003962 0.000000
# 2 0.003418 0.064259 0.000960 -0.000003 -0.003568 0.000001
# 3 -0.002659 0.000960 0.009857 0.000000 -0.002026 0.000000
# 4 0.000000 -0.000003 0.000000 0.047892 0.000000 -0.002708
# 5 -0.003962 -0.003568 -0.002026 0.000000 0.027559 0.000000
# 6 0.000000 0.000001 0.000000 -0.002708 0.000000 0.037819
#
#
# Mechanical properties :
#
#
# Convention : Reuss Voigt Hill
#
# Bulk Modulus (GPa) = 11.16836 29.92249 20.54542
# Shear Modulus (GPa) = 22.14548 30.89538 26.52043
#
# Velocity S-wave (km/s) = 3.24108 3.82819 3.54680
# Velocity P-wave (km/s) = 4.39360 5.80806 5.14963
#
# Compressibility (1/GPa) = 0.08953869
#
# Stress axis : x y z
#
# Youngs Moduli (GPa) = 83.43533 15.56205 101.44973
#
# Poissons Ratio (x) = -0.05319 0.26977
# Poissons Ratio (y) = -0.28520 -0.09735
# Poissons Ratio (z) = 0.22186 -0.01493
#
# Static dielectric constant tensor:
#      x y z
#    x 1.747560 0.000000 -0.003940 
#    y 0.000000 1.739490 0.000000 
#    z -0.003940 0.000000 1.757220 
# 
# From -- ./inp_files/249775.got.cif
#   From: 2010.05.17/outbox.cif.g08.bks.cpg/sg12_125_cif.got.tgz:249775.got - 2010.06.03 13:09:07.
