data_PCOD9196706
_publ_section_title
;
Structure prediction by ZEFSAII (Michael W. Deem and Ramdas Pophale) SiO2 
 PCOD9196706
Probable space group: C 2/M
;
_chemical_formula_sum "Si O2"
_cell_formula_units_Z 56
_cell_length_a 31.291638
_cell_length_b 7.946784
_cell_length_c 18.822938
_cell_angle_alpha 90.000000
_cell_angle_beta 143.665683
_cell_angle_gamma 90.000000
_cell_volume 2773.271436
_symmetry_space_group_name_H-M "C 2/M"
_symmetry_group_IT_number 12
_symmetry_cell_setting 'monoclinic'
loop_
_space_group_symop_operation_xyz
x,y,z
-x,y,-z
-x,-y,-z
x,-y,z
1/2+x,1/2+y,z
1/2-x,1/2+y,-z
1/2-x,1/2-y,-z
1/2+x,1/2-y,z
loop_
_atom_site_type_symbol
_atom_site_label
_atom_site_fract_x
_atom_site_fract_y
_atom_site_fract_z
Si Si1 0.673349 0.195364 0.865963
Si Si2 0.916974 0.699642 0.387929
Si Si3 0.736482 0.798578 0.563762
Si Si4 0.604788 0.300401 0.485703
Si Si5 0.958110 0.204721 0.215781
Si Si6 0.020062 0.205158 0.915668
Si Si7 0.884854 0.205379 0.827122
O O1 0.635399 0.271469 0.743924
O O2 0.613966 0.225435 0.846785
O O3 0.682832 0.000000 0.862840
O O4 0.750000 0.250000 0.000000
O O5 0.924213 0.500000 0.383884
O O6 0.882792 0.723732 0.420003
O O7 0.000000 0.768308 0.500000
O O8 0.750000 0.750000 0.500000
O O9 0.664436 0.735162 0.505582
O O10 0.805701 0.735982 0.701030
O O11 0.734699 0.000000 0.564466
O O12 0.600712 0.500000 0.489674
O O13 0.527232 0.239771 0.353712
O O14 0.968484 0.260799 0.148794
O O15 0.955504 0.000000 0.213418
O O16 0.943568 0.256993 0.846653
O O17 0.019732 0.000000 0.915147
O O18 0.082597 0.258688 0.053809
O O19 0.883766 0.000000 0.825704
#
# Coordination Sequence:
#
# PCOD9196706 Si02
#       7
#     8   8   8   8   8   8   8
#     4  11  24  41  62  87 119 154 194 246 305 365
#     4  10  21  41  65  87 116 157 204 250 299 363
#     4  11  22  36  55  82 118 155 197 246 300 359
#     4  11  23  37  59  90 120 154 198 248 303 364
#     4  10  20  35  57  85 115 147 192 242 295 360
#     4   8  14  28  52  78 105 140 183 231 283 343
#     4   8  15  29  50  76 106 142 185 233 283 338
#
# _framework density 20.19276
#
# number of rings (size 3 to 8) (size 9 to 14) (size 15 to 20)
#    0.000    2.143    1.429    3.000    0.000    5.429 
#    0.000    2.857    0.000    0.857    0.000    6.000 
#    0.000    0.000    0.000    0.000    0.000    0.000 
#
# Total GULP energy -156265.430186 kJ/mol
# GULP energy per Si atom -5580.908221 kJ/mol
# Density = 2.014680 g / cm^3
# Si number density = 20.192760 Si / 1000 Ang^3
#
#
#
# Elastic Constant Matrix: (Units=GPa)
#
#
# Indices 1 2 3 4 5 6 
#
# 1 94.2786 -9.5891 68.3512 0.0000 -9.5912 0.0000
# 2 -9.5891 15.8850 19.1839 0.0000 1.4561 0.0000
# 3 68.3512 19.1839 159.2294 0.0000 8.2578 0.0000
# 4 0.0000 0.0000 0.0000 16.2661 0.0000 2.6682
# 5 -9.5912 1.4561 8.2578 0.0000 37.3430 0.0000
# 6 0.0000 0.0000 0.0000 2.6682 0.0000 28.3102
#
#
#
# Elastic Compliance Matrix: (Units=1/GPa)
#
#
# Indices 1 2 3 4 5 6 
#
# 1 0.026826 0.034916 -0.016194 0.000000 0.009110 0.000000
# 2 0.034916 0.119150 -0.029910 0.000000 0.010936 0.000000
# 3 -0.016194 -0.029910 0.017188 0.000000 -0.006794 0.000000
# 4 0.000000 0.000000 0.000000 0.062443 0.000000 -0.005885
# 5 0.009110 0.010936 -0.006794 0.000000 0.030194 0.000000
# 6 0.000000 0.000000 0.000000 -0.005885 0.000000 0.035878
#
#
# Mechanical properties :
#
#
# Convention : Reuss Voigt Hill
#
# Bulk Modulus (GPa) = 7.10300 47.25388 27.17844
# Shear Modulus (GPa) = 13.85104 29.14699 21.49901
#
# Velocity S-wave (km/s) = 2.62189 3.80338 3.26650
# Velocity P-wave (km/s) = 3.56244 6.53757 5.26454
#
# Compressibility (1/GPa) = 0.14078563
#
# Stress axis : x y z
#
# Youngs Moduli (GPa) = 37.27769 8.39282 58.18074
#
# Poissons Ratio (x) = -0.29304 0.94220
# Poissons Ratio (y) = -1.30159 1.74021
# Poissons Ratio (z) = 0.60369 0.25103
#
# Static dielectric constant tensor:
#      x y z
#    x 1.691870 0.000000 -0.014680 
#    y 0.000000 1.729800 0.000000 
#    z -0.014680 0.000000 1.736380 
# 
# From -- ./inp_files/292507.got.cif
#   From: 2010.05.17/outbox.cif.g08.bks.cpg/sg12_147_cif.got.tgz:292507.got - 2010.06.03 13:09:07.
