data_PCOD9196115
_publ_section_title
;
Structure prediction by ZEFSAII (Michael W. Deem and Ramdas Pophale) SiO2 
 PCOD9196115
Probable space group: C 2/M
;
_chemical_formula_sum "Si O2"
_cell_formula_units_Z 56
_cell_length_a 18.847597
_cell_length_b 8.522197
_cell_length_c 29.957830
_cell_angle_alpha 90.000000
_cell_angle_beta 38.456266
_cell_angle_gamma 90.000000
_cell_volume 2992.611900
_symmetry_space_group_name_H-M "C 2/M"
_symmetry_group_IT_number 12
_symmetry_cell_setting 'monoclinic'
loop_
_space_group_symop_operation_xyz
x,y,z
-x,y,-z
-x,-y,-z
x,-y,z
1/2+x,1/2+y,z
1/2-x,1/2+y,-z
1/2-x,1/2-y,-z
1/2+x,1/2-y,z
loop_
_atom_site_type_symbol
_atom_site_label
_atom_site_fract_x
_atom_site_fract_y
_atom_site_fract_z
Si Si1 0.871780 0.190441 0.568076
Si Si2 0.794647 0.687766 0.431188
Si Si3 0.672109 0.689788 0.998121
Si Si4 0.590000 0.310494 0.862270
Si Si5 0.485302 0.686597 0.276472
Si Si6 0.760245 0.309957 0.857137
Si Si7 0.829890 0.311517 0.272391
O O1 0.798592 0.230135 0.560492
O O2 0.794549 0.241039 0.648085
O O3 0.000000 0.250796 0.500000
O O4 0.877581 0.000000 0.567555
O O5 0.805265 0.500000 0.427016
O O6 0.750000 0.750000 0.500000
O O7 0.912876 0.759150 0.355195
O O8 0.673043 0.500000 0.998634
O O9 0.720659 0.739486 0.926087
O O10 0.750000 0.750000 0.000000
O O11 0.541012 0.742365 0.068001
O O12 0.589064 0.500000 0.862940
O O13 0.669257 0.259362 0.864477
O O14 0.639543 0.253846 0.790868
O O15 0.482593 0.500000 0.274472
O O16 0.614334 0.746052 0.214564
O O17 0.421295 0.757369 0.264589
O O18 0.764194 0.500000 0.854752
O O19 0.831556 0.500000 0.270350
#
# Coordination Sequence:
#
# PCOD9196115 Si02
#       7
#     8   8   8   8   8   8   8
#     4   8  16  32  53  76 103 137 177 220 266 318
#     4  10  20  35  56  82 112 146 184 229 281 333
#     4  10  21  37  58  82 109 146 186 224 273 333
#     4  10  21  37  57  82 112 145 182 226 278 336
#     4  11  22  37  57  80 109 147 191 234 277 330
#     4  10  21  38  58  81 112 146 182 229 282 332
#     4  10  20  35  56  81 110 145 184 227 278 334
#
# _framework density 18.712751000000001
#
# number of rings (size 3 to 8) (size 9 to 14) (size 15 to 20)
#    0.000    2.143    0.000    4.286    0.000    6.857 
#    0.000    1.429    0.000   17.143    0.000    0.000 
#    0.000    0.000    0.000    0.000    0.000    0.000 
#
# Total GULP energy -156341.490035 kJ/mol
# GULP energy per Si atom -5583.624644 kJ/mol
# Density = 1.867016 g / cm^3
# Si number density = 18.712751 Si / 1000 Ang^3
#
#
#
# Elastic Constant Matrix: (Units=GPa)
#
#
# Indices 1 2 3 4 5 6 
#
# 1 132.5070 24.8141 118.5870 0.0001 -7.6522 -0.0027
# 2 24.8141 23.6955 31.2500 0.0003 -1.3797 -0.0025
# 3 118.5870 31.2500 215.1288 0.0001 -6.0750 -0.0003
# 4 0.0001 0.0003 0.0001 29.6626 0.0001 5.3699
# 5 -7.6522 -1.3797 -6.0750 0.0001 41.1150 0.0001
# 6 -0.0027 -0.0025 -0.0003 5.3699 0.0001 23.7409
#
#
#
# Elastic Compliance Matrix: (Units=1/GPa)
#
#
# Indices 1 2 3 4 5 6 
#
# 1 0.015694 -0.006176 -0.007709 0.000000 0.001575 0.000001
# 2 -0.006176 0.054649 -0.004534 -0.000001 0.000015 0.000005
# 3 -0.007709 -0.004534 0.009552 0.000000 -0.000176 -0.000001
# 4 0.000000 -0.000001 0.000000 0.035152 0.000000 -0.007951
# 5 0.001575 0.000015 -0.000176 0.000000 0.024590 0.000000
# 6 0.000001 0.000005 -0.000001 -0.007951 0.000000 0.043920
#
#
# Mechanical properties :
#
#
# Convention : Reuss Voigt Hill
#
# Bulk Modulus (GPa) = 23.22499 80.07040 51.64770
# Shear Modulus (GPa) = 21.29961 32.01573 26.65767
#
# Velocity S-wave (km/s) = 3.37744 4.14080 3.77845
# Velocity P-wave (km/s) = 5.25811 8.10825 6.83343
#
# Compressibility (1/GPa) = 0.04305706
#
# Stress axis : x y z
#
# Youngs Moduli (GPa) = 63.71975 18.29849 104.69314
#
# Poissons Ratio (x) = 0.11300 0.80712
# Poissons Ratio (y) = 0.39351 0.47466
# Poissons Ratio (z) = 0.49124 0.08296
#
# Static dielectric constant tensor:
#      x y z
#    x 1.618880 0.000000 -0.008570 
#    y 0.000000 1.642390 0.000000 
#    z -0.008570 0.000000 1.640120 
# 
# From -- ./inp_files/342208.got.cif
#   From: 2010.05.17/outbox.cif.g08.bks.cpg/sg12_172_cif.got.tgz:342208.got - 2010.06.03 13:09:07.
