data_PCOD9196019
_publ_section_title
;
Structure prediction by ZEFSAII (Michael W. Deem and Ramdas Pophale) SiO2 
 PCOD9196019
Probable space group: C 2/M
;
_chemical_formula_sum "Si O2"
_cell_formula_units_Z 40
_cell_length_a 27.156071
_cell_length_b 8.994801
_cell_length_c 18.893619
_cell_angle_alpha 90.000000
_cell_angle_beta 21.829619
_cell_angle_gamma 90.000000
_cell_volume 1716.085117
_symmetry_space_group_name_H-M "C 2/M"
_symmetry_group_IT_number 12
_symmetry_cell_setting 'monoclinic'
loop_
_space_group_symop_operation_xyz
x,y,z
-x,y,-z
-x,-y,-z
x,-y,z
1/2+x,1/2+y,z
1/2-x,1/2+y,-z
1/2-x,1/2-y,-z
1/2+x,1/2-y,z
loop_
_atom_site_type_symbol
_atom_site_label
_atom_site_fract_x
_atom_site_fract_y
_atom_site_fract_z
Si Si1 0.147989 0.827487 0.234419
Si Si2 0.703890 0.323903 0.450683
Si Si3 0.261188 0.821372 0.750236
Si Si4 0.034784 0.830361 0.868967
Si Si5 0.448559 0.828483 0.776055
O O1 0.148813 0.750184 0.309449
O O2 0.070516 0.739985 0.276868
O O3 0.107004 0.000000 0.291427
O O4 0.302438 0.823263 0.004136
O O5 0.701832 0.500000 0.449642
O O6 0.715447 0.252092 0.356906
O O7 0.836388 0.269773 0.313216
O O8 0.562119 0.262802 0.664990
O O9 0.275550 0.000000 0.727683
O O10 0.106713 0.789028 0.974666
O O11 0.068856 0.000000 0.804230
O O12 0.000000 0.829501 0.000000
O O13 0.490280 0.000000 0.716289
#
# Coordination Sequence:
#
# PCOD9196019 Si02
#       5
#     8   8   8   8   8
#     4  10  21  37  57  80 105 135 175 220 263 311
#     4  11  21  33  54  82 109 137 176 221 259 304
#     4  10  20  35  56  80 108 141 175 213 261 315
#     4   8  16  32  52  75 105 140 174 210 259 314
#     4  10  21  38  57  76 105 142 175 212 264 319
#
# _framework density 23.308866999999999
#
# number of rings (size 3 to 8) (size 9 to 14) (size 15 to 20)
#    0.000    2.200    0.000    4.800    0.000    7.600 
#    0.000    5.000    0.000    0.000    0.000    0.000 
#    0.000    0.000    0.000    0.000    0.000    0.000 
#
# Total GULP energy -111930.407370 kJ/mol
# GULP energy per Si atom -5596.520369 kJ/mol
# Density = 2.325582 g / cm^3
# Si number density = 23.308867 Si / 1000 Ang^3
#
#
#
# Elastic Constant Matrix: (Units=GPa)
#
#
# Indices 1 2 3 4 5 6 
#
# 1 93.2073 31.2027 4.5633 0.0000 -9.0904 0.0000
# 2 31.2027 122.7757 37.3983 0.0000 -24.3380 0.0000
# 3 4.5633 37.3983 100.6733 0.0000 -12.2197 0.0000
# 4 0.0000 0.0000 0.0000 31.4648 0.0000 -9.7251
# 5 -9.0904 -24.3380 -12.2197 0.0000 43.4575 0.0000
# 6 0.0000 0.0000 0.0000 -9.7251 0.0000 22.2093
#
#
#
# Elastic Compliance Matrix: (Units=1/GPa)
#
#
# Indices 1 2 3 4 5 6 
#
# 1 0.011801 -0.003021 0.000706 0.000000 0.000975 0.000000
# 2 -0.003021 0.010819 -0.003337 0.000000 0.004489 0.000000
# 3 0.000706 -0.003337 0.011318 0.000000 0.001461 0.000000
# 4 0.000000 0.000000 0.000000 0.036756 0.000000 0.016095
# 5 0.000975 0.004489 0.001461 0.000000 0.026140 0.000000
# 6 0.000000 0.000000 0.000000 0.016095 0.000000 0.052074
#
#
# Mechanical properties :
#
#
# Convention : Reuss Voigt Hill
#
# Bulk Modulus (GPa) = 44.18315 51.44276 47.81295
# Shear Modulus (GPa) = 29.80504 35.65911 32.73207
#
# Velocity S-wave (km/s) = 3.57977 3.91558 3.75143
# Velocity P-wave (km/s) = 6.00691 6.52382 6.27070
#
# Compressibility (1/GPa) = 0.02263306
#
# Stress axis : x y z
#
# Youngs Moduli (GPa) = 84.74174 92.42989 88.35308
#
# Poissons Ratio (x) = 0.27920 -0.06234
# Poissons Ratio (y) = 0.25598 0.29486
# Poissons Ratio (z) = -0.05979 0.30847
#
# Static dielectric constant tensor:
#      x y z
#    x 1.863090 0.000000 0.041500 
#    y 0.000000 1.771540 0.000000 
#    z 0.041500 0.000000 1.969920 
# 
# From -- ./inp_files/151706.got.cif
#   From: 2010.05.17/outbox.cif.g08.bks.cpg/sg12_76_cif.got.tgz:151706.got - 2010.06.03 13:09:07.
