data_PCOD9196750
_publ_section_title
;
Structure prediction by ZEFSAII (Michael W. Deem and Ramdas Pophale) SiO2 
 PCOD9196750
Probable space group: C 2/M
;
_chemical_formula_sum "Si O2"
_cell_formula_units_Z 56
_cell_length_a 31.826608
_cell_length_b 8.777258
_cell_length_c 12.066951
_cell_angle_alpha 90.000000
_cell_angle_beta 56.048133
_cell_angle_gamma 90.000000
_cell_volume 2796.191094
_symmetry_space_group_name_H-M "C 2/M"
_symmetry_group_IT_number 12
_symmetry_cell_setting 'monoclinic'
loop_
_space_group_symop_operation_xyz
x,y,z
-x,y,-z
-x,-y,-z
x,-y,z
1/2+x,1/2+y,z
1/2-x,1/2+y,-z
1/2-x,1/2-y,-z
1/2+x,1/2-y,z
loop_
_atom_site_type_symbol
_atom_site_label
_atom_site_fract_x
_atom_site_fract_y
_atom_site_fract_z
Si Si1 0.113135 0.183388 0.841713
Si Si2 0.893972 0.680940 0.918638
Si Si3 0.912458 0.817832 0.369339
Si Si4 0.193822 0.819030 0.088374
Si Si5 0.270064 0.317091 0.355633
Si Si6 0.175456 0.682541 0.348780
Si Si7 0.994034 0.316962 0.637359
O O1 0.089402 0.223429 0.757929
O O2 0.172352 0.230186 0.749872
O O3 0.110505 0.000000 0.858512
O O4 0.090241 0.262252 0.983097
O O5 0.886284 0.500000 0.930095
O O6 0.842425 0.761699 0.956238
O O7 0.938493 0.717738 0.766307
O O8 0.866524 0.738281 0.502650
O O9 0.963955 0.765824 0.351190
O O10 0.905869 0.000000 0.386603
O O11 0.169498 0.761418 0.239242
O O12 0.197239 0.000000 0.080178
O O13 0.250000 0.750000 0.000000
O O14 0.269872 0.500000 0.365091
O O15 0.250000 0.250000 0.500000
O O16 0.230534 0.276410 0.317550
O O17 0.172374 0.500000 0.340262
O O18 0.001696 0.500000 0.634349
O O19 0.000000 0.274361 0.500000
#
# Coordination Sequence:
#
# PCOD9196750 Si02
#       7
#     8   8   8   8   8   8   8
#     4  10  22  40  60  89 130 169 208 255 312 377
#     4  11  24  42  66  94 124 165 211 259 318 376
#     4  11  23  39  63  93 124 163 211 261 314 374
#     4  12  25  42  65  93 127 166 209 257 309 373
#     4  10  20  35  57  85 122 164 204 248 299 359
#     4  11  22  37  61  92 126 167 210 259 315 369
#     4  10  23  44  67  90 121 160 206 264 323 380
#
# _framework density 20.027244
#
# number of rings (size 3 to 8) (size 9 to 14) (size 15 to 20)
#    0.000    1.286    1.429    4.286    0.000    6.571 
#    0.000    2.857    0.000    0.000    0.000    0.000 
#    0.000    0.000    0.000    0.000    0.000    0.000 
#
# Total GULP energy -156637.391195 kJ/mol
# GULP energy per Si atom -5594.192543 kJ/mol
# Density = 1.998166 g / cm^3
# Si number density = 20.027244 Si / 1000 Ang^3
#
#
#
# Elastic Constant Matrix: (Units=GPa)
#
#
# Indices 1 2 3 4 5 6 
#
# 1 120.7427 51.3124 41.0901 0.0000 14.0537 0.0000
# 2 51.3124 65.0597 44.4922 0.0000 3.8869 0.0000
# 3 41.0901 44.4922 123.1665 0.0000 18.3774 0.0000
# 4 0.0000 0.0000 0.0000 33.4867 0.0000 4.5500
# 5 14.0537 3.8869 18.3774 0.0000 31.6640 0.0000
# 6 0.0000 0.0000 0.0000 4.5500 0.0000 30.8073
#
#
#
# Elastic Compliance Matrix: (Units=1/GPa)
#
#
# Indices 1 2 3 4 5 6 
#
# 1 0.013084 -0.009995 -0.000078 0.000000 -0.004535 0.000000
# 2 -0.009995 0.028159 -0.007646 0.000000 0.005417 0.000000
# 3 -0.000078 -0.007646 0.011782 0.000000 -0.005865 0.000000
# 4 0.000000 0.000000 0.000000 0.030474 0.000000 -0.004501
# 5 -0.004535 0.005417 -0.005865 0.000000 0.036334 0.000000
# 6 0.000000 0.000000 0.000000 -0.004501 0.000000 0.033125
#
#
# Mechanical properties :
#
#
# Convention : Reuss Voigt Hill
#
# Bulk Modulus (GPa) = 56.85846 64.75093 60.80469
# Shear Modulus (GPa) = 25.73907 30.66321 28.20114
#
# Velocity S-wave (km/s) = 3.58886 3.91714 3.75659
# Velocity P-wave (km/s) = 6.75466 7.27051 7.01732
#
# Compressibility (1/GPa) = 0.01758753
#
# Stress axis : x y z
#
# Youngs Moduli (GPa) = 76.42838 35.51291 84.87510
#
# Poissons Ratio (x) = 0.35496 0.00659
# Poissons Ratio (y) = 0.76393 0.64893
# Poissons Ratio (z) = 0.00594 0.27152
#
# Static dielectric constant tensor:
#      x y z
#    x 1.696430 0.000000 0.003840 
#    y 0.000000 1.671080 0.000000 
#    z 0.003840 0.000000 1.702460 
# 
# From -- ./inp_files/181022.got.cif
#   From: 2010.05.17/outbox.cif.g08.bks.cpg/sg12_91_cif.got.tgz:181022.got - 2010.06.03 13:09:07.
