data_PCOD9196091
_publ_section_title
;
Structure prediction by ZEFSAII (Michael W. Deem and Ramdas Pophale) SiO2 
 PCOD9196091
Probable space group: C 2/M
;
_chemical_formula_sum "Si O2"
_cell_formula_units_Z 56
_cell_length_a 8.712264
_cell_length_b 19.041783
_cell_length_c 20.533970
_cell_angle_alpha 90.000000
_cell_angle_beta 115.105243
_cell_angle_gamma 90.000000
_cell_volume 3084.710375
_symmetry_space_group_name_H-M "C 2/M"
_symmetry_group_IT_number 12
_symmetry_cell_setting 'monoclinic'
loop_
_space_group_symop_operation_xyz
x,y,z
-x,y,-z
-x,-y,-z
x,-y,z
1/2+x,1/2+y,z
1/2-x,1/2+y,-z
1/2-x,1/2-y,-z
1/2+x,1/2-y,z
loop_
_atom_site_type_symbol
_atom_site_label
_atom_site_fract_x
_atom_site_fract_y
_atom_site_fract_z
Si Si1 0.664366 0.417264 0.347726
Si Si2 0.767830 0.080811 0.081044
Si Si3 0.605740 0.919189 0.918955
Si Si4 0.176971 0.085279 0.500000
Si Si5 0.032285 0.671942 0.216709
Si Si6 0.531089 0.917264 0.347727
Si Si7 0.901135 0.171942 0.216708
O O1 0.615531 0.500000 0.339370
O O2 0.685592 0.393256 0.426332
O O3 0.525235 0.372592 0.284934
O O4 0.844142 0.411290 0.344141
O O5 0.581153 0.081243 0.081153
O O6 0.881862 0.132249 0.144042
O O7 0.828575 0.000000 0.094911
O O8 0.736027 0.100199 0.999999
O O9 0.593775 0.867751 0.855957
O O10 0.638751 0.000000 0.905088
O O11 0.332928 0.106744 0.573667
O O12 0.000000 0.107733 0.500000
O O13 0.180355 0.000000 0.499999
O O14 0.044639 0.627409 0.284936
O O15 0.216511 0.674265 0.216509
O O16 0.969502 0.750000 0.219499
O O17 0.563212 0.000000 0.339370
#
# Coordination Sequence:
#
# PCOD9196091 Si02
#       7
#     8   8   8   8   8   8   8
#     4  10  20  35  56  81 109 140 176 220 268 316
#     4   8  15  30  53  79 104 133 174 222 268 315
#     4   8  15  30  53  79 104 133 174 222 268 315
#     4   9  17  31  54  83 110 137 174 217 261 313
#     4  11  22  35  52  76 108 145 183 221 265 317
#     4  10  20  35  56  81 109 140 176 220 268 316
#     4  11  22  35  52  76 108 145 183 221 265 317
#
# _framework density 18.154055
#
# number of rings (size 3 to 8) (size 9 to 14) (size 15 to 20)
#    0.000    2.429    0.000    3.857    0.000    5.143 
#    0.000    0.714    0.000    2.571    0.000   10.000 
#    0.000    0.000    0.000    0.000    0.000    0.000 
#
# Total GULP energy -156240.085085 kJ/mol
# GULP energy per Si atom -5580.003039 kJ/mol
# Density = 1.811274 g / cm^3
# Si number density = 18.154055 Si / 1000 Ang^3
#
#
#
# Elastic Constant Matrix: (Units=GPa)
#
#
# Indices 1 2 3 4 5 6 
#
# 1 51.0206 45.8630 54.1910 0.0000 2.0186 0.0000
# 2 45.8630 104.6578 107.0315 0.0000 4.8469 0.0000
# 3 54.1910 107.0315 192.9644 0.0000 9.2286 0.0000
# 4 0.0000 0.0000 0.0000 -7.8810 0.0000 -1.9217
# 5 2.0186 4.8469 9.2286 0.0000 11.7202 0.0000
# 6 0.0000 0.0000 0.0000 -1.9217 0.0000 16.3781
#
#
#
# Elastic Compliance Matrix: (Units=1/GPa)
#
#
# Indices 1 2 3 4 5 6 
#
# 1 0.033040 -0.011521 -0.002955 0.000000 0.001401 0.000000
# 2 -0.011521 0.026100 -0.011244 0.000000 0.000044 0.000000
# 3 -0.002955 -0.011244 0.012472 0.000000 -0.004662 0.000000
# 4 0.000000 0.000000 0.000000 -0.123359 0.000000 -0.014474
# 5 0.001401 0.000044 -0.004662 0.000000 0.088734 0.000000
# 6 0.000000 0.000000 0.000000 -0.014474 0.000000 0.059359
#
#
# Mechanical properties :
#
#
# Convention : Reuss Voigt Hill
#
# Bulk Modulus (GPa) = 49.57439 84.75708 67.16573
# Shear Modulus (GPa) = 32.36023 13.48061 22.92042
#
# Velocity S-wave (km/s) = 4.22659 2.72797 3.55709
# Velocity P-wave (km/s) = 7.15441 7.53070 7.34497
#
# Compressibility (1/GPa) = 0.02017171
#
# Stress axis : x y z
#
# Youngs Moduli (GPa) = 30.26624 38.31354 80.18183
#
# Poissons Ratio (x) = 0.44143 0.23696
# Poissons Ratio (y) = 0.34871 0.90153
# Poissons Ratio (z) = 0.08944 0.43078
#
# Static dielectric constant tensor:
#      x y z
#    x 1.608270 0.000000 0.000540 
#    y 0.000000 1.596440 0.000000 
#    z 0.000540 0.000000 1.615110 
# 
# From -- ./inp_files/257151.got.cif
#   From: 2010.05.17/outbox.cif.g08.bks.cpg/sg12_129_cif.got.tgz:257151.got - 2010.06.03 13:09:07.
