data_PCOD9196724
_publ_section_title
;
Structure prediction by ZEFSAII (Michael W. Deem and Ramdas Pophale) SiO2 
 PCOD9196724
Probable space group: C 2/M
;
_chemical_formula_sum "Si O2"
_cell_formula_units_Z 36
_cell_length_a 10.040204
_cell_length_b 13.594145
_cell_length_c 24.323779
_cell_angle_alpha 90.000000
_cell_angle_beta 153.544181
_cell_angle_gamma 90.000000
_cell_volume 1479.042298
_symmetry_space_group_name_H-M "C 2/M"
_symmetry_group_IT_number 12
_symmetry_cell_setting 'monoclinic'
loop_
_space_group_symop_operation_xyz
x,y,z
-x,y,-z
-x,-y,-z
x,-y,z
1/2+x,1/2+y,z
1/2-x,1/2+y,-z
1/2-x,1/2-y,-z
1/2+x,1/2-y,z
loop_
_atom_site_type_symbol
_atom_site_label
_atom_site_fract_x
_atom_site_fract_y
_atom_site_fract_z
Si Si1 0.402040 0.882002 0.404698
Si Si2 0.995902 0.385433 0.675760
Si Si3 0.229405 0.187753 0.800970
Si Si4 0.500000 0.244027 0.000000
Si Si5 0.447638 0.890457 0.776136
O O1 0.500000 0.840815 0.500000
O O2 0.589038 0.860333 0.418399
O O3 0.067452 0.841216 0.275077
O O4 0.393362 0.000000 0.406017
O O5 0.096368 0.500000 0.710465
O O6 0.225972 0.299355 0.776763
O O7 0.804756 0.380305 0.662046
O O8 0.228560 0.121602 0.746352
O O9 0.496569 0.179853 0.943247
O O10 0.786857 0.314384 0.112745
O O11 0.575667 0.000000 0.824599
#
# Coordination Sequence:
#
# PCOD9196724 Si02
#       5
#     8   8   8   4   8
#     4  10  22  41  62  84 115 153 190 234 290 344
#     4   9  19  36  57  82 114 151 186 228 286 339
#     4  11  21  38  61  87 115 149 197 238 276 337
#     4  10  21  36  55  82 120 158 185 228 289 344
#     4  10  20  35  57  85 117 151 190 235 281 336
#
# _framework density 24.340074000000001
#
# number of rings (size 3 to 8) (size 9 to 14) (size 15 to 20)
#    0.000    2.000    0.000    4.333    0.000    3.556 
#    0.000    7.778    0.000    6.000    0.000    0.000 
#    0.000    0.000    0.000    0.000    0.000    0.000 
#
# Total GULP energy -100222.230090 kJ/mol
# GULP energy per Si atom -5567.901672 kJ/mol
# Density = 2.428468 g / cm^3
# Si number density = 24.340074 Si / 1000 Ang^3
#
#
#
# Elastic Constant Matrix: (Units=GPa)
#
#
# Indices 1 2 3 4 5 6 
#
# 1 170.5177 23.2604 66.9638 0.0010 -56.2968 0.0004
# 2 23.2604 35.5735 19.9311 0.0012 -30.8431 0.0003
# 3 66.9638 19.9311 84.3875 0.0041 -43.1842 0.0016
# 4 0.0010 0.0012 0.0041 14.9425 0.0008 -7.4045
# 5 -56.2968 -30.8431 -43.1842 0.0008 59.6978 0.0001
# 6 0.0004 0.0003 0.0016 -7.4045 0.0001 26.9119
#
#
#
# Elastic Compliance Matrix: (Units=1/GPa)
#
#
# Indices 1 2 3 4 5 6 
#
# 1 0.009674 0.002303 -0.004673 0.000000 0.006933 0.000000
# 2 0.002303 0.051747 0.001180 -0.000008 0.029762 -0.000003
# 3 -0.004673 0.001180 0.021175 -0.000008 0.011521 -0.000003
# 4 0.000000 -0.000008 -0.000008 0.077488 -0.000011 0.021320
# 5 0.006933 0.029762 0.011521 -0.000011 0.046999 -0.000004
# 6 0.000000 -0.000003 -0.000003 0.021320 -0.000004 0.043024
#
#
# Mechanical properties :
#
#
# Convention : Reuss Voigt Hill
#
# Bulk Modulus (GPa) = 12.46603 56.75437 34.61020
# Shear Modulus (GPa) = 17.90662 32.33200 25.11931
#
# Velocity S-wave (km/s) = 2.71529 3.64860 3.21598
# Velocity P-wave (km/s) = 3.86822 6.41230 5.29532
#
# Compressibility (1/GPa) = 0.08021800
#
# Stress axis : x y z
#
# Youngs Moduli (GPa) = 103.36625 19.32464 47.22538
#
# Poissons Ratio (x) = -0.04451 0.22069
# Poissons Ratio (y) = -0.23810 -0.05574
# Poissons Ratio (z) = 0.48304 -0.02281
#
# Static dielectric constant tensor:
#      x y z
#    x 2.097660 0.000000 -0.062500 
#    y 0.000000 1.937640 0.000000 
#    z -0.062500 0.000000 1.950920 
# 
# From -- ./inp_files/300214.got.cif
#   From: 2010.05.17/outbox.cif.g08.bks.cpg/sg12_151_cif.got.tgz:300214.got - 2010.06.03 13:09:07.
