data_PCOD9196472
_publ_section_title
;
Structure prediction by ZEFSAII (Michael W. Deem and Ramdas Pophale) SiO2 
 PCOD9196472
Probable space group: C 2/M
;
_chemical_formula_sum "Si O2"
_cell_formula_units_Z 64
_cell_length_a 17.819811
_cell_length_b 12.787295
_cell_length_c 20.282295
_cell_angle_alpha 90.000000
_cell_angle_beta 47.983860
_cell_angle_gamma 90.000000
_cell_volume 3433.698394
_symmetry_space_group_name_H-M "C 2/M"
_symmetry_group_IT_number 12
_symmetry_cell_setting 'monoclinic'
loop_
_space_group_symop_operation_xyz
x,y,z
-x,y,-z
-x,-y,-z
x,-y,z
1/2+x,1/2+y,z
1/2-x,1/2+y,-z
1/2-x,1/2-y,-z
1/2+x,1/2-y,z
loop_
_atom_site_type_symbol
_atom_site_label
_atom_site_fract_x
_atom_site_fract_y
_atom_site_fract_z
Si Si1 0.475534 0.245044 0.812949
Si Si2 0.679474 0.306926 0.489288
Si Si3 0.695438 0.235644 0.273721
Si Si4 0.618693 0.112181 0.438916
Si Si5 0.018855 0.878675 0.323534
Si Si6 0.953476 0.877900 0.955485
Si Si7 0.217384 0.376820 0.121840
Si Si8 0.323698 0.119897 0.290285
O O1 0.482642 0.326745 0.748111
O O2 0.487011 0.305407 0.875357
O O3 0.369210 0.183080 0.868744
O O4 0.568155 0.164649 0.751627
O O5 0.750000 0.250000 0.500000
O O6 0.633579 0.209512 0.477109
O O7 0.590333 0.368412 0.577894
O O8 0.745977 0.370059 0.397325
O O9 0.668896 0.144402 0.340695
O O10 0.598866 0.310587 0.318339
O O11 0.721136 0.181513 0.189895
O O12 0.780360 0.307312 0.257449
O O13 0.500000 0.103020 0.500000
O O14 0.658978 0.000000 0.439433
O O15 0.048703 0.000000 0.302854
O O16 0.981797 0.000000 0.927766
O O17 0.831420 0.871510 0.027899
O O18 0.000000 0.849010 0.000000
O O19 0.191171 0.500000 0.144076
O O20 0.330934 0.000000 0.265269
#
# Coordination Sequence:
#
# PCOD9196472 Si02
#       8
#     8   8   8   8   8   8   8   8
#     4  11  22  39  59  88 120 150 191 237 289 346
#     4  11  22  40  52  84 117 154 198 240 290 338
#     4  10  21  38  58  85 117 152 198 239 286 339
#     4  10  20  35  57  81 112 149 192 241 286 334
#     4  11  22  38  58  81 114 154 197 241 288 340
#     4  10  21  39  64  91 117 150 190 235 290 345
#     4  10  21  38  63  90 119 153 189 234 290 348
#     4  11  23  38  59  83 117 157 196 241 288 342
#
# _framework density 18.638794000000001
#
# number of rings (size 3 to 8) (size 9 to 14) (size 15 to 20)
#    0.000    1.500    2.500    3.000    0.000    1.000 
#    0.000    3.125    0.000    9.000    0.000    0.000 
#    0.000    0.000    0.000    0.000    0.000    0.000 
#
# Total GULP energy -178623.364283 kJ/mol
# GULP energy per Si atom -5581.980134 kJ/mol
# Density = 1.859637 g / cm^3
# Si number density = 18.638794 Si / 1000 Ang^3
#
#
#
# Elastic Constant Matrix: (Units=GPa)
#
#
# Indices 1 2 3 4 5 6 
#
# 1 70.9594 10.9958 20.7288 0.0000 0.8394 0.0000
# 2 10.9958 95.3498 34.3201 0.0000 -0.8801 0.0000
# 3 20.7288 34.3201 56.5733 0.0000 -1.3259 0.0000
# 4 0.0000 0.0000 0.0000 15.8548 0.0000 -0.4990
# 5 0.8394 -0.8801 -1.3259 0.0000 28.2863 0.0000
# 6 0.0000 0.0000 0.0000 -0.4990 0.0000 20.7138
#
#
#
# Elastic Compliance Matrix: (Units=1/GPa)
#
#
# Indices 1 2 3 4 5 6 
#
# 1 0.015806 0.000334 -0.006011 0.000000 -0.000740 0.000000
# 2 0.000334 0.013425 -0.008266 0.000000 0.000020 0.000000
# 3 -0.006011 -0.008266 0.024919 0.000000 0.001089 0.000000
# 4 0.000000 0.000000 0.000000 0.063120 0.000000 0.001521
# 5 -0.000740 0.000020 0.001089 0.000000 0.035426 0.000000
# 6 0.000000 0.000000 0.000000 0.001521 0.000000 0.048314
#
#
# Mechanical properties :
#
#
# Convention : Reuss Voigt Hill
#
# Bulk Modulus (GPa) = 38.07677 39.44133 38.75905
# Shear Modulus (GPa) = 21.03936 23.42683 22.23310
#
# Velocity S-wave (km/s) = 3.36340 3.54910 3.45750
# Velocity P-wave (km/s) = 5.96292 6.16455 6.06457
#
# Compressibility (1/GPa) = 0.02626273
#
# Stress axis : x y z
#
# Youngs Moduli (GPa) = 63.26885 74.49018 40.13034
#
# Poissons Ratio (x) = -0.02489 0.24124
# Poissons Ratio (y) = -0.02114 0.33172
# Poissons Ratio (z) = 0.38033 0.61573
#
# Static dielectric constant tensor:
#      x y z
#    x 1.616770 0.000000 -0.021010 
#    y 0.000000 1.657980 0.000000 
#    z -0.021010 0.000000 1.635130 
# 
# From -- ./inp_files/315687.got.cif
#   From: 2010.05.17/outbox.cif.g08.bks.cpg/sg12_158_cif.got.tgz:315687.got - 2010.06.03 13:09:07.
