data_PCOD9196212
_publ_section_title
;
Structure prediction by ZEFSAII (Michael W. Deem and Ramdas Pophale) SiO2 
 PCOD9196212
Probable space group: C 2/M
;
_chemical_formula_sum "Si O2"
_cell_formula_units_Z 50
_cell_length_a 17.973941
_cell_length_b 13.979527
_cell_length_c 11.020898
_cell_angle_alpha 90.000000
_cell_angle_beta 124.348624
_cell_angle_gamma 90.000000
_cell_volume 2286.298078
_symmetry_space_group_name_H-M "C 2/M"
_symmetry_group_IT_number 12
_symmetry_cell_setting 'monoclinic'
loop_
_space_group_symop_operation_xyz
x,y,z
-x,y,-z
-x,-y,-z
x,-y,z
1/2+x,1/2+y,z
1/2-x,1/2+y,-z
1/2-x,1/2-y,-z
1/2+x,1/2-y,z
loop_
_atom_site_type_symbol
_atom_site_label
_atom_site_fract_x
_atom_site_fract_y
_atom_site_fract_z
Si Si1 0.083739 0.887981 0.930986
Si Si2 0.500000 0.500000 0.000000
Si Si3 0.697699 0.888860 0.599190
Si Si4 0.128958 0.385858 0.801090
Si Si5 0.170443 0.254303 0.198699
Si Si6 0.718437 0.389120 0.859810
Si Si7 0.054731 0.388032 0.250239
O O1 0.131478 0.808820 0.053391
O O2 0.110198 0.000000 0.005863
O O3 0.119288 0.879339 0.828061
O O4 0.983187 0.911086 0.879196
O O5 0.648766 0.859729 0.680979
O O6 0.781032 0.817407 0.663723
O O7 0.627333 0.884608 0.425421
O O8 0.725742 0.000000 0.638464
O O9 0.115588 0.500000 0.785236
O O10 0.039227 0.348655 0.782965
O O11 0.214561 0.367903 0.965239
O O12 0.248523 0.323143 0.216914
O O13 0.093803 0.322268 0.181273
O O14 0.730816 0.500000 0.838523
O O15 0.044646 0.500000 0.203575
#
# Coordination Sequence:
#
# PCOD9196212 Si02
#       7
#     8   2   8   8   8   8   8
#     4   9  19  36  51  76 107 147 181 218 257 320
#     4   8  20  36  56  72 118 142 192 216 254 318
#     4  10  20  37  59  77 105 148 190 230 262 320
#     4   9  18  35  58  78 104 145 180 227 272 328
#     4  12  21  33  56  84 112 144 180 226 276 333
#     4  10  20  35  56  82 115 142 178 216 282 339
#     4  10  22  37  53  81 114 142 184 227 281 316
#
# _framework density 21.869413000000002
#
# number of rings (size 3 to 8) (size 9 to 14) (size 15 to 20)
#    0.480    1.600    1.600    2.400    0.000    3.840 
#    0.000    2.400    0.000    0.000    0.000    0.000 
#    0.000   10.240    0.000    0.000    0.000    0.000 
#
# Total GULP energy -139253.593057 kJ/mol
# GULP energy per Si atom -5570.143722 kJ/mol
# Density = 2.181964 g / cm^3
# Si number density = 21.869413 Si / 1000 Ang^3
#
#
#
# Elastic Constant Matrix: (Units=GPa)
#
#
# Indices 1 2 3 4 5 6 
#
# 1 85.8563 44.5164 -5.7738 0.0000 -6.3563 0.0000
# 2 44.5164 106.7005 20.2896 0.0000 -5.7798 0.0000
# 3 -5.7738 20.2896 19.4470 0.0000 0.5679 0.0000
# 4 0.0000 0.0000 0.0000 22.0605 0.0000 -5.6377
# 5 -6.3563 -5.7798 0.5679 0.0000 16.2759 0.0000
# 6 0.0000 0.0000 0.0000 -5.6377 0.0000 28.8339
#
#
#
# Elastic Compliance Matrix: (Units=1/GPa)
#
#
# Indices 1 2 3 4 5 6 
#
# 1 0.018551 -0.010749 0.016640 0.000000 0.002847 0.000000
# 2 -0.010749 0.018272 -0.022345 0.000000 0.003070 0.000000
# 3 0.016640 -0.022345 0.079799 0.000000 -0.004221 0.000000
# 4 0.000000 0.000000 0.000000 0.047714 0.000000 0.009329
# 5 0.002847 0.003070 -0.004221 0.000000 0.063790 0.000000
# 6 0.000000 0.000000 0.000000 0.009329 0.000000 0.036506
#
#
# Mechanical properties :
#
#
# Convention : Reuss Voigt Hill
#
# Bulk Modulus (GPa) = 11.94569 36.67423 24.30996
# Shear Modulus (GPa) = 15.36362 23.63216 19.49789
#
# Velocity S-wave (km/s) = 2.65338 3.29082 2.98914
# Velocity P-wave (km/s) = 3.85504 5.58976 4.80139
#
# Compressibility (1/GPa) = 0.08371217
#
# Stress axis : x y z
#
# Youngs Moduli (GPa) = 53.90616 54.72817 12.53155
#
# Poissons Ratio (x) = 0.58830 -0.20852
# Poissons Ratio (y) = 0.57946 0.28002
# Poissons Ratio (z) = -0.89699 1.22290
#
# Static dielectric constant tensor:
#      x y z
#    x 2.064210 0.000000 -0.036530 
#    y 0.000000 1.870250 0.000000 
#    z -0.036530 0.000000 1.771070 
# 
# From -- ./inp_files/166306.got.cif
#   From: 2010.05.17/outbox.cif.g08.bks.cpg/sg12_84_cif.got.tgz:166306.got - 2010.06.03 13:09:07.
