data_PCOD9196773
_publ_section_title
;
Structure prediction by ZEFSAII (Michael W. Deem and Ramdas Pophale) SiO2 
 PCOD9196773
Probable space group: C 2/M
;
_chemical_formula_sum "Si O2"
_cell_formula_units_Z 36
_cell_length_a 9.438255
_cell_length_b 29.252308
_cell_length_c 5.055300
_cell_angle_alpha 90.000000
_cell_angle_beta 85.664465
_cell_angle_gamma 90.000000
_cell_volume 1391.727588
_symmetry_space_group_name_H-M "C 2/M"
_symmetry_group_IT_number 12
_symmetry_cell_setting 'monoclinic'
loop_
_space_group_symop_operation_xyz
x,y,z
-x,y,-z
-x,-y,-z
x,-y,z
1/2+x,1/2+y,z
1/2-x,1/2+y,-z
1/2-x,1/2-y,-z
1/2+x,1/2-y,z
loop_
_atom_site_type_symbol
_atom_site_label
_atom_site_fract_x
_atom_site_fract_y
_atom_site_fract_z
Si Si1 0.893944 0.000000 0.265158
Si Si2 0.092480 0.822610 0.719200
Si Si3 0.397226 0.124607 0.269574
Si Si4 0.327809 0.591272 0.058681
Si Si5 0.141621 0.727821 0.808056
O O1 0.803600 0.953889 0.235263
O O2 0.000000 0.000000 0.500000
O O3 0.000000 0.000000 0.000000
O O4 0.205430 0.860513 0.791841
O O5 0.128673 0.771501 0.617348
O O6 0.000000 0.844096 0.500000
O O7 0.000000 0.815189 0.000000
O O8 0.500000 0.112936 0.500000
O O9 0.338381 0.177053 0.307447
O O10 0.500000 0.122177 0.000000
O O11 0.263003 0.093480 0.197240
O O12 0.500000 0.592927 0.000000
O O13 0.250000 0.750000 0.000000
O O14 0.000000 0.721374 0.000000
#
# Coordination Sequence:
#
# PCOD9196773 Si02
#       5
#     4   8   8   8   8
#     4  10  22  40  66 100 128 154 207 274 319 362
#     4  10  20  35  57  86 117 155 203 249 300 360
#     4  11  25  43  62  93 134 170 208 261 318 375
#     4  10  22  43  68  95 124 166 213 262 316 379
#     4  10  20  39  57  88 124 167 208 258 307 367
#
# _framework density 25.867135000000001
#
# number of rings (size 3 to 8) (size 9 to 14) (size 15 to 20)
#    0.000    1.778    2.222    1.333    0.000    7.111 
#    0.000    5.556    0.000    0.000    0.000    0.000 
#    0.000    0.000    0.000    0.000    0.000    0.000 
#
# Total GULP energy -100579.910140 kJ/mol
# GULP energy per Si atom -5587.772786 kJ/mol
# Density = 2.580826 g / cm^3
# Si number density = 25.867135 Si / 1000 Ang^3
#
#
#
# Elastic Constant Matrix: (Units=GPa)
#
#
# Indices 1 2 3 4 5 6 
#
# 1 121.3295 23.6953 54.4187 0.0000 34.4180 0.0000
# 2 23.6953 174.1895 50.5084 0.0000 18.4610 0.0000
# 3 54.4187 50.5084 199.8703 0.0000 48.9297 0.0000
# 4 0.0000 0.0000 0.0000 30.1928 0.0000 3.5294
# 5 34.4180 18.4610 48.9297 0.0000 67.7189 0.0000
# 6 0.0000 0.0000 0.0000 3.5294 0.0000 18.2375
#
#
#
# Elastic Compliance Matrix: (Units=1/GPa)
#
#
# Indices 1 2 3 4 5 6 
#
# 1 0.010187 -0.000484 -0.001720 0.000000 -0.003802 0.000000
# 2 -0.000484 0.006243 -0.001324 0.000000 -0.000500 0.000000
# 3 -0.001720 -0.001324 0.006686 0.000000 -0.003596 0.000000
# 4 0.000000 0.000000 0.000000 0.033887 0.000000 -0.006558
# 5 -0.003802 -0.000500 -0.003596 0.000000 0.019434 0.000000
# 6 0.000000 0.000000 0.000000 -0.006558 0.000000 0.056101
#
#
# Mechanical properties :
#
#
# Convention : Reuss Voigt Hill
#
# Bulk Modulus (GPa) = 62.26333 83.62602 72.94467
# Shear Modulus (GPa) = 34.49502 47.68099 41.08801
#
# Velocity S-wave (km/s) = 3.65574 4.29803 3.98983
# Velocity P-wave (km/s) = 6.47626 7.55182 7.03463
#
# Compressibility (1/GPa) = 0.01606082
#
# Stress axis : x y z
#
# Youngs Moduli (GPa) = 98.16610 160.16722 149.55514
#
# Poissons Ratio (x) = 0.07750 0.25730
# Poissons Ratio (y) = 0.04750 0.19796
# Poissons Ratio (z) = 0.16889 0.21201
#
# Static dielectric constant tensor:
#      x y z
#    x 2.276340 0.000000 0.048610 
#    y 0.000000 2.172150 0.000000 
#    z 0.048610 0.000000 2.105220 
# 
# From -- ./inp_files/8219.got.cif
#   From: 2010.05.17/outbox.cif.g08.bks.cpg/sg12_5_cif.got.tgz:8219.got - 2010.06.03 13:09:07.
