data_PCOD9196646
_publ_section_title
;
Structure prediction by ZEFSAII (Michael W. Deem and Ramdas Pophale) SiO2 
 PCOD9196646
Probable space group: C 2/M
;
_chemical_formula_sum "Si O2"
_cell_formula_units_Z 56
_cell_length_a 9.966701
_cell_length_b 18.621569
_cell_length_c 15.165714
_cell_angle_alpha 90.000000
_cell_angle_beta 90.579879
_cell_angle_gamma 90.000000
_cell_volume 2814.545793
_symmetry_space_group_name_H-M "C 2/M"
_symmetry_group_IT_number 12
_symmetry_cell_setting 'monoclinic'
loop_
_space_group_symop_operation_xyz
x,y,z
-x,y,-z
-x,-y,-z
x,-y,z
1/2+x,1/2+y,z
1/2-x,1/2+y,-z
1/2-x,1/2-y,-z
1/2+x,1/2-y,z
loop_
_atom_site_type_symbol
_atom_site_label
_atom_site_fract_x
_atom_site_fract_y
_atom_site_fract_z
Si Si1 0.929995 0.584649 0.594929
Si Si2 0.996871 0.084070 0.177089
Si Si3 0.959786 0.208098 0.693967
Si Si4 0.032718 0.647975 0.773663
Si Si5 0.202856 0.413363 0.107801
Si Si6 0.771596 0.786320 0.406184
Si Si7 0.732754 0.915099 0.909768
O O1 0.901672 0.500000 0.607004
O O2 0.799282 0.635601 0.597148
O O3 0.000000 0.594214 0.500000
O O4 0.022893 0.612942 0.675989
O O5 0.040932 0.131731 0.259741
O O6 0.850245 0.106120 0.143415
O O7 0.107967 0.092138 0.101620
O O8 0.992689 0.000000 0.200441
O O9 0.013873 0.267408 0.762838
O O10 0.072841 0.209344 0.618480
O O11 0.816378 0.236719 0.660369
O O12 0.161471 0.626034 0.830166
O O13 0.907908 0.617790 0.828622
O O14 0.193511 0.500000 0.108546
O O15 0.187098 0.390610 0.006005
O O16 0.750000 0.750000 0.500000
O O17 0.699633 0.000000 0.901147
#
# Coordination Sequence:
#
# PCOD9196646 Si02
#       7
#     8   8   8   8   8   8   8
#     4  10  21  37  60  89 117 148 189 235 285 340
#     4  10  21  38  57  79 112 150 187 231 282 338
#     4  11  23  38  59  84 112 148 192 232 283 346
#     4  11  21  36  57  84 115 146 187 238 283 329
#     4  10  20  36  58  82 112 153 194 230 277 339
#     4  11  22  40  61  83 115 152 188 234 288 340
#     4  10  20  35  57  84 114 149 189 233 283 337
#
# _framework density 19.896639
#
# number of rings (size 3 to 8) (size 9 to 14) (size 15 to 20)
#    0.000    1.571    0.000    6.857    0.000    4.571 
#    0.000    6.429    0.000    1.714    0.000    0.000 
#    0.000    0.000    0.000    0.000    0.000    0.000 
#
# Total GULP energy -156490.135555 kJ/mol
# GULP energy per Si atom -5588.933413 kJ/mol
# Density = 1.985135 g / cm^3
# Si number density = 19.896639 Si / 1000 Ang^3
#
#
#
# Elastic Constant Matrix: (Units=GPa)
#
#
# Indices 1 2 3 4 5 6 
#
# 1 64.4884 1.9223 11.7659 0.0000 1.5764 0.0000
# 2 1.9223 41.1467 13.6813 0.0000 10.1450 0.0000
# 3 11.7659 13.6813 82.1819 0.0000 -7.2124 0.0000
# 4 0.0000 0.0000 0.0000 14.3703 0.0000 5.2359
# 5 1.5764 10.1450 -7.2124 0.0000 21.9202 0.0000
# 6 0.0000 0.0000 0.0000 5.2359 0.0000 19.8065
#
#
#
# Elastic Compliance Matrix: (Units=1/GPa)
#
#
# Indices 1 2 3 4 5 6 
#
# 1 0.016020 0.000697 -0.002614 0.000000 -0.002335 0.000000
# 2 0.000697 0.030498 -0.006611 0.000000 -0.016340 0.000000
# 3 -0.002614 -0.006611 0.014342 0.000000 0.007967 0.000000
# 4 0.000000 0.000000 0.000000 0.077005 0.000000 -0.020356
# 5 -0.002335 -0.016340 0.007967 0.000000 0.055972 0.000000
# 6 0.000000 0.000000 0.000000 -0.020356 0.000000 0.055870
#
#
# Mechanical properties :
#
#
# Convention : Reuss Voigt Hill
#
# Bulk Modulus (GPa) = 22.82989 26.95066 24.89028
# Shear Modulus (GPa) = 17.77054 21.91590 19.84322
#
# Velocity S-wave (km/s) = 2.99179 3.32247 3.16146
# Velocity P-wave (km/s) = 4.84082 5.31913 5.08560
#
# Compressibility (1/GPa) = 0.04380222
#
# Stress axis : x y z
#
# Youngs Moduli (GPa) = 62.42208 32.78939 69.72451
#
# Poissons Ratio (x) = -0.02284 0.18229
# Poissons Ratio (y) = -0.04348 0.46094
# Poissons Ratio (z) = 0.16320 0.21677
#
# Static dielectric constant tensor:
#      x y z
#    x 1.701850 0.000000 -0.006370 
#    y 0.000000 1.683360 0.000000 
#    z -0.006370 0.000000 1.691860 
# 
# From -- ./inp_files/197512.got.cif
#   From: 2010.05.17/outbox.cif.g08.bks.cpg/sg12_99_cif.got.tgz:197512.got - 2010.06.03 13:09:07.
