data_PCOD9196198
_publ_section_title
;
Structure prediction by ZEFSAII (Michael W. Deem and Ramdas Pophale) SiO2 
 PCOD9196198
Probable space group: C 2/M
;
_chemical_formula_sum "Si O2"
_cell_formula_units_Z 48
_cell_length_a 18.979554
_cell_length_b 11.734426
_cell_length_c 14.664443
_cell_angle_alpha 90.000000
_cell_angle_beta 52.229407
_cell_angle_gamma 90.000000
_cell_volume 2581.656950
_symmetry_space_group_name_H-M "C 2/M"
_symmetry_group_IT_number 12
_symmetry_cell_setting 'monoclinic'
loop_
_space_group_symop_operation_xyz
x,y,z
-x,y,-z
-x,-y,-z
x,-y,z
1/2+x,1/2+y,z
1/2-x,1/2+y,-z
1/2-x,1/2-y,-z
1/2+x,1/2-y,z
loop_
_atom_site_type_symbol
_atom_site_label
_atom_site_fract_x
_atom_site_fract_y
_atom_site_fract_z
Si Si1 0.102012 0.750781 0.157031
Si Si2 0.739876 0.244701 0.720762
Si Si3 0.079046 0.865299 0.370220
Si Si4 0.288908 0.870055 0.510276
Si Si5 0.774594 0.129442 0.080628
Si Si6 0.575468 0.869511 0.746082
O O1 0.076620 0.803935 0.274628
O O2 0.177154 0.655028 0.115872
O O3 0.014644 0.701088 0.179317
O O4 0.152108 0.840913 0.053205
O O5 0.824797 0.161608 0.661940
O O6 0.773471 0.347805 0.629091
O O7 0.716212 0.289181 0.839550
O O8 0.654795 0.184312 0.743043
O O9 0.000000 0.826415 0.500000
O O10 0.069209 0.000000 0.364356
O O11 0.250000 0.750000 0.500000
O O12 0.386841 0.869794 0.388024
O O13 0.253846 0.000000 0.515057
O O14 0.781864 0.000000 0.104005
O O15 0.560867 0.000000 0.784887
#
# Coordination Sequence:
#
# PCOD9196198 Si02
#       6
#     8   8   8   8   8   8
#     4  10  21  37  56  79 106 141 185 226 273 330
#     4  10  20  35  56  83 112 143 185 227 275 329
#     4  10  20  35  56  82 113 148 185 226 273 329
#     4   9  18  33  54  81 114 147 181 224 277 333
#     4  10  21  38  57  76 105 143 182 226 273 329
#     4  10  20  36  57  82 111 142 181 230 281 329
#
# _framework density 18.592711999999999
#
# number of rings (size 3 to 8) (size 9 to 14) (size 15 to 20)
#    0.000    2.167    0.000    3.000    0.000    1.333 
#    0.000   15.833    0.000    8.000    0.000    0.000 
#    0.000    0.000    0.000    0.000    0.000    0.000 
#
# Total GULP energy -133711.136840 kJ/mol
# GULP energy per Si atom -5571.297368 kJ/mol
# Density = 1.855039 g / cm^3
# Si number density = 18.592712 Si / 1000 Ang^3
#
#
#
# Elastic Constant Matrix: (Units=GPa)
#
#
# Indices 1 2 3 4 5 6 
#
# 1 109.5689 19.7337 32.0732 0.0000 -19.8349 0.0000
# 2 19.7337 71.6623 15.5544 0.0000 -15.2804 0.0000
# 3 32.0732 15.5544 95.5987 0.0000 -10.2802 0.0000
# 4 0.0000 0.0000 0.0000 7.8206 0.0000 4.6584
# 5 -19.8349 -15.2804 -10.2802 0.0000 24.1917 0.0000
# 6 0.0000 0.0000 0.0000 4.6584 0.0000 14.1042
#
#
#
# Elastic Compliance Matrix: (Units=1/GPa)
#
#
# Indices 1 2 3 4 5 6 
#
# 1 0.011522 -0.000916 -0.002895 0.000000 0.007638 0.000000
# 2 -0.000916 0.016437 -0.001395 0.000000 0.009038 0.000000
# 3 -0.002895 -0.001395 0.011850 0.000000 0.001781 0.000000
# 4 0.000000 0.000000 0.000000 0.159184 0.000000 -0.052575
# 5 0.007638 0.009038 0.001781 0.000000 0.054065 0.000000
# 6 0.000000 0.000000 0.000000 -0.052575 0.000000 0.088265
#
#
# Mechanical properties :
#
#
# Convention : Reuss Voigt Hill
#
# Bulk Modulus (GPa) = 34.01771 45.72807 39.87289
# Shear Modulus (GPa) = 13.82998 23.18786 18.50892
#
# Velocity S-wave (km/s) = 2.73030 3.53533 3.15857
# Velocity P-wave (km/s) = 5.31746 6.42750 5.89865
#
# Compressibility (1/GPa) = 0.02939645
#
# Stress axis : x y z
#
# Youngs Moduli (GPa) = 86.79218 60.83999 84.38666
#
# Poissons Ratio (x) = 0.05571 0.24432
# Poissons Ratio (y) = 0.07948 0.11773
# Poissons Ratio (z) = 0.25128 0.08488
#
# Static dielectric constant tensor:
#      x y z
#    x 1.636710 0.000000 0.023210 
#    y 0.000000 1.634500 0.000000 
#    z 0.023210 0.000000 1.652960 
# 
# From -- ./inp_files/231706.got.cif
#   From: 2010.05.17/outbox.cif.g08.bks.cpg/sg12_116_cif.got.tgz:231706.got - 2010.06.03 13:09:07.
