data_PCOD9196032
_publ_section_title
;
Structure prediction by ZEFSAII (Michael W. Deem and Ramdas Pophale) SiO2 
 PCOD9196032
Probable space group: C 2/M
;
_chemical_formula_sum "Si O2"
_cell_formula_units_Z 56
_cell_length_a 18.456634
_cell_length_b 9.585243
_cell_length_c 16.972698
_cell_angle_alpha 90.000000
_cell_angle_beta 119.924849
_cell_angle_gamma 90.000000
_cell_volume 2602.348908
_symmetry_space_group_name_H-M "C 2/M"
_symmetry_group_IT_number 12
_symmetry_cell_setting 'monoclinic'
loop_
_space_group_symop_operation_xyz
x,y,z
-x,y,-z
-x,-y,-z
x,-y,z
1/2+x,1/2+y,z
1/2-x,1/2+y,-z
1/2-x,1/2-y,-z
1/2+x,1/2-y,z
loop_
_atom_site_type_symbol
_atom_site_label
_atom_site_fract_x
_atom_site_fract_y
_atom_site_fract_z
Si Si1 0.272618 0.845305 0.265125
Si Si2 0.934972 0.844448 0.185979
Si Si3 0.531829 0.164932 0.645034
Si Si4 0.207888 0.661430 0.361196
Si Si5 0.748050 0.218833 0.091904
Si Si6 0.120088 0.837403 0.448725
Si Si7 0.435925 0.845879 0.035371
O O1 0.372079 0.820611 0.330913
O O2 0.219077 0.730622 0.281962
O O3 0.254397 0.837905 0.161767
O O4 0.253204 0.000000 0.285125
O O5 0.968679 0.737860 0.269284
O O6 0.836009 0.857130 0.151647
O O7 0.943184 0.771917 0.105671
O O8 0.971398 0.000000 0.207803
O O9 0.458980 0.250563 0.562331
O O10 0.513283 0.000000 0.636808
O O11 0.180144 0.500000 0.343990
O O12 0.151650 0.757216 0.387332
O O13 0.300510 0.665176 0.450145
O O14 0.750000 0.250000 0.000000
O O15 0.657215 0.153308 0.051311
O O16 0.099009 0.000000 0.423803
O O17 0.450657 0.000000 0.078931
O O18 0.500000 0.822515 0.000000
#
# Coordination Sequence:
#
# PCOD9196032 Si02
#       7
#     8   8   8   8   8   8   8
#     4  10  22  39  60  87 118 153 195 242 291 346
#     4  10  20  35  56  80 108 144 187 234 283 340
#     4  10  21  37  58  84 114 149 190 237 289 343
#     4  10  22  39  60  87 119 155 194 238 289 345
#     4   9  20  37  59  82 109 148 192 235 283 338
#     4  10  21  39  62  86 116 155 196 238 288 347
#     4  10  21  36  54  78 109 144 183 231 287 344
#
# _framework density 21.519022
#
# number of rings (size 3 to 8) (size 9 to 14) (size 15 to 20)
#    0.000    2.143    0.000    2.143    0.000   12.857 
#    0.000    5.714    0.000    0.000    0.000    0.000 
#    0.000    0.000    0.000    0.000    0.000    0.000 
#
# Total GULP energy -156177.269552 kJ/mol
# GULP energy per Si atom -5577.759627 kJ/mol
# Density = 2.147004 g / cm^3
# Si number density = 21.519022 Si / 1000 Ang^3
#
#
#
# Elastic Constant Matrix: (Units=GPa)
#
#
# Indices 1 2 3 4 5 6 
#
# 1 88.5519 42.1325 23.1494 0.0000 -4.1979 0.0000
# 2 42.1325 150.6266 17.5325 0.0000 -22.1571 0.0000
# 3 23.1494 17.5325 49.3706 0.0000 -4.5667 0.0000
# 4 0.0000 0.0000 0.0000 14.6395 0.0000 -4.9103
# 5 -4.1979 -22.1571 -4.5667 0.0000 20.7685 0.0000
# 6 0.0000 0.0000 0.0000 -4.9103 0.0000 17.9314
#
#
#
# Elastic Compliance Matrix: (Units=1/GPa)
#
#
# Indices 1 2 3 4 5 6 
#
# 1 0.014431 -0.003715 -0.005659 0.000000 -0.002291 0.000000
# 2 -0.003715 0.009042 -0.000660 0.000000 0.008751 0.000000
# 3 -0.005659 -0.000660 0.023449 0.000000 0.003308 0.000000
# 4 0.000000 0.000000 0.000000 0.075217 0.000000 0.020597
# 5 -0.002291 0.008751 0.003308 0.000000 0.057750 0.000000
# 6 0.000000 0.000000 0.000000 0.020597 0.000000 0.061408
#
#
# Mechanical properties :
#
#
# Convention : Reuss Voigt Hill
#
# Bulk Modulus (GPa) = 37.23795 50.46420 43.85108
# Shear Modulus (GPa) = 18.49686 24.38355 21.44020
#
# Velocity S-wave (km/s) = 2.93500 3.36983 3.15991
# Velocity P-wave (km/s) = 5.36916 6.21634 5.80822
#
# Compressibility (1/GPa) = 0.02685432
#
# Stress axis : x y z
#
# Youngs Moduli (GPa) = 69.29432 110.59450 42.64600
#
# Poissons Ratio (x) = 0.41084 0.24135
# Poissons Ratio (y) = 0.25742 0.02813
# Poissons Ratio (z) = 0.39216 0.07296
#
# Static dielectric constant tensor:
#      x y z
#    x 1.779770 0.000000 0.027880 
#    y 0.000000 1.771940 0.000000 
#    z 0.027880 0.000000 1.825810 
# 
# From -- ./inp_files/281676.got.cif
#   From: 2010.05.17/outbox.cif.g08.bks.cpg/sg12_141_cif.got.tgz:281676.got - 2010.06.03 13:09:07.
