data_PCOD9196128
_publ_section_title
;
Structure prediction by ZEFSAII (Michael W. Deem and Ramdas Pophale) SiO2 
 PCOD9196128
Probable space group: C 2/M
;
_chemical_formula_sum "Si O2"
_cell_formula_units_Z 56
_cell_length_a 17.268891
_cell_length_b 24.462890
_cell_length_c 9.579469
_cell_angle_alpha 90.000000
_cell_angle_beta 46.037615
_cell_angle_gamma 90.000000
_cell_volume 2912.881990
_symmetry_space_group_name_H-M "C 2/M"
_symmetry_group_IT_number 12
_symmetry_cell_setting 'monoclinic'
loop_
_space_group_symop_operation_xyz
x,y,z
-x,y,-z
-x,-y,-z
x,-y,z
1/2+x,1/2+y,z
1/2-x,1/2+y,-z
1/2-x,1/2-y,-z
1/2+x,1/2-y,z
loop_
_atom_site_type_symbol
_atom_site_label
_atom_site_fract_x
_atom_site_fract_y
_atom_site_fract_z
Si Si1 0.290976 0.937824 0.747320
Si Si2 0.530017 0.695915 0.624128
Si Si3 0.359431 0.063466 0.976281
Si Si4 0.598193 0.647087 0.968534
Si Si5 0.264614 0.141275 0.305064
Si Si6 0.138520 0.747309 0.723050
Si Si7 0.895922 0.563733 0.331510
O O1 0.344520 0.933274 0.830401
O O2 0.379026 0.930513 0.517313
O O3 0.247749 0.000000 0.787075
O O4 0.197669 0.893514 0.848347
O O5 0.500000 0.708312 0.500000
O O6 0.443234 0.661718 0.823474
O O7 0.643435 0.662884 0.475925
O O8 0.552804 0.746212 0.703982
O O9 0.482189 0.077832 0.860966
O O10 0.340259 0.000000 0.040616
O O11 0.279532 0.105562 0.148640
O O12 0.500000 0.622727 0.000000
O O13 0.626102 0.702161 0.845078
O O14 0.348516 0.191792 0.207141
O O15 0.305825 0.100837 0.373878
O O16 0.250000 0.750000 0.500000
O O17 0.880122 0.500000 0.315646
#
# Coordination Sequence:
#
# PCOD9196128 Si02
#       7
#     8   8   8   8   8   8   8
#     4  10  20  36  56  80 112 147 186 231 278 331
#     4  10  21  38  58  81 114 149 181 225 279 326
#     4  10  21  36  56  83 113 144 182 234 288 328
#     4  10  20  37  58  81 114 152 186 226 277 327
#     4  11  21  38  59  82 110 145 189 225 267 335
#     4   9  20  38  57  78 108 143 183 226 269 324
#     4  10  20  35  56  81 111 146 184 230 283 333
#
# _framework density 19.224945999999999
#
# number of rings (size 3 to 8) (size 9 to 14) (size 15 to 20)
#    0.000    2.000    0.000    4.714    0.000    6.571 
#    0.000   13.571    0.000    3.857    0.000    0.000 
#    0.000    0.000    0.000    0.000    0.000    0.000 
#
# Total GULP energy -156105.484329 kJ/mol
# GULP energy per Si atom -5575.195869 kJ/mol
# Density = 1.918119 g / cm^3
# Si number density = 19.224946 Si / 1000 Ang^3
#
#
#
# Elastic Constant Matrix: (Units=GPa)
#
#
# Indices 1 2 3 4 5 6 
#
# 1 57.7211 26.7316 19.5674 0.0000 0.7197 0.0000
# 2 26.7316 64.8146 21.3082 0.0000 -6.8112 0.0000
# 3 19.5674 21.3082 62.3835 0.0000 2.0972 0.0000
# 4 0.0000 0.0000 0.0000 34.1313 0.0000 1.0684
# 5 0.7197 -6.8112 2.0972 0.0000 33.2081 0.0000
# 6 0.0000 0.0000 0.0000 1.0684 0.0000 30.0479
#
#
#
# Elastic Compliance Matrix: (Units=1/GPa)
#
#
# Indices 1 2 3 4 5 6 
#
# 1 0.022536 -0.008099 -0.004239 0.000000 -0.001882 0.000000
# 2 -0.008099 0.020823 -0.004732 0.000000 0.004745 0.000000
# 3 -0.004239 -0.004732 0.019046 0.000000 -0.002081 0.000000
# 4 0.000000 0.000000 0.000000 0.029331 0.000000 -0.001043
# 5 -0.001882 0.004745 -0.002081 0.000000 0.031259 0.000000
# 6 0.000000 0.000000 0.000000 -0.001043 0.000000 0.033317
#
#
# Mechanical properties :
#
#
# Convention : Reuss Voigt Hill
#
# Bulk Modulus (GPa) = 35.37879 35.57039 35.47459
# Shear Modulus (GPa) = 25.01594 27.29827 26.15711
#
# Velocity S-wave (km/s) = 3.61116 3.77230 3.69261
# Velocity P-wave (km/s) = 5.98580 6.12503 6.05582
#
# Compressibility (1/GPa) = 0.02826552
#
# Stress axis : x y z
#
# Youngs Moduli (GPa) = 44.37387 48.02386 52.50514
#
# Poissons Ratio (x) = 0.38892 0.22258
# Poissons Ratio (y) = 0.35936 0.24844
# Poissons Ratio (z) = 0.18811 0.22724
#
# Static dielectric constant tensor:
#      x y z
#    x 1.668480 0.000000 0.022750 
#    y 0.000000 1.715570 0.000000 
#    z 0.022750 0.000000 1.686120 
# 
# From -- ./inp_files/79048.got.cif
#   From: 2010.05.17/outbox.cif.g08.bks.cpg/sg12_40_cif.got.tgz:79048.got - 2010.06.03 13:09:07.
