data_PCOD9196223
_publ_section_title
;
Structure prediction by ZEFSAII (Michael W. Deem and Ramdas Pophale) SiO2 
 PCOD9196223
Probable space group: C 2/M
;
_chemical_formula_sum "Si O2"
_cell_formula_units_Z 40
_cell_length_a 19.028557
_cell_length_b 12.933814
_cell_length_c 14.344273
_cell_angle_alpha 90.000000
_cell_angle_beta 150.962516
_cell_angle_gamma 90.000000
_cell_volume 1713.540666
_symmetry_space_group_name_H-M "C 2/M"
_symmetry_group_IT_number 12
_symmetry_cell_setting 'monoclinic'
loop_
_space_group_symop_operation_xyz
x,y,z
-x,y,-z
-x,-y,-z
x,-y,z
1/2+x,1/2+y,z
1/2-x,1/2+y,-z
1/2-x,1/2-y,-z
1/2+x,1/2-y,z
loop_
_atom_site_type_symbol
_atom_site_label
_atom_site_fract_x
_atom_site_fract_y
_atom_site_fract_z
Si Si1 0.038445 0.390362 0.346383
Si Si2 0.637211 0.382907 0.304271
Si Si3 0.543835 0.336849 0.399877
Si Si4 0.344884 0.804929 0.819501
Si Si5 0.235103 0.675038 0.071595
O O1 0.038453 0.500000 0.398265
O O2 0.191729 0.382587 0.471362
O O3 0.034047 0.287671 0.403642
O O4 0.904994 0.389212 0.120931
O O5 0.601450 0.500000 0.231666
O O6 0.549220 0.356239 0.295097
O O7 0.628837 0.294180 0.216889
O O8 0.701778 0.366505 0.620539
O O9 0.392488 0.378348 0.263236
O O10 0.304022 0.771514 0.876847
O O11 0.500000 0.861286 0.000000
O O12 0.250000 0.750000 0.000000
#
# Coordination Sequence:
#
# PCOD9196223 Si02
#       5
#     8   8   8   8   8
#     4   9  18  35  58  82 111 150 193 236 287 345
#     4  10  21  38  61  88 119 155 196 243 293 349
#     4  10  20  37  59  85 119 156 194 244 296 344
#     4  11  20  35  58  85 117 155 199 238 286 350
#     4  10  20  35  56  82 116 157 194 239 292 343
#
# _framework density 23.343478000000001
#
# number of rings (size 3 to 8) (size 9 to 14) (size 15 to 20)
#    0.000    2.000    0.000    6.600    0.000    1.200 
#    0.000    5.000    0.000   28.800    0.000    0.000 
#    0.000    0.000    0.000    0.000    0.000    0.000 
#
# Total GULP energy -111520.532111 kJ/mol
# GULP energy per Si atom -5576.026606 kJ/mol
# Density = 2.329035 g / cm^3
# Si number density = 23.343478 Si / 1000 Ang^3
#
#
#
# Elastic Constant Matrix: (Units=GPa)
#
#
# Indices 1 2 3 4 5 6 
#
# 1 144.6294 4.1779 44.6242 0.0000 3.1224 0.0000
# 2 4.1779 79.9822 0.3577 0.0000 1.0754 0.0000
# 3 44.6242 0.3577 152.3499 0.0000 41.6979 0.0000
# 4 0.0000 0.0000 0.0000 4.7556 0.0000 2.0816
# 5 3.1224 1.0754 41.6979 0.0000 48.4103 0.0000
# 6 0.0000 0.0000 0.0000 2.0816 0.0000 -2.6542
#
#
#
# Elastic Compliance Matrix: (Units=1/GPa)
#
#
# Indices 1 2 3 4 5 6 
#
# 1 0.007746 -0.000418 -0.002792 0.000000 0.001915 0.000000
# 2 -0.000418 0.012529 0.000212 0.000000 -0.000434 0.000000
# 3 -0.002792 0.000212 0.009595 0.000000 -0.008089 0.000000
# 4 0.000000 0.000000 0.000000 0.156542 0.000000 0.122768
# 5 0.001915 -0.000434 -0.008089 0.000000 0.027511 0.000000
# 6 0.000000 0.000000 0.000000 0.122768 0.000000 -0.280476
#
#
# Mechanical properties :
#
#
# Convention : Reuss Voigt Hill
#
# Bulk Modulus (GPa) = 41.88531 52.80900 47.34715
# Shear Modulus (GPa) = -95.06018 31.95578 -31.55220
#
# Velocity S-wave (km/s) = -6.38833 3.70393 -3.68047
# Velocity P-wave (km/s) = 6.03592 6.40030 1.50524
#
# Compressibility (1/GPa) = 0.02387472
#
# Stress axis : x y z
#
# Youngs Moduli (GPa) = 129.09203 79.81168 104.21899
#
# Poissons Ratio (x) = 0.03335 0.29098
# Poissons Ratio (y) = 0.05395 -0.02206
# Poissons Ratio (z) = 0.36042 -0.01690
#
# Static dielectric constant tensor:
#      x y z
#    x 1.846260 0.000000 0.032840 
#    y 0.000000 1.921890 0.000000 
#    z 0.032840 0.000000 1.992840 
# 
# From -- ./inp_files/233527.got.cif
#   From: 2010.05.17/outbox.cif.g08.bks.cpg/sg12_117_cif.got.tgz:233527.got - 2010.06.03 13:09:07.
