data_PCOD9196060
_publ_section_title
;
Structure prediction by ZEFSAII (Michael W. Deem and Ramdas Pophale) SiO2 
 PCOD9196060
Probable space group: C 2/M
;
_chemical_formula_sum "Si O2"
_cell_formula_units_Z 56
_cell_length_a 18.987518
_cell_length_b 12.783063
_cell_length_c 10.587791
_cell_angle_alpha 90.000000
_cell_angle_beta 117.858871
_cell_angle_gamma 90.000000
_cell_volume 2272.011455
_symmetry_space_group_name_H-M "C 2/M"
_symmetry_group_IT_number 12
_symmetry_cell_setting 'monoclinic'
loop_
_space_group_symop_operation_xyz
x,y,z
-x,y,-z
-x,-y,-z
x,-y,z
1/2+x,1/2+y,z
1/2-x,1/2+y,-z
1/2-x,1/2-y,-z
1/2+x,1/2-y,z
loop_
_atom_site_type_symbol
_atom_site_label
_atom_site_fract_x
_atom_site_fract_y
_atom_site_fract_z
Si Si1 0.354608 0.844565 0.169905
Si Si2 0.416914 0.200279 0.480491
Si Si3 0.677188 0.322524 0.030793
Si Si4 0.329277 0.113905 0.809876
Si Si5 0.585772 0.384255 0.190208
Si Si6 0.808825 0.882853 0.489218
Si Si7 0.519315 0.839337 0.202534
O O1 0.381342 0.863961 0.334981
O O2 0.262488 0.876963 0.085505
O O3 0.428763 0.877544 0.143008
O O4 0.352090 0.720499 0.128731
O O5 0.500000 0.246431 0.500000
O O6 0.357358 0.292588 0.462758
O O7 0.440429 0.140965 0.627466
O O8 0.690463 0.212628 0.119548
O O9 0.614638 0.377951 0.069727
O O10 0.280657 0.126697 0.636993
O O11 0.422228 0.115279 0.852784
O O12 0.306964 0.000000 0.843462
O O13 0.552517 0.500000 0.187627
O O14 0.666672 0.373579 0.343263
O O15 0.530660 0.286261 0.184023
O O16 0.834951 0.000000 0.474412
#
# Coordination Sequence:
#
# PCOD9196060 Si02
#       7
#     8   8   8   8   8   8   8
#     4  10  20  37  52  80 108 144 178 209 264 316
#     4   9  17  31  54  78 104 138 170 213 271 315
#     4  10  21  36  58  74 109 145 175 216 256 321
#     4  10  20  35  56  81 103 138 183 223 262 304
#     4   9  19  35  55  82 106 137 176 216 266 313
#     4   9  17  30  51  79 107 132 177 223 256 311
#     4   9  20  35  58  80 107 135 174 226 265 309
#
# _framework density 24.647763000000001
#
# number of rings (size 3 to 8) (size 9 to 14) (size 15 to 20)
#    0.000    2.571    1.429    0.000    2.000    4.286 
#    0.000   10.000    0.000    4.714    0.000    0.000 
#    0.000    0.000    0.000    0.000    0.000    0.000 
#
# Total GULP energy -156221.164101 kJ/mol
# GULP energy per Si atom -5579.327289 kJ/mol
# Density = 2.459166 g / cm^3
# Si number density = 24.647763 Si / 1000 Ang^3
#
#
#
# Elastic Constant Matrix: (Units=GPa)
#
#
# Indices 1 2 3 4 5 6 
#
# 1 108.4918 2.8294 26.0362 0.0000 4.0698 0.0000
# 2 2.8294 117.0041 1.7275 0.0000 2.0993 0.0000
# 3 26.0362 1.7275 114.0038 0.0000 -1.5735 0.0000
# 4 0.0000 0.0000 0.0000 3.3049 0.0000 6.8154
# 5 4.0698 2.0993 -1.5735 0.0000 43.6971 0.0000
# 6 0.0000 0.0000 0.0000 6.8154 0.0000 -17.2563
#
#
#
# Elastic Compliance Matrix: (Units=1/GPa)
#
#
# Indices 1 2 3 4 5 6 
#
# 1 0.009799 -0.000186 -0.002249 0.000000 -0.000985 0.000000
# 2 -0.000186 0.008560 -0.000093 0.000000 -0.000397 0.000000
# 3 -0.002249 -0.000093 0.009294 0.000000 0.000549 0.000000
# 4 0.000000 0.000000 0.000000 0.166760 0.000000 0.065862
# 5 -0.000985 -0.000397 0.000549 0.000000 0.023015 0.000000
# 6 0.000000 0.000000 0.000000 0.065862 0.000000 -0.031937
#
#
# Mechanical properties :
#
#
# Convention : Reuss Voigt Hill
#
# Bulk Modulus (GPa) = 44.25208 44.52065 44.38637
# Shear Modulus (GPa) = 25.24266 26.54292 25.89279
#
# Velocity S-wave (km/s) = 3.20368 3.28516 3.24468
# Velocity P-wave (km/s) = 5.62828 5.70015 5.66433
#
# Compressibility (1/GPa) = 0.02259781
#
# Stress axis : x y z
#
# Youngs Moduli (GPa) = 102.05434 116.82644 107.59460
#
# Poissons Ratio (x) = 0.02174 0.24194
# Poissons Ratio (y) = 0.01899 0.00997
# Poissons Ratio (z) = 0.22948 0.01083
#
# Static dielectric constant tensor:
#      x y z
#    x 1.918960 0.000000 0.001080 
#    y 0.000000 1.950950 0.000000 
#    z 0.001080 0.000000 2.052250 
# 
# From -- ./inp_files/156721.got.cif
#   From: 2010.05.17/outbox.cif.g08.bks.cpg/sg12_79_cif.got.tgz:156721.got - 2010.06.03 13:09:07.
