data_PCOD9196492
_publ_section_title
;
Structure prediction by ZEFSAII (Michael W. Deem and Ramdas Pophale) SiO2 
 PCOD9196492
Probable space group: C 2/M
;
_chemical_formula_sum "Si O2"
_cell_formula_units_Z 56
_cell_length_a 8.066319
_cell_length_b 12.298933
_cell_length_c 28.599386
_cell_angle_alpha 90.000000
_cell_angle_beta 67.781337
_cell_angle_gamma 90.000000
_cell_volume 2626.588678
_symmetry_space_group_name_H-M "C 2/M"
_symmetry_group_IT_number 12
_symmetry_cell_setting 'monoclinic'
loop_
_space_group_symop_operation_xyz
x,y,z
-x,y,-z
-x,-y,-z
x,-y,z
1/2+x,1/2+y,z
1/2-x,1/2+y,-z
1/2-x,1/2-y,-z
1/2+x,1/2-y,z
loop_
_atom_site_type_symbol
_atom_site_label
_atom_site_fract_x
_atom_site_fract_y
_atom_site_fract_z
Si Si1 0.805117 0.115035 0.453044
Si Si2 0.045987 0.658529 0.566915
Si Si3 0.786570 0.874086 0.016609
Si Si4 0.460601 0.116343 0.326308
Si Si5 0.153276 0.809571 0.730147
Si Si6 0.206288 0.187721 0.193331
Si Si7 0.089744 0.618243 0.137050
O O1 0.943367 0.211542 0.434887
O O2 0.694640 0.122736 0.513359
O O3 0.648338 0.124388 0.431004
O O4 0.897138 0.000000 0.439363
O O5 0.090487 0.622188 0.614019
O O6 0.742873 0.000000 0.000843
O O7 0.750000 0.750000 0.000000
O O8 0.684222 0.873148 0.076980
O O9 0.000000 0.876618 0.000000
O O10 0.676901 0.121395 0.302983
O O11 0.392965 0.220848 0.304919
O O12 0.401749 0.000000 0.312010
O O13 0.219480 0.742286 0.767735
O O14 0.975310 0.867941 0.768696
O O15 0.154018 0.283213 0.162751
O O16 0.374648 0.124014 0.154858
O O17 0.136406 0.500000 0.153084
#
# Coordination Sequence:
#
# PCOD9196492 Si02
#       7
#     8   8   8   8   8   8   8
#     4  10  20  37  56  79 112 142 174 225 271 311
#     4  10  20  35  57  82 107 141 184 218 263 335
#     4  10  21  37  58  87 124 162 200 243 293 348
#     4  11  21  37  57  77 108 145 178 222 279 333
#     4   9  21  36  54  82 108 138 184 228 277 341
#     4   9  19  37  56  80 111 139 185 239 275 329
#     4  10  20  36  60  84 112 153 193 235 286 335
#
# _framework density 21.320430000000002
#
# number of rings (size 3 to 8) (size 9 to 14) (size 15 to 20)
#    0.000    2.143    0.000    3.429    0.000    6.000 
#    0.000   14.286    0.000    0.000    0.000    0.000 
#    0.000    0.000    0.000    0.000    0.000    0.000 
#
# Total GULP energy -156034.566004 kJ/mol
# GULP energy per Si atom -5572.663072 kJ/mol
# Density = 2.127190 g / cm^3
# Si number density = 21.320430 Si / 1000 Ang^3
#
#
#
# Elastic Constant Matrix: (Units=GPa)
#
#
# Indices 1 2 3 4 5 6 
#
# 1 39.7784 12.6670 3.5338 0.0000 0.3910 0.0000
# 2 12.6670 166.3353 19.7181 0.0000 11.2776 0.0000
# 3 3.5338 19.7181 46.1814 0.0000 9.4565 0.0000
# 4 0.0000 0.0000 0.0000 -55.2099 0.0000 -19.1254
# 5 0.3910 11.2776 9.4565 0.0000 15.2136 0.0000
# 6 0.0000 0.0000 0.0000 -19.1254 0.0000 34.2882
#
#
#
# Elastic Compliance Matrix: (Units=1/GPa)
#
#
# Indices 1 2 3 4 5 6 
#
# 1 0.025863 -0.001905 -0.001511 0.000000 0.001686 0.000000
# 2 -0.001905 0.006635 -0.001937 0.000000 -0.003666 0.000000
# 3 -0.001511 -0.001937 0.025546 0.000000 -0.014404 0.000000
# 4 0.000000 0.000000 0.000000 -0.015180 0.000000 -0.008467
# 5 0.001686 -0.003666 -0.014404 0.000000 0.077358 0.000000
# 6 0.000000 0.000000 0.000000 -0.008467 0.000000 0.024442
#
#
# Mechanical properties :
#
#
# Convention : Reuss Voigt Hill
#
# Bulk Modulus (GPa) = 21.12406 36.01477 28.56942
# Shear Modulus (GPa) = 29.21420 13.28347 21.24883
#
# Velocity S-wave (km/s) = 3.70570 2.49878 3.16039
# Velocity P-wave (km/s) = 5.31404 5.02534 5.17170
#
# Compressibility (1/GPa) = 0.04733937
#
# Stress axis : x y z
#
# Youngs Moduli (GPa) = 38.66453 150.71310 39.14530
#
# Poissons Ratio (x) = 0.28708 0.05915
# Poissons Ratio (y) = 0.07365 0.07581
# Poissons Ratio (z) = 0.05843 0.29187
#
# Static dielectric constant tensor:
#      x y z
#    x 1.774170 0.000000 -0.017920 
#    y 0.000000 1.813900 0.000000 
#    z -0.017920 0.000000 1.748350 
# 
# From -- ./inp_files/355772.got.cif
#   From: 2010.05.17/outbox.cif.g08.bks.cpg/sg12_178_cif.got.tgz:355772.got - 2010.06.03 13:09:07.
