data_PCOD9196640
_publ_section_title
;
Structure prediction by ZEFSAII (Michael W. Deem and Ramdas Pophale) SiO2 
 PCOD9196640
Probable space group: C 2/M
;
_chemical_formula_sum "Si O2"
_cell_formula_units_Z 56
_cell_length_a 15.505104
_cell_length_b 9.139530
_cell_length_c 28.735507
_cell_angle_alpha 90.000000
_cell_angle_beta 37.917299
_cell_angle_gamma 90.000000
_cell_volume 2502.394901
_symmetry_space_group_name_H-M "C 2/M"
_symmetry_group_IT_number 12
_symmetry_cell_setting 'monoclinic'
loop_
_space_group_symop_operation_xyz
x,y,z
-x,y,-z
-x,-y,-z
x,-y,z
1/2+x,1/2+y,z
1/2-x,1/2+y,-z
1/2-x,1/2-y,-z
1/2+x,1/2-y,z
loop_
_atom_site_type_symbol
_atom_site_label
_atom_site_fract_x
_atom_site_fract_y
_atom_site_fract_z
Si Si1 0.217119 0.156696 0.469644
Si Si2 0.897859 0.678122 0.739873
Si Si3 0.442547 0.174538 0.823351
Si Si4 0.666784 0.324219 0.992759
Si Si5 0.079927 0.163035 0.361297
Si Si6 0.591760 0.821936 0.857399
Si Si7 0.160179 0.663717 0.410104
O O1 0.250000 0.250000 0.500000
O O2 0.239584 0.231256 0.411377
O O3 0.050384 0.140455 0.548580
O O4 0.287297 0.000000 0.442129
O O5 0.895002 0.500000 0.738138
O O6 0.964300 0.724890 0.761142
O O7 0.966963 0.754728 0.665387
O O8 0.740941 0.745825 0.802195
O O9 0.531817 0.221185 0.830981
O O10 0.462993 0.000000 0.813775
O O11 0.276469 0.200266 0.904340
O O12 0.650937 0.500000 0.005332
O O13 0.517846 0.244180 0.058429
O O14 0.750000 0.250000 0.000000
O O15 0.171661 0.270798 0.353653
O O16 0.138551 0.000000 0.326553
O O17 0.595888 0.000000 0.858578
O O18 0.214964 0.500000 0.388198
O O19 0.000000 0.654918 0.500000
#
# Coordination Sequence:
#
# PCOD9196640 Si02
#       7
#     8   8   8   8   8   8   8
#     4  10  20  35  57  84 114 144 181 228 279 330
#     4  11  22  38  58  81 110 152 196 235 279 342
#     4   8  18  36  57  79 110 149 189 232 286 342
#     4   9  16  31  55  82 110 144 187 239 290 342
#     4  10  21  38  56  79 111 146 181 226 278 333
#     4  10  20  37  57  81 113 149 189 237 290 348
#     4   9  17  32  56  81 105 136 175 219 265 320
#
# _framework density 22.378564000000001
#
# number of rings (size 3 to 8) (size 9 to 14) (size 15 to 20)
#    0.000    2.429    0.000    3.429    0.000    4.000 
#    2.571   11.429    0.000    0.000    0.000    0.000 
#    0.000    0.000    0.000    0.000    0.000    0.000 
#
# Total GULP energy -156096.363089 kJ/mol
# GULP energy per Si atom -5574.870110 kJ/mol
# Density = 2.232763 g / cm^3
# Si number density = 22.378564 Si / 1000 Ang^3
#
#
#
# Elastic Constant Matrix: (Units=GPa)
#
#
# Indices 1 2 3 4 5 6 
#
# 1 56.8361 11.5525 18.3723 0.0000 25.8824 -0.0001
# 2 11.5525 126.5134 24.4355 0.0000 19.5179 -0.0001
# 3 18.3723 24.4355 85.3263 0.0000 6.4559 0.0000
# 4 0.0000 0.0000 0.0000 22.5176 0.0000 3.9866
# 5 25.8824 19.5179 6.4559 0.0000 49.1479 0.0000
# 6 -0.0001 -0.0001 0.0000 3.9866 0.0000 24.1450
#
#
#
# Elastic Compliance Matrix: (Units=1/GPa)
#
#
# Indices 1 2 3 4 5 6 
#
# 1 0.024696 0.000568 -0.004524 0.000000 -0.012637 0.000000
# 2 0.000568 0.008855 -0.002393 0.000000 -0.003501 0.000000
# 3 -0.004524 -0.002393 0.013259 0.000000 0.001591 0.000000
# 4 0.000000 0.000000 0.000000 0.045747 0.000000 -0.007553
# 5 -0.012637 -0.003501 0.001591 0.000000 0.028183 0.000000
# 6 0.000000 0.000000 0.000000 -0.007553 0.000000 0.042663
#
#
# Mechanical properties :
#
#
# Convention : Reuss Voigt Hill
#
# Bulk Modulus (GPa) = 29.31563 41.93293 35.62428
# Shear Modulus (GPa) = 26.67064 33.44980 30.06022
#
# Velocity S-wave (km/s) = 3.45598 3.87036 3.66903
# Velocity P-wave (km/s) = 5.39012 6.22508 5.82259
#
# Compressibility (1/GPa) = 0.03411149
#
# Stress axis : x y z
#
# Youngs Moduli (GPa) = 40.49226 112.93264 75.42152
#
# Poissons Ratio (x) = -0.06418 0.34122
# Poissons Ratio (y) = -0.02301 0.18050
# Poissons Ratio (z) = 0.18319 0.27028
#
# Static dielectric constant tensor:
#      x y z
#    x 1.836200 0.000000 -0.079940 
#    y 0.000000 1.866250 0.000000 
#    z -0.079940 0.000000 1.949060 
# 
# From -- ./inp_files/377686.got.cif
#   From: 2010.05.17/outbox.cif.g08.bks.cpg/sg12_189_cif.got.tgz:377686.got - 2010.06.03 13:09:07.
