data_PCOD9196742
_publ_section_title
;
Structure prediction by ZEFSAII (Michael W. Deem and Ramdas Pophale) SiO2 
 PCOD9196742
Probable space group: C 2/M
;
_chemical_formula_sum "Si O2"
_cell_formula_units_Z 64
_cell_length_a 31.102653
_cell_length_b 7.955128
_cell_length_c 23.154505
_cell_angle_alpha 90.000000
_cell_angle_beta 31.982158
_cell_angle_gamma 90.000000
_cell_volume 3034.403367
_symmetry_space_group_name_H-M "C 2/M"
_symmetry_group_IT_number 12
_symmetry_cell_setting 'monoclinic'
loop_
_space_group_symop_operation_xyz
x,y,z
-x,y,-z
-x,-y,-z
x,-y,z
1/2+x,1/2+y,z
1/2-x,1/2+y,-z
1/2-x,1/2-y,-z
1/2+x,1/2-y,z
loop_
_atom_site_type_symbol
_atom_site_label
_atom_site_fract_x
_atom_site_fract_y
_atom_site_fract_z
Si Si1 0.173890 0.690385 0.549446
Si Si2 0.108037 0.700596 0.089691
Si Si3 0.385071 0.695276 0.503372
Si Si4 0.750314 0.293681 0.254834
Si Si5 0.562589 0.703902 0.271512
Si Si6 0.448127 0.693494 0.219448
Si Si7 0.416978 0.203505 0.125253
Si Si8 0.776559 0.794814 0.846557
O O1 0.187025 0.500000 0.515601
O O2 0.250000 0.750000 0.500000
O O3 0.157341 0.795085 0.510841
O O4 0.097387 0.701948 0.679408
O O5 0.106112 0.500000 0.085259
O O6 0.079494 0.746887 0.186265
O O7 0.043766 0.775143 0.117669
O O8 0.199369 0.759153 0.972595
O O9 0.396351 0.500000 0.506257
O O10 0.323821 0.766742 0.620629
O O11 0.475257 0.768723 0.392757
O O12 0.750908 0.500000 0.255384
O O13 0.836439 0.239883 0.183411
O O14 0.737872 0.242622 0.202922
O O15 0.559916 0.500000 0.275958
O O16 0.638198 0.761899 0.224046
O O17 0.429595 0.500000 0.252876
O O18 0.417818 0.739748 0.190576
O O19 0.417308 0.000000 0.124560
O O20 0.500000 0.260971 0.000000
O O21 0.778077 0.000000 0.845530
#
# Coordination Sequence:
#
# PCOD9196742 Si02
#       8
#     8   8   8   8   8   8   8   8
#     4  12  24  39  60  85 116 154 195 240 292 353
#     4  11  21  36  59  85 116 155 199 247 302 360
#     4  10  20  35  57  85 119 156 194 242 296 350
#     4   9  18  34  56  83 116 153 197 245 289 346
#     4  10  20  35  57  86 120 153 194 248 299 352
#     4  12  24  38  58  86 119 153 195 246 301 358
#     4  10  20  36  59  85 116 159 206 249 295 354
#     4   9  19  35  57  86 116 152 200 248 294 349
#
# _framework density 21.091462
#
# number of rings (size 3 to 8) (size 9 to 14) (size 15 to 20)
#    0.000    1.625    1.250    4.500    0.000    3.750 
#    0.000    3.125    0.000    3.000    0.000    1.750 
#    0.000    0.000    0.000    0.000    0.000    0.000 
#
# Total GULP energy -178888.266030 kJ/mol
# GULP energy per Si atom -5590.258313 kJ/mol
# Density = 2.104346 g / cm^3
# Si number density = 21.091462 Si / 1000 Ang^3
#
#
#
# Elastic Constant Matrix: (Units=GPa)
#
#
# Indices 1 2 3 4 5 6 
#
# 1 132.1515 0.6653 60.3809 0.0053 -21.3540 0.0010
# 2 0.6653 27.0890 4.4423 0.0195 -0.9162 -0.0024
# 3 60.3809 4.4423 153.0006 0.0210 -13.9426 0.0052
# 4 0.0053 0.0195 0.0210 9.1740 -0.0050 2.5702
# 5 -21.3540 -0.9162 -13.9426 -0.0050 38.7351 -0.0017
# 6 0.0010 -0.0024 0.0052 2.5702 -0.0017 22.2369
#
#
#
# Elastic Compliance Matrix: (Units=1/GPa)
#
#
# Indices 1 2 3 4 5 6 
#
# 1 0.009847 0.000476 -0.003520 0.000004 0.004173 0.000000
# 2 0.000476 0.037125 -0.001201 -0.000080 0.000708 0.000013
# 3 -0.003520 -0.001201 0.008044 -0.000013 0.000927 0.000000
# 4 0.000004 -0.000080 -0.000013 0.112652 0.000009 -0.013021
# 5 0.004173 0.000708 0.000927 0.000009 0.028467 0.000001
# 6 0.000000 0.000013 0.000000 -0.013021 0.000001 0.046475
#
#
# Mechanical properties :
#
#
# Convention : Reuss Voigt Hill
#
# Bulk Modulus (GPa) = 21.49291 49.24646 35.36969
# Shear Modulus (GPa) = 18.75406 30.47937 24.61672
#
# Velocity S-wave (km/s) = 2.98514 3.80558 3.42005
# Velocity P-wave (km/s) = 4.70042 6.53526 5.69225
#
# Compressibility (1/GPa) = 0.04652698
#
# Stress axis : x y z
#
# Youngs Moduli (GPa) = 101.55238 26.93624 124.31187
#
# Poissons Ratio (x) = -0.01284 0.43754
# Poissons Ratio (y) = -0.04839 0.14935
# Poissons Ratio (z) = 0.35743 0.03236
#
# Static dielectric constant tensor:
#      x y z
#    x 1.724890 -0.000030 -0.011470 
#    y -0.000030 1.765950 -0.000010 
#    z -0.011470 -0.000010 1.778380 
# 
# From -- ./inp_files/353288.got.cif
#   From: 2010.05.17/outbox.cif.g08.bks.cpg/sg12_177_cif.got.tgz:353288.got - 2010.06.03 13:09:07.
