data_PCOD9196226
_publ_section_title
;
Structure prediction by ZEFSAII (Michael W. Deem and Ramdas Pophale) SiO2 
 PCOD9196226
Probable space group: C 2/M
;
_chemical_formula_sum "Si O2"
_cell_formula_units_Z 56
_cell_length_a 30.359660
_cell_length_b 8.132776
_cell_length_c 11.590972
_cell_angle_alpha 90.000000
_cell_angle_beta 112.065919
_cell_angle_gamma 90.000000
_cell_volume 2652.279096
_symmetry_space_group_name_H-M "C 2/M"
_symmetry_group_IT_number 12
_symmetry_cell_setting 'monoclinic'
loop_
_space_group_symop_operation_xyz
x,y,z
-x,y,-z
-x,-y,-z
x,-y,z
1/2+x,1/2+y,z
1/2-x,1/2+y,-z
1/2-x,1/2-y,-z
1/2+x,1/2-y,z
loop_
_atom_site_type_symbol
_atom_site_label
_atom_site_fract_x
_atom_site_fract_y
_atom_site_fract_z
Si Si1 0.939045 0.298493 0.819891
Si Si2 0.276477 0.300089 0.144494
Si Si3 0.948617 0.189212 0.490088
Si Si4 0.629314 0.188963 0.426838
Si Si5 0.728222 0.690037 0.601010
Si Si6 0.617608 0.687346 0.798346
Si Si7 0.542437 0.194633 0.903181
O O1 0.936330 0.500000 0.811837
O O2 0.890034 0.242554 0.713552
O O3 0.989841 0.244079 0.814914
O O4 0.944082 0.243936 0.956657
O O5 0.276019 0.500000 0.149842
O O6 0.259984 0.241595 0.257606
O O7 0.330916 0.242227 0.180490
O O8 0.250000 0.250000 0.000000
O O9 0.919624 0.299744 0.549943
O O10 0.914400 0.183597 0.346534
O O11 0.000000 0.249475 0.500000
O O12 0.953945 0.000000 0.538325
O O13 0.671451 0.287749 0.527840
O O14 0.645354 0.000000 0.433695
O O15 0.741201 0.500000 0.619247
O O16 0.750000 0.750000 0.500000
O O17 0.625124 0.500000 0.845585
O O18 0.585324 0.774282 0.860381
O O19 0.536317 0.000000 0.909597
#
# Coordination Sequence:
#
# PCOD9196226 Si02
#       7
#     8   8   8   8   8   8   8
#     4   8  17  33  52  78 116 154 192 239 288 339
#     4  10  23  43  65  87 120 157 199 257 315 373
#     4  10  20  35  56  82 118 160 194 232 293 358
#     4  11  21  35  58  87 118 151 195 248 299 359
#     4  11  24  45  67  90 122 160 204 260 319 380
#     4  10  20  36  54  80 116 147 182 237 294 345
#     4   9  17  33  55  78 110 156 198 234 282 347
#
# _framework density 21.113916
#
# number of rings (size 3 to 8) (size 9 to 14) (size 15 to 20)
#    0.000    2.143    1.429    2.571    0.000    3.714 
#    0.000    7.857    0.000    0.000    0.000    0.000 
#    0.000    0.000    0.000    0.000    0.000    0.000 
#
# Total GULP energy -155991.903927 kJ/mol
# GULP energy per Si atom -5571.139426 kJ/mol
# Density = 2.106586 g / cm^3
# Si number density = 21.113916 Si / 1000 Ang^3
#
#
#
# Elastic Constant Matrix: (Units=GPa)
#
#
# Indices 1 2 3 4 5 6 
#
# 1 77.2951 1.9336 43.5190 0.0000 -7.9543 0.0000
# 2 1.9336 9.9812 7.6124 0.0000 -6.8764 0.0000
# 3 43.5190 7.6124 124.5693 0.0000 -3.4412 0.0000
# 4 0.0000 0.0000 0.0000 20.6019 0.0000 -1.9903
# 5 -7.9543 -6.8764 -3.4412 0.0000 30.2686 0.0000
# 6 0.0000 0.0000 0.0000 -1.9903 0.0000 33.9672
#
#
#
# Elastic Compliance Matrix: (Units=1/GPa)
#
#
# Indices 1 2 3 4 5 6 
#
# 1 0.016675 0.004597 -0.005975 0.000000 0.004747 0.000000
# 2 0.004597 0.125594 -0.008486 0.000000 0.028776 0.000000
# 3 -0.005975 -0.008486 0.010570 0.000000 -0.002296 0.000000
# 4 0.000000 0.000000 0.000000 0.048815 0.000000 0.002860
# 5 0.004747 0.028776 -0.002296 0.000000 0.040561 0.000000
# 6 0.000000 0.000000 0.000000 0.002860 0.000000 0.029608
#
#
# Mechanical properties :
#
#
# Convention : Reuss Voigt Hill
#
# Bulk Modulus (GPa) = 7.51251 35.33064 21.42157
# Shear Modulus (GPa) = 14.88435 27.55292 21.21863
#
# Velocity S-wave (km/s) = 2.65798 3.61635 3.17355
# Velocity P-wave (km/s) = 3.60355 5.84867 4.85760
#
# Compressibility (1/GPa) = 0.13311132
#
# Stress axis : x y z
#
# Youngs Moduli (GPa) = 59.96914 7.96214 94.60422
#
# Poissons Ratio (x) = -0.03660 0.56530
# Poissons Ratio (y) = -0.27569 0.80283
# Poissons Ratio (z) = 0.35834 0.06757
#
# Static dielectric constant tensor:
#      x y z
#    x 1.774610 0.000000 -0.029540 
#    y 0.000000 1.789380 0.000000 
#    z -0.029540 0.000000 1.826640 
# 
# From -- ./inp_files/186828.got.cif
#   From: 2010.05.17/outbox.cif.g08.bks.cpg/sg12_94_cif.got.tgz:186828.got - 2010.06.03 13:09:07.
