data_PCOD9196545
_publ_section_title
;
Structure prediction by ZEFSAII (Michael W. Deem and Ramdas Pophale) SiO2 
 PCOD9196545
Probable space group: C 2/M
;
_chemical_formula_sum "Si O2"
_cell_formula_units_Z 56
_cell_length_a 25.405119
_cell_length_b 14.801848
_cell_length_c 8.691863
_cell_angle_alpha 90.000000
_cell_angle_beta 42.711713
_cell_angle_gamma 90.000000
_cell_volume 2217.063838
_symmetry_space_group_name_H-M "C 2/M"
_symmetry_group_IT_number 12
_symmetry_cell_setting 'monoclinic'
loop_
_space_group_symop_operation_xyz
x,y,z
-x,y,-z
-x,-y,-z
x,-y,z
1/2+x,1/2+y,z
1/2-x,1/2+y,-z
1/2-x,1/2-y,-z
1/2+x,1/2-y,z
loop_
_atom_site_type_symbol
_atom_site_label
_atom_site_fract_x
_atom_site_fract_y
_atom_site_fract_z
Si Si1 0.821862 0.842168 0.966949
Si Si2 0.380781 0.610286 0.350594
Si Si3 0.035239 0.389023 0.585553
Si Si4 0.319555 0.108064 0.545754
Si Si5 0.102955 0.398006 0.924178
Si Si6 0.763215 0.645724 0.148031
Si Si7 0.959675 0.891270 0.856110
O O1 0.768399 0.873156 0.224377
O O2 0.803222 0.736918 0.004753
O O3 0.786011 0.888954 0.892426
O O4 0.910621 0.859140 0.816074
O O5 0.369441 0.500000 0.377850
O O6 0.301503 0.654487 0.579386
O O7 0.451012 0.635555 0.315221
O O8 0.413173 0.634366 0.112380
O O9 0.033507 0.500000 0.587371
O O10 0.122104 0.362267 0.443680
O O11 0.000000 0.358939 0.500000
O O12 0.975958 0.355636 0.844352
O O13 0.354008 0.145351 0.312844
O O14 0.324049 0.000000 0.526399
O O15 0.081301 0.500000 0.925042
O O16 0.164637 0.404670 0.930333
O O17 0.959641 0.000000 0.853583
#
# Coordination Sequence:
#
# PCOD9196545 Si02
#       7
#     8   8   8   8   8   8   8
#     4  11  24  39  54  80 117 155 192 233 286 344
#     4   9  19  38  64  91 116 145 188 243 297 349
#     4   9  17  31  53  81 111 141 176 221 272 325
#     4  10  20  35  57  83 110 144 189 236 279 331
#     4  10  20  35  57  83 110 144 189 236 279 331
#     4  11  24  39  54  80 117 155 192 233 286 344
#     4   9  19  38  64  91 116 145 188 243 297 349
#
# _framework density 25.258633
#
# number of rings (size 3 to 8) (size 9 to 14) (size 15 to 20)
#    0.000    2.143    0.000    3.857    0.000   10.286 
#    2.571    1.429    0.000    0.000    0.000    0.000 
#    0.000    0.000    0.000    0.000    0.000    0.000 
#
# Total GULP energy -156591.881502 kJ/mol
# GULP energy per Si atom -5592.567197 kJ/mol
# Density = 2.520114 g / cm^3
# Si number density = 25.258633 Si / 1000 Ang^3
#
#
#
# Elastic Constant Matrix: (Units=GPa)
#
#
# Indices 1 2 3 4 5 6 
#
# 1 124.3635 9.8963 -5.3448 0.0000 -22.5279 0.0000
# 2 9.8963 39.2741 4.4905 0.0000 2.2580 0.0000
# 3 -5.3448 4.4905 69.3077 0.0000 -10.8572 0.0000
# 4 0.0000 0.0000 0.0000 12.0693 0.0000 18.9081
# 5 -22.5279 2.2580 -10.8572 0.0000 42.2027 0.0000
# 6 0.0000 0.0000 0.0000 18.9081 0.0000 40.1698
#
#
#
# Elastic Compliance Matrix: (Units=1/GPa)
#
#
# Indices 1 2 3 4 5 6 
#
# 1 0.009364 -0.002887 0.001789 0.000000 0.005613 0.000000
# 2 -0.002887 0.026685 -0.002518 0.000000 -0.003617 0.000000
# 3 0.001789 -0.002518 0.015526 0.000000 0.005084 0.000000
# 4 0.000000 0.000000 0.000000 0.315547 0.000000 -0.148530
# 5 0.005613 -0.003617 0.005084 0.000000 0.028193 0.000000
# 6 0.000000 0.000000 0.000000 -0.148530 0.000000 0.094808
#
#
# Mechanical properties :
#
#
# Convention : Reuss Voigt Hill
#
# Bulk Modulus (GPa) = 22.55167 27.89215 25.22191
# Shear Modulus (GPa) = 9.76301 33.81523 21.78912
#
# Velocity S-wave (km/s) = 1.96815 3.66288 2.94026
# Velocity P-wave (km/s) = 3.75666 5.38103 4.64047
#
# Compressibility (1/GPa) = 0.04434262
#
# Stress axis : x y z
#
# Youngs Moduli (GPa) = 106.78781 37.47369 64.40868
#
# Poissons Ratio (x) = 0.10818 -0.11520
# Poissons Ratio (y) = 0.30828 0.16219
# Poissons Ratio (z) = -0.19099 0.09436
#
# Static dielectric constant tensor:
#      x y z
#    x 1.987500 0.000000 0.061270 
#    y 0.000000 2.049100 0.000000 
#    z 0.061270 0.000000 1.957780 
# 
# From -- ./inp_files/105971.got.cif
#   From: 2010.05.17/outbox.cif.g08.bks.cpg/sg12_53_cif.got.tgz:105971.got - 2010.06.03 13:09:07.
