data_PCOD9196086
_publ_section_title
;
Structure prediction by ZEFSAII (Michael W. Deem and Ramdas Pophale) SiO2 
 PCOD9196086
Probable space group: C 2/M
;
_chemical_formula_sum "Si O2"
_cell_formula_units_Z 48
_cell_length_a 15.913751
_cell_length_b 13.352934
_cell_length_c 10.366461
_cell_angle_alpha 90.000000
_cell_angle_beta 64.192643
_cell_angle_gamma 90.000000
_cell_volume 1983.120582
_symmetry_space_group_name_H-M "C 2/M"
_symmetry_group_IT_number 12
_symmetry_cell_setting 'monoclinic'
loop_
_space_group_symop_operation_xyz
x,y,z
-x,y,-z
-x,-y,-z
x,-y,z
1/2+x,1/2+y,z
1/2-x,1/2+y,-z
1/2-x,1/2-y,-z
1/2+x,1/2-y,z
loop_
_atom_site_type_symbol
_atom_site_label
_atom_site_fract_x
_atom_site_fract_y
_atom_site_fract_z
Si Si1 0.195477 0.120672 0.032373
Si Si2 0.716416 0.385049 0.304885
Si Si3 0.365991 0.614941 0.202152
Si Si4 0.659369 0.178316 0.423067
Si Si5 0.895392 0.382195 0.807701
Si Si6 0.087435 0.326083 0.749393
O O1 0.131688 0.142867 0.951883
O O2 0.299817 0.159312 0.931997
O O3 0.202874 0.000000 0.022684
O O4 0.170666 0.138501 0.196823
O O5 0.698196 0.500000 0.354547
O O6 0.682332 0.296795 0.420527
O O7 0.828373 0.367985 0.219534
O O8 0.396928 0.500000 0.200761
O O9 0.257037 0.624913 0.318456
O O10 0.416070 0.705680 0.239716
O O11 0.594188 0.162312 0.342796
O O12 0.619050 0.141443 0.584186
O O13 0.884938 0.500000 0.796068
O O14 0.983917 0.364231 0.837768
#
# Coordination Sequence:
#
# PCOD9196086 Si02
#       6
#     8   8   8   8   8   8
#     4   8  17  35  57  79 101 136 179 210 260 320
#     4  10  20  35  56  81 109 135 170 225 265 300
#     4   9  18  34  54  74 101 136 176 221 257 302
#     4  10  21  34  52  79 104 140 185 209 252 322
#     4  10  21  37  55  76 108 142 172 216 263 310
#     4  11  22  32  50  82 109 137 179 213 258 320
#
# _framework density 24.204276
#
# number of rings (size 3 to 8) (size 9 to 14) (size 15 to 20)
#    0.000    2.333    0.000    4.500    0.000   12.000 
#    0.000    3.333    0.000    2.000    0.000   14.000 
#    0.000    0.000    0.000    0.000    0.000    0.000 
#
# Total GULP energy -134177.756284 kJ/mol
# GULP energy per Si atom -5590.739845 kJ/mol
# Density = 2.414919 g / cm^3
# Si number density = 24.204276 Si / 1000 Ang^3
#
#
#
# Elastic Constant Matrix: (Units=GPa)
#
#
# Indices 1 2 3 4 5 6 
#
# 1 34.4567 5.2624 3.0032 0.0000 6.4457 0.0000
# 2 5.2624 123.3859 1.6026 0.0000 -2.1122 0.0000
# 3 3.0032 1.6026 64.3561 0.0000 13.8471 0.0000
# 4 0.0000 0.0000 0.0000 10.7919 0.0000 16.8802
# 5 6.4457 -2.1122 13.8471 0.0000 24.3319 0.0000
# 6 0.0000 0.0000 0.0000 16.8802 0.0000 26.1658
#
#
#
# Elastic Compliance Matrix: (Units=1/GPa)
#
#
# Indices 1 2 3 4 5 6 
#
# 1 0.030804 -0.001466 0.000435 0.000000 -0.008535 0.000000
# 2 -0.001466 0.008196 -0.000424 0.000000 0.001341 0.000000
# 3 0.000435 -0.000424 0.017733 0.000000 -0.010244 0.000000
# 4 0.000000 0.000000 0.000000-10.208162 0.000000 6.585552
# 5 -0.008535 0.001341 -0.010244 0.000000 0.049306 0.000000
# 6 0.000000 0.000000 0.000000 6.585552 0.000000 -4.210294
#
#
# Mechanical properties :
#
#
# Convention : Reuss Voigt Hill
#
# Bulk Modulus (GPa) = 18.57898 26.88170 22.73034
# Shear Modulus (GPa) = -0.34986 26.41328 13.03171
#
# Velocity S-wave (km/s) = -0.38060 3.30701 2.32287
# Velocity P-wave (km/s) = 2.73851 5.07071 4.07502
#
# Compressibility (1/GPa) = 0.05382427
#
# Stress axis : x y z
#
# Youngs Moduli (GPa) = 32.46279 122.01625 56.39243
#
# Poissons Ratio (x) = 0.17882 -0.02456
# Poissons Ratio (y) = 0.04758 0.02393
# Poissons Ratio (z) = -0.01414 0.05177
#
# Static dielectric constant tensor:
#      x y z
#    x 1.946390 0.000000 -0.003360 
#    y 0.000000 1.926910 0.000000 
#    z -0.003360 0.000000 1.925610 
# 
# From -- ./inp_files/155237.got.cif
#   From: 2010.05.17/outbox.cif.g08.bks.cpg/sg12_78_cif.got.tgz:155237.got - 2010.06.03 13:09:07.
