data_PCOD9196467
_publ_section_title
;
Structure prediction by ZEFSAII (Michael W. Deem and Ramdas Pophale) SiO2 
 PCOD9196467
Probable space group: C 2/M
;
_chemical_formula_sum "Si O2"
_cell_formula_units_Z 64
_cell_length_a 14.180798
_cell_length_b 11.112203
_cell_length_c 18.790024
_cell_angle_alpha 90.000000
_cell_angle_beta 99.577559
_cell_angle_gamma 90.000000
_cell_volume 2919.658639
_symmetry_space_group_name_H-M "C 2/M"
_symmetry_group_IT_number 12
_symmetry_cell_setting 'monoclinic'
loop_
_space_group_symop_operation_xyz
x,y,z
-x,y,-z
-x,-y,-z
x,-y,z
1/2+x,1/2+y,z
1/2-x,1/2+y,-z
1/2-x,1/2-y,-z
1/2+x,1/2-y,z
loop_
_atom_site_type_symbol
_atom_site_label
_atom_site_fract_x
_atom_site_fract_y
_atom_site_fract_z
Si Si1 0.705315 0.637414 0.536840
Si Si2 0.081700 0.696541 0.695322
Si Si3 0.089059 0.367406 0.225878
Si Si4 0.352068 0.633607 0.170907
Si Si5 0.950926 0.133283 0.588761
Si Si6 0.722820 0.290431 0.332594
Si Si7 0.359778 0.865214 0.917373
Si Si8 0.105401 0.863414 0.982828
O O1 0.738432 0.500000 0.526430
O O2 0.750000 0.750000 0.500000
O O3 0.596264 0.641859 0.495664
O O4 0.734168 0.674174 0.619915
O O5 0.123285 0.787057 0.759293
O O6 0.179697 0.640397 0.676233
O O7 0.001665 0.630508 0.732621
O O8 0.021320 0.763998 0.626098
O O9 0.134635 0.500000 0.237892
O O10 0.158534 0.261546 0.260864
O O11 0.066680 0.350416 0.139330
O O12 0.384285 0.500000 0.193087
O O13 0.241025 0.634292 0.136292
O O14 0.398632 0.664720 0.101086
O O15 0.854758 0.143483 0.627010
O O16 0.992526 0.000000 0.604246
O O17 0.374200 0.000000 0.950825
O O18 0.355086 0.753031 0.970273
O O19 0.150726 0.000000 0.995914
O O20 0.000000 0.874928 0.000000
#
# Coordination Sequence:
#
# PCOD9196467 Si02
#       8
#     8   8   8   8   8   8   8   8
#     4   9  18  34  56  84 117 153 194 243 295 347
#     4  11  21  35  57  84 114 150 193 239 293 347
#     4  10  21  37  56  82 115 152 197 245 292 349
#     4  10  20  35  57  81 110 149 192 235 285 348
#     4   9  20  36  55  82 114 147 189 239 288 340
#     4  10  20  35  57  81 113 154 192 236 291 350
#     4  10  20  37  60  83 110 149 196 242 286 343
#     4  10  21  37  56  82 115 149 187 237 292 346
#
# _framework density 21.920370999999999
#
# number of rings (size 3 to 8) (size 9 to 14) (size 15 to 20)
#    0.000    2.125    1.250    1.875    0.000    2.750 
#    0.000    5.000    0.000    0.000    0.000   12.250 
#    0.000    0.000    0.000    0.000    0.000    0.000 
#
# Total GULP energy -178215.047535 kJ/mol
# GULP energy per Si atom -5569.220235 kJ/mol
# Density = 2.187048 g / cm^3
# Si number density = 21.920371 Si / 1000 Ang^3
#
#
#
# Elastic Constant Matrix: (Units=GPa)
#
#
# Indices 1 2 3 4 5 6 
#
# 1 97.3676 8.8558 -8.8518 0.0000 -8.8107 0.0000
# 2 8.8558 124.7711 44.0751 0.0000 7.2436 0.0000
# 3 -8.8518 44.0751 52.0083 0.0000 -4.6672 0.0000
# 4 0.0000 0.0000 0.0000 21.6378 0.0000 -1.1936
# 5 -8.8107 7.2436 -4.6672 0.0000 30.5599 0.0000
# 6 0.0000 0.0000 0.0000 -1.1936 0.0000 18.1216
#
#
#
# Elastic Compliance Matrix: (Units=1/GPa)
#
#
# Indices 1 2 3 4 5 6 
#
# 1 0.011360 -0.002719 0.004653 0.000000 0.004630 0.000000
# 2 -0.002719 0.012662 -0.011693 0.000000 -0.005571 0.000000
# 3 0.004653 -0.011693 0.030719 0.000000 0.008805 0.000000
# 4 0.000000 0.000000 0.000000 0.046384 0.000000 0.003055
# 5 0.004630 -0.005571 0.008805 0.000000 0.036723 0.000000
# 6 0.000000 0.000000 0.000000 0.003055 0.000000 0.055384
#
#
# Mechanical properties :
#
#
# Convention : Reuss Voigt Hill
#
# Bulk Modulus (GPa) = 28.39066 40.25614 34.32340
# Shear Modulus (GPa) = 22.27284 29.40172 25.83728
#
# Velocity S-wave (km/s) = 3.19106 3.66634 3.43693
# Velocity P-wave (km/s) = 5.15335 6.02722 5.60733
#
# Compressibility (1/GPa) = 0.03522285
#
# Stress axis : x y z
#
# Youngs Moduli (GPa) = 88.03129 78.97954 32.55320
#
# Poissons Ratio (x) = 0.21472 -0.15147
# Poissons Ratio (y) = 0.23933 0.38064
# Poissons Ratio (z) = -0.40960 0.92349
#
# Static dielectric constant tensor:
#      x y z
#    x 1.941650 0.000000 -0.089060 
#    y 0.000000 1.809150 0.000000 
#    z -0.089060 0.000000 1.826070 
# 
# From -- ./inp_files/309939.got.cif
#   From: 2010.05.17/outbox.cif.g08.bks.cpg/sg12_155_cif.got.tgz:309939.got - 2010.06.03 13:09:07.
