data_PCOD9196253
_publ_section_title
;
Structure prediction by ZEFSAII (Michael W. Deem and Ramdas Pophale) SiO2 
 PCOD9196253
Probable space group: C 2/M
;
_chemical_formula_sum "Si O2"
_cell_formula_units_Z 48
_cell_length_a 7.691752
_cell_length_b 22.913698
_cell_length_c 14.889337
_cell_angle_alpha 90.000000
_cell_angle_beta 44.562331
_cell_angle_gamma 90.000000
_cell_volume 1841.356482
_symmetry_space_group_name_H-M "C 2/M"
_symmetry_group_IT_number 12
_symmetry_cell_setting 'monoclinic'
loop_
_space_group_symop_operation_xyz
x,y,z
-x,y,-z
-x,-y,-z
x,-y,z
1/2+x,1/2+y,z
1/2-x,1/2+y,-z
1/2-x,1/2-y,-z
1/2+x,1/2-y,z
loop_
_atom_site_type_symbol
_atom_site_label
_atom_site_fract_x
_atom_site_fract_y
_atom_site_fract_z
Si Si1 0.176869 0.436674 0.345365
Si Si2 0.999088 0.312469 0.392127
Si Si3 0.844147 0.438123 0.964464
Si Si4 0.377266 0.437306 0.691932
Si Si5 0.642325 0.814603 0.042377
Si Si6 0.304371 0.312152 0.658408
O O1 0.866845 0.500000 0.683638
O O2 0.115376 0.375023 0.321959
O O3 0.459759 0.435764 0.276710
O O4 0.000000 0.437583 0.500000
O O5 0.117809 0.249814 0.328155
O O6 0.000000 0.314893 0.500000
O O7 0.746866 0.306565 0.428901
O O8 0.707064 0.500000 0.006029
O O9 0.707174 0.375966 0.008457
O O10 0.081829 0.438833 0.810699
O O11 0.000000 0.439595 0.000000
O O12 0.452321 0.500000 0.622156
O O13 0.432452 0.374201 0.631389
O O14 0.461876 0.817670 0.193781
O O15 0.500000 0.819427 0.000000
O O16 0.750000 0.750000 0.000000
#
# Coordination Sequence:
#
# PCOD9196253 Si02
#       6
#     8   8   8   8   8   8
#     4   9  19  37  58  81 111 147 187 235 288 336
#     4  11  23  38  56  79 112 149 189 238 284 336
#     4   8  15  29  51  79 108 141 180 221 266 321
#     4   9  18  34  57  83 111 146 189 233 280 337
#     4  10  20  35  56  83 114 146 181 228 279 334
#     4  11  22  37  59  85 113 150 193 234 283 340
#
# _framework density 26.067737999999999
#
# number of rings (size 3 to 8) (size 9 to 14) (size 15 to 20)
#    0.000    2.333    0.000    2.500    0.000    4.667 
#    0.000    0.000    0.000   10.000    0.000    0.000 
#    0.000    0.000    0.000    0.000    0.000    0.000 
#
# Total GULP energy -133773.551238 kJ/mol
# GULP energy per Si atom -5573.897968 kJ/mol
# Density = 2.600841 g / cm^3
# Si number density = 26.067738 Si / 1000 Ang^3
#
#
#
# Elastic Constant Matrix: (Units=GPa)
#
#
# Indices 1 2 3 4 5 6 
#
# 1 94.9689 58.9690 -21.4732 0.0000 4.8692 0.0000
# 2 58.9690 399.7026 22.0795 0.0000 -8.5255 0.0000
# 3 -21.4732 22.0795 36.2581 0.0000 -0.3714 0.0000
# 4 0.0000 0.0000 0.0000 21.6161 0.0000 5.8992
# 5 4.8692 -8.5255 -0.3714 0.0000 20.4878 0.0000
# 6 0.0000 0.0000 0.0000 5.8992 0.0000 30.6513
#
#
#
# Elastic Compliance Matrix: (Units=1/GPa)
#
#
# Indices 1 2 3 4 5 6 
#
# 1 0.014943 -0.002885 0.010560 0.000000 -0.004560 0.000000
# 2 -0.002885 0.003169 -0.003618 0.000000 0.001939 0.000000
# 3 0.010560 -0.003618 0.036003 0.000000 -0.003363 0.000000
# 4 0.000000 0.000000 0.000000 0.048826 0.000000 -0.009397
# 5 -0.004560 0.001939 -0.003363 0.000000 0.050639 0.000000
# 6 0.000000 0.000000 0.000000 -0.009397 0.000000 0.034434
#
#
# Mechanical properties :
#
#
# Convention : Reuss Voigt Hill
#
# Bulk Modulus (GPa) = 16.07031 72.23113 44.15072
# Shear Modulus (GPa) = 24.91985 45.97466 35.44726
#
# Velocity S-wave (km/s) = 3.09522 4.20415 3.69157
# Velocity P-wave (km/s) = 4.35340 7.16489 5.92823
#
# Compressibility (1/GPa) = 0.06222657
#
# Stress axis : x y z
#
# Youngs Moduli (GPa) = 66.92243 315.58301 27.77562
#
# Poissons Ratio (x) = 0.91049 -0.29330
# Poissons Ratio (y) = 0.19308 0.10050
# Poissons Ratio (z) = -0.70668 1.14191
#
# Static dielectric constant tensor:
#      x y z
#    x 2.014400 0.000000 -0.035060 
#    y 0.000000 2.087050 0.000000 
#    z -0.035060 0.000000 2.185190 
# 
# From -- ./inp_files/257911.got.cif
#   From: 2010.05.17/outbox.cif.g08.bks.cpg/sg12_129_cif.got.tgz:257911.got - 2010.06.03 13:09:07.
