data_PCOD9196856
_publ_section_title
;
Structure prediction by ZEFSAII (Michael W. Deem and Ramdas Pophale) SiO2 
 PCOD9196856
Probable space group: C 2/M
;
_chemical_formula_sum "Si O2"
_cell_formula_units_Z 64
_cell_length_a 14.392135
_cell_length_b 15.953374
_cell_length_c 16.844029
_cell_angle_alpha 90.000000
_cell_angle_beta 46.641346
_cell_angle_gamma 90.000000
_cell_volume 2811.901841
_symmetry_space_group_name_H-M "C 2/M"
_symmetry_group_IT_number 12
_symmetry_cell_setting 'monoclinic'
loop_
_space_group_symop_operation_xyz
x,y,z
-x,y,-z
-x,-y,-z
x,-y,z
1/2+x,1/2+y,z
1/2-x,1/2+y,-z
1/2-x,1/2-y,-z
1/2+x,1/2-y,z
loop_
_atom_site_type_symbol
_atom_site_label
_atom_site_fract_x
_atom_site_fract_y
_atom_site_fract_z
Si Si1 0.112681 0.637706 0.988435
Si Si2 0.699691 0.912432 0.102219
Si Si3 0.597245 0.089244 0.681198
Si Si4 0.909301 0.905634 0.312976
Si Si5 0.429646 0.251241 0.202097
Si Si6 0.375785 0.869548 0.517603
Si Si7 0.721588 0.757981 0.201143
Si Si8 0.465136 0.307871 0.434099
O O1 0.186764 0.591648 0.015045
O O2 0.036497 0.710853 0.082009
O O3 0.218424 0.672920 0.867469
O O4 0.000000 0.597970 0.000000
O O5 0.553218 0.917202 0.215690
O O6 0.737690 0.826663 0.122500
O O7 0.765897 0.000000 0.087044
O O8 0.626580 0.174766 0.711379
O O9 0.611219 0.096897 0.579183
O O10 0.656133 0.000000 0.674403
O O11 0.977543 0.829611 0.225666
O O12 0.760429 0.903148 0.374237
O O13 0.914114 0.875528 0.402013
O O14 0.958947 0.000000 0.274002
O O15 0.316637 0.285060 0.214330
O O16 0.500000 0.887982 0.500000
O O17 0.370780 0.768876 0.509614
O O18 0.584423 0.739447 0.320472
O O19 0.500000 0.344089 0.500000
#
# Coordination Sequence:
#
# PCOD9196856 Si02
#       8
#     8   8   8   8   8   8   8   8
#     4   9  20  39  65  88 118 163 208 255 314 368
#     4  10  20  35  57  90 124 153 199 261 314 369
#     4  10  20  36  60  87 121 156 202 263 317 363
#     4  12  26  41  62  91 131 172 208 258 311 377
#     4  10  21  41  62  90 125 163 210 260 310 372
#     4  11  22  40  63  90 122 161 209 265 324 370
#     4  11  21  40  65  90 121 169 208 255 312 374
#     4  11  23  41  65  89 123 170 215 259 311 374
#
# _framework density 22.760394999999999
#
# number of rings (size 3 to 8) (size 9 to 14) (size 15 to 20)
#    0.000    1.500    2.500    3.375    1.750    2.000 
#    0.000    5.000    0.000    2.625    0.000    0.000 
#    0.000    0.000    0.000    0.000    0.000    0.000 
#
# Total GULP energy -178528.500228 kJ/mol
# GULP energy per Si atom -5579.015632 kJ/mol
# Density = 2.270859 g / cm^3
# Si number density = 22.760395 Si / 1000 Ang^3
#
#
#
# Elastic Constant Matrix: (Units=GPa)
#
#
# Indices 1 2 3 4 5 6 
#
# 1 79.5413 32.3282 1.8857 0.0000 16.6452 0.0000
# 2 32.3282 110.7699 15.2864 0.0000 9.4708 0.0000
# 3 1.8857 15.2864 64.6853 0.0000 14.8815 0.0000
# 4 0.0000 0.0000 0.0000 27.9778 0.0000 -12.6510
# 5 16.6452 9.4708 14.8815 0.0000 30.7709 0.0000
# 6 0.0000 0.0000 0.0000 -12.6510 0.0000 3.1548
#
#
#
# Elastic Compliance Matrix: (Units=1/GPa)
#
#
# Indices 1 2 3 4 5 6 
#
# 1 0.016056 -0.004300 0.002522 0.000000 -0.008582 0.000000
# 2 -0.004300 0.010598 -0.002435 0.000000 0.000242 0.000000
# 3 0.002522 -0.002435 0.018119 0.000000 -0.009378 0.000000
# 4 0.000000 0.000000 0.000000 -0.043948 0.000000 -0.176236
# 5 -0.008582 0.000242 -0.009378 0.000000 0.041601 0.000000
# 6 0.000000 0.000000 0.000000 -0.176236 0.000000 -0.389748
#
#
# Mechanical properties :
#
#
# Convention : Reuss Voigt Hill
#
# Bulk Modulus (GPa) = 27.51219 39.33300 33.42259
# Shear Modulus (GPa) = -15.30077 26.08045 5.38984
#
# Velocity S-wave (km/s) = -2.59560 3.38874 1.54053
# Velocity P-wave (km/s) = 1.76950 5.71229 4.22856
#
# Compressibility (1/GPa) = 0.03634753
#
# Stress axis : x y z
#
# Youngs Moduli (GPa) = 62.28245 94.35658 55.19135
#
# Poissons Ratio (x) = 0.40576 -0.13922
# Poissons Ratio (y) = 0.26783 0.13438
# Poissons Ratio (z) = -0.15711 0.22974
#
# Static dielectric constant tensor:
#      x y z
#    x 1.898590 0.000000 0.026170 
#    y 0.000000 1.992390 0.000000 
#    z 0.026170 0.000000 1.872290 
# 
# From -- ./inp_files/270628.got.cif
#   From: 2010.05.17/outbox.cif.g08.bks.cpg/sg12_136_cif.got.tgz:270628.got - 2010.06.03 13:09:07.
