data_PCOD9196737
_publ_section_title
;
Structure prediction by ZEFSAII (Michael W. Deem and Ramdas Pophale) SiO2 
 PCOD9196737
Probable space group: C 2/M
;
_chemical_formula_sum "Si O2"
_cell_formula_units_Z 56
_cell_length_a 9.182641
_cell_length_b 19.676715
_cell_length_c 20.152205
_cell_angle_alpha 90.000000
_cell_angle_beta 51.781045
_cell_angle_gamma 90.000000
_cell_volume 2860.705426
_symmetry_space_group_name_H-M "C 2/M"
_symmetry_group_IT_number 12
_symmetry_cell_setting 'monoclinic'
loop_
_space_group_symop_operation_xyz
x,y,z
-x,y,-z
-x,-y,-z
x,-y,z
1/2+x,1/2+y,z
1/2-x,1/2+y,-z
1/2-x,1/2-y,-z
1/2+x,1/2-y,z
loop_
_atom_site_type_symbol
_atom_site_label
_atom_site_fract_x
_atom_site_fract_y
_atom_site_fract_z
Si Si1 0.802751 0.076279 0.472428
Si Si2 0.461422 0.723670 0.939181
Si Si3 0.511368 0.720129 0.568808
Si Si4 0.455610 0.921477 0.656178
Si Si5 0.063158 0.077541 0.716651
Si Si6 0.598496 0.205236 0.678278
Si Si7 0.158718 0.804719 0.169205
O O1 0.587224 0.082265 0.553888
O O2 0.859938 0.075923 0.379797
O O3 0.899167 0.145975 0.468516
O O4 0.856844 0.000000 0.482714
O O5 0.625269 0.781246 0.892207
O O6 0.444174 0.685679 0.873433
O O7 0.500000 0.688063 0.000000
O O8 0.250000 0.750000 0.000000
O O9 0.500000 0.755861 0.500000
O O10 0.602997 0.760923 0.603129
O O11 0.300490 0.712183 0.651335
O O12 0.246928 0.897218 0.703080
O O13 0.550022 0.873012 0.682388
O O14 0.449316 0.000000 0.677328
O O15 0.892564 0.127600 0.775757
O O16 0.020237 0.000000 0.748105
O O17 0.449394 0.243630 0.764286
#
# Coordination Sequence:
#
# PCOD9196737 Si02
#       7
#     8   8   8   8   8   8   8
#     4  10  21  37  54  73 110 163 215 252 289 338
#     4   9  20  38  64  91 114 144 173 218 282 364
#     4  12  24  37  50  77 111 156 200 251 301 335
#     4  10  21  36  53  76 112 163 212 251 290 337
#     4  10  20  35  57  85 118 157 198 243 293 339
#     4  12  24  36  56  83 114 148 195 254 301 338
#     4  11  20  37  61  89 120 142 187 237 290 349
#
# _framework density 19.575592
#
# number of rings (size 3 to 8) (size 9 to 14) (size 15 to 20)
#    0.000    1.429    2.857    3.429    0.000    2.571 
#    0.000    0.000    0.000    4.286    0.000    4.000 
#    0.000    0.000    0.000    0.000    0.000    0.000 
#
# Total GULP energy -156019.424434 kJ/mol
# GULP energy per Si atom -5572.122301 kJ/mol
# Density = 1.953104 g / cm^3
# Si number density = 19.575592 Si / 1000 Ang^3
#
#
#
# Elastic Constant Matrix: (Units=GPa)
#
#
# Indices 1 2 3 4 5 6 
#
# 1 87.9805 19.9398 21.8821 0.0000 -17.2748 0.0000
# 2 19.9398 66.0519 27.0812 0.0000 -17.6563 0.0000
# 3 21.8821 27.0812 80.4730 0.0000 -15.8427 0.0000
# 4 0.0000 0.0000 0.0000 13.7840 0.0000 -3.1300
# 5 -17.2748 -17.6563 -15.8427 0.0000 43.0521 0.0000
# 6 0.0000 0.0000 0.0000 -3.1300 0.0000 18.4061
#
#
#
# Elastic Compliance Matrix: (Units=1/GPa)
#
#
# Indices 1 2 3 4 5 6 
#
# 1 0.013083 -0.002111 -0.002139 0.000000 0.003597 0.000000
# 2 -0.002111 0.019161 -0.004845 0.000000 0.005228 0.000000
# 3 -0.002139 -0.004845 0.015178 0.000000 0.002740 0.000000
# 4 0.000000 0.000000 0.000000 0.075462 0.000000 0.012832
# 5 0.003597 0.005228 0.002740 0.000000 0.027823 0.000000
# 6 0.000000 0.000000 0.000000 0.012832 0.000000 0.056512
#
#
# Mechanical properties :
#
#
# Convention : Reuss Voigt Hill
#
# Bulk Modulus (GPa) = 34.20908 41.36793 37.78851
# Shear Modulus (GPa) = 21.26283 26.08861 23.67572
#
# Velocity S-wave (km/s) = 3.29932 3.65459 3.48149
# Velocity P-wave (km/s) = 5.65927 6.24390 5.95876
#
# Compressibility (1/GPa) = 0.02923200
#
# Stress axis : x y z
#
# Youngs Moduli (GPa) = 76.43631 52.18995 65.88490
#
# Poissons Ratio (x) = 0.11018 0.14092
# Poissons Ratio (y) = 0.16136 0.31920
# Poissons Ratio (z) = 0.16349 0.25285
#
# Static dielectric constant tensor:
#      x y z
#    x 1.745640 0.000000 0.030930 
#    y 0.000000 1.698340 0.000000 
#    z 0.030930 0.000000 1.749530 
# 
# From -- ./inp_files/301660.got.cif
#   From: 2010.05.17/outbox.cif.g08.bks.cpg/sg12_151_cif.got.tgz:301660.got - 2010.06.03 13:09:07.
