data_PCOD9196753
_publ_section_title
;
Structure prediction by ZEFSAII (Michael W. Deem and Ramdas Pophale) SiO2 
 PCOD9196753
Probable space group: C 2/M
;
_chemical_formula_sum "Si O2"
_cell_formula_units_Z 64
_cell_length_a 12.511023
_cell_length_b 13.475949
_cell_length_c 21.335143
_cell_angle_alpha 90.000000
_cell_angle_beta 122.367328
_cell_angle_gamma 90.000000
_cell_volume 3038.197184
_symmetry_space_group_name_H-M "C 2/M"
_symmetry_group_IT_number 12
_symmetry_cell_setting 'monoclinic'
loop_
_space_group_symop_operation_xyz
x,y,z
-x,y,-z
-x,-y,-z
x,-y,z
1/2+x,1/2+y,z
1/2-x,1/2+y,-z
1/2-x,1/2-y,-z
1/2+x,1/2-y,z
loop_
_atom_site_type_symbol
_atom_site_label
_atom_site_fract_x
_atom_site_fract_y
_atom_site_fract_z
Si Si1 0.772336 0.792786 0.219201
Si Si2 0.938548 0.608432 0.223550
Si Si3 0.145517 0.703769 0.051424
Si Si4 0.687764 0.108369 0.386847
Si Si5 0.484563 0.613098 0.649827
Si Si6 0.007131 0.690112 0.428397
Si Si7 0.190632 0.391805 0.938352
Si Si8 0.268051 0.702588 0.667711
O O1 0.858810 0.701010 0.222592
O O2 0.690380 0.827084 0.134583
O O3 0.874788 0.871419 0.277184
O O4 0.694448 0.748770 0.253423
O O5 0.881612 0.500000 0.221927
O O6 0.932087 0.613077 0.145835
O O7 0.072655 0.609763 0.300189
O O8 0.223008 0.801844 0.057029
O O9 0.167285 0.623161 0.004178
O O10 0.000000 0.730083 0.000000
O O11 0.619721 0.127787 0.431847
O O12 0.764129 0.204651 0.389099
O O13 0.749461 0.000000 0.404185
O O14 0.467612 0.500000 0.623458
O O15 0.474107 0.698857 0.593863
O O16 0.377802 0.640767 0.668469
O O17 0.867872 0.652011 0.363412
O O18 0.000000 0.684116 0.500000
O O19 0.248910 0.500000 0.946091
#
# Coordination Sequence:
#
# PCOD9196753 Si02
#       8
#     8   8   8   8   8   8   8   8
#     4  10  20  37  56  81 119 147 189 237 284 328
#     4   9  16  33  58  79 106 143 185 233 282 328
#     4  10  22  35  56  83 112 151 191 233 284 340
#     4  10  20  35  57  86 113 143 187 233 277 328
#     4  10  22  39  58  86 115 150 190 231 279 333
#     4  10  22  41  60  84 119 152 180 227 280 333
#     4   9  20  37  54  77 113 149 184 234 288 333
#     4  10  20  36  59  84 110 152 187 230 270 338
#
# _framework density 21.065123
#
# number of rings (size 3 to 8) (size 9 to 14) (size 15 to 20)
#    0.000    2.250    3.750    0.000    1.750    7.500 
#    0.000    1.250    0.000    0.000    0.000    0.000 
#    0.000    0.000    0.000    0.000    0.000    0.000 
#
# Total GULP energy -178419.921418 kJ/mol
# GULP energy per Si atom -5575.622544 kJ/mol
# Density = 2.101718 g / cm^3
# Si number density = 21.065123 Si / 1000 Ang^3
#
#
#
# Elastic Constant Matrix: (Units=GPa)
#
#
# Indices 1 2 3 4 5 6 
#
# 1 32.8450 -14.0003 -4.4205 0.0000 -8.4123 0.0000
# 2 -14.0003 67.1855 -14.3977 0.0000 4.3941 0.0000
# 3 -4.4205 -14.3977 104.0937 0.0000 -30.9540 0.0000
# 4 0.0000 0.0000 0.0000 8.0594 0.0000 3.3088
# 5 -8.4123 4.3941 -30.9540 0.0000 27.9370 0.0000
# 6 0.0000 0.0000 0.0000 3.3088 0.0000 2.9572
#
#
#
# Elastic Compliance Matrix: (Units=1/GPa)
#
#
# Indices 1 2 3 4 5 6 
#
# 1 0.041054 0.009165 0.009334 0.000000 0.021262 0.000000
# 2 0.009165 0.017385 0.004178 0.000000 0.004654 0.000000
# 3 0.009334 0.004178 0.016735 0.000000 0.020696 0.000000
# 4 0.000000 0.000000 0.000000 0.229502 0.000000 -0.256788
# 5 0.021262 0.004654 0.020696 0.000000 0.064396 0.000000
# 6 0.000000 0.000000 0.000000 -0.256788 0.000000 0.625478
#
#
# Mechanical properties :
#
#
# Convention : Reuss Voigt Hill
#
# Bulk Modulus (GPa) = 8.29690 15.38745 11.84218
# Shear Modulus (GPa) = 5.05370 23.58692 14.32031
#
# Velocity S-wave (km/s) = 1.55058 3.34984 2.61015
# Velocity P-wave (km/s) = 2.67450 4.72043 3.83637
#
# Compressibility (1/GPa) = 0.12052698
#
# Stress axis : x y z
#
# Youngs Moduli (GPa) = 24.35791 57.52144 59.75405
#
# Poissons Ratio (x) = -0.52716 -0.55773
# Poissons Ratio (y) = -0.22323 -0.24964
# Poissons Ratio (z) = -0.22735 -0.24031
#
# Static dielectric constant tensor:
#      x y z
#    x 1.787760 0.000000 -0.010880 
#    y 0.000000 1.766400 0.000000 
#    z -0.010880 0.000000 1.805070 
# 
# From -- ./inp_files/305476.got.cif
#   From: 2010.05.17/outbox.cif.g08.bks.cpg/sg12_153_cif.got.tgz:305476.got - 2010.06.03 13:09:07.
