data_PCOD9196716
_publ_section_title
;
Structure prediction by ZEFSAII (Michael W. Deem and Ramdas Pophale) SiO2 
 PCOD9196716
Probable space group: C 2/M
;
_chemical_formula_sum "Si O2"
_cell_formula_units_Z 56
_cell_length_a 26.017335
_cell_length_b 7.579720
_cell_length_c 13.567815
_cell_angle_alpha 90.000000
_cell_angle_beta 68.075814
_cell_angle_gamma 90.000000
_cell_volume 2482.124042
_symmetry_space_group_name_H-M "C 2/M"
_symmetry_group_IT_number 12
_symmetry_cell_setting 'monoclinic'
loop_
_space_group_symop_operation_xyz
x,y,z
-x,y,-z
-x,-y,-z
x,-y,z
1/2+x,1/2+y,z
1/2-x,1/2+y,-z
1/2-x,1/2-y,-z
1/2+x,1/2-y,z
loop_
_atom_site_type_symbol
_atom_site_label
_atom_site_fract_x
_atom_site_fract_y
_atom_site_fract_z
Si Si1 0.860975 0.201921 0.753844
Si Si2 0.936340 0.786413 0.067068
Si Si3 0.577553 0.706625 0.702006
Si Si4 0.301452 0.209214 0.393015
Si Si5 0.339143 0.796265 0.989236
Si Si6 0.257014 0.217027 0.215508
Si Si7 0.483347 0.283450 0.622175
O O1 0.848510 0.202467 0.879230
O O2 0.806389 0.279004 0.741912
O O3 0.921488 0.279608 0.691685
O O4 0.864299 0.000000 0.715972
O O5 0.921753 0.721004 0.187285
O O6 0.931175 0.000000 0.066533
O O7 0.894210 0.714359 0.016412
O O8 0.000000 0.741847 0.000000
O O9 0.564760 0.500000 0.722932
O O10 0.639138 0.721688 0.614399
O O11 0.529452 0.779491 0.666862
O O12 0.250000 0.250000 0.500000
O O13 0.287525 0.276149 0.292924
O O14 0.306959 0.000000 0.382902
O O15 0.327239 0.000000 0.974542
O O16 0.290109 0.726418 0.094318
O O17 0.257401 0.000000 0.214282
O O18 0.500000 0.233571 0.500000
O O19 0.483431 0.500000 0.626236
#
# Coordination Sequence:
#
# PCOD9196716 Si02
#       7
#     8   8   8   8   8   8   8
#     4  10  20  37  60  85 113 152 196 242 286 335
#     4  10  20  35  57  85 116 152 196 244 284 334
#     4  10  20  36  59  88 117 148 191 241 290 340
#     4  11  23  40  61  88 118 153 194 239 289 346
#     4  11  21  36  55  84 120 152 188 234 293 355
#     4   9  20  37  59  85 115 150 193 237 285 343
#     4   9  19  35  60  88 112 146 196 242 282 335
#
# _framework density 22.561321
#
# number of rings (size 3 to 8) (size 9 to 14) (size 15 to 20)
#    0.000    2.000    1.429    2.143    2.000    2.571 
#    0.000    4.286    0.000    0.857    0.000    0.000 
#    0.000    0.000    0.000    0.000    0.000    0.000 
#
# Total GULP energy -156526.749387 kJ/mol
# GULP energy per Si atom -5590.241050 kJ/mol
# Density = 2.250997 g / cm^3
# Si number density = 22.561321 Si / 1000 Ang^3
#
#
#
# Elastic Constant Matrix: (Units=GPa)
#
#
# Indices 1 2 3 4 5 6 
#
# 1 149.3838 -2.7977 25.3775 0.0000 -23.8828 0.0000
# 2 -2.7977 52.9863 -5.1663 0.0000 3.0195 0.0000
# 3 25.3775 -5.1663 79.7167 0.0000 -23.5036 0.0000
# 4 0.0000 0.0000 0.0000 1.9561 0.0000 3.7695
# 5 -23.8828 3.0195 -23.5036 0.0000 37.0629 0.0000
# 6 0.0000 0.0000 0.0000 3.7695 0.0000 3.0623
#
#
#
# Elastic Compliance Matrix: (Units=1/GPa)
#
#
# Indices 1 2 3 4 5 6 
#
# 1 0.007554 0.000049 -0.001190 0.000000 0.004109 0.000000
# 2 0.000049 0.019020 0.000947 0.000000 -0.000918 0.000000
# 3 -0.001190 0.000947 0.015665 0.000000 0.009090 0.000000
# 4 0.000000 0.000000 0.000000 -0.372585 0.000000 0.458633
# 5 0.004109 -0.000918 0.009090 0.000000 0.035468 0.000000
# 6 0.000000 0.000000 0.000000 0.458633 0.000000 -0.238000
#
#
# Mechanical properties :
#
#
# Convention : Reuss Voigt Hill
#
# Bulk Modulus (GPa) = 23.89552 35.21266 29.55409
# Shear Modulus (GPa) = -9.64248 26.06115 8.20933
#
# Velocity S-wave (km/s) = -2.06958 3.40240 1.90960
# Velocity P-wave (km/s) = 2.21437 5.57463 4.24146
#
# Compressibility (1/GPa) = 0.04184885
#
# Stress axis : x y z
#
# Youngs Moduli (GPa) = 132.37643 52.57636 63.83788
#
# Poissons Ratio (x) = -0.00256 0.07598
# Poissons Ratio (y) = -0.00644 -0.06042
# Poissons Ratio (z) = 0.15755 -0.04976
#
# Static dielectric constant tensor:
#      x y z
#    x 1.868690 0.000000 -0.069890 
#    y 0.000000 1.906320 0.000000 
#    z -0.069890 0.000000 1.858850 
# 
# From -- ./inp_files/238303.got.cif
#   From: 2010.05.17/outbox.cif.g08.bks.cpg/sg12_120_cif.got.tgz:238303.got - 2010.06.03 13:09:07.
