data_PCOD9196565
_publ_section_title
;
Structure prediction by ZEFSAII (Michael W. Deem and Ramdas Pophale) SiO2 
 PCOD9196565
Probable space group: C 2/M
;
_chemical_formula_sum "Si O2"
_cell_formula_units_Z 56
_cell_length_a 11.493952
_cell_length_b 13.168330
_cell_length_c 28.362858
_cell_angle_alpha 90.000000
_cell_angle_beta 36.179338
_cell_angle_gamma 90.000000
_cell_volume 2534.157557
_symmetry_space_group_name_H-M "C 2/M"
_symmetry_group_IT_number 12
_symmetry_cell_setting 'monoclinic'
loop_
_space_group_symop_operation_xyz
x,y,z
-x,y,-z
-x,-y,-z
x,-y,z
1/2+x,1/2+y,z
1/2-x,1/2+y,-z
1/2-x,1/2-y,-z
1/2+x,1/2-y,z
loop_
_atom_site_type_symbol
_atom_site_label
_atom_site_fract_x
_atom_site_fract_y
_atom_site_fract_z
Si Si1 0.724214 0.323862 0.435522
Si Si2 0.262236 0.885873 0.964267
Si Si3 0.778087 0.670212 0.063211
Si Si4 0.192434 0.883760 0.546973
Si Si5 0.687474 0.883071 0.792086
Si Si6 0.745337 0.806245 0.676179
Si Si7 0.513533 0.379964 0.755094
O O1 0.500000 0.357963 0.500000
O O2 0.722190 0.202944 0.447129
O O3 0.790368 0.373434 0.462916
O O4 0.823950 0.343673 0.352537
O O5 0.202279 0.791697 0.951449
O O6 0.500419 0.876548 0.887015
O O7 0.213993 0.000000 0.963681
O O8 0.197502 0.869977 0.039310
O O9 0.625058 0.640888 0.154087
O O10 0.000000 0.630537 0.000000
O O11 0.965445 0.847526 0.613296
O O12 0.201308 0.000000 0.560358
O O13 0.629963 0.841409 0.760101
O O14 0.879292 0.840585 0.755128
O O15 0.733763 0.000000 0.769171
O O16 0.712264 0.685441 0.688872
O O17 0.547158 0.500000 0.740509
#
# Coordination Sequence:
#
# PCOD9196565 Si02
#       7
#     8   8   8   8   8   8   8
#     4   9  21  39  62  93 122 153 192 239 285 342
#     4  10  21  36  56  85 113 147 196 245 298 358
#     4  11  21  37  61  85 114 154 200 254 303 354
#     4  10  21  40  65  92 120 155 197 239 285 345
#     4  10  20  35  57  83 112 149 195 242 292 352
#     4  11  21  36  57  86 122 155 192 236 291 348
#     4  11  23  38  58  85 117 155 199 250 301 349
#
# _framework density 22.098071999999998
#
# number of rings (size 3 to 8) (size 9 to 14) (size 15 to 20)
#    0.000    1.714    2.857    1.714    0.000    6.000 
#    0.000    5.714    0.000    7.714    0.000    0.000 
#    0.000    0.000    0.000    0.000    0.000    0.000 
#
# Total GULP energy -156137.908454 kJ/mol
# GULP energy per Si atom -5576.353873 kJ/mol
# Density = 2.204778 g / cm^3
# Si number density = 22.098072 Si / 1000 Ang^3
#
#
#
# Elastic Constant Matrix: (Units=GPa)
#
#
# Indices 1 2 3 4 5 6 
#
# 1 32.3532 -6.4831 15.3574 0.0000 13.8923 0.0001
# 2 -6.4831 75.8582 -2.6650 -0.0002 -7.4554 0.0000
# 3 15.3574 -2.6650 67.7813 0.0003 29.0011 0.0000
# 4 0.0000 -0.0002 0.0003 19.3055 -0.0002 -7.2423
# 5 13.8923 -7.4554 29.0011 -0.0002 39.0893 -0.0001
# 6 0.0001 0.0000 0.0000 -7.2423 -0.0001 18.1438
#
#
#
# Elastic Compliance Matrix: (Units=1/GPa)
#
#
# Indices 1 2 3 4 5 6 
#
# 1 0.037547 0.002097 -0.004229 0.000000 -0.009807 0.000000
# 2 0.002097 0.013584 -0.001070 0.000000 0.002640 0.000000
# 3 -0.004229 -0.001070 0.022143 -0.000001 -0.015129 0.000000
# 4 0.000000 0.000000 -0.000001 0.060921 0.000001 0.024317
# 5 -0.009807 0.002640 -0.015129 0.000001 0.040796 0.000000
# 6 0.000000 0.000000 0.000000 0.024317 0.000000 0.064822
#
#
# Mechanical properties :
#
#
# Convention : Reuss Voigt Hill
#
# Bulk Modulus (GPa) = 14.95474 20.93458 17.94466
# Shear Modulus (GPa) = 18.62148 26.62661 22.62404
#
# Velocity S-wave (km/s) = 2.90603 3.47497 3.20316
# Velocity P-wave (km/s) = 4.24761 5.05912 4.67102
#
# Compressibility (1/GPa) = 0.06686842
#
# Stress axis : x y z
#
# Youngs Moduli (GPa) = 26.63300 73.61865 45.16177
#
# Poissons Ratio (x) = -0.15434 0.19097
# Poissons Ratio (y) = -0.05584 0.04834
# Poissons Ratio (z) = 0.11262 0.07880
#
# Static dielectric constant tensor:
#      x y z
#    x 1.853470 0.000000 0.031370 
#    y 0.000000 1.825970 0.000000 
#    z 0.031370 0.000000 1.873940 
# 
# From -- ./inp_files/358178.got.cif
#   From: 2010.05.17/outbox.cif.g08.bks.cpg/sg12_180_cif.got.tgz:358178.got - 2010.06.03 13:09:07.
