data_PCOD9196038
_publ_section_title
;
Structure prediction by ZEFSAII (Michael W. Deem and Ramdas Pophale) SiO2 
 PCOD9196038
Probable space group: C 2/M
;
_chemical_formula_sum "Si O2"
_cell_formula_units_Z 48
_cell_length_a 29.169617
_cell_length_b 12.066306
_cell_length_c 20.948355
_cell_angle_alpha 90.000000
_cell_angle_beta 158.489834
_cell_angle_gamma 90.000000
_cell_volume 2703.497603
_symmetry_space_group_name_H-M "C 2/M"
_symmetry_group_IT_number 12
_symmetry_cell_setting 'monoclinic'
loop_
_space_group_symop_operation_xyz
x,y,z
-x,y,-z
-x,-y,-z
x,-y,z
1/2+x,1/2+y,z
1/2-x,1/2+y,-z
1/2-x,1/2-y,-z
1/2+x,1/2-y,z
loop_
_atom_site_type_symbol
_atom_site_label
_atom_site_fract_x
_atom_site_fract_y
_atom_site_fract_z
Si Si1 0.679756 0.128348 0.581100
Si Si2 0.074248 0.707317 0.796468
Si Si3 0.328529 0.625866 0.181865
Si Si4 0.404472 0.628874 0.060899
Si Si5 0.932530 0.865926 0.848084
Si Si6 0.144913 0.712356 0.675846
O O1 0.547865 0.137363 0.375524
O O2 0.788440 0.163918 0.672915
O O3 0.673614 0.200097 0.637929
O O4 0.705120 0.000000 0.633264
O O5 0.102750 0.778331 0.769676
O O6 0.059478 0.799186 0.831815
O O7 0.190069 0.634494 0.971668
O O8 0.374251 0.500000 0.234347
O O9 0.337819 0.668473 0.266976
O O10 0.429507 0.500000 0.104360
O O11 0.488090 0.670783 0.109872
O O12 0.256620 0.642943 0.854185
O O13 0.938501 0.000000 0.853425
O O14 0.000000 0.829129 0.000000
O O15 0.000000 0.676809 0.500000
#
# Coordination Sequence:
#
# PCOD9196038 Si02
#       6
#     8   8   8   8   8   8
#     4  11  21  35  55  80 110 137 176 227 263 305
#     4  10  21  36  52  81 106 140 184 209 265 324
#     4  10  21  38  53  72 112 149 173 214 263 319
#     4  10  20  35  56  80 109 140 174 220 264 314
#     4   9  17  32  54  79 105 137 173 215 270 310
#     4  11  21  35  52  83 105 137 184 213 261 322
#
# _framework density 17.754777000000001
#
# number of rings (size 3 to 8) (size 9 to 14) (size 15 to 20)
#    0.000    1.833    3.333    1.500    0.000    2.333 
#    0.000    0.000    0.000    0.000    0.000   11.667 
#    0.000    0.000    0.000    0.000    0.000    0.000 
#
# Total GULP energy -133685.617434 kJ/mol
# GULP energy per Si atom -5570.234060 kJ/mol
# Density = 1.771437 g / cm^3
# Si number density = 17.754777 Si / 1000 Ang^3
#
#
#
# Elastic Constant Matrix: (Units=GPa)
#
#
# Indices 1 2 3 4 5 6 
#
# 1 77.4161 21.9305 22.9075 0.0000 6.6602 0.0000
# 2 21.9305 47.3538 9.9777 0.0000 0.6714 0.0000
# 3 22.9075 9.9777 71.5535 0.0000 10.9438 0.0000
# 4 0.0000 0.0000 0.0000 20.7135 0.0000 -4.3972
# 5 6.6602 0.6714 10.9438 0.0000 30.3413 0.0000
# 6 0.0000 0.0000 0.0000 -4.3972 0.0000 21.3864
#
#
#
# Elastic Compliance Matrix: (Units=1/GPa)
#
#
# Indices 1 2 3 4 5 6 
#
# 1 0.016125 -0.006610 -0.003939 0.000000 -0.001973 0.000000
# 2 -0.006610 0.024478 -0.001520 0.000000 0.001458 0.000000
# 3 -0.003939 -0.001520 0.016205 0.000000 -0.004947 0.000000
# 4 0.000000 0.000000 0.000000 0.050481 0.000000 0.010379
# 5 -0.001973 0.001458 -0.004947 0.000000 0.035143 0.000000
# 6 0.000000 0.000000 0.000000 0.010379 0.000000 0.048893
#
#
# Mechanical properties :
#
#
# Convention : Reuss Voigt Hill
#
# Bulk Modulus (GPa) = 30.60857 33.99499 32.30178
# Shear Modulus (GPa) = 22.08931 23.92207 23.00569
#
# Velocity S-wave (km/s) = 3.53105 3.67462 3.60355
# Velocity P-wave (km/s) = 5.82250 6.09855 5.96212
#
# Compressibility (1/GPa) = 0.03267059
#
# Stress axis : x y z
#
# Youngs Moduli (GPa) = 62.01595 40.85227 61.70876
#
# Poissons Ratio (x) = 0.27003 0.24307
# Poissons Ratio (y) = 0.40992 0.09381
# Poissons Ratio (z) = 0.24428 0.06210
#
# Static dielectric constant tensor:
#      x y z
#    x 1.642430 0.000000 0.021890 
#    y 0.000000 1.583840 0.000000 
#    z 0.021890 0.000000 1.626800 
# 
# From -- ./inp_files/153522.got.cif
#   From: 2010.05.17/outbox.cif.g08.bks.cpg/sg12_77_cif.got.tgz:153522.got - 2010.06.03 13:09:07.
