data_PCOD9196778
_publ_section_title
;
Structure prediction by ZEFSAII (Michael W. Deem and Ramdas Pophale) SiO2 
 PCOD9196778
Probable space group: C 2/M
;
_chemical_formula_sum "Si O2"
_cell_formula_units_Z 64
_cell_length_a 30.454945
_cell_length_b 9.020420
_cell_length_c 22.740544
_cell_angle_alpha 90.000000
_cell_angle_beta 148.006889
_cell_angle_gamma 90.000000
_cell_volume 3309.874745
_symmetry_space_group_name_H-M "C 2/M"
_symmetry_group_IT_number 12
_symmetry_cell_setting 'monoclinic'
loop_
_space_group_symop_operation_xyz
x,y,z
-x,y,-z
-x,-y,-z
x,-y,z
1/2+x,1/2+y,z
1/2-x,1/2+y,-z
1/2-x,1/2-y,-z
1/2+x,1/2-y,z
loop_
_atom_site_type_symbol
_atom_site_label
_atom_site_fract_x
_atom_site_fract_y
_atom_site_fract_z
Si Si1 0.015713 0.824044 0.634434
Si Si2 0.138285 0.823785 0.996812
Si Si3 0.507805 0.321352 0.255614
Si Si4 0.191999 0.824112 0.777627
Si Si5 0.282467 0.825598 0.696645
Si Si6 0.361223 0.175984 0.404879
Si Si7 0.909926 0.173291 0.925456
Si Si8 0.331452 0.823233 0.620160
O O1 0.999546 0.785062 0.683955
O O2 0.110738 0.797773 0.724872
O O3 0.953002 0.735315 0.521849
O O4 0.999298 0.000000 0.608205
O O5 0.224919 0.738706 0.098750
O O6 0.093044 0.800510 0.008269
O O7 0.154598 0.000000 0.009842
O O8 0.075656 0.778788 0.874163
O O9 0.516517 0.500000 0.260258
O O10 0.586862 0.245643 0.315787
O O11 0.174854 0.744310 0.696133
O O12 0.200151 0.000000 0.776965
O O13 0.198050 0.735474 0.610396
O O14 0.344511 0.776048 0.818338
O O15 0.325533 0.794423 0.683290
O O16 0.263802 0.000000 0.678671
O O17 0.359162 0.000000 0.399569
O O18 0.886851 0.000000 0.889459
O O19 0.000000 0.196672 0.000000
O O20 0.250000 0.750000 0.500000
O O21 0.330100 0.000000 0.609590
#
# Coordination Sequence:
#
# PCOD9196778 Si02
#       8
#     8   8   8   8   8   8   8   8
#     4  10  23  42  63  89 121 161 206 250 306 369
#     4  10  21  38  61  90 124 161 203 251 299 357
#     4  10  22  42  65  89 123 165 206 251 302 360
#     4  11  23  40  63  90 123 162 202 251 309 367
#     4  11  23  38  58  86 120 158 197 243 301 361
#     4  12  24  39  62  92 123 156 202 258 312 367
#     4  10  20  35  57  86 118 155 198 242 292 352
#     4  11  24  40  60  89 123 161 206 252 301 361
#
# _framework density 19.336079000000002
#
# number of rings (size 3 to 8) (size 9 to 14) (size 15 to 20)
#    0.000    1.375    1.250    4.125    0.000   10.250 
#    0.000    0.000    0.000    0.000    0.000    0.000 
#    0.000    0.000    0.000    0.000    0.000    0.000 
#
# Total GULP energy -178957.117394 kJ/mol
# GULP energy per Si atom -5592.409919 kJ/mol
# Density = 1.929207 g / cm^3
# Si number density = 19.336079 Si / 1000 Ang^3
#
#
#
# Elastic Constant Matrix: (Units=GPa)
#
#
# Indices 1 2 3 4 5 6 
#
# 1 88.2887 49.6480 40.3959 0.0000 12.8877 0.0000
# 2 49.6480 60.8842 54.6109 0.0000 8.5371 0.0000
# 3 40.3959 54.6109 127.1684 0.0000 6.9828 0.0000
# 4 0.0000 0.0000 0.0000 34.6019 0.0000 9.4645
# 5 12.8877 8.5371 6.9828 0.0000 33.2928 0.0000
# 6 0.0000 0.0000 0.0000 9.4645 0.0000 22.6870
#
#
#
# Elastic Compliance Matrix: (Units=1/GPa)
#
#
# Indices 1 2 3 4 5 6 
#
# 1 0.021504 -0.017972 0.001104 0.000000 -0.003947 0.000000
# 2 -0.017972 0.042417 -0.012435 0.000000 -0.001312 0.000000
# 3 0.001104 -0.012435 0.012849 0.000000 0.000066 0.000000
# 4 0.000000 0.000000 0.000000 0.032623 0.000000 -0.013609
# 5 -0.003947 -0.001312 0.000066 0.000000 0.031887 0.000000
# 6 0.000000 0.000000 0.000000 -0.013609 0.000000 0.049755
#
#
# Mechanical properties :
#
#
# Convention : Reuss Voigt Hill
#
# Bulk Modulus (GPa) = 55.05181 62.85010 58.95095
# Shear Modulus (GPa) = 19.55451 26.89547 23.22499
#
# Velocity S-wave (km/s) = 3.18354 3.73359 3.46948
# Velocity P-wave (km/s) = 6.48429 7.15268 6.82667
#
# Compressibility (1/GPa) = 0.01816471
#
# Stress axis : x y z
#
# Youngs Moduli (GPa) = 46.50312 23.57547 77.82575
#
# Poissons Ratio (x) = 0.42369 -0.08589
# Poissons Ratio (y) = 0.83575 0.96773
# Poissons Ratio (z) = -0.05132 0.29315
#
# Static dielectric constant tensor:
#      x y z
#    x 1.676540 0.000000 0.000050 
#    y 0.000000 1.649440 0.000000 
#    z 0.000050 0.000000 1.653560 
# 
# From -- ./inp_files/353492.got.cif
#   From: 2010.05.17/outbox.cif.g08.bks.cpg/sg12_177_cif.got.tgz:353492.got - 2010.06.03 13:09:07.
