data_PCOD9196011
_publ_section_title
;
Structure prediction by ZEFSAII (Michael W. Deem and Ramdas Pophale) SiO2 
 PCOD9196011
Probable space group: C 2/M
;
_chemical_formula_sum "Si O2"
_cell_formula_units_Z 56
_cell_length_a 18.892801
_cell_length_b 8.998413
_cell_length_c 29.917667
_cell_angle_alpha 90.000000
_cell_angle_beta 37.830324
_cell_angle_gamma 90.000000
_cell_volume 3119.469740
_symmetry_space_group_name_H-M "C 2/M"
_symmetry_group_IT_number 12
_symmetry_cell_setting 'monoclinic'
loop_
_space_group_symop_operation_xyz
x,y,z
-x,y,-z
-x,-y,-z
x,-y,z
1/2+x,1/2+y,z
1/2-x,1/2+y,-z
1/2-x,1/2-y,-z
1/2+x,1/2-y,z
loop_
_atom_site_type_symbol
_atom_site_label
_atom_site_fract_x
_atom_site_fract_y
_atom_site_fract_z
Si Si1 0.865285 0.675671 0.564126
Si Si2 0.828457 0.678980 0.999266
Si Si3 0.238610 0.820900 0.142786
Si Si4 0.402927 0.179060 0.143633
Si Si5 0.336232 0.323375 0.269432
Si Si6 0.989175 0.678555 0.270998
Si Si7 0.715609 0.176196 0.563382
O O1 0.852552 0.500000 0.559590
O O2 0.790870 0.701369 0.646089
O O3 0.806422 0.771719 0.555210
O O4 0.000000 0.708679 0.500000
O O5 0.821795 0.500000 0.998848
O O6 0.962596 0.721726 0.927440
O O7 0.750000 0.750000 0.000000
O O8 0.783933 0.719926 0.070859
O O9 0.331092 0.782144 0.135000
O O10 0.116658 0.742963 0.211879
O O11 0.223704 0.000000 0.151091
O O12 0.350418 0.254372 0.213670
O O13 0.398219 0.000000 0.150820
O O14 0.357518 0.500000 0.257701
O O15 0.426297 0.248010 0.258920
O O16 0.991061 0.500000 0.265728
O O17 0.908896 0.718269 0.353630
O O18 0.750000 0.250000 0.500000
O O19 0.717152 0.000000 0.557517
#
# Coordination Sequence:
#
# PCOD9196011 Si02
#       7
#     8   8   8   8   8   8   8
#     4   9  19  36  56  78 107 142 178 220 271 321
#     4  10  21  37  57  80 107 142 181 219 263 316
#     4  10  21  37  57  81 109 142 180 221 266 317
#     4  10  21  37  56  79 110 144 177 219 269 317
#     4  10  20  35  56  80 107 141 181 222 265 320
#     4  10  21  37  56  79 108 142 180 222 268 318
#     4  10  21  36  55  79 108 142 180 222 267 318
#
# _framework density 17.951768000000001
#
# number of rings (size 3 to 8) (size 9 to 14) (size 15 to 20)
#    0.000    2.143    0.000    2.571    0.000    9.429 
#    0.000    4.286    0.000    2.571    0.000    0.000 
#    0.000    0.000    0.000    0.000    0.000    0.000 
#
# Total GULP energy -156332.910442 kJ/mol
# GULP energy per Si atom -5583.318230 kJ/mol
# Density = 1.791091 g / cm^3
# Si number density = 17.951768 Si / 1000 Ang^3
#
#
#
# Elastic Constant Matrix: (Units=GPa)
#
#
# Indices 1 2 3 4 5 6 
#
# 1 138.6173 53.7790 109.0136 0.0000 4.1083 -0.0004
# 2 53.7790 38.2854 66.3757 0.0000 3.5519 0.0001
# 3 109.0136 66.3757 161.4538 0.0000 9.9444 0.0000
# 4 0.0000 0.0000 0.0000 32.0755 0.0000 2.7835
# 5 4.1083 3.5519 9.9444 0.0000 37.9030 0.0000
# 6 -0.0004 0.0001 0.0000 2.7835 0.0000 32.5574
#
#
#
# Elastic Compliance Matrix: (Units=1/GPa)
#
#
# Indices 1 2 3 4 5 6 
#
# 1 0.017367 -0.014103 -0.005990 0.000000 0.001011 0.000000
# 2 -0.014103 0.102446 -0.032624 0.000000 0.000488 0.000000
# 3 -0.005990 -0.032624 0.023807 0.000000 -0.002540 0.000000
# 4 0.000000 0.000000 0.000000 0.031410 0.000000 -0.002685
# 5 0.001011 0.000488 -0.002540 0.000000 0.026894 0.000000
# 6 0.000000 0.000000 0.000000 -0.002685 0.000000 0.030945
#
#
# Mechanical properties :
#
#
# Convention : Reuss Voigt Hill
#
# Bulk Modulus (GPa) = 26.18893 88.52146 57.35520
# Shear Modulus (GPa) = 14.24374 27.78641 21.01507
#
# Velocity S-wave (km/s) = 2.81987 3.93852 3.42517
# Velocity P-wave (km/s) = 5.02219 8.37260 6.90372
#
# Compressibility (1/GPa) = 0.03818407
#
# Stress axis : x y z
#
# Youngs Moduli (GPa) = 57.58163 9.76124 42.00437
#
# Poissons Ratio (x) = 0.13766 0.25162
# Poissons Ratio (y) = 0.81208 1.37037
# Poissons Ratio (z) = 0.34493 0.31845
#
# Static dielectric constant tensor:
#      x y z
#    x 1.575710 0.000000 -0.002600 
#    y 0.000000 1.601170 0.000000 
#    z -0.002600 0.000000 1.612100 
# 
# From -- ./inp_files/313815.got.cif
#   From: 2010.05.17/outbox.cif.g08.bks.cpg/sg12_157_cif.got.tgz:313815.got - 2010.06.03 13:09:07.
