data_PCOD9196109
_publ_section_title
;
Structure prediction by ZEFSAII (Michael W. Deem and Ramdas Pophale) SiO2 
 PCOD9196109
Probable space group: C 2/M
;
_chemical_formula_sum "Si O2"
_cell_formula_units_Z 64
_cell_length_a 19.493841
_cell_length_b 7.595207
_cell_length_c 19.609226
_cell_angle_alpha 90.000000
_cell_angle_beta 86.219673
_cell_angle_gamma 90.000000
_cell_volume 2897.020066
_symmetry_space_group_name_H-M "C 2/M"
_symmetry_group_IT_number 12
_symmetry_cell_setting 'monoclinic'
loop_
_space_group_symop_operation_xyz
x,y,z
-x,y,-z
-x,-y,-z
x,-y,z
1/2+x,1/2+y,z
1/2-x,1/2+y,-z
1/2-x,1/2-y,-z
1/2+x,1/2-y,z
loop_
_atom_site_type_symbol
_atom_site_label
_atom_site_fract_x
_atom_site_fract_y
_atom_site_fract_z
Si Si1 0.442737 0.713559 0.870783
Si Si2 0.421397 0.702639 0.358916
Si Si3 0.707293 0.704416 0.292751
Si Si4 0.585694 0.206741 0.922055
Si Si5 0.554426 0.283497 0.284554
Si Si6 0.821753 0.806622 0.961856
Si Si7 0.783614 0.789506 0.425619
Si Si8 0.345486 0.214452 0.224588
O O1 0.440738 0.500000 0.872185
O O2 0.504534 0.769816 0.916176
O O3 0.460455 0.768328 0.792637
O O4 0.367772 0.782049 0.899589
O O5 0.431210 0.500000 0.379599
O O6 0.496499 0.781070 0.340872
O O7 0.361937 0.778928 0.411199
O O8 0.387223 0.710085 0.285812
O O9 0.699376 0.500000 0.274073
O O10 0.631141 0.779145 0.295465
O O11 0.738698 0.715798 0.366369
O O12 0.766800 0.775043 0.239314
O O13 0.622511 0.306224 0.980812
O O14 0.621302 0.263922 0.848995
O O15 0.600025 0.000000 0.932001
O O16 0.551968 0.500000 0.286963
O O17 0.805870 0.000000 0.935712
O O18 0.750000 0.750000 0.000000
O O19 0.750000 0.750000 0.500000
O O20 0.785935 0.000000 0.416029
O O21 0.347746 0.000000 0.229938
#
# Coordination Sequence:
#
# PCOD9196109 Si02
#       8
#     8   8   8   8   8   8   8   8
#     4  10  21  38  60  81 107 147 192 231 279 339
#     4   9  17  32  55  81 107 136 178 223 261 311
#     4   9  18  33  55  80 109 142 177 219 270 320
#     4  11  22  36  57  82 113 147 186 232 281 337
#     4   9  17  32  57  83 107 137 176 227 276 321
#     4  11  25  41  58  80 109 146 189 237 287 341
#     4  10  20  35  56  81 110 144 181 219 260 315
#     4   9  18  31  51  79 107 139 177 218 267 324
#
# _framework density 22.091667000000001
#
# number of rings (size 3 to 8) (size 9 to 14) (size 15 to 20)
#    0.000    2.250    1.250    1.500    1.750    3.500 
#    0.000    1.875    0.000    3.750    0.000    0.000 
#    0.000    0.000    0.000    0.000    0.000    0.000 
#
# Total GULP energy -178566.168872 kJ/mol
# GULP energy per Si atom -5580.192777 kJ/mol
# Density = 2.204139 g / cm^3
# Si number density = 22.091667 Si / 1000 Ang^3
#
#
#
# Elastic Constant Matrix: (Units=GPa)
#
#
# Indices 1 2 3 4 5 6 
#
# 1 175.6070 -1.7664 27.1061 0.0000 -34.2354 0.0000
# 2 -1.7664 51.8172 -9.2627 0.0000 -4.2490 0.0000
# 3 27.1061 -9.2627 54.1156 0.0000 -35.1081 0.0000
# 4 0.0000 0.0000 0.0000 11.9484 0.0000 1.3802
# 5 -34.2354 -4.2490 -35.1081 0.0000 39.0863 0.0000
# 6 0.0000 0.0000 0.0000 1.3802 0.0000 16.8979
#
#
#
# Elastic Compliance Matrix: (Units=1/GPa)
#
#
# Indices 1 2 3 4 5 6 
#
# 1 0.006958 0.001208 0.001823 0.000000 0.007863 0.000000
# 2 0.001208 0.023051 0.013547 0.000000 0.015732 0.000000
# 3 0.001823 0.013547 0.052426 0.000000 0.050159 0.000000
# 4 0.000000 0.000000 0.000000 0.084490 0.000000 -0.006901
# 5 0.007863 0.015732 0.050159 0.000000 0.079236 0.000000
# 6 0.000000 0.000000 0.000000 -0.006901 0.000000 0.059743
#
#
# Mechanical properties :
#
#
# Convention : Reuss Voigt Hill
#
# Bulk Modulus (GPa) = 8.65125 34.85486 21.75305
# Shear Modulus (GPa) = 16.06270 31.28405 23.67338
#
# Velocity S-wave (km/s) = 2.69939 3.76720 3.27708
# Velocity P-wave (km/s) = 3.69326 5.89355 4.91804
#
# Compressibility (1/GPa) = 0.11559026
#
# Stress axis : x y z
#
# Youngs Moduli (GPa) = 143.71318 43.38143 19.07447
#
# Poissons Ratio (x) = -0.05240 -0.03477
# Poissons Ratio (y) = -0.17358 -0.25840
# Poissons Ratio (z) = -0.26195 -0.58768
#
# Static dielectric constant tensor:
#      x y z
#    x 1.850050 0.000000 -0.044910 
#    y 0.000000 1.842460 0.000000 
#    z -0.044910 0.000000 1.769530 
# 
# From -- ./inp_files/314054.got.cif
#   From: 2010.05.17/outbox.cif.g08.bks.cpg/sg12_158_cif.got.tgz:314054.got - 2010.06.03 13:09:07.
