data_PCOD9196582
_publ_section_title
;
Structure prediction by ZEFSAII (Michael W. Deem and Ramdas Pophale) SiO2 
 PCOD9196582
Probable space group: C 2/M
;
_chemical_formula_sum "Si O2"
_cell_formula_units_Z 56
_cell_length_a 19.159094
_cell_length_b 7.601066
_cell_length_c 27.783807
_cell_angle_alpha 90.000000
_cell_angle_beta 141.490336
_cell_angle_gamma 90.000000
_cell_volume 2519.317286
_symmetry_space_group_name_H-M "C 2/M"
_symmetry_group_IT_number 12
_symmetry_cell_setting 'monoclinic'
loop_
_space_group_symop_operation_xyz
x,y,z
-x,y,-z
-x,-y,-z
x,-y,z
1/2+x,1/2+y,z
1/2-x,1/2+y,-z
1/2-x,1/2-y,-z
1/2+x,1/2-y,z
loop_
_atom_site_type_symbol
_atom_site_label
_atom_site_fract_x
_atom_site_fract_y
_atom_site_fract_z
Si Si1 0.098554 0.715244 0.016635
Si Si2 0.352114 0.709221 0.520516
Si Si3 0.625038 0.201759 0.572564
Si Si4 0.772659 0.702026 0.740043
Si Si5 0.648218 0.290272 0.837967
Si Si6 0.427650 0.284153 0.303717
Si Si7 0.475937 0.787904 0.129691
O O1 0.098086 0.500000 0.017459
O O2 0.074416 0.769595 0.948613
O O3 0.223948 0.775590 0.097203
O O4 0.000000 0.771511 0.000000
O O5 0.361820 0.500000 0.518607
O O6 0.250000 0.750000 0.500000
O O7 0.329168 0.792613 0.456486
O O8 0.466893 0.773732 0.607454
O O9 0.500000 0.278865 0.500000
O O10 0.704013 0.294328 0.653331
O O11 0.613886 0.000000 0.583130
O O12 0.791142 0.500000 0.765242
O O13 0.687863 0.776990 0.733871
O O14 0.895785 0.779286 0.799181
O O15 0.655369 0.500000 0.836270
O O16 0.573816 0.227379 0.752667
O O17 0.594473 0.258959 0.861040
O O18 0.430356 0.500000 0.306929
O O19 0.477673 0.000000 0.130142
#
# Coordination Sequence:
#
# PCOD9196582 Si02
#       7
#     8   8   8   8   8   8   8
#     4   9  17  33  59  86 111 144 189 231 268 322
#     4  11  23  39  59  83 115 152 193 239 287 342
#     4  11  23  39  59  85 114 147 191 242 290 342
#     4  10  20  37  59  81 109 148 193 236 282 336
#     4  10  20  35  57  83 114 151 184 225 280 335
#     4   9  19  36  57  80 107 145 191 231 273 334
#     4  10  21  35  55  86 116 144 183 233 279 329
#
# _framework density 22.228244
#
# number of rings (size 3 to 8) (size 9 to 14) (size 15 to 20)
#    0.000    2.000    1.429    2.143    2.000    4.571 
#    0.000    1.429    0.000    3.429    0.000    0.000 
#    0.000    0.000    0.000    0.000    0.000    0.000 
#
# Total GULP energy -156437.476605 kJ/mol
# GULP energy per Si atom -5587.052736 kJ/mol
# Density = 2.217765 g / cm^3
# Si number density = 22.228244 Si / 1000 Ang^3
#
#
#
# Elastic Constant Matrix: (Units=GPa)
#
#
# Indices 1 2 3 4 5 6 
#
# 1 129.3431 -8.6946 20.8715 0.0000 -12.5029 0.0000
# 2 -8.6946 51.2958 1.8582 0.0000 3.1543 -0.0003
# 3 20.8715 1.8582 76.8399 0.0000 -10.3222 0.0000
# 4 0.0000 0.0000 0.0000 -4.9969 0.0000 1.4545
# 5 -12.5029 3.1543 -10.3222 0.0000 44.0335 0.0000
# 6 0.0000 -0.0003 0.0000 1.4545 0.0000 23.3745
#
#
#
# Elastic Compliance Matrix: (Units=1/GPa)
#
#
# Indices 1 2 3 4 5 6 
#
# 1 0.008328 0.001376 -0.002056 0.000000 0.001784 0.000000
# 2 0.001376 0.019843 -0.001024 0.000000 -0.001271 0.000000
# 3 -0.002056 -0.001024 0.013969 0.000000 0.002764 0.000000
# 4 0.000000 0.000000 0.000000 -0.196565 0.000000 0.012231
# 5 0.001784 -0.001271 0.002764 0.000000 0.023956 0.000000
# 6 0.000000 0.000000 0.000000 0.012231 0.000000 0.042021
#
#
# Mechanical properties :
#
#
# Convention : Reuss Voigt Hill
#
# Bulk Modulus (GPa) = 25.81821 31.72768 28.77295
# Shear Modulus (GPa) = -69.31824 28.71181 -20.30322
#
# Velocity S-wave (km/s) = -5.59039 3.59790 -3.02552
# Velocity P-wave (km/s) = 5.47993 5.61822 0.87599
#
# Compressibility (1/GPa) = 0.03873236
#
# Stress axis : x y z
#
# Youngs Moduli (GPa) = 120.07563 50.39481 71.58943
#
# Poissons Ratio (x) = -0.06936 0.14717
# Poissons Ratio (y) = -0.16527 0.07334
# Poissons Ratio (z) = 0.24684 0.05163
#
# Static dielectric constant tensor:
#      x y z
#    x 1.809540 0.000000 -0.005040 
#    y 0.000000 1.879870 0.000000 
#    z -0.005040 0.000000 1.808390 
# 
# From -- ./inp_files/363211.got.cif
#   From: 2010.05.17/outbox.cif.g08.bks.cpg/sg12_182_cif.got.tgz:363211.got - 2010.06.03 13:09:07.
