data_PCOD9196004
_publ_section_title
;
Structure prediction by ZEFSAII (Michael W. Deem and Ramdas Pophale) SiO2 
 PCOD9196004
Probable space group: C 2/M
;
_chemical_formula_sum "Si O2"
_cell_formula_units_Z 40
_cell_length_a 7.348139
_cell_length_b 11.952329
_cell_length_c 16.892067
_cell_angle_alpha 90.000000
_cell_angle_beta 93.711519
_cell_angle_gamma 90.000000
_cell_volume 1480.474264
_symmetry_space_group_name_H-M "C 2/M"
_symmetry_group_IT_number 12
_symmetry_cell_setting 'monoclinic'
loop_
_space_group_symop_operation_xyz
x,y,z
-x,y,-z
-x,-y,-z
x,-y,z
1/2+x,1/2+y,z
1/2-x,1/2+y,-z
1/2-x,1/2-y,-z
1/2+x,1/2-y,z
loop_
_atom_site_type_symbol
_atom_site_label
_atom_site_fract_x
_atom_site_fract_y
_atom_site_fract_z
Si Si1 0.293498 0.879055 0.022484
Si Si2 0.769086 0.612670 0.431704
Si Si3 0.320016 0.623406 0.797685
Si Si4 0.077605 0.625298 0.247058
Si Si5 0.135091 0.847952 0.604916
O O1 0.255148 0.880636 0.114770
O O2 0.209476 0.000000 0.989826
O O3 0.500000 0.886992 0.000000
O O4 0.250000 0.750000 0.000000
O O5 0.872273 0.500000 0.417782
O O6 0.884945 0.717646 0.413185
O O7 0.570977 0.615287 0.384155
O O8 0.712206 0.613565 0.522552
O O9 0.414890 0.500000 0.788628
O O10 0.405620 0.748368 0.790900
O O11 0.137035 0.622510 0.739906
O O12 0.108102 0.500000 0.208109
O O13 0.225444 0.628315 0.321318
#
# Coordination Sequence:
#
# PCOD9196004 Si02
#       5
#     8   8   8   8   8
#     4  10  21  39  62  87 116 148 184 228 276 327
#     4  10  20  36  54  77 110 141 183 239 284 326
#     4  10  23  39  57  86 118 147 185 231 275 331
#     4  11  22  38  59  82 114 154 191 229 281 337
#     4  10  20  35  56  80 106 145 189 230 280 334
#
# _framework density 27.018367999999999
#
# number of rings (size 3 to 8) (size 9 to 14) (size 15 to 20)
#    0.000    1.800    0.000    4.800    0.000    4.400 
#    0.000   10.000    0.000    0.000    0.000    0.000 
#    0.000    0.000    0.000    0.000    0.000    0.000 
#
# Total GULP energy -111633.040604 kJ/mol
# GULP energy per Si atom -5581.652030 kJ/mol
# Density = 2.695687 g / cm^3
# Si number density = 27.018368 Si / 1000 Ang^3
#
#
#
# Elastic Constant Matrix: (Units=GPa)
#
#
# Indices 1 2 3 4 5 6 
#
# 1 86.0785 46.8198 -10.8545 0.0000 -0.1606 0.0000
# 2 46.8198 383.2863 36.7300 0.0000 -14.8786 0.0000
# 3 -10.8545 36.7300 66.2958 0.0000 -13.1717 0.0000
# 4 0.0000 0.0000 0.0000 66.4940 0.0000 21.1371
# 5 -0.1606 -14.8786 -13.1717 0.0000 28.6476 0.0000
# 6 0.0000 0.0000 0.0000 21.1371 0.0000 68.0554
#
#
#
# Elastic Compliance Matrix: (Units=1/GPa)
#
#
# Indices 1 2 3 4 5 6 
#
# 1 0.013063 -0.001889 0.003307 0.000000 0.000613 0.000000
# 2 -0.001889 0.003045 -0.001854 0.000000 0.000719 0.000000
# 3 0.003307 -0.001854 0.018120 0.000000 0.007387 0.000000
# 4 0.000000 0.000000 0.000000 0.016686 0.000000 -0.005183
# 5 0.000613 0.000719 0.007387 0.000000 0.038680 0.000000
# 6 0.000000 0.000000 0.000000 -0.005183 0.000000 0.016304
#
#
# Mechanical properties :
#
#
# Convention : Reuss Voigt Hill
#
# Bulk Modulus (GPa) = 29.97861 75.67237 52.82549
# Shear Modulus (GPa) = 42.41307 63.50375 52.95841
#
# Velocity S-wave (km/s) = 3.96635 4.85334 4.43209
# Velocity P-wave (km/s) = 5.66530 7.71201 6.76649
#
# Compressibility (1/GPa) = 0.03335712
#
# Stress axis : x y z
#
# Youngs Moduli (GPa) = 76.55332 328.37820 55.18761
#
# Poissons Ratio (x) = 0.62024 -0.18250
# Poissons Ratio (y) = 0.14459 0.10230
# Poissons Ratio (z) = -0.25316 0.60869
#
# Static dielectric constant tensor:
#      x y z
#    x 2.006390 0.000000 0.025440 
#    y 0.000000 2.245550 0.000000 
#    z 0.025440 0.000000 2.225440 
# 
# From -- ./inp_files/299062.got.cif
#   From: 2010.05.17/outbox.cif.g08.bks.cpg/sg12_150_cif.got.tgz:299062.got - 2010.06.03 13:09:07.
