data_PCOD9196907
_publ_section_title
;
Structure prediction by ZEFSAII (Michael W. Deem and Ramdas Pophale) SiO2 
 PCOD9196907
Probable space group: C 2/M
;
_chemical_formula_sum "Si O2"
_cell_formula_units_Z 64
_cell_length_a 28.976006
_cell_length_b 11.970335
_cell_length_c 14.415872
_cell_angle_alpha 90.000000
_cell_angle_beta 139.891091
_cell_angle_gamma 90.000000
_cell_volume 3221.329556
_symmetry_space_group_name_H-M "C 2/M"
_symmetry_group_IT_number 12
_symmetry_cell_setting 'monoclinic'
loop_
_space_group_symop_operation_xyz
x,y,z
-x,y,-z
-x,-y,-z
x,-y,z
1/2+x,1/2+y,z
1/2-x,1/2+y,-z
1/2-x,1/2-y,-z
1/2+x,1/2-y,z
loop_
_atom_site_type_symbol
_atom_site_label
_atom_site_fract_x
_atom_site_fract_y
_atom_site_fract_z
Si Si1 0.168851 0.870608 0.080885
Si Si2 0.790894 0.626950 0.575168
Si Si3 0.996468 0.367929 0.601533
Si Si4 0.993199 0.869337 0.095319
Si Si5 0.254378 0.315549 0.307181
Si Si6 0.101174 0.734171 0.391000
Si Si7 0.211020 0.882536 0.842149
Si Si8 0.348894 0.214151 0.125307
O O1 0.224351 0.806854 0.233374
O O2 0.187837 0.000000 0.097329
O O3 0.163892 0.804255 0.976294
O O4 0.089581 0.863078 0.002327
O O5 0.760901 0.500000 0.507690
O O6 0.750000 0.750000 0.500000
O O7 0.798095 0.630524 0.697783
O O8 0.860295 0.644372 0.617568
O O9 0.983780 0.500000 0.579731
O O10 0.074494 0.341529 0.763829
O O11 0.000000 0.328060 0.500000
O O12 0.937592 0.314279 0.578000
O O13 0.043808 0.801341 0.241996
O O14 0.014801 0.000000 0.131045
O O15 0.000000 0.829508 0.000000
O O16 0.333273 0.310393 0.472518
O O17 0.262490 0.376093 0.222094
O O18 0.161128 0.780119 0.793983
O O19 0.174341 0.000000 0.804248
O O20 0.282804 0.869839 0.013541
#
# Coordination Sequence:
#
# PCOD9196907 Si02
#       8
#     8   8   8   8   8   8   8   8
#     4  10  20  37  61  89 123 165 215 263 313 378
#     4  10  22  39  61  89 126 167 211 263 320 382
#     4  11  23  39  60  86 123 165 210 262 325 394
#     4  10  21  38  63  92 126 170 218 264 319 388
#     4  10  22  37  61  92 127 161 208 265 319 383
#     4  11  22  40  63  92 130 164 215 264 329 384
#     4  10  20  35  58  83 115 156 202 251 312 381
#     4  10  20  37  57  84 117 158 206 259 313 374
#
# _framework density 19.867571999999999
#
# number of rings (size 3 to 8) (size 9 to 14) (size 15 to 20)
#    0.000    1.750    1.250    3.000    0.000    5.000 
#    0.000    4.375    0.000    3.375    0.000    0.000 
#    0.000    0.000    0.000    0.000    0.000    0.000 
#
# Total GULP energy -178347.488939 kJ/mol
# GULP energy per Si atom -5573.359029 kJ/mol
# Density = 1.982235 g / cm^3
# Si number density = 19.867572 Si / 1000 Ang^3
#
#
#
# Elastic Constant Matrix: (Units=GPa)
#
#
# Indices 1 2 3 4 5 6 
#
# 1 132.5665 20.4782 13.6636 0.0000 -15.3947 0.0000
# 2 20.4782 88.6165 17.0438 0.0000 -10.3349 0.0000
# 3 13.6636 17.0438 48.0493 0.0000 -0.8496 0.0000
# 4 0.0000 0.0000 0.0000 20.4224 0.0000 1.2551
# 5 -15.3947 -10.3349 -0.8496 0.0000 29.7876 0.0000
# 6 0.0000 0.0000 0.0000 1.2551 0.0000 20.3019
#
#
#
# Elastic Compliance Matrix: (Units=1/GPa)
#
#
# Indices 1 2 3 4 5 6 
#
# 1 0.008363 -0.001112 -0.001915 0.000000 0.003882 0.000000
# 2 -0.001112 0.012776 -0.004150 0.000000 0.003740 0.000000
# 3 -0.001915 -0.004150 0.022797 0.000000 -0.001779 0.000000
# 4 0.000000 0.000000 0.000000 0.049153 0.000000 -0.003039
# 5 0.003882 0.003740 -0.001779 0.000000 0.036824 0.000000
# 6 0.000000 0.000000 0.000000 -0.003039 0.000000 0.049444
#
#
# Mechanical properties :
#
#
# Convention : Reuss Voigt Hill
#
# Bulk Modulus (GPa) = 33.80290 41.28929 37.54609
# Shear Modulus (GPa) = 24.56147 28.63883 26.60015
#
# Velocity S-wave (km/s) = 3.51986 3.80081 3.66303
# Velocity P-wave (km/s) = 5.79399 6.33158 6.06874
#
# Compressibility (1/GPa) = 0.02958326
#
# Stress axis : x y z
#
# Youngs Moduli (GPa) = 119.56980 78.27376 43.86536
#
# Poissons Ratio (x) = 0.08700 0.08402
# Poissons Ratio (y) = 0.13291 0.18202
# Poissons Ratio (z) = 0.22902 0.32480
#
# Static dielectric constant tensor:
#      x y z
#    x 1.735670 0.000000 -0.026020 
#    y 0.000000 1.731650 0.000000 
#    z -0.026020 0.000000 1.679730 
# 
# From -- ./inp_files/245956.got.cif
#   From: 2010.05.17/outbox.cif.g08.bks.cpg/sg12_123_cif.got.tgz:245956.got - 2010.06.03 13:09:07.
