data_PCOD9196629
_publ_section_title
;
Structure prediction by ZEFSAII (Michael W. Deem and Ramdas Pophale) SiO2 
 PCOD9196629
Probable space group: C 2/M
;
_chemical_formula_sum "Si O2"
_cell_formula_units_Z 50
_cell_length_a 16.577816
_cell_length_b 17.491736
_cell_length_c 10.156946
_cell_angle_alpha 90.000000
_cell_angle_beta 111.925330
_cell_angle_gamma 90.000000
_cell_volume 2732.231402
_symmetry_space_group_name_H-M "C 2/M"
_symmetry_group_IT_number 12
_symmetry_cell_setting 'monoclinic'
loop_
_space_group_symop_operation_xyz
x,y,z
-x,y,-z
-x,-y,-z
x,-y,z
1/2+x,1/2+y,z
1/2-x,1/2+y,-z
1/2-x,1/2-y,-z
1/2+x,1/2-y,z
loop_
_atom_site_type_symbol
_atom_site_label
_atom_site_fract_x
_atom_site_fract_y
_atom_site_fract_z
Si Si1 0.892744 0.734501 0.624978
Si Si2 0.159750 0.666450 0.873058
Si Si3 0.500000 0.000000 0.000000
Si Si4 0.008109 0.582386 0.279871
Si Si5 0.454960 0.302672 0.111805
Si Si6 0.192137 0.909352 0.865399
Si Si7 0.781622 0.780165 0.314546
O O1 0.927552 0.648167 0.636188
O O2 0.858366 0.764846 0.465226
O O3 0.809792 0.733211 0.670594
O O4 0.970682 0.783356 0.735817
O O5 0.105565 0.726537 0.929574
O O6 0.208113 0.720605 0.798678
O O7 0.089209 0.613250 0.759018
O O8 0.226064 0.615030 0.994569
O O9 0.513377 0.065315 0.125272
O O10 0.023907 0.500000 0.352653
O O11 0.393453 0.371409 0.122055
O O12 0.500000 0.316775 0.000000
O O13 0.208756 0.864575 0.739432
O O14 0.186686 0.000000 0.848944
#
# Coordination Sequence:
#
# PCOD9196629 Si02
#       7
#     8   8   2   8   8   8   8
#     4  10  21  37  60  78 112 148 188 222 267 331
#     4  10  20  35  57  84 113 141 182 228 276 328
#     4   8  20  32  52  94 116 136 174 220 284 330
#     4   9  20  32  56  88 111 142 171 224 280 325
#     4  10  20  35  58  84 109 147 185 225 269 325
#     4  11  23  36  57  84 110 144 185 233 275 319
#     4  10  22  39  56  82 109 148 187 227 274 325
#
# _framework density 18.300060999999999
#
# number of rings (size 3 to 8) (size 9 to 14) (size 15 to 20)
#    0.480    1.600    0.000    4.320    6.720    6.720 
#    0.000    4.000    0.000    4.800    0.000    0.000 
#    0.000    0.000    0.000    0.000    0.000    0.000 
#
# Total GULP energy -139282.150381 kJ/mol
# GULP energy per Si atom -5571.286015 kJ/mol
# Density = 1.825841 g / cm^3
# Si number density = 18.300061 Si / 1000 Ang^3
#
#
#
# Elastic Constant Matrix: (Units=GPa)
#
#
# Indices 1 2 3 4 5 6 
#
# 1 59.5021 23.8185 24.9794 0.0000 14.5291 0.0000
# 2 23.8185 115.5172 35.9977 0.0000 9.8359 0.0000
# 3 24.9794 35.9977 58.8440 0.0000 8.5883 0.0000
# 4 0.0000 0.0000 0.0000 14.2841 0.0000 -3.6036
# 5 14.5291 9.8359 8.5883 0.0000 27.5642 0.0000
# 6 0.0000 0.0000 0.0000 -3.6036 0.0000 9.5281
#
#
#
# Elastic Compliance Matrix: (Units=1/GPa)
#
#
# Indices 1 2 3 4 5 6 
#
# 1 0.022768 -0.001631 -0.007334 0.000000 -0.009134 0.000000
# 2 -0.001631 0.010905 -0.005800 0.000000 -0.001224 0.000000
# 3 -0.007334 -0.005800 0.023875 0.000000 -0.001503 0.000000
# 4 0.000000 0.000000 0.000000 0.077393 0.000000 0.029271
# 5 -0.009134 -0.001224 -0.001503 0.000000 0.041999 0.000000
# 6 0.000000 0.000000 0.000000 0.029271 0.000000 0.116023
#
#
# Mechanical properties :
#
#
# Convention : Reuss Voigt Hill
#
# Bulk Modulus (GPa) = 35.69210 44.82829 40.26020
# Shear Modulus (GPa) = 15.06785 20.21312 17.64049
#
# Velocity S-wave (km/s) = 2.87257 3.32707 3.10814
# Velocity P-wave (km/s) = 5.52706 6.26966 5.91003
#
# Compressibility (1/GPa) = 0.02801741
#
# Stress axis : x y z
#
# Youngs Moduli (GPa) = 43.92048 91.70395 41.88513
#
# Poissons Ratio (x) = 0.14961 0.30719
# Poissons Ratio (y) = 0.07165 0.24292
# Poissons Ratio (z) = 0.32212 0.53185
#
# Static dielectric constant tensor:
#      x y z
#    x 1.649870 0.000000 -0.007050 
#    y 0.000000 1.614090 0.000000 
#    z -0.007050 0.000000 1.643290 
# 
# From -- ./inp_files/75366.got.cif
#   From: 2010.05.17/outbox.cif.g08.bks.cpg/sg12_38_cif.got.tgz:75366.got - 2010.06.03 13:09:07.
