data_PCOD9196653
_publ_section_title
;
Structure prediction by ZEFSAII (Michael W. Deem and Ramdas Pophale) SiO2 
 PCOD9196653
Probable space group: C 2/M
;
_chemical_formula_sum "Si O2"
_cell_formula_units_Z 48
_cell_length_a 11.343211
_cell_length_b 15.274318
_cell_length_c 14.380907
_cell_angle_alpha 90.000000
_cell_angle_beta 104.579350
_cell_angle_gamma 90.000000
_cell_volume 2411.402543
_symmetry_space_group_name_H-M "C 2/M"
_symmetry_group_IT_number 12
_symmetry_cell_setting 'monoclinic'
loop_
_space_group_symop_operation_xyz
x,y,z
-x,y,-z
-x,-y,-z
x,-y,z
1/2+x,1/2+y,z
1/2-x,1/2+y,-z
1/2-x,1/2-y,-z
1/2+x,1/2-y,z
loop_
_atom_site_type_symbol
_atom_site_label
_atom_site_fract_x
_atom_site_fract_y
_atom_site_fract_z
Si Si1 0.318884 0.158396 0.028083
Si Si2 0.959091 0.893895 0.716445
Si Si3 0.094032 0.100663 0.091606
Si Si4 0.071150 0.395744 0.144593
Si Si5 0.131194 0.190939 0.490483
Si Si6 0.287660 0.396062 0.306230
O O1 0.224488 0.103193 0.070050
O O2 0.447534 0.158152 0.106957
O O3 0.250000 0.250000 0.000000
O O4 0.350817 0.116956 0.934395
O O5 0.101432 0.867755 0.738288
O O6 0.906637 0.862649 0.804567
O O7 0.895476 0.855294 0.612773
O O8 0.950771 0.000000 0.708093
O O9 0.052781 0.000000 0.095714
O O10 0.000000 0.143496 0.000000
O O11 0.042218 0.500000 0.147545
O O12 0.156854 0.363590 0.245522
O O13 0.250000 0.250000 0.500000
O O14 0.171071 0.127095 0.582109
O O15 0.000000 0.229982 0.500000
O O16 0.279562 0.500000 0.295836
#
# Coordination Sequence:
#
# PCOD9196653 Si02
#       6
#     8   8   8   8   8   8
#     4  11  23  36  55  82 119 154 194 239 300 355
#     4   9  18  35  62  89 112 147 197 248 287 343
#     4  10  20  35  57  84 115 149 191 240 293 350
#     4  10  21  41  62  82 113 160 207 246 291 359
#     4  10  21  39  59  87 121 157 192 240 305 360
#     4   9  18  37  64  87 107 147 203 245 285 348
#
# _framework density 19.905428000000001
#
# number of rings (size 3 to 8) (size 9 to 14) (size 15 to 20)
#    0.000    2.167    0.000    3.500    2.333    6.000 
#    9.000    0.000    0.000    1.000    0.000    0.000 
#    0.000    0.000    0.000    0.000    0.000    0.000 
#
# Total GULP energy -133854.424606 kJ/mol
# GULP energy per Si atom -5577.267692 kJ/mol
# Density = 1.986012 g / cm^3
# Si number density = 19.905428 Si / 1000 Ang^3
#
#
#
# Elastic Constant Matrix: (Units=GPa)
#
#
# Indices 1 2 3 4 5 6 
#
# 1 128.2225 23.1627 77.9442 0.0000 13.7987 0.0000
# 2 23.1627 46.6736 12.7217 0.0000 11.9115 0.0000
# 3 77.9442 12.7217 129.4768 0.0000 14.8032 0.0000
# 4 0.0000 0.0000 0.0000 8.7337 0.0000 16.5942
# 5 13.7987 11.9115 14.8032 0.0000 40.9435 0.0000
# 6 0.0000 0.0000 0.0000 16.5942 0.0000 15.1280
#
#
#
# Elastic Compliance Matrix: (Units=1/GPa)
#
#
# Indices 1 2 3 4 5 6 
#
# 1 0.013165 -0.004385 -0.007440 0.000000 -0.000471 0.000000
# 2 -0.004385 0.024914 0.000888 0.000000 -0.006091 0.000000
# 3 -0.007440 0.000888 0.012369 0.000000 -0.002223 0.000000
# 4 0.000000 0.000000 0.000000 -0.105610 0.000000 0.115846
# 5 -0.000471 -0.006091 -0.002223 0.000000 0.027159 0.000000
# 6 0.000000 0.000000 0.000000 0.115846 0.000000 -0.060971
#
#
# Mechanical properties :
#
#
# Convention : Reuss Voigt Hill
#
# Bulk Modulus (GPa) = 34.99709 59.11445 47.05577
# Shear Modulus (GPa) = -86.84178 25.66399 -30.58890
#
# Velocity S-wave (km/s) = -6.61225 3.59457 -3.92434
# Velocity P-wave (km/s) = 6.37777 6.85493 1.77680
#
# Compressibility (1/GPa) = 0.02857380
#
# Stress axis : x y z
#
# Youngs Moduli (GPa) = 75.96142 40.13803 80.84539
#
# Poissons Ratio (x) = 0.17601 0.60151
# Poissons Ratio (y) = 0.33309 -0.07181
# Poissons Ratio (z) = 0.56518 -0.03565
#
# Static dielectric constant tensor:
#      x y z
#    x 1.711250 0.000000 0.009140 
#    y 0.000000 1.741230 0.000000 
#    z 0.009140 0.000000 1.743380 
# 
# From -- ./inp_files/204556.got.cif
#   From: 2010.05.17/outbox.cif.g08.bks.cpg/sg12_103_cif.got.tgz:204556.got - 2010.06.03 13:09:07.
