data_PCOD9196945
_publ_section_title
;
Structure prediction by ZEFSAII (Michael W. Deem and Ramdas Pophale) SiO2 
 PCOD9196945
Probable space group: C 2/M
;
_chemical_formula_sum "Si O2"
_cell_formula_units_Z 64
_cell_length_a 20.962271
_cell_length_b 8.019510
_cell_length_c 19.039642
_cell_angle_alpha 90.000000
_cell_angle_beta 96.264112
_cell_angle_gamma 90.000000
_cell_volume 3181.590002
_symmetry_space_group_name_H-M "C 2/M"
_symmetry_group_IT_number 12
_symmetry_cell_setting 'monoclinic'
loop_
_space_group_symop_operation_xyz
x,y,z
-x,y,-z
-x,-y,-z
x,-y,z
1/2+x,1/2+y,z
1/2-x,1/2+y,-z
1/2-x,1/2-y,-z
1/2+x,1/2-y,z
loop_
_atom_site_type_symbol
_atom_site_label
_atom_site_fract_x
_atom_site_fract_y
_atom_site_fract_z
Si Si1 0.987636 0.304643 0.798473
Si Si2 0.139148 0.298148 0.591246
Si Si3 0.994922 0.295881 0.357374
Si Si4 0.948859 0.800973 0.050783
Si Si5 0.183640 0.201016 0.027166
Si Si6 0.633404 0.203556 0.431627
Si Si7 0.768832 0.301513 0.678005
Si Si8 0.654219 0.696484 0.180858
O O1 0.001834 0.500000 0.799491
O O2 0.911919 0.280227 0.802630
O O3 0.004664 0.237718 0.723351
O O4 0.026334 0.230296 0.868175
O O5 0.139489 0.500000 0.591366
O O6 0.069283 0.243721 0.610168
O O7 0.149798 0.241127 0.512319
O O8 0.196531 0.238596 0.647467
O O9 0.995586 0.500000 0.357214
O O10 0.061411 0.244509 0.401910
O O11 0.946720 0.000000 0.040592
O O12 0.878013 0.737094 0.024063
O O13 0.000000 0.733669 0.000000
O O14 0.175734 0.258374 0.106830
O O15 0.182045 0.000000 0.028285
O O16 0.250000 0.250000 0.000000
O O17 0.684073 0.259107 0.378975
O O18 0.634288 0.000000 0.431707
O O19 0.776915 0.500000 0.684858
O O20 0.792221 0.224426 0.753768
O O21 0.640129 0.500000 0.173116
#
# Coordination Sequence:
#
# PCOD9196945 Si02
#       8
#     8   8   8   8   8   8   8   8
#     4  11  21  35  59  90 118 146 189 243 289 330
#     4  10  20  35  58  84 113 152 195 236 287 347
#     4   9  18  34  56  84 115 147 190 240 285 334
#     4  10  20  39  61  83 115 152 191 231 278 336
#     4  10  23  41  62  87 118 153 188 235 285 338
#     4   9  17  33  58  84 110 149 196 240 284 337
#     4  11  22  37  57  84 119 151 189 241 290 337
#     4  11  22  40  62  84 113 153 195 232 280 345
#
# _framework density 20.115728000000001
#
# number of rings (size 3 to 8) (size 9 to 14) (size 15 to 20)
#    0.000    1.875    2.500    1.875    0.000    4.250 
#    0.000    5.625    0.000    0.750    0.000    0.000 
#    0.000    0.000    0.000    0.000    0.000    0.000 
#
# Total GULP energy -178773.489760 kJ/mol
# GULP energy per Si atom -5586.671555 kJ/mol
# Density = 2.006994 g / cm^3
# Si number density = 20.115728 Si / 1000 Ang^3
#
#
#
# Elastic Constant Matrix: (Units=GPa)
#
#
# Indices 1 2 3 4 5 6 
#
# 1 78.3777 -3.8156 1.5783 0.0000 16.2693 0.0000
# 2 -3.8156 12.7985 -4.5956 0.0000 -3.7697 0.0000
# 3 1.5783 -4.5956 82.6340 0.0000 19.2543 0.0000
# 4 0.0000 0.0000 0.0000 2.9396 0.0000 8.9008
# 5 16.2693 -3.7697 19.2543 0.0000 33.5950 0.0000
# 6 0.0000 0.0000 0.0000 8.9008 0.0000 22.8585
#
#
#
# Elastic Compliance Matrix: (Units=1/GPa)
#
#
# Indices 1 2 3 4 5 6 
#
# 1 0.014441 0.002647 0.001652 0.000000 -0.007643 0.000000
# 2 0.002647 0.081834 0.003070 0.000000 0.006142 0.000000
# 3 0.001652 0.003070 0.014250 0.000000 -0.008623 0.000000
# 4 0.000000 0.000000 0.000000 -1.900248 0.000000 0.739931
# 5 -0.007643 0.006142 -0.008623 0.000000 0.039099 0.000000
# 6 0.000000 0.000000 0.000000 0.739931 0.000000 -0.244372
#
#
# Mechanical properties :
#
#
# Convention : Reuss Voigt Hill
#
# Bulk Modulus (GPa) = 7.98319 17.79384 12.88851
# Shear Modulus (GPa) = -2.54068 23.92150 10.69041
#
# Velocity S-wave (km/s) = -1.12507 3.45221 2.30781
# Velocity P-wave (km/s) = 1.51313 4.97547 3.67728
#
# Compressibility (1/GPa) = 0.12526328
#
# Stress axis : x y z
#
# Youngs Moduli (GPa) = 69.24773 12.21981 70.17602
#
# Poissons Ratio (x) = -0.03235 -0.11596
# Poissons Ratio (y) = -0.18331 -0.21541
# Poissons Ratio (z) = -0.11442 -0.03751
#
# Static dielectric constant tensor:
#      x y z
#    x 1.677050 0.000000 -0.003470 
#    y 0.000000 1.731960 0.000000 
#    z -0.003470 0.000000 1.697880 
# 
# From -- ./inp_files/281358.got.cif
#   From: 2010.05.17/outbox.cif.g08.bks.cpg/sg12_141_cif.got.tgz:281358.got - 2010.06.03 13:09:07.
