data_PCOD9196248
_publ_section_title
;
Structure prediction by ZEFSAII (Michael W. Deem and Ramdas Pophale) SiO2 
 PCOD9196248
Probable space group: C 2/M
;
_chemical_formula_sum "Si O2"
_cell_formula_units_Z 56
_cell_length_a 18.343740
_cell_length_b 8.553093
_cell_length_c 23.085363
_cell_angle_alpha 90.000000
_cell_angle_beta 126.595140
_cell_angle_gamma 90.000000
_cell_volume 2907.983659
_symmetry_space_group_name_H-M "C 2/M"
_symmetry_group_IT_number 12
_symmetry_cell_setting 'monoclinic'
loop_
_space_group_symop_operation_xyz
x,y,z
-x,y,-z
-x,-y,-z
x,-y,z
1/2+x,1/2+y,z
1/2-x,1/2+y,-z
1/2-x,1/2-y,-z
1/2+x,1/2-y,z
loop_
_atom_site_type_symbol
_atom_site_label
_atom_site_fract_x
_atom_site_fract_y
_atom_site_fract_z
Si Si1 0.597903 0.187577 0.571600
Si Si2 0.168095 0.189105 0.000333
Si Si3 0.239063 0.686150 0.429946
Si Si4 0.475795 0.690591 0.856443
Si Si5 0.881327 0.812403 0.288713
Si Si6 0.051205 0.189239 0.289197
Si Si7 0.804962 0.810581 0.853614
O O1 0.500000 0.236016 0.500000
O O2 0.678117 0.254782 0.570219
O O3 0.608546 0.244523 0.642294
O O4 0.602982 0.000000 0.572590
O O5 0.071285 0.241960 0.928914
O O6 0.168752 0.000000 0.999353
O O7 0.250000 0.250000 0.000000
O O8 0.180569 0.237605 0.072947
O O9 0.239428 0.500000 0.431657
O O10 0.250000 0.750000 0.500000
O O11 0.144713 0.745358 0.358345
O O12 0.476542 0.500000 0.857158
O O13 0.464561 0.739999 0.784571
O O14 0.390320 0.739587 0.854806
O O15 0.788149 0.755093 0.215926
O O16 0.966583 0.763746 0.289306
O O17 0.880837 0.000000 0.291626
O O18 0.056228 0.000000 0.292051
O O19 0.801157 0.000000 0.850146
#
# Coordination Sequence:
#
# PCOD9196248 Si02
#       7
#     8   8   8   8   8   8   8
#     4  11  24  42  64  89 118 154 196 241 290 345
#     4  10  20  35  56  83 113 148 192 240 292 350
#     4  12  25  41  63  90 121 155 194 241 291 346
#     4   9  18  35  58  82 111 150 194 238 286 345
#     4  11  23  38  59  88 121 156 194 239 290 346
#     4  10  21  38  60  85 117 157 197 239 291 350
#     4  10  20  35  58  84 112 151 198 244 290 347
#
# _framework density 19.25733
#
# number of rings (size 3 to 8) (size 9 to 14) (size 15 to 20)
#    0.000    1.571    0.000    5.143    0.000    9.143 
#    0.000    1.429    0.000    1.714    0.000    0.000 
#    0.000    0.000    0.000    0.000    0.000    0.000 
#
# Total GULP energy -156583.172974 kJ/mol
# GULP energy per Si atom -5592.256178 kJ/mol
# Density = 1.921350 g / cm^3
# Si number density = 19.257330 Si / 1000 Ang^3
#
#
#
# Elastic Constant Matrix: (Units=GPa)
#
#
# Indices 1 2 3 4 5 6 
#
# 1 237.0450 47.6422 145.1255 0.0000 0.9655 0.0000
# 2 47.6422 33.0095 46.7033 0.0000 0.5301 0.0000
# 3 145.1255 46.7033 239.3619 0.0000 1.2864 0.0000
# 4 0.0000 0.0000 0.0000 21.2630 0.0000 1.6122
# 5 0.9655 0.5301 1.2864 0.0000 46.5543 0.0000
# 6 0.0000 0.0000 0.0000 1.6122 0.0000 28.6415
#
#
#
# Elastic Compliance Matrix: (Units=1/GPa)
#
#
# Indices 1 2 3 4 5 6 
#
# 1 0.007495 -0.006061 -0.003361 0.000000 0.000006 0.000000
# 2 -0.006061 0.046751 -0.005446 0.000000 -0.000256 0.000000
# 3 -0.003361 -0.005446 0.007279 0.000000 -0.000069 0.000000
# 4 0.000000 0.000000 0.000000 0.047232 0.000000 -0.002659
# 5 0.000006 -0.000256 -0.000069 0.000000 0.021485 0.000000
# 6 0.000000 0.000000 0.000000 -0.002659 0.000000 0.035064
#
#
# Mechanical properties :
#
#
# Convention : Reuss Voigt Hill
#
# Bulk Modulus (GPa) = 31.45829 109.81760 70.63795
# Shear Modulus (GPa) = 24.31455 37.28811 30.80133
#
# Velocity S-wave (km/s) = 3.55718 4.40512 4.00366
# Velocity P-wave (km/s) = 5.76564 9.11173 7.62451
#
# Compressibility (1/GPa) = 0.03178812
#
# Stress axis : x y z
#
# Youngs Moduli (GPa) = 133.42601 21.38980 137.38626
#
# Poissons Ratio (x) = 0.12965 0.46182
# Poissons Ratio (y) = 0.80873 0.74815
# Poissons Ratio (z) = 0.44851 0.11648
#
# Static dielectric constant tensor:
#      x y z
#    x 1.639140 0.000000 -0.004840 
#    y 0.000000 1.660710 0.000000 
#    z -0.004840 0.000000 1.634830 
# 
# From -- ./inp_files/342495.got.cif
#   From: 2010.05.17/outbox.cif.g08.bks.cpg/sg12_172_cif.got.tgz:342495.got - 2010.06.03 13:09:07.
