data_PCOD9196120
_publ_section_title
;
Structure prediction by ZEFSAII (Michael W. Deem and Ramdas Pophale) SiO2 
 PCOD9196120
Probable space group: C 2/M
;
_chemical_formula_sum "Si O2"
_cell_formula_units_Z 44
_cell_length_a 15.993091
_cell_length_b 7.623329
_cell_length_c 16.641997
_cell_angle_alpha 90.000000
_cell_angle_beta 58.426077
_cell_angle_gamma 90.000000
_cell_volume 1728.639495
_symmetry_space_group_name_H-M "C 2/M"
_symmetry_group_IT_number 12
_symmetry_cell_setting 'monoclinic'
loop_
_space_group_symop_operation_xyz
x,y,z
-x,y,-z
-x,-y,-z
x,-y,z
1/2+x,1/2+y,z
1/2-x,1/2+y,-z
1/2-x,1/2-y,-z
1/2+x,1/2-y,z
loop_
_atom_site_type_symbol
_atom_site_label
_atom_site_fract_x
_atom_site_fract_y
_atom_site_fract_z
Si Si1 0.764901 0.000000 0.418306
Si Si2 0.617022 0.304927 0.508139
Si Si3 0.485468 0.793910 0.176728
Si Si4 0.070453 0.788186 0.307262
Si Si5 0.665924 0.300363 0.978490
Si Si6 0.287702 0.801567 0.218281
O O1 0.685166 0.156795 0.436880
O O2 0.836252 0.149539 0.427297
O O3 0.617628 0.500000 0.467790
O O4 0.507197 0.245386 0.584614
O O5 0.530585 0.775531 0.241828
O O6 0.561857 0.716102 0.074803
O O7 0.376078 0.713755 0.223482
O O8 0.477752 0.000000 0.161819
O O9 0.180071 0.721706 0.266662
O O10 0.074519 0.000000 0.298180
O O11 0.682311 0.500000 0.945998
O O12 0.750000 0.250000 0.000000
O O13 0.674248 0.192802 0.892774
O O14 0.276242 0.000000 0.255174
#
# Coordination Sequence:
#
# PCOD9196120 Si02
#       6
#     4   8   8   8   8   8
#     4   8  14  28  50  82 110 138 182 218 266 328
#     4   8  15  28  50  80 112 139 179 225 265 324
#     4  11  23  37  55  81 110 144 184 227 275 326
#     4  10  20  35  56  81 110 148 182 224 274 320
#     4  12  23  37  57  77 103 144 189 231 276 323
#     4  10  22  39  56  78 111 145 182 228 275 323
#
# _framework density 25.453541999999999
#
# number of rings (size 3 to 8) (size 9 to 14) (size 15 to 20)
#    0.545    1.455    1.818    2.727    1.273    3.636 
#    0.000    0.000    0.000    0.000    0.000    7.636 
#    0.000    0.000    0.000    0.000    0.000    0.000 
#
# Total GULP energy -122612.186512 kJ/mol
# GULP energy per Si atom -5573.281205 kJ/mol
# Density = 2.539561 g / cm^3
# Si number density = 25.453542 Si / 1000 Ang^3
#
#
#
# Elastic Constant Matrix: (Units=GPa)
#
#
# Indices 1 2 3 4 5 6 
#
# 1 187.5881 9.2472 79.2409 0.0000 -32.7028 0.0001
# 2 9.2472 91.0375 -2.1541 0.0000 -7.6497 0.0002
# 3 79.2409 -2.1541 121.3866 0.0000 -16.0517 0.0000
# 4 0.0000 0.0000 0.0000 10.7935 0.0000 -10.4315
# 5 -32.7028 -7.6497 -16.0517 0.0000 57.9505 0.0000
# 6 0.0001 0.0002 0.0000 -10.4315 0.0000 20.9690
#
#
#
# Elastic Compliance Matrix: (Units=1/GPa)
#
#
# Indices 1 2 3 4 5 6 
#
# 1 0.007912 -0.000660 -0.004773 0.000000 0.003056 0.000000
# 2 -0.000660 0.011182 0.000805 0.000000 0.001327 0.000000
# 3 -0.004773 0.000805 0.011445 0.000000 0.000583 0.000000
# 4 0.000000 0.000000 0.000000 0.178441 0.000000 0.088770
# 5 0.003056 0.001327 0.000583 0.000000 0.019317 0.000000
# 6 0.000000 0.000000 0.000000 0.088770 0.000000 0.091850
#
#
# Mechanical properties :
#
#
# Convention : Reuss Voigt Hill
#
# Bulk Modulus (GPa) = 46.98473 63.63113 55.30793
# Shear Modulus (GPa) = 14.85895 38.85449 26.85672
#
# Velocity S-wave (km/s) = 2.41875 3.91127 3.25180
# Velocity P-wave (km/s) = 5.12831 6.74170 5.98958
#
# Compressibility (1/GPa) = 0.02128351
#
# Stress axis : x y z
#
# Youngs Moduli (GPa) = 126.38768 89.42930 87.37373
#
# Poissons Ratio (x) = 0.05901 0.41700
# Poissons Ratio (y) = 0.08339 -0.07030
# Poissons Ratio (z) = 0.60320 -0.07195
#
# Static dielectric constant tensor:
#      x y z
#    x 2.102430 0.000000 0.026600 
#    y 0.000000 1.991020 0.000000 
#    z 0.026600 0.000000 2.039230 
# 
# From -- ./inp_files/267177.got.cif
#   From: 2010.05.17/outbox.cif.g08.bks.cpg/sg12_134_cif.got.tgz:267177.got - 2010.06.03 13:09:07.
