data_PCOD9196722
_publ_section_title
;
Structure prediction by ZEFSAII (Michael W. Deem and Ramdas Pophale) SiO2 
 PCOD9196722
Probable space group: C 2/M
;
_chemical_formula_sum "Si O2"
_cell_formula_units_Z 48
_cell_length_a 5.007827
_cell_length_b 26.406180
_cell_length_c 15.903787
_cell_angle_alpha 90.000000
_cell_angle_beta 109.534265
_cell_angle_gamma 90.000000
_cell_volume 1982.028698
_symmetry_space_group_name_H-M "C 2/M"
_symmetry_group_IT_number 12
_symmetry_cell_setting 'monoclinic'
loop_
_space_group_symop_operation_xyz
x,y,z
-x,y,-z
-x,-y,-z
x,-y,z
1/2+x,1/2+y,z
1/2-x,1/2+y,-z
1/2-x,1/2-y,-z
1/2+x,1/2-y,z
loop_
_atom_site_type_symbol
_atom_site_label
_atom_site_fract_x
_atom_site_fract_y
_atom_site_fract_z
Si Si1 0.366510 0.561207 0.786817
Si Si2 0.203324 0.282177 0.723183
Si Si3 0.523913 0.061885 0.099792
Si Si4 0.813717 0.214102 0.912161
Si Si5 0.567445 0.943733 0.407014
Si Si6 0.793323 0.659898 0.557308
O O1 0.381721 0.500000 0.790294
O O2 0.685690 0.580243 0.826648
O O3 0.215846 0.575779 0.858473
O O4 0.193656 0.570636 0.682449
O O5 0.513068 0.268108 0.721634
O O6 0.253532 0.310107 0.816551
O O7 0.990999 0.312121 0.643102
O O8 0.525221 0.000000 0.096331
O O9 0.500000 0.079110 0.000000
O O10 0.520128 0.237561 0.913504
O O11 0.000000 0.184687 0.000000
O O12 0.500000 0.946941 0.500000
O O13 0.775910 0.896520 0.416809
O O14 0.671051 0.000000 0.392578
O O15 0.500000 0.685954 0.500000
O O16 0.000000 0.655245 0.500000
#
# Coordination Sequence:
#
# PCOD9196722 Si02
#       6
#     8   8   8   8   8   8
#     4   9  17  29  48  73  98 130 172 218 272 326
#     4  10  20  35  57  85 117 151 183 223 276 332
#     4   9  16  27  45  71 101 131 168 214 264 326
#     4   8  14  26  47  76 107 140 179 219 263 318
#     4   9  20  39  60  82 110 146 193 248 297 338
#     4  11  24  39  57  83 112 148 192 233 280 340
#
# _framework density 24.217611999999999
#
# number of rings (size 3 to 8) (size 9 to 14) (size 15 to 20)
#    0.000    2.667    0.000    1.500    0.000    7.000 
#    0.000    5.000    0.000    2.000    0.000    9.333 
#    0.000    0.000    0.000    0.000    0.000    0.000 
#
# Total GULP energy -133910.145163 kJ/mol
# GULP energy per Si atom -5579.589382 kJ/mol
# Density = 2.416249 g / cm^3
# Si number density = 24.217612 Si / 1000 Ang^3
#
#
#
# Elastic Constant Matrix: (Units=GPa)
#
#
# Indices 1 2 3 4 5 6 
#
# 1 77.0884 -3.0193 -4.4537 0.0000 9.6445 0.0000
# 2 -3.0193 28.8314 26.6647 0.0000 -1.6953 0.0000
# 3 -4.4537 26.6647 163.5495 0.0000 19.9073 0.0000
# 4 0.0000 0.0000 0.0000 -24.0140 0.0000 13.0253
# 5 9.6445 -1.6953 19.9073 0.0000 38.6455 0.0000
# 6 0.0000 0.0000 0.0000 13.0253 0.0000 8.0455
#
#
#
# Elastic Compliance Matrix: (Units=1/GPa)
#
#
# Indices 1 2 3 4 5 6 
#
# 1 0.013501 0.000512 0.000738 0.000000 -0.003727 0.000000
# 2 0.000512 0.042019 -0.007517 0.000000 0.005587 0.000000
# 3 0.000738 -0.007517 0.007919 0.000000 -0.004593 0.000000
# 4 0.000000 0.000000 0.000000 -0.022172 0.000000 0.035896
# 5 -0.003727 0.005587 -0.004593 0.000000 0.029418 0.000000
# 6 0.000000 0.000000 0.000000 0.035896 0.000000 0.066179
#
#
# Mechanical properties :
#
#
# Convention : Reuss Voigt Hill
#
# Bulk Modulus (GPa) = 19.64425 34.20585 26.92505
# Shear Modulus (GPa) = 30.05448 21.22057 25.63752
#
# Velocity S-wave (km/s) = 3.52663 2.96336 3.25719
# Velocity P-wave (km/s) = 4.97111 5.08563 5.02870
#
# Compressibility (1/GPa) = 0.05090549
#
# Stress axis : x y z
#
# Youngs Moduli (GPa) = 74.06812 23.79901 126.27789
#
# Poissons Ratio (x) = -0.01219 -0.09316
# Poissons Ratio (y) = -0.03795 0.94920
# Poissons Ratio (z) = -0.05464 0.17889
#
# Static dielectric constant tensor:
#      x y z
#    x 1.838730 0.000000 -0.011520 
#    y 0.000000 1.986590 0.000000 
#    z -0.011520 0.000000 1.977520 
# 
# From -- ./inp_files/192380.got.cif
#   From: 2010.05.17/outbox.cif.g08.bks.cpg/sg12_97_cif.got.tgz:192380.got - 2010.06.03 13:09:07.
