data_PCOD9196868
_publ_section_title
;
Structure prediction by ZEFSAII (Michael W. Deem and Ramdas Pophale) SiO2 
 PCOD9196868
Probable space group: C 2/M
;
_chemical_formula_sum "Si O2"
_cell_formula_units_Z 56
_cell_length_a 27.494961
_cell_length_b 18.031985
_cell_length_c 5.784629
_cell_angle_alpha 90.000000
_cell_angle_beta 117.752089
_cell_angle_gamma 90.000000
_cell_volume 2538.054998
_symmetry_space_group_name_H-M "C 2/M"
_symmetry_group_IT_number 12
_symmetry_cell_setting 'monoclinic'
loop_
_space_group_symop_operation_xyz
x,y,z
-x,y,-z
-x,-y,-z
x,-y,z
1/2+x,1/2+y,z
1/2-x,1/2+y,-z
1/2-x,1/2-y,-z
1/2+x,1/2-y,z
loop_
_atom_site_type_symbol
_atom_site_label
_atom_site_fract_x
_atom_site_fract_y
_atom_site_fract_z
Si Si1 0.913903 0.583429 0.664431
Si Si2 0.802140 0.779147 0.479429
Si Si3 0.361252 0.831728 0.911343
Si Si4 0.298097 0.083122 0.128858
Si Si5 0.470284 0.238121 0.684482
Si Si6 0.186860 0.912837 0.172105
Si Si7 0.127307 0.197562 0.744650
O O1 0.936569 0.500000 0.693190
O O2 0.899746 0.603551 0.900908
O O3 0.855226 0.583619 0.399036
O O4 0.949953 0.652074 0.654699
O O5 0.750000 0.750000 0.500000
O O6 0.844302 0.715469 0.652396
O O7 0.813713 0.860772 0.604556
O O8 0.813002 0.783415 0.233711
O O9 0.309783 0.864963 0.936208
O O10 0.386364 0.767604 0.124229
O O11 0.246098 0.098936 0.176735
O O12 0.289155 0.000000 0.018501
O O13 0.500000 0.247135 0.500000
O O14 0.420139 0.297559 0.549931
O O15 0.500000 0.250789 0.000000
O O16 0.180733 0.000000 0.200989
O O17 0.138826 0.877589 0.906464
#
# Coordination Sequence:
#
# PCOD9196868 Si02
#       7
#     8   8   8   8   8   8   8
#     4  11  23  39  62  94 136 180 224 278 336 395
#     4  11  21  34  62  95 129 172 218 266 330 412
#     4  11  18  35  58  87 129 174 223 261 321 397
#     4  10  20  35  57  90 135 180 215 258 327 406
#     4  12  27  47  71  97 130 176 244 301 349 401
#     4  10  23  39  62  98 137 173 215 269 338 419
#     4  11  23  41  64  91 127 172 218 283 340 404
#
# _framework density 22.064139000000001
#
# number of rings (size 3 to 8) (size 9 to 14) (size 15 to 20)
#    0.000    1.143    2.857    3.857    2.000    3.429 
#    0.000    3.571    0.000    0.857    0.000    0.000 
#    0.000    0.000    0.000    0.000    0.000    0.000 
#
# Total GULP energy -156172.157405 kJ/mol
# GULP energy per Si atom -5577.577050 kJ/mol
# Density = 2.201392 g / cm^3
# Si number density = 22.064139 Si / 1000 Ang^3
#
#
#
# Elastic Constant Matrix: (Units=GPa)
#
#
# Indices 1 2 3 4 5 6 
#
# 1 70.1562 11.9776 8.2790 0.0000 -11.8674 0.0000
# 2 11.9776 102.2166 30.4982 0.0000 -6.1437 0.0000
# 3 8.2790 30.4982 54.0024 0.0000 5.0405 0.0000
# 4 0.0000 0.0000 0.0000 24.2279 0.0000 -6.4046
# 5 -11.8674 -6.1437 5.0405 0.0000 33.5514 0.0000
# 6 0.0000 0.0000 0.0000 -6.4046 0.0000 27.9698
#
#
#
# Elastic Compliance Matrix: (Units=1/GPa)
#
#
# Indices 1 2 3 4 5 6 
#
# 1 0.015655 -0.000733 -0.002526 0.000000 0.005783 0.000000
# 2 -0.000733 0.012148 -0.007030 0.000000 0.003021 0.000000
# 3 -0.002526 -0.007030 0.023407 0.000000 -0.005697 0.000000
# 4 0.000000 0.000000 0.000000 0.043934 0.000000 0.010060
# 5 0.005783 0.003021 -0.005697 0.000000 0.033259 0.000000
# 6 0.000000 0.000000 0.000000 0.010060 0.000000 0.038056
#
#
# Mechanical properties :
#
#
# Convention : Reuss Voigt Hill
#
# Bulk Modulus (GPa) = 32.64566 36.43164 34.53865
# Shear Modulus (GPa) = 25.34851 28.85786 27.10318
#
# Velocity S-wave (km/s) = 3.39315 3.62042 3.50863
# Velocity P-wave (km/s) = 5.49356 5.83302 5.66584
#
# Compressibility (1/GPa) = 0.03063194
#
# Stress axis : x y z
#
# Youngs Moduli (GPa) = 63.87612 82.31587 42.72203
#
# Poissons Ratio (x) = 0.06036 0.10790
# Poissons Ratio (y) = 0.04684 0.30035
# Poissons Ratio (z) = 0.16133 0.57871
#
# Static dielectric constant tensor:
#      x y z
#    x 1.900020 0.000000 0.069580 
#    y 0.000000 1.765700 0.000000 
#    z 0.069580 0.000000 1.940210 
# 
# From -- ./inp_files/31994.got.cif
#   From: 2010.05.17/outbox.cif.g08.bks.cpg/sg12_16_cif.got.tgz:31994.got - 2010.06.03 13:09:07.
