data_PCOD9196969
_publ_section_title
;
Structure prediction by ZEFSAII (Michael W. Deem and Ramdas Pophale) SiO2 
 PCOD9196969
Probable space group: C 2/M
;
_chemical_formula_sum "Si O2"
_cell_formula_units_Z 64
_cell_length_a 18.440919
_cell_length_b 8.862677
_cell_length_c 31.061627
_cell_angle_alpha 90.000000
_cell_angle_beta 42.287231
_cell_angle_gamma 90.000000
_cell_volume 3415.768505
_symmetry_space_group_name_H-M "C 2/M"
_symmetry_group_IT_number 12
_symmetry_cell_setting 'monoclinic'
loop_
_space_group_symop_operation_xyz
x,y,z
-x,y,-z
-x,-y,-z
x,-y,z
1/2+x,1/2+y,z
1/2-x,1/2+y,-z
1/2-x,1/2-y,-z
1/2+x,1/2-y,z
loop_
_atom_site_type_symbol
_atom_site_label
_atom_site_fract_x
_atom_site_fract_y
_atom_site_fract_z
Si Si1 0.663829 0.818878 0.807731
Si Si2 0.563734 0.818206 0.680890
Si Si3 0.681710 0.180182 0.189655
Si Si4 0.735234 0.180974 0.679633
Si Si5 0.239207 0.180245 0.073831
Si Si6 0.132534 0.180177 0.559933
Si Si7 0.082315 0.681635 0.072503
Si Si8 0.530853 0.179521 0.436953
O O1 0.750591 0.739455 0.799714
O O2 0.685346 0.784738 0.748244
O O3 0.542371 0.774510 0.873823
O O4 0.673269 0.000000 0.809041
O O5 0.443875 0.778204 0.749348
O O6 0.651579 0.779378 0.678635
O O7 0.590848 0.737522 0.624399
O O8 0.567143 0.000000 0.672972
O O9 0.728503 0.249833 0.125442
O O10 0.687859 0.000000 0.184558
O O11 0.848171 0.264303 0.624360
O O12 0.753269 0.000000 0.669748
O O13 0.144081 0.242508 0.085158
O O14 0.232559 0.000000 0.079470
O O15 0.349958 0.219440 0.000103
O O16 0.250000 0.250000 0.500000
O O17 0.050696 0.237509 0.559322
O O18 0.138933 0.000000 0.556437
O O19 0.087412 0.500000 0.076079
O O20 0.500000 0.210915 0.500000
O O21 0.523206 0.000000 0.433122
#
# Coordination Sequence:
#
# PCOD9196969 Si02
#       8
#     8   8   8   8   8   8   8   8
#     4  10  21  38  58  82 114 150 190 234 285 345
#     4  10  22  41  63  87 117 153 193 237 288 343
#     4  11  23  38  57  83 117 154 191 236 289 341
#     4  10  21  38  62  88 113 147 189 235 288 343
#     4  10  20  35  58  85 112 147 192 239 287 343
#     4  12  25  41  63  90 121 156 194 237 285 338
#     4   9  19  37  59  82 112 150 190 236 290 346
#     4  11  24  41  61  87 119 154 193 237 285 337
#
# _framework density 18.736633000000001
#
# number of rings (size 3 to 8) (size 9 to 14) (size 15 to 20)
#    0.000    1.625    0.000    4.500    0.000   10.500 
#    0.000    3.750    0.000    0.000    0.000    0.000 
#    0.000    0.000    0.000    0.000    0.000    0.000 
#
# Total GULP energy -178910.355158 kJ/mol
# GULP energy per Si atom -5590.948599 kJ/mol
# Density = 1.869399 g / cm^3
# Si number density = 18.736633 Si / 1000 Ang^3
#
#
#
# Elastic Constant Matrix: (Units=GPa)
#
#
# Indices 1 2 3 4 5 6 
#
# 1 154.7189 67.6576 83.7996 -0.0001 -0.6335 -0.0005
# 2 67.6576 55.9251 59.8087 0.0000 4.4451 -0.0004
# 3 83.7996 59.8087 123.5386 0.0000 -2.9612 0.0001
# 4 -0.0001 0.0000 0.0000 24.9515 0.0000 -2.1148
# 5 -0.6335 4.4451 -2.9612 0.0000 40.4908 -0.0001
# 6 -0.0005 -0.0004 0.0001 -2.1148 -0.0001 34.4512
#
#
#
# Elastic Compliance Matrix: (Units=1/GPa)
#
#
# Indices 1 2 3 4 5 6 
#
# 1 0.014256 -0.014678 -0.002525 0.000000 0.001650 0.000000
# 2 -0.014678 0.053405 -0.016072 0.000000 -0.007268 0.000000
# 3 -0.002525 -0.016072 0.017661 0.000000 0.003017 0.000000
# 4 0.000000 0.000000 0.000000 0.040287 0.000000 0.002473
# 5 0.001650 -0.007268 0.003017 0.000000 0.025741 0.000000
# 6 0.000000 0.000000 0.000000 0.002473 0.000000 0.029178
#
#
# Mechanical properties :
#
#
# Convention : Reuss Voigt Hill
#
# Bulk Modulus (GPa) = 53.27356 84.07936 68.67646
# Shear Modulus (GPa) = 19.73666 28.17316 23.95491
#
# Velocity S-wave (km/s) = 3.24909 3.88189 3.57950
# Velocity P-wave (km/s) = 6.52457 8.06621 7.33600
#
# Compressibility (1/GPa) = 0.01877104
#
# Stress axis : x y z
#
# Youngs Moduli (GPa) = 70.14514 18.72499 56.62296
#
# Poissons Ratio (x) = 0.27485 0.14296
# Poissons Ratio (y) = 1.02959 0.91007
# Poissons Ratio (z) = 0.17710 0.30096
#
# Static dielectric constant tensor:
#      x y z
#    x 1.607600 0.000000 -0.001900 
#    y 0.000000 1.628970 0.000000 
#    z -0.001900 0.000000 1.630680 
# 
# From -- ./inp_files/378059.got.cif
#   From: 2010.05.17/outbox.cif.g08.bks.cpg/sg12_190_cif.got.tgz:378059.got - 2010.06.03 13:09:07.
