data_PCOD9196104
_publ_section_title
;
Structure prediction by ZEFSAII (Michael W. Deem and Ramdas Pophale) SiO2 
 PCOD9196104
Probable space group: C 2/M
;
_chemical_formula_sum "Si O2"
_cell_formula_units_Z 56
_cell_length_a 16.741439
_cell_length_b 7.689165
_cell_length_c 20.068372
_cell_angle_alpha 90.000000
_cell_angle_beta 59.566384
_cell_angle_gamma 90.000000
_cell_volume 2227.411722
_symmetry_space_group_name_H-M "C 2/M"
_symmetry_group_IT_number 12
_symmetry_cell_setting 'monoclinic'
loop_
_space_group_symop_operation_xyz
x,y,z
-x,y,-z
-x,-y,-z
x,-y,z
1/2+x,1/2+y,z
1/2-x,1/2+y,-z
1/2-x,1/2-y,-z
1/2+x,1/2-y,z
loop_
_atom_site_type_symbol
_atom_site_label
_atom_site_fract_x
_atom_site_fract_y
_atom_site_fract_z
Si Si1 0.294348 0.699755 0.242108
Si Si2 0.898215 0.204639 0.470336
Si Si3 0.894184 0.699945 0.332605
Si Si4 0.548625 0.203436 0.044213
Si Si5 0.564888 0.213831 0.183583
Si Si6 0.722358 0.288825 0.896007
Si Si7 0.111525 0.211109 0.379510
O O1 0.323337 0.500000 0.232950
O O2 0.335267 0.789862 0.289943
O O3 0.317172 0.770507 0.159314
O O4 0.183222 0.709984 0.297470
O O5 0.851465 0.226838 0.418461
O O6 0.860829 0.270590 0.556801
O O7 0.004796 0.265892 0.416859
O O8 0.905126 0.000000 0.479093
O O9 0.907803 0.500000 0.343120
O O10 0.993792 0.778073 0.269558
O O11 0.529681 0.273276 0.125641
O O12 0.523757 0.000000 0.056837
O O13 0.500000 0.285262 0.000000
O O14 0.657637 0.219464 0.981760
O O15 0.671139 0.266824 0.145112
O O16 0.562788 0.000000 0.185264
O O17 0.720314 0.500000 0.898005
O O18 0.117584 0.000000 0.371029
#
# Coordination Sequence:
#
# PCOD9196104 Si02
#       7
#     8   8   8   8   8   8   8
#     4  11  23  37  54  79 112 146 184 233 280 323
#     4   9  19  37  59  84 113 142 179 228 275 323
#     4  11  22  37  58  81 109 147 186 225 276 333
#     4  10  20  35  56  81 110 143 178 218 265 321
#     4   9  19  36  56  79 108 141 180 225 270 322
#     4  10  21  37  56  79 108 141 179 225 274 321
#     4   9  19  37  60  83 110 146 183 222 272 329
#
# _framework density 25.141289
#
# number of rings (size 3 to 8) (size 9 to 14) (size 15 to 20)
#    0.000    2.143    0.000    3.857    0.000    5.429 
#    0.000    4.286    0.000    0.000    0.000    0.000 
#    0.000    0.000    0.000    0.000    0.000    0.000 
#
# Total GULP energy -156562.444545 kJ/mol
# GULP energy per Si atom -5591.515877 kJ/mol
# Density = 2.508407 g / cm^3
# Si number density = 25.141289 Si / 1000 Ang^3
#
#
#
# Elastic Constant Matrix: (Units=GPa)
#
#
# Indices 1 2 3 4 5 6 
#
# 1 56.6273 -1.4236 -3.2949 -0.0001 10.0540 0.0001
# 2 -1.4236 53.6657 -0.1265 -0.0002 3.6940 0.0001
# 3 -3.2949 -0.1265 131.8774 0.0000 15.3809 -0.0001
# 4 -0.0001 -0.0002 0.0000 10.0238 0.0000 -5.8113
# 5 10.0540 3.6940 15.3809 0.0000 46.8728 -0.0001
# 6 0.0001 0.0001 -0.0001 -5.8113 -0.0001 18.8720
#
#
#
# Elastic Compliance Matrix: (Units=1/GPa)
#
#
# Indices 1 2 3 4 5 6 
#
# 1 0.018508 0.000793 0.000971 0.000000 -0.004351 0.000000
# 2 0.000793 0.018774 0.000239 0.000000 -0.001728 0.000000
# 3 0.000971 0.000239 0.007938 0.000000 -0.002832 0.000000
# 4 0.000000 0.000000 0.000000 0.121443 0.000000 0.037396
# 5 -0.004351 -0.001728 -0.002832 0.000000 0.023333 0.000000
# 6 0.000000 0.000000 0.000000 0.037396 0.000000 0.064504
#
#
# Mechanical properties :
#
#
# Convention : Reuss Voigt Hill
#
# Bulk Modulus (GPa) = 20.31458 25.83114 23.07286
# Shear Modulus (GPa) = 18.73336 31.62142 25.17739
#
# Velocity S-wave (km/s) = 2.73266 3.55032 3.16798
# Velocity P-wave (km/s) = 4.24903 5.20606 4.75170
#
# Compressibility (1/GPa) = 0.04922573
#
# Stress axis : x y z
#
# Youngs Moduli (GPa) = 54.03007 53.26396 125.98359
#
# Poissons Ratio (x) = -0.04223 -0.12228
# Poissons Ratio (y) = -0.04283 -0.03016
# Poissons Ratio (z) = -0.05244 -0.01275
#
# Static dielectric constant tensor:
#      x y z
#    x 2.059910 0.000000 0.032830 
#    y 0.000000 1.900330 0.000000 
#    z 0.032830 0.000000 1.944610 
# 
# From -- ./inp_files/275330.got.cif
#   From: 2010.05.17/outbox.cif.g08.bks.cpg/sg12_138_cif.got.tgz:275330.got - 2010.06.03 13:09:07.
