data_PCOD9196855
_publ_section_title
;
Structure prediction by ZEFSAII (Michael W. Deem and Ramdas Pophale) SiO2 
 PCOD9196855
Probable space group: C 2/M
;
_chemical_formula_sum "Si O2"
_cell_formula_units_Z 64
_cell_length_a 22.221912
_cell_length_b 13.505334
_cell_length_c 27.022986
_cell_angle_alpha 90.000000
_cell_angle_beta 26.326542
_cell_angle_gamma 90.000000
_cell_volume 3596.668661
_symmetry_space_group_name_H-M "C 2/M"
_symmetry_group_IT_number 12
_symmetry_cell_setting 'monoclinic'
loop_
_space_group_symop_operation_xyz
x,y,z
-x,y,-z
-x,-y,-z
x,-y,z
1/2+x,1/2+y,z
1/2-x,1/2+y,-z
1/2-x,1/2-y,-z
1/2+x,1/2-y,z
loop_
_atom_site_type_symbol
_atom_site_label
_atom_site_fract_x
_atom_site_fract_y
_atom_site_fract_z
Si Si1 0.955545 0.250583 0.658540
Si Si2 0.604513 0.740317 0.133184
Si Si3 0.007279 0.385922 0.936219
Si Si4 0.037262 0.615164 0.689149
Si Si5 0.353001 0.245706 0.246412
Si Si6 0.692108 0.386383 0.157349
Si Si7 0.802746 0.884018 0.559343
Si Si8 0.867500 0.615457 0.632525
O O1 0.848234 0.183878 0.767513
O O2 0.892010 0.318280 0.662883
O O3 0.023743 0.322020 0.649213
O O4 0.066276 0.176954 0.553735
O O5 0.563680 0.836724 0.195786
O O6 0.484740 0.726972 0.181886
O O7 0.614923 0.652664 0.165731
O O8 0.750000 0.750000 0.000000
O O9 0.054451 0.500000 0.895281
O O10 0.097903 0.310459 0.838936
O O11 0.853213 0.379998 0.029862
O O12 0.000000 0.365544 0.000000
O O13 0.006262 0.500000 0.703803
O O14 0.187502 0.622792 0.601663
O O15 0.263321 0.168923 0.344492
O O16 0.261057 0.339397 0.301190
O O17 0.657979 0.500000 0.193633
O O18 0.830765 0.000000 0.547420
O O19 0.849295 0.500000 0.658106
O O20 0.000000 0.624486 0.500000
#
# Coordination Sequence:
#
# PCOD9196855 Si02
#       8
#     8   8   8   8   8   8   8   8
#     4  11  20  38  60  82 118 155 196 244 294 346
#     4  10  20  36  59  88 119 156 192 244 296 348
#     4  10  20  35  58  86 118 157 195 234 290 353
#     4   9  20  35  57  85 115 153 198 240 297 359
#     4  11  21  39  62  84 119 155 199 243 296 346
#     4  10  21  36  58  90 122 153 190 237 295 354
#     4  10  20  35  57  90 119 148 188 242 300 356
#     4  11  24  42  61  83 115 158 204 245 290 348
#
# _framework density 17.794245
#
# number of rings (size 3 to 8) (size 9 to 14) (size 15 to 20)
#    0.000    1.750    2.500    2.250    0.000    1.500 
#    0.000    2.500    0.000    1.125    0.000    0.000 
#    0.000    0.000    0.000    0.000    0.000    0.000 
#
# Total GULP energy -178662.462930 kJ/mol
# GULP energy per Si atom -5583.201967 kJ/mol
# Density = 1.775374 g / cm^3
# Si number density = 17.794245 Si / 1000 Ang^3
#
#
#
# Elastic Constant Matrix: (Units=GPa)
#
#
# Indices 1 2 3 4 5 6 
#
# 1 81.2881 50.6606 31.4078 -0.0001 2.3746 0.0001
# 2 50.6606 131.4560 48.2003 0.0014 -2.9054 -0.0001
# 3 31.4078 48.2003 84.6185 0.0011 -3.2774 -0.0002
# 4 -0.0001 0.0014 0.0011 21.0348 -0.0003 -5.1733
# 5 2.3746 -2.9054 -3.2774 -0.0003 18.8706 0.0001
# 6 0.0001 -0.0001 -0.0002 -5.1733 0.0001 25.7863
#
#
#
# Elastic Compliance Matrix: (Units=1/GPa)
#
#
# Indices 1 2 3 4 5 6 
#
# 1 0.017098 -0.005423 -0.003396 0.000001 -0.003576 0.000000
# 2 -0.005423 0.011341 -0.004382 -0.000001 0.001667 0.000000
# 3 -0.003396 -0.004382 0.015670 -0.000001 0.002474 0.000000
# 4 0.000001 -0.000001 -0.000001 0.050008 0.000001 0.010033
# 5 -0.003576 0.001667 0.002474 0.000001 0.054129 0.000000
# 6 0.000000 0.000000 0.000000 0.010033 0.000000 0.040793
#
#
# Mechanical properties :
#
#
# Convention : Reuss Voigt Hill
#
# Bulk Modulus (GPa) = 56.47604 61.98891 59.23248
# Shear Modulus (GPa) = 22.58925 24.27793 23.43359
#
# Velocity S-wave (km/s) = 3.56683 3.69774 3.63288
# Velocity P-wave (km/s) = 6.98357 7.28994 7.13840
#
# Compressibility (1/GPa) = 0.01770662
#
# Stress axis : x y z
#
# Youngs Moduli (GPa) = 58.48515 88.17642 63.81516
#
# Poissons Ratio (x) = 0.47821 0.21669
# Poissons Ratio (y) = 0.31719 0.27967
# Poissons Ratio (z) = 0.19860 0.38643
#
# Static dielectric constant tensor:
#      x y z
#    x 1.607380 0.000000 -0.003110 
#    y 0.000000 1.578520 0.000000 
#    z -0.003110 0.000000 1.590930 
# 
# From -- ./inp_files/366015.got.cif
#   From: 2010.05.17/outbox.cif.g08.bks.cpg/sg12_184_cif.got.tgz:366015.got - 2010.06.03 13:09:07.
