data_PCOD9196443
_publ_section_title
;
Structure prediction by ZEFSAII (Michael W. Deem and Ramdas Pophale) SiO2 
 PCOD9196443
Probable space group: C 2/M
;
_chemical_formula_sum "Si O2"
_cell_formula_units_Z 56
_cell_length_a 15.038120
_cell_length_b 7.740678
_cell_length_c 29.990273
_cell_angle_alpha 90.000000
_cell_angle_beta 50.034935
_cell_angle_gamma 90.000000
_cell_volume 2675.648083
_symmetry_space_group_name_H-M "C 2/M"
_symmetry_group_IT_number 12
_symmetry_cell_setting 'monoclinic'
loop_
_space_group_symop_operation_xyz
x,y,z
-x,y,-z
-x,-y,-z
x,-y,z
1/2+x,1/2+y,z
1/2-x,1/2+y,-z
1/2-x,1/2-y,-z
1/2+x,1/2-y,z
loop_
_atom_site_type_symbol
_atom_site_label
_atom_site_fract_x
_atom_site_fract_y
_atom_site_fract_z
Si Si1 0.147865 0.707130 0.498381
Si Si2 0.261807 0.296680 0.277451
Si Si3 0.973530 0.291912 0.812351
Si Si4 0.710244 0.794055 0.062107
Si Si5 0.882819 0.711725 0.591977
Si Si6 0.228115 0.293989 0.190149
Si Si7 0.093193 0.307470 0.937165
O O1 0.143331 0.500000 0.498159
O O2 0.250000 0.750000 0.500000
O O3 0.162882 0.767414 0.442172
O O4 0.017688 0.764670 0.553875
O O5 0.232916 0.500000 0.285237
O O6 0.400007 0.280465 0.236655
O O7 0.194922 0.225610 0.341919
O O8 0.227601 0.221548 0.240197
O O9 0.982119 0.500000 0.806998
O O10 0.918184 0.250846 0.878782
O O11 0.878587 0.232486 0.806300
O O12 0.795753 0.692194 0.066722
O O13 0.725843 0.000000 0.064596
O O14 0.750000 0.750000 0.000000
O O15 0.880621 0.500000 0.592386
O O16 0.215073 0.500000 0.196469
O O17 0.351479 0.263709 0.125851
O O18 0.047613 0.500000 0.941874
O O19 0.000000 0.217541 0.000000
#
# Coordination Sequence:
#
# PCOD9196443 Si02
#       7
#     8   8   8   8   8   8   8
#     4   9  17  33  57  81 110 148 182 219 265 308
#     4  10  20  35  57  80 104 142 187 221 260 323
#     4   9  20  37  52  73 107 138 169 218 275 322
#     4  10  21  36  54  75 102 133 170 218 273 331
#     4   8  17  34  53  78 112 146 181 218 262 321
#     4   9  20  37  53  73 102 138 176 219 270 327
#     4  10  21  35  52  75 101 131 170 219 273 325
#
# _framework density 20.929507999999998
#
# number of rings (size 3 to 8) (size 9 to 14) (size 15 to 20)
#    0.000    2.714    0.000    2.571    2.000    5.714 
#    0.000    4.286    0.000    0.000    0.000    0.000 
#    0.000    0.000    0.000    0.000    0.000    0.000 
#
# Total GULP energy -156043.815984 kJ/mol
# GULP energy per Si atom -5572.993428 kJ/mol
# Density = 2.088187 g / cm^3
# Si number density = 20.929508 Si / 1000 Ang^3
#
#
#
# Elastic Constant Matrix: (Units=GPa)
#
#
# Indices 1 2 3 4 5 6 
#
# 1 122.1623 -1.1623 83.9335 0.0005 14.5326 -0.0002
# 2 -1.1623 35.1090 8.7174 -0.0019 3.4247 -0.0015
# 3 83.9335 8.7174 213.1126 0.0007 20.5853 0.0005
# 4 0.0005 -0.0019 0.0007 24.0777 -0.0003 -3.0408
# 5 14.5326 3.4247 20.5853 -0.0003 22.8943 -0.0005
# 6 -0.0002 -0.0015 0.0005 -3.0408 -0.0005 19.4283
#
#
#
# Elastic Compliance Matrix: (Units=1/GPa)
#
#
# Indices 1 2 3 4 5 6 
#
# 1 0.011589 0.001814 -0.004273 0.000000 -0.003786 0.000000
# 2 0.001814 0.029326 -0.001510 0.000003 -0.004180 0.000003
# 3 -0.004273 -0.001510 0.006738 0.000000 -0.003121 0.000000
# 4 0.000000 0.000003 0.000000 0.042370 0.000001 0.006632
# 5 -0.003786 -0.004180 -0.003121 0.000001 0.049513 0.000001
# 6 0.000000 0.000003 0.000000 0.006632 0.000001 0.052509
#
#
# Mechanical properties :
#
#
# Convention : Reuss Voigt Hill
#
# Bulk Modulus (GPa) = 25.17949 61.48457 43.33203
# Shear Modulus (GPa) = 23.44974 31.87309 27.66141
#
# Velocity S-wave (km/s) = 3.35089 3.90664 3.63939
# Velocity P-wave (km/s) = 5.19885 7.05619 6.19750
#
# Compressibility (1/GPa) = 0.03971486
#
# Stress axis : x y z
#
# Youngs Moduli (GPa) = 86.28718 34.09997 148.40305
#
# Poissons Ratio (x) = -0.06185 0.63411
# Poissons Ratio (y) = -0.15652 0.22411
# Poissons Ratio (z) = 0.36869 0.05150
#
# Static dielectric constant tensor:
#      x y z
#    x 1.749240 0.000000 0.019500 
#    y 0.000000 1.803790 0.000000 
#    z 0.019500 0.000000 1.779340 
# 
# From -- ./inp_files/374960.got.cif
#   From: 2010.05.17/outbox.cif.g08.bks.cpg/sg12_188_cif.got.tgz:374960.got - 2010.06.03 13:09:07.
