data_PCOD9196132
_publ_section_title
;
Structure prediction by ZEFSAII (Michael W. Deem and Ramdas Pophale) SiO2 
 PCOD9196132
Probable space group: C 2/M
;
_chemical_formula_sum "Si O2"
_cell_formula_units_Z 64
_cell_length_a 20.497042
_cell_length_b 8.947575
_cell_length_c 16.954271
_cell_angle_alpha 90.000000
_cell_angle_beta 103.544908
_cell_angle_gamma 90.000000
_cell_volume 3022.910658
_symmetry_space_group_name_H-M "C 2/M"
_symmetry_group_IT_number 12
_symmetry_cell_setting 'monoclinic'
loop_
_space_group_symop_operation_xyz
x,y,z
-x,y,-z
-x,-y,-z
x,-y,z
1/2+x,1/2+y,z
1/2-x,1/2+y,-z
1/2-x,1/2-y,-z
1/2+x,1/2-y,z
loop_
_atom_site_type_symbol
_atom_site_label
_atom_site_fract_x
_atom_site_fract_y
_atom_site_fract_z
Si Si1 0.580011 0.327565 0.018033
Si Si2 0.298214 0.827461 0.404885
Si Si3 0.671790 0.174012 0.166428
Si Si4 0.193252 0.670598 0.783284
Si Si5 0.076267 0.176738 0.839604
Si Si6 0.010353 0.321085 0.309338
Si Si7 0.659472 0.823951 0.351901
Si Si8 0.433339 0.672618 0.427830
O O1 0.603085 0.500000 0.034355
O O2 0.594709 0.274964 0.933250
O O3 0.500000 0.327951 0.000000
O O4 0.611586 0.226493 0.094395
O O5 0.302038 0.821261 0.310163
O O6 0.225498 0.757551 0.403650
O O7 0.366231 0.741219 0.447781
O O8 0.301296 0.000000 0.430415
O O9 0.734909 0.278259 0.164665
O O10 0.658725 0.191160 0.256230
O O11 0.687794 0.000000 0.157710
O O12 0.176207 0.500000 0.799712
O O13 0.138520 0.781740 0.802157
O O14 0.012730 0.256645 0.781340
O O15 0.063366 0.000000 0.838020
O O16 0.010715 0.500000 0.306200
O O17 0.085224 0.269974 0.354727
O O18 0.956488 0.265972 0.358049
O O19 0.665480 0.000000 0.371463
O O20 0.500000 0.676857 0.500000
O O21 0.419545 0.500000 0.402631
#
# Coordination Sequence:
#
# PCOD9196132 Si02
#       8
#     8   8   8   8   8   8   8   8
#     4  10  22  38  53  74 108 149 192 239 292 346
#     4  10  20  36  61  90 118 153 195 238 286 344
#     4  10  20  35  56  81 111 149 192 239 292 344
#     4  10  20  35  56  82 111 146 188 238 289 342
#     4  11  22  35  56  82 111 150 192 240 293 344
#     4  11  22  38  61  90 120 152 194 242 291 345
#     4   9  20  37  59  87 120 156 195 242 291 344
#     4  11  24  41  63  90 121 156 191 234 288 345
#
# _framework density 21.171648999999999
#
# number of rings (size 3 to 8) (size 9 to 14) (size 15 to 20)
#    0.000    1.750    1.250    3.000    0.000    5.250 
#    0.000    0.625    0.000    0.000    0.000    0.000 
#    0.000    0.000    0.000    0.000    0.000    0.000 
#
# Total GULP energy -178821.436865 kJ/mol
# GULP energy per Si atom -5588.169902 kJ/mol
# Density = 2.112346 g / cm^3
# Si number density = 21.171649 Si / 1000 Ang^3
#
#
#
# Elastic Constant Matrix: (Units=GPa)
#
#
# Indices 1 2 3 4 5 6 
#
# 1 93.0818 13.7138 15.3735 0.0000 30.9854 0.0000
# 2 13.7138 58.4956 25.9270 0.0000 17.7357 0.0000
# 3 15.3735 25.9270 92.6033 0.0000 13.6529 0.0000
# 4 0.0000 0.0000 0.0000 9.9708 0.0000 17.1923
# 5 30.9854 17.7357 13.6529 0.0000 34.1614 0.0000
# 6 0.0000 0.0000 0.0000 17.1923 0.0000 25.1622
#
#
#
# Elastic Compliance Matrix: (Units=1/GPa)
#
#
# Indices 1 2 3 4 5 6 
#
# 1 0.015462 0.001033 -0.000754 0.000000 -0.014260 0.000000
# 2 0.001033 0.022185 -0.004831 0.000000 -0.010524 0.000000
# 3 -0.000754 -0.004831 0.012545 0.000000 -0.001822 0.000000
# 4 0.000000 0.000000 0.000000 -0.563065 0.000000 0.384719
# 5 -0.014260 -0.010524 -0.001822 0.000000 0.048399 0.000000
# 6 0.000000 0.000000 0.000000 0.384719 0.000000 -0.223121
#
#
# Mechanical properties :
#
#
# Convention : Reuss Voigt Hill
#
# Bulk Modulus (GPa) = 24.33801 39.35659 31.84730
# Shear Modulus (GPa) = -7.52114 26.46999 9.47443
#
# Velocity S-wave (km/s) = -1.88684 3.53973 2.11773
# Velocity P-wave (km/s) = 2.60262 5.94440 4.58855
#
# Compressibility (1/GPa) = 0.04108800
#
# Stress axis : x y z
#
# Youngs Moduli (GPa) = 64.67298 45.07472 79.71208
#
# Poissons Ratio (x) = -0.04654 0.06008
# Poissons Ratio (y) = -0.06678 0.38511
# Poissons Ratio (z) = 0.04874 0.21777
#
# Static dielectric constant tensor:
#      x y z
#    x 1.766780 0.000000 -0.004740 
#    y 0.000000 1.716730 0.000000 
#    z -0.004740 0.000000 1.792330 
# 
# From -- ./inp_files/320140.got.cif
#   From: 2010.05.17/outbox.cif.g08.bks.cpg/sg12_161_cif.got.tgz:320140.got - 2010.06.03 13:09:07.
