data_PCOD9196677
_publ_section_title
;
Structure prediction by ZEFSAII (Michael W. Deem and Ramdas Pophale) SiO2 
 PCOD9196677
Probable space group: C 2/M
;
_chemical_formula_sum "Si O2"
_cell_formula_units_Z 48
_cell_length_a 24.802959
_cell_length_b 9.639210
_cell_length_c 19.187051
_cell_angle_alpha 90.000000
_cell_angle_beta 147.722003
_cell_angle_gamma 90.000000
_cell_volume 2449.722881
_symmetry_space_group_name_H-M "C 2/M"
_symmetry_group_IT_number 12
_symmetry_cell_setting 'monoclinic'
loop_
_space_group_symop_operation_xyz
x,y,z
-x,y,-z
-x,-y,-z
x,-y,z
1/2+x,1/2+y,z
1/2-x,1/2+y,-z
1/2-x,1/2-y,-z
1/2+x,1/2-y,z
loop_
_atom_site_type_symbol
_atom_site_label
_atom_site_fract_x
_atom_site_fract_y
_atom_site_fract_z
Si Si1 0.154652 0.661163 0.492344
Si Si2 0.119619 0.837609 0.198301
Si Si3 0.081322 0.159939 0.534086
Si Si4 0.815589 0.336651 0.017474
Si Si5 0.694667 0.839371 0.155799
Si Si6 0.457471 0.837389 0.764450
O O1 0.125833 0.500000 0.467862
O O2 0.269962 0.673180 0.643674
O O3 0.088926 0.753447 0.472311
O O4 0.130321 0.699343 0.386296
O O5 0.130938 0.759722 0.136935
O O6 0.047744 0.756290 0.172874
O O7 0.095348 0.000000 0.164084
O O8 0.191602 0.162357 0.689832
O O9 0.000000 0.214977 0.500000
O O10 0.055165 0.000000 0.489905
O O11 0.790905 0.500000 0.997199
O O12 0.799697 0.297507 0.918857
O O13 0.750000 0.250000 0.000000
O O14 0.936002 0.320350 0.158338
O O15 0.657982 0.000000 0.118659
O O16 0.447386 0.000000 0.773099
#
# Coordination Sequence:
#
# PCOD9196677 Si02
#       6
#     8   8   8   8   8   8
#     4   9  19  34  52  79 112 141 175 219 269 323
#     4  10  20  35  57  85 110 138 180 227 272 317
#     4   9  18  31  51  78 105 139 181 222 266 315
#     4  10  23  40  58  80 108 145 185 223 267 319
#     4   9  19  37  56  76 108 145 179 221 271 322
#     4  10  21  37  56  80 111 147 181 217 270 328
#
# _framework density 19.594052999999999
#
# number of rings (size 3 to 8) (size 9 to 14) (size 15 to 20)
#    0.000    2.500    0.000    1.000    2.333    3.667 
#    0.000    3.333    0.000    0.000    0.000    0.000 
#    0.000    0.000    0.000    0.000    0.000    0.000 
#
# Total GULP energy -133972.608023 kJ/mol
# GULP energy per Si atom -5582.192001 kJ/mol
# Density = 1.954946 g / cm^3
# Si number density = 19.594053 Si / 1000 Ang^3
#
#
#
# Elastic Constant Matrix: (Units=GPa)
#
#
# Indices 1 2 3 4 5 6 
#
# 1 149.3085 94.7218 34.7712 0.0000 -10.9542 0.0000
# 2 94.7218 81.9894 28.6209 0.0000 -10.2166 0.0000
# 3 34.7712 28.6209 55.9996 0.0000 -23.6042 0.0000
# 4 0.0000 0.0000 0.0000 15.4520 0.0000 -1.9662
# 5 -10.9542 -10.2166 -23.6042 0.0000 29.1688 0.0000
# 6 0.0000 0.0000 0.0000 -1.9662 0.0000 45.2052
#
#
#
# Elastic Compliance Matrix: (Units=1/GPa)
#
#
# Indices 1 2 3 4 5 6 
#
# 1 0.025201 -0.028730 -0.001846 0.000000 -0.002093 0.000000
# 2 -0.028730 0.047639 -0.006106 0.000000 0.000955 0.000000
# 3 -0.001846 -0.006106 0.031766 0.000000 0.022874 0.000000
# 4 0.000000 0.000000 0.000000 0.065077 0.000000 0.002831
# 5 -0.002093 0.000955 0.022874 0.000000 0.052342 0.000000
# 6 0.000000 0.000000 0.000000 0.002831 0.000000 0.022244
#
#
# Mechanical properties :
#
#
# Convention : Reuss Voigt Hill
#
# Bulk Modulus (GPa) = 32.00938 67.05833 49.53386
# Shear Modulus (GPa) = 15.24174 26.57745 20.90959
#
# Velocity S-wave (km/s) = 2.79207 3.68693 3.27025
# Velocity P-wave (km/s) = 5.17358 7.24036 6.29240
#
# Compressibility (1/GPa) = 0.03124085
#
# Stress axis : x y z
#
# Youngs Moduli (GPa) = 39.68173 20.99106 31.48066
#
# Poissons Ratio (x) = 0.60308 0.05810
# Poissons Ratio (y) = 1.14007 0.19223
# Poissons Ratio (z) = 0.07324 0.12817
#
# Static dielectric constant tensor:
#      x y z
#    x 1.646580 0.000000 0.001300 
#    y 0.000000 1.663550 0.000000 
#    z 0.001300 0.000000 1.742950 
# 
# From -- ./inp_files/283002.got.cif
#   From: 2010.05.17/outbox.cif.g08.bks.cpg/sg12_142_cif.got.tgz:283002.got - 2010.06.03 13:09:07.
