data_PCOD9196499
_publ_section_title
;
Structure prediction by ZEFSAII (Michael W. Deem and Ramdas Pophale) SiO2 
 PCOD9196499
Probable space group: C 2/M
;
_chemical_formula_sum "Si O2"
_cell_formula_units_Z 64
_cell_length_a 20.213936
_cell_length_b 7.664954
_cell_length_c 30.437840
_cell_angle_alpha 90.000000
_cell_angle_beta 34.492218
_cell_angle_gamma 90.000000
_cell_volume 2670.646813
_symmetry_space_group_name_H-M "C 2/M"
_symmetry_group_IT_number 12
_symmetry_cell_setting 'monoclinic'
loop_
_space_group_symop_operation_xyz
x,y,z
-x,y,-z
-x,-y,-z
x,-y,z
1/2+x,1/2+y,z
1/2-x,1/2+y,-z
1/2-x,1/2-y,-z
1/2+x,1/2-y,z
loop_
_atom_site_type_symbol
_atom_site_label
_atom_site_fract_x
_atom_site_fract_y
_atom_site_fract_z
Si Si1 0.717595 0.206550 0.344313
Si Si2 0.384057 0.805375 0.923688
Si Si3 0.875666 0.711972 0.174446
Si Si4 0.867027 0.712903 0.081426
Si Si5 0.855670 0.799214 0.846137
Si Si6 0.764460 0.211911 0.414975
Si Si7 0.011049 0.700801 0.312426
Si Si8 0.996601 0.286204 0.416647
O O1 0.797400 0.232259 0.258117
O O2 0.771333 0.271632 0.360351
O O3 0.588943 0.274183 0.402411
O O4 0.703653 0.000000 0.359205
O O5 0.492225 0.719269 0.889577
O O6 0.411154 0.798500 0.856866
O O7 0.384001 0.000000 0.941289
O O8 0.250000 0.750000 0.000000
O O9 0.876596 0.500000 0.174175
O O10 0.833518 0.766871 0.149251
O O11 0.864074 0.500000 0.081579
O O12 0.771797 0.770988 0.098032
O O13 0.000000 0.766281 0.000000
O O14 0.931474 0.793328 0.760527
O O15 0.845605 0.000000 0.865982
O O16 0.871456 0.288601 0.383369
O O17 0.636343 0.264146 0.501683
O O18 0.774139 0.000000 0.412274
O O19 0.048768 0.500000 0.289572
O O20 0.038817 0.772446 0.345428
O O21 0.997698 0.500000 0.415547
#
# Coordination Sequence:
#
# PCOD9196499 Si02
#       8
#     8   8   8   8   8   8   8   8
#     4  10  20  35  57  82 108 141 182 228 276 328
#     4  11  23  39  60  85 115 149 186 229 276 327
#     4  10  21  37  57  81 110 145 183 225 274 328
#     4   9  18  35  58  81 105 138 182 227 270 320
#     4  11  22  37  59  84 112 147 186 227 273 329
#     4  10  20  36  58  81 107 143 187 230 275 331
#     4  11  22  36  55  80 113 147 181 227 278 328
#     4   9  19  36  57  81 109 143 184 230 278 328
#
# _framework density 23.964231999999999
#
# number of rings (size 3 to 8) (size 9 to 14) (size 15 to 20)
#    0.000    1.875    0.000    4.125    0.000    7.000 
#    0.000    2.500    0.000    4.125    0.000    0.000 
#    0.000    0.000    0.000    0.000    0.000    0.000 
#
# Total GULP energy -178958.674018 kJ/mol
# GULP energy per Si atom -5592.458563 kJ/mol
# Density = 2.390969 g / cm^3
# Si number density = 23.964232 Si / 1000 Ang^3
#
#
#
# Elastic Constant Matrix: (Units=GPa)
#
#
# Indices 1 2 3 4 5 6 
#
# 1 80.1234 -3.7543 -18.7752 0.0003 -0.1251 0.0313
# 2 -3.7543 43.7818 -7.7659 0.0033 -0.4530 -0.0191
# 3 -18.7752 -7.7659 60.8236 0.0129 0.5427 0.0023
# 4 0.0003 0.0033 0.0129 20.4035 0.0032 -2.5765
# 5 -0.1251 -0.4530 0.5427 0.0032 46.6297 0.0000
# 6 0.0313 -0.0191 0.0023 -2.5765 0.0000 11.9919
#
#
#
# Elastic Compliance Matrix: (Units=1/GPa)
#
#
# Indices 1 2 3 4 5 6 
#
# 1 0.013616 0.001957 0.004453 -0.000008 0.000004 -0.000035
# 2 0.001957 0.023653 0.003623 -0.000002 0.000193 0.000031
# 3 0.004453 0.003623 0.018280 -0.000014 -0.000166 -0.000012
# 4 -0.000008 -0.000002 -0.000014 0.050378 -0.000003 0.010824
# 5 0.000004 0.000193 -0.000166 -0.000003 0.021449 0.000000
# 6 -0.000035 0.000031 -0.000012 0.010824 0.000000 0.085716
#
#
# Mechanical properties :
#
#
# Convention : Reuss Voigt Hill
#
# Bulk Modulus (GPa) = 13.22504 13.79309 13.50907
# Shear Modulus (GPa) = 22.91157 30.13996 26.52577
#
# Velocity S-wave (km/s) = 3.09540 3.55026 3.33060
# Velocity P-wave (km/s) = 4.27855 4.75121 4.52106
#
# Compressibility (1/GPa) = 0.07561415
#
# Stress axis : x y z
#
# Youngs Moduli (GPa) = 73.44340 42.27803 54.70599
#
# Poissons Ratio (x) = -0.08276 -0.24360
# Poissons Ratio (y) = -0.14376 -0.19817
# Poissons Ratio (z) = -0.32704 -0.15315
#
# Static dielectric constant tensor:
#      x y z
#    x 1.881280 0.000010 -0.003650 
#    y 0.000010 1.926700 0.000020 
#    z -0.003650 0.000020 1.917730 
# 
# From -- ./inp_files/378132.got.cif
#   From: 2010.05.17/outbox.cif.g08.bks.cpg/sg12_190_cif.got.tgz:378132.got - 2010.06.03 13:09:07.
