data_PCOD9196405
_publ_section_title
;
Structure prediction by ZEFSAII (Michael W. Deem and Ramdas Pophale) SiO2 
 PCOD9196405
Probable space group: C 2/M
;
_chemical_formula_sum "Si O2"
_cell_formula_units_Z 56
_cell_length_a 11.918669
_cell_length_b 16.633682
_cell_length_c 16.578000
_cell_angle_alpha 90.000000
_cell_angle_beta 42.040825
_cell_angle_gamma 90.000000
_cell_volume 2200.911678
_symmetry_space_group_name_H-M "C 2/M"
_symmetry_group_IT_number 12
_symmetry_cell_setting 'monoclinic'
loop_
_space_group_symop_operation_xyz
x,y,z
-x,y,-z
-x,-y,-z
x,-y,z
1/2+x,1/2+y,z
1/2-x,1/2+y,-z
1/2-x,1/2-y,-z
1/2+x,1/2-y,z
loop_
_atom_site_type_symbol
_atom_site_label
_atom_site_fract_x
_atom_site_fract_y
_atom_site_fract_z
Si Si1 0.855659 0.912139 0.448029
Si Si2 0.159417 0.660671 0.184405
Si Si3 0.457476 0.594945 0.818156
Si Si4 0.593673 0.090872 0.053870
Si Si5 0.275756 0.781789 0.392731
Si Si6 0.890720 0.757286 0.165489
Si Si7 0.528916 0.913395 0.403678
O O1 0.844902 0.857925 0.532236
O O2 0.656464 0.918953 0.533675
O O3 0.943625 0.884809 0.317712
O O4 0.925010 0.000000 0.427749
O O5 0.168981 0.602405 0.103941
O O6 0.155602 0.612568 0.269152
O O7 0.976031 0.700918 0.281511
O O8 0.305800 0.722644 0.124808
O O9 0.495935 0.500000 0.818534
O O10 0.500210 0.666033 0.859760
O O11 0.257802 0.596347 0.910763
O O12 0.478224 0.169865 0.109736
O O13 0.521031 0.000000 0.085702
O O14 0.250000 0.750000 0.500000
O O15 0.255562 0.750236 0.311808
O O16 0.500000 0.863493 0.500000
O O17 0.597978 0.000000 0.392380
#
# Coordination Sequence:
#
# PCOD9196405 Si02
#       7
#     8   8   8   8   8   8   8
#     4   9  17  31  54  85 121 161 208 260 319 385
#     4  10  22  35  58  88 125 164 206 269 320 385
#     4  10  20  36  60  91 130 172 216 271 330 388
#     4  10  23  43  66  92 128 176 229 274 326 388
#     4  10  20  35  56  86 124 164 212 257 326 394
#     4  11  22  38  62  93 131 169 218 273 331 393
#     4   9  16  26  45  77 115 149 187 239 305 374
#
# _framework density 25.444001
#
# number of rings (size 3 to 8) (size 9 to 14) (size 15 to 20)
#    0.000    2.143    1.429    1.714    2.000    6.286 
#    0.000    1.429    0.000    4.286    0.000   14.000 
#    0.000    0.000    0.000    0.000    0.000    0.000 
#
# Total GULP energy -155987.930071 kJ/mol
# GULP energy per Si atom -5570.997503 kJ/mol
# Density = 2.538609 g / cm^3
# Si number density = 25.444001 Si / 1000 Ang^3
#
#
#
# Elastic Constant Matrix: (Units=GPa)
#
#
# Indices 1 2 3 4 5 6 
#
# 1 65.5701 37.9235 14.4807 -0.0002 6.2149 0.0003
# 2 37.9235 157.6106 43.9591 0.0000 -6.2127 0.0002
# 3 14.4807 43.9591 100.2869 0.0004 -5.8657 -0.0002
# 4 -0.0002 0.0000 0.0004 38.0116 0.0002 2.7709
# 5 6.2149 -6.2127 -5.8657 0.0002 34.5723 -0.0004
# 6 0.0003 0.0002 -0.0002 2.7709 -0.0004 13.6316
#
#
#
# Elastic Compliance Matrix: (Units=1/GPa)
#
#
# Indices 1 2 3 4 5 6 
#
# 1 0.018367 -0.004304 -0.001014 0.000000 -0.004247 -0.000001
# 2 -0.004304 0.008257 -0.002895 0.000000 0.001766 0.000000
# 3 -0.001014 -0.002895 0.011481 0.000000 0.001610 0.000000
# 4 0.000000 0.000000 0.000000 0.026703 0.000000 -0.005428
# 5 -0.004247 0.001766 0.001610 0.000000 0.030279 0.000001
# 6 -0.000001 0.000000 0.000000 -0.005428 0.000001 0.074462
#
#
# Mechanical properties :
#
#
# Convention : Reuss Voigt Hill
#
# Bulk Modulus (GPa) = 46.12601 57.35492 51.74046
# Shear Modulus (GPa) = 25.87984 32.38341 29.13163
#
# Velocity S-wave (km/s) = 3.19271 3.57141 3.38735
# Velocity P-wave (km/s) = 5.63551 6.29263 5.97311
#
# Compressibility (1/GPa) = 0.02167974
#
# Stress axis : x y z
#
# Youngs Moduli (GPa) = 54.44683 121.10472 87.10205
#
# Poissons Ratio (x) = 0.52122 0.08831
# Poissons Ratio (y) = 0.23433 0.25213
# Poissons Ratio (z) = 0.05520 0.35056
#
# Static dielectric constant tensor:
#      x y z
#    x 2.095340 0.000000 0.033560 
#    y 0.000000 2.275760 0.000000 
#    z 0.033560 0.000000 2.027750 
# 
# From -- ./inp_files/322293.got.cif
#   From: 2010.05.17/outbox.cif.g08.bks.cpg/sg12_162_cif.got.tgz:322293.got - 2010.06.03 13:09:07.
