data_PCOD9196031
_publ_section_title
;
Structure prediction by ZEFSAII (Michael W. Deem and Ramdas Pophale) SiO2 
 PCOD9196031
Probable space group: C 2/M
;
_chemical_formula_sum "Si O2"
_cell_formula_units_Z 56
_cell_length_a 7.640893
_cell_length_b 12.126296
_cell_length_c 28.962314
_cell_angle_alpha 90.000000
_cell_angle_beta 61.633102
_cell_angle_gamma 90.000000
_cell_volume 2361.295370
_symmetry_space_group_name_H-M "C 2/M"
_symmetry_group_IT_number 12
_symmetry_cell_setting 'monoclinic'
loop_
_space_group_symop_operation_xyz
x,y,z
-x,y,-z
-x,-y,-z
x,-y,z
1/2+x,1/2+y,z
1/2-x,1/2+y,-z
1/2-x,1/2-y,-z
1/2+x,1/2-y,z
loop_
_atom_site_type_symbol
_atom_site_label
_atom_site_fract_x
_atom_site_fract_y
_atom_site_fract_z
Si Si1 0.925975 0.625557 0.833026
Si Si2 0.004586 0.345330 0.930811
Si Si3 0.310348 0.318659 0.381653
Si Si4 0.150767 0.886639 0.045998
Si Si5 0.402259 0.882156 0.679868
Si Si6 0.900970 0.874141 0.197914
Si Si7 0.436957 0.676793 0.460802
O O1 0.006146 0.500000 0.808271
O O2 0.998475 0.751775 0.809467
O O3 0.962707 0.627385 0.883288
O O4 0.706953 0.624676 0.838161
O O5 0.989723 0.215687 0.941865
O O6 0.219489 0.380213 0.923101
O O7 0.824222 0.385530 0.985661
O O8 0.456962 0.221517 0.346475
O O9 0.250058 0.383683 0.343904
O O10 0.391522 0.378434 0.417277
O O11 0.111403 0.260306 0.424979
O O12 0.037996 0.000000 0.056220
O O13 0.276202 0.871762 0.742136
O O14 0.512680 0.000000 0.666723
O O15 0.994942 0.000000 0.192197
O O16 0.500000 0.616576 0.500000
O O17 0.250000 0.750000 0.500000
#
# Coordination Sequence:
#
# PCOD9196031 Si02
#       7
#     8   8   8   8   8   8   8
#     4  11  22  38  59  84 113 147 188 234 290 350
#     4  10  20  35  56  80 108 144 184 227 278 337
#     4   9  17  31  56  79 104 148 188 221 272 328
#     4  10  20  36  54  77 110 145 182 227 275 328
#     4  10  20  37  56  78 108 139 183 236 279 329
#     4  10  23  39  57  82 114 148 186 240 296 345
#     4   8  14  27  51  80 113 151 181 219 276 323
#
# _framework density 23.715796999999998
#
# number of rings (size 3 to 8) (size 9 to 14) (size 15 to 20)
#    0.000    2.286    0.000    3.429    0.000    1.143 
#    0.000   10.714    0.000   54.000    0.000    0.000 
#    0.000    0.000    0.000    0.000    0.000    0.000 
#
# Total GULP energy -156039.374437 kJ/mol
# GULP energy per Si atom -5572.834801 kJ/mol
# Density = 2.366182 g / cm^3
# Si number density = 23.715797 Si / 1000 Ang^3
#
#
#
# Elastic Constant Matrix: (Units=GPa)
#
#
# Indices 1 2 3 4 5 6 
#
# 1 45.0199 24.1808 4.2775 0.0000 8.6857 0.0000
# 2 24.1808 234.6964 20.3665 0.0000 -20.8206 0.0000
# 3 4.2775 20.3665 97.0150 -0.0001 4.1267 0.0000
# 4 0.0000 0.0000 -0.0001 150.4454 0.0000 -51.1658
# 5 8.6857 -20.8206 4.1267 0.0000 28.8917 0.0000
# 6 0.0000 0.0000 0.0000 -51.1658 0.0000 38.1749
#
#
#
# Elastic Compliance Matrix: (Units=1/GPa)
#
#
# Indices 1 2 3 4 5 6 
#
# 1 0.026184 -0.003634 0.000055 0.000000 -0.010498 0.000000
# 2 -0.003634 0.005176 -0.001138 0.000000 0.004985 0.000000
# 3 0.000055 -0.001138 0.010645 0.000000 -0.002357 0.000000
# 4 0.000000 0.000000 0.000000 0.012215 0.000000 0.016371
# 5 -0.010498 0.004985 -0.002357 0.000000 0.041698 0.000000
# 6 0.000000 0.000000 0.000000 0.016371 0.000000 0.048138
#
#
# Mechanical properties :
#
#
# Convention : Reuss Voigt Hill
#
# Bulk Modulus (GPa) = 30.70279 52.70899 41.70589
# Shear Modulus (GPa) = 30.42340 65.36283 47.89312
#
# Velocity S-wave (km/s) = 3.58555 5.25554 4.49872
# Velocity P-wave (km/s) = 5.48779 7.68773 6.67896
#
# Compressibility (1/GPa) = 0.03257033
#
# Stress axis : x y z
#
# Youngs Moduli (GPa) = 38.19061 193.18876 93.94483
#
# Poissons Ratio (x) = 0.70203 -0.00516
# Poissons Ratio (y) = 0.13878 0.10696
# Poissons Ratio (z) = -0.00210 0.21994
#
# Static dielectric constant tensor:
#      x y z
#    x 1.905130 0.000000 0.027300 
#    y 0.000000 1.716640 0.000000 
#    z 0.027300 0.000000 1.963320 
# 
# From -- ./inp_files/371963.got.cif
#   From: 2010.05.17/outbox.cif.g08.bks.cpg/sg12_186_cif.got.tgz:371963.got - 2010.06.03 13:09:07.
