data_PCOD9196072
_publ_section_title
;
Structure prediction by ZEFSAII (Michael W. Deem and Ramdas Pophale) SiO2 
 PCOD9196072
Probable space group: C 2/M
;
_chemical_formula_sum "Si O2"
_cell_formula_units_Z 64
_cell_length_a 20.460860
_cell_length_b 7.438228
_cell_length_c 18.465761
_cell_angle_alpha 90.000000
_cell_angle_beta 91.451458
_cell_angle_gamma 90.000000
_cell_volume 2809.449383
_symmetry_space_group_name_H-M "C 2/M"
_symmetry_group_IT_number 12
_symmetry_cell_setting 'monoclinic'
loop_
_space_group_symop_operation_xyz
x,y,z
-x,y,-z
-x,-y,-z
x,-y,z
1/2+x,1/2+y,z
1/2-x,1/2+y,-z
1/2-x,1/2-y,-z
1/2+x,1/2-y,z
loop_
_atom_site_type_symbol
_atom_site_label
_atom_site_fract_x
_atom_site_fract_y
_atom_site_fract_z
Si Si1 0.397188 0.711279 0.669991
Si Si2 0.074518 0.219971 0.489471
Si Si3 0.795914 0.786152 0.431614
Si Si4 0.848712 0.279383 0.179741
Si Si5 0.492502 0.216833 0.216233
Si Si6 0.325776 0.785506 0.015868
Si Si7 0.050703 0.280808 0.064869
Si Si8 0.765555 0.205237 0.722871
O O1 0.382237 0.500000 0.660765
O O2 0.402939 0.783180 0.589213
O O3 0.464329 0.728055 0.714661
O O4 0.337011 0.789357 0.714305
O O5 0.130431 0.275524 0.547604
O O6 0.000000 0.277354 0.500000
O O7 0.074195 0.000000 0.489826
O O8 0.750000 0.750000 0.500000
O O9 0.766482 0.704787 0.357890
O O10 0.797244 0.000000 0.420721
O O11 0.848297 0.500000 0.180740
O O12 0.917538 0.222785 0.215714
O O13 0.845187 0.220926 0.096358
O O14 0.786366 0.214287 0.223046
O O15 0.526257 0.280223 0.142535
O O16 0.492137 0.000000 0.214445
O O17 0.333958 0.000000 0.017677
O O18 0.250000 0.750000 0.000000
O O19 0.377142 0.719689 0.957231
O O20 0.050081 0.500000 0.067310
O O21 0.000000 0.229644 0.000000
O O22 0.775186 0.000000 0.748408
#
# Coordination Sequence:
#
# PCOD9196072 Si02
#       8
#     8   8   8   8   8   8   8   8
#     4  10  21  37  55  77 109 146 177 214 269 329
#     4   9  19  36  56  77 105 141 179 215 261 321
#     4  11  21  37  61  84 107 142 183 226 270 320
#     4   9  19  36  57  78 108 147 182 220 273 330
#     4  10  20  35  56  81 107 139 183 229 268 316
#     4  10  20  35  56  81 108 143 183 227 275 324
#     4   9  16  32  57  78 101 139 185 224 263 318
#     4  10  21  38  56  78 110 146 182 219 268 331
#
# _framework density 22.780265
#
# number of rings (size 3 to 8) (size 9 to 14) (size 15 to 20)
#    0.000    2.250    2.500    0.375    3.500    0.500 
#    0.000    1.250    0.000    2.625    0.000    0.000 
#    0.000    0.000    0.000    0.000    0.000    0.000 
#
# Total GULP energy -178844.276797 kJ/mol
# GULP energy per Si atom -5588.883650 kJ/mol
# Density = 2.272842 g / cm^3
# Si number density = 22.780265 Si / 1000 Ang^3
#
#
#
# Elastic Constant Matrix: (Units=GPa)
#
#
# Indices 1 2 3 4 5 6 
#
# 1 134.7865 0.8974 -13.7833 0.0000 -5.6313 0.0000
# 2 0.8974 73.8681 -4.2506 0.0000 -7.0240 0.0000
# 3 -13.7833 -4.2506 14.0808 0.0000 -2.8030 0.0000
# 4 0.0000 0.0000 0.0000 -10.8409 0.0000 9.5624
# 5 -5.6313 -7.0240 -2.8030 0.0000 47.0493 0.0000
# 6 0.0000 0.0000 0.0000 9.5624 0.0000 13.5849
#
#
#
# Elastic Compliance Matrix: (Units=1/GPa)
#
#
# Indices 1 2 3 4 5 6 
#
# 1 0.008370 0.000550 0.008678 0.000000 0.001601 0.000000
# 2 0.000550 0.014071 0.005280 0.000000 0.002481 0.000000
# 3 0.008678 0.005280 0.082448 0.000000 0.006739 0.000000
# 4 0.000000 0.000000 0.000000 -0.056909 0.000000 0.040058
# 5 0.001601 0.002481 0.006739 0.000000 0.022218 0.000000
# 6 0.000000 0.000000 0.000000 0.040058 0.000000 0.045414
#
#
# Mechanical properties :
#
#
# Convention : Reuss Voigt Hill
#
# Bulk Modulus (GPa) = 7.46813 20.94027 14.20420
# Shear Modulus (GPa) = 38.10083 25.95013 32.02548
#
# Velocity S-wave (km/s) = 4.09410 3.37879 3.75353
# Velocity P-wave (km/s) = 5.06304 4.94306 5.00341
#
# Compressibility (1/GPa) = 0.13390226
#
# Stress axis : x y z
#
# Youngs Moduli (GPa) = 119.47822 71.06980 12.12888
#
# Poissons Ratio (x) = -0.03908 -0.10525
# Poissons Ratio (y) = -0.06570 -0.06404
# Poissons Ratio (z) = -1.03677 -0.37522
#
# Static dielectric constant tensor:
#      x y z
#    x 1.841050 0.000000 -0.028440 
#    y 0.000000 1.829590 0.000000 
#    z -0.028440 0.000000 1.792610 
# 
# From -- ./inp_files/281261.got.cif
#   From: 2010.05.17/outbox.cif.g08.bks.cpg/sg12_141_cif.got.tgz:281261.got - 2010.06.03 13:09:07.
