data_PCOD9196393
_publ_section_title
;
Structure prediction by ZEFSAII (Michael W. Deem and Ramdas Pophale) SiO2 
 PCOD9196393
Probable space group: C 2/M
;
_chemical_formula_sum "Si O2"
_cell_formula_units_Z 58
_cell_length_a 8.605696
_cell_length_b 25.357314
_cell_length_c 19.894954
_cell_angle_alpha 90.000000
_cell_angle_beta 39.450686
_cell_angle_gamma 90.000000
_cell_volume 2758.600863
_symmetry_space_group_name_H-M "C 2/M"
_symmetry_group_IT_number 12
_symmetry_cell_setting 'monoclinic'
loop_
_space_group_symop_operation_xyz
x,y,z
-x,y,-z
-x,-y,-z
x,-y,z
1/2+x,1/2+y,z
1/2-x,1/2+y,-z
1/2-x,1/2-y,-z
1/2+x,1/2-y,z
loop_
_atom_site_type_symbol
_atom_site_label
_atom_site_fract_x
_atom_site_fract_y
_atom_site_fract_z
Si Si1 0.157804 0.915550 0.386266
Si Si2 0.673187 0.718024 0.701130
Si Si3 0.342157 0.058924 0.851603
Si Si4 0.271044 0.291275 0.933036
Si Si5 0.221523 0.860254 0.573698
Si Si6 0.330618 0.807700 0.399484
Si Si7 0.158069 0.909113 0.048926
Si Si8 0.000000 0.500000 0.000000
O O1 0.400244 0.939511 0.272733
O O2 0.262027 0.861378 0.384269
O O3 0.000000 0.940552 0.500000
O O4 0.959616 0.903990 0.394378
O O5 0.436271 0.735067 0.820374
O O6 0.615837 0.667456 0.674580
O O7 0.761461 0.761649 0.618349
O O8 0.884834 0.704101 0.683022
O O9 0.113209 0.070995 0.880241
O O10 0.311701 0.000000 0.889777
O O11 0.314045 0.095030 0.926877
O O12 0.373044 0.349674 0.914027
O O13 0.250000 0.250000 0.000000
O O14 0.000000 0.301649 0.000000
O O15 0.500000 0.876207 0.500000
O O16 0.239114 0.817971 0.506324
O O17 0.298063 0.952396 0.047371
#
# Coordination Sequence:
#
# PCOD9196393 Si02
#       8
#     8   8   8   8   8   8   8   2
#     4  10  22  38  62  93 128 167 207 267 329 397
#     4  11  21  36  56  81 122 168 215 264 316 383
#     4  11  23  43  72  97 125 169 218 272 341 393
#     4  12  28  40  57  94 136 182 214 264 339 410
#     4   9  20  36  58  86 117 164 218 263 311 374
#     4  10  20  35  56  86 117 162 215 261 311 380
#     4  11  24  44  70 100 132 169 226 288 327 396
#     4  12  20  46  72 104 130 158 242 294 334 368
#
# _framework density 21.02515
#
# number of rings (size 3 to 8) (size 9 to 14) (size 15 to 20)
#    0.000    1.379    2.069    3.310    5.793    4.138 
#    0.000    0.000    0.000    0.414    0.000    0.000 
#    0.000    0.000    0.000    0.000    0.000    0.000 
#
# Total GULP energy -161559.957304 kJ/mol
# GULP energy per Si atom -5571.033010 kJ/mol
# Density = 2.097730 g / cm^3
# Si number density = 21.025150 Si / 1000 Ang^3
#
#
#
# Elastic Constant Matrix: (Units=GPa)
#
#
# Indices 1 2 3 4 5 6 
#
# 1 98.9516 22.4829 30.1835 0.0000 -12.5197 0.0000
# 2 22.4829 76.7464 5.9285 0.0000 5.9020 0.0000
# 3 30.1835 5.9285 128.8752 0.0000 -14.5971 0.0001
# 4 0.0000 0.0000 0.0000 8.5773 0.0000 0.1817
# 5 -12.5197 5.9020 -14.5971 0.0000 25.8623 0.0000
# 6 0.0000 0.0000 0.0001 0.1817 0.0000 15.9195
#
#
#
# Elastic Compliance Matrix: (Units=1/GPa)
#
#
# Indices 1 2 3 4 5 6 
#
# 1 0.012342 -0.003894 -0.002066 0.000000 0.005697 0.000000
# 2 -0.003894 0.014618 -0.000376 0.000000 -0.005433 0.000000
# 3 -0.002066 -0.000376 0.008714 0.000000 0.004004 0.000000
# 4 0.000000 0.000000 0.000000 0.116615 0.000000 -0.001331
# 5 0.005697 -0.005433 0.004004 0.000000 0.044924 0.000000
# 6 0.000000 0.000000 0.000000 -0.001331 0.000000 0.062831
#
#
# Mechanical properties :
#
#
# Convention : Reuss Voigt Hill
#
# Bulk Modulus (GPa) = 43.47538 46.86257 45.16898
# Shear Modulus (GPa) = 17.83276 26.47038 22.15157
#
# Velocity S-wave (km/s) = 2.91548 3.55207 3.24940
# Velocity P-wave (km/s) = 5.66181 6.25781 5.96725
#
# Compressibility (1/GPa) = 0.02300152
#
# Stress axis : x y z
#
# Youngs Moduli (GPa) = 81.02567 68.41103 114.75596
#
# Poissons Ratio (x) = 0.26640 0.23710
# Poissons Ratio (y) = 0.31552 0.04312
# Poissons Ratio (z) = 0.16741 0.02571
#
# Static dielectric constant tensor:
#      x y z
#    x 1.760510 0.000000 0.010760 
#    y 0.000000 1.777740 0.000000 
#    z 0.010760 0.000000 1.772540 
# 
# From -- ./inp_files/302431.got.cif
#   From: 2010.05.17/outbox.cif.g08.bks.cpg/sg12_152_cif.got.tgz:302431.got - 2010.06.03 13:09:07.
