data_PCOD9196457
_publ_section_title
;
Structure prediction by ZEFSAII (Michael W. Deem and Ramdas Pophale) SiO2 
 PCOD9196457
Probable space group: C 2/M
;
_chemical_formula_sum "Si O2"
_cell_formula_units_Z 56
_cell_length_a 28.036194
_cell_length_b 13.834384
_cell_length_c 15.646874
_cell_angle_alpha 90.000000
_cell_angle_beta 154.115107
_cell_angle_gamma 90.000000
_cell_volume 2649.445403
_symmetry_space_group_name_H-M "C 2/M"
_symmetry_group_IT_number 12
_symmetry_cell_setting 'monoclinic'
loop_
_space_group_symop_operation_xyz
x,y,z
-x,y,-z
-x,-y,-z
x,-y,z
1/2+x,1/2+y,z
1/2-x,1/2+y,-z
1/2-x,1/2-y,-z
1/2+x,1/2-y,z
loop_
_atom_site_type_symbol
_atom_site_label
_atom_site_fract_x
_atom_site_fract_y
_atom_site_fract_z
Si Si1 0.137081 0.234569 0.607009
Si Si2 0.291266 0.112310 0.157905
Si Si3 0.793706 0.263627 0.711499
Si Si4 0.517051 0.105941 0.926263
Si Si5 0.688168 0.886234 0.011781
Si Si6 0.603145 0.706948 0.286279
Si Si7 0.557346 0.300350 0.828723
O O1 0.213743 0.278516 0.654428
O O2 0.031499 0.192052 0.389989
O O3 0.124979 0.319848 0.655796
O O4 0.205143 0.152195 0.766350
O O5 0.169222 0.143893 0.990533
O O6 0.309982 0.000000 0.205473
O O7 0.297508 0.129001 0.066601
O O8 0.711761 0.317139 0.513840
O O9 0.869679 0.198128 0.771096
O O10 0.868189 0.338147 0.883405
O O11 0.422271 0.178304 0.744262
O O12 0.515583 0.000000 0.885112
O O13 0.500000 0.095046 0.000000
O O14 0.590497 0.813679 0.881004
O O15 0.672145 0.000000 0.999855
O O16 0.500365 0.666885 0.174994
#
# Coordination Sequence:
#
# PCOD9196457 Si02
#       7
#     8   8   8   8   8   8   8
#     4  10  20  35  57  81 106 140 179 216 257 312
#     4  10  22  39  55  76 109 141 171 217 273 319
#     4   9  18  32  50  75 108 141 171 208 257 306
#     4   9  16  27  47  72  95 127 172 214 249 290
#     4  10  22  38  56  80 108 135 170 222 274 317
#     4   9  18  32  50  75 108 141 171 208 257 306
#     4  10  20  35  57  81 106 140 179 216 257 312
#
# _framework density 21.136498
#
# number of rings (size 3 to 8) (size 9 to 14) (size 15 to 20)
#    0.000    2.429    0.000    3.429    0.000    5.714 
#    0.000    7.143    0.000    3.429    0.000    0.000 
#    0.000    0.000    0.000    0.000    0.000    0.000 
#
# Total GULP energy -155942.652990 kJ/mol
# GULP energy per Si atom -5569.380464 kJ/mol
# Density = 2.108839 g / cm^3
# Si number density = 21.136498 Si / 1000 Ang^3
#
#
#
# Elastic Constant Matrix: (Units=GPa)
#
#
# Indices 1 2 3 4 5 6 
#
# 1 104.7189 3.0561 -12.2021 0.0000 -4.2557 0.0000
# 2 3.0561 28.3174 -6.8453 0.0000 -10.4085 0.0000
# 3 -12.2021 -6.8453 34.1841 0.0000 -5.1724 0.0000
# 4 0.0000 0.0000 0.0000 2.0276 0.0000 4.9454
# 5 -4.2557 -10.4085 -5.1724 0.0000 34.2955 0.0000
# 6 0.0000 0.0000 0.0000 4.9454 0.0000 -20.2186
#
#
#
# Elastic Compliance Matrix: (Units=1/GPa)
#
#
# Indices 1 2 3 4 5 6 
#
# 1 0.010085 0.000644 0.004040 0.000000 0.002056 0.000000
# 2 0.000644 0.043447 0.011193 0.000000 0.014954 0.000000
# 3 0.004040 0.011193 0.034309 0.000000 0.009073 0.000000
# 4 0.000000 0.000000 0.000000 0.308902 0.000000 0.075557
# 5 0.002056 0.014954 0.009073 0.000000 0.035320 0.000000
# 6 0.000000 0.000000 0.000000 0.075557 0.000000 -0.030978
#
#
# Mechanical properties :
#
#
# Convention : Reuss Voigt Hill
#
# Bulk Modulus (GPa) = 8.36164 15.02644 11.69404
# Shear Modulus (GPa) = 12.21908 15.43502 13.82705
#
# Velocity S-wave (km/s) = 2.40699 2.70525 2.56047
# Velocity P-wave (km/s) = 3.41897 4.10884 3.77968
#
# Compressibility (1/GPa) = 0.11959371
#
# Stress axis : x y z
#
# Youngs Moduli (GPa) = 99.15840 23.01679 29.14648
#
# Poissons Ratio (x) = -0.01482 -0.11775
# Poissons Ratio (y) = -0.06385 -0.32622
# Poissons Ratio (z) = -0.40059 -0.25762
#
# Static dielectric constant tensor:
#      x y z
#    x 1.894390 0.000000 0.013110 
#    y 0.000000 1.756960 0.000000 
#    z 0.013110 0.000000 1.766080 
# 
# From -- ./inp_files/246596.got.cif
#   From: 2010.05.17/outbox.cif.g08.bks.cpg/sg12_124_cif.got.tgz:246596.got - 2010.06.03 13:09:07.
