data_PCOD9196339
_publ_section_title
;
Structure prediction by ZEFSAII (Michael W. Deem and Ramdas Pophale) SiO2 
 PCOD9196339
Probable space group: C 2/M
;
_chemical_formula_sum "Si O2"
_cell_formula_units_Z 64
_cell_length_a 29.937514
_cell_length_b 7.716391
_cell_length_c 23.761438
_cell_angle_alpha 90.000000
_cell_angle_beta 149.619089
_cell_angle_gamma 90.000000
_cell_volume 2776.102255
_symmetry_space_group_name_H-M "C 2/M"
_symmetry_group_IT_number 12
_symmetry_cell_setting 'monoclinic'
loop_
_space_group_symop_operation_xyz
x,y,z
-x,y,-z
-x,-y,-z
x,-y,z
1/2+x,1/2+y,z
1/2-x,1/2+y,-z
1/2-x,1/2-y,-z
1/2+x,1/2-y,z
loop_
_atom_site_type_symbol
_atom_site_label
_atom_site_fract_x
_atom_site_fract_y
_atom_site_fract_z
Si Si1 0.614944 0.293518 0.055570
Si Si2 0.274170 0.200637 0.162530
Si Si3 0.654093 0.792069 0.872267
Si Si4 0.095178 0.789852 0.464270
Si Si5 0.429906 0.297466 0.809328
Si Si6 0.025374 0.293951 0.268521
Si Si7 0.055139 0.207913 0.614889
Si Si8 0.224044 0.696987 0.284512
O O1 0.608521 0.500000 0.039744
O O2 0.682422 0.220351 0.081850
O O3 0.665083 0.270975 0.169168
O O4 0.516132 0.228525 0.937187
O O5 0.331224 0.280839 0.174265
O O6 0.348392 0.211277 0.290402
O O7 0.256957 0.000000 0.129432
O O8 0.571375 0.724259 0.817426
O O9 0.641328 0.000000 0.856190
O O10 0.750000 0.750000 0.000000
O O11 0.087371 0.739235 0.390189
O O12 0.182877 0.727389 0.592463
O O13 0.006486 0.729504 0.400185
O O14 0.096026 0.000000 0.467259
O O15 0.418178 0.500000 0.811061
O O16 0.446574 0.282542 0.760816
O O17 0.342304 0.203091 0.734650
O O18 0.019987 0.500000 0.254016
O O19 0.000000 0.247527 0.500000
O O20 0.064827 0.000000 0.628834
O O21 0.243009 0.500000 0.287754
#
# Coordination Sequence:
#
# PCOD9196339 Si02
#       8
#     8   8   8   8   8   8   8   8
#     4  10  22  40  63  91 125 163 203 249 308 377
#     4  10  20  36  56  84 119 154 193 236 287 348
#     4  10  21  36  56  85 120 157 199 244 291 349
#     4  10  22  40  61  87 124 166 205 251 311 372
#     4  11  24  43  66  90 121 162 206 255 317 379
#     4  11  23  40  63  91 124 161 209 261 305 360
#     4  10  20  35  56  84 118 156 198 241 290 352
#     4  11  24  42  65  92 122 158 206 262 314 367
#
# _framework density 23.053906999999999
#
# number of rings (size 3 to 8) (size 9 to 14) (size 15 to 20)
#    0.000    1.625    1.250    3.000    0.000    8.250 
#    0.000    0.000    0.000    0.000    0.000    0.000 
#    0.000    0.000    0.000    0.000    0.000    0.000 
#
# Total GULP energy -178614.945773 kJ/mol
# GULP energy per Si atom -5581.717055 kJ/mol
# Density = 2.300144 g / cm^3
# Si number density = 23.053907 Si / 1000 Ang^3
#
#
#
# Elastic Constant Matrix: (Units=GPa)
#
#
# Indices 1 2 3 4 5 6 
#
# 1 76.6654 -11.0848 13.1057 0.0000 5.9037 0.0000
# 2 -11.0848 38.8384 -7.3421 0.0000 2.0087 0.0000
# 3 13.1057 -7.3421 108.8708 0.0000 8.2925 0.0000
# 4 0.0000 0.0000 0.0000 10.8528 0.0000 13.2829
# 5 5.9037 2.0087 8.2925 0.0000 36.1543 0.0000
# 6 0.0000 0.0000 0.0000 13.2829 0.0000 1.0924
#
#
#
# Elastic Compliance Matrix: (Units=1/GPa)
#
#
# Indices 1 2 3 4 5 6 
#
# 1 0.013988 0.003869 -0.001254 0.000000 -0.002211 0.000000
# 2 0.003869 0.027277 0.001565 0.000000 -0.002506 0.000000
# 3 -0.001254 0.001565 0.009600 0.000000 -0.002084 0.000000
# 4 0.000000 0.000000 0.000000 -0.006638 0.000000 0.080708
# 5 -0.002211 -0.002506 -0.002084 0.000000 0.028638 0.000000
# 6 0.000000 0.000000 0.000000 0.080708 0.000000 -0.065943
#
#
# Mechanical properties :
#
#
# Convention : Reuss Voigt Hill
#
# Bulk Modulus (GPa) = 16.88470 23.74804 20.31637
# Shear Modulus (GPa) = 273.15189 24.93297 149.04243
#
# Velocity S-wave (km/s) = 10.89684 3.29220 8.04922
# Velocity P-wave (km/s) = 12.87096 4.97743 9.75798
#
# Compressibility (1/GPa) = 0.05922522
#
# Stress axis : x y z
#
# Youngs Moduli (GPa) = 71.49034 36.66027 104.16157
#
# Poissons Ratio (x) = -0.14186 0.13067
# Poissons Ratio (y) = -0.27663 -0.16298
# Poissons Ratio (z) = 0.08968 -0.05736
#
# Static dielectric constant tensor:
#      x y z
#    x 1.911100 0.000000 -0.133250 
#    y 0.000000 1.877040 0.000000 
#    z -0.133250 0.000000 2.132560 
# 
# From -- ./inp_files/250022.got.cif
#   From: 2010.05.17/outbox.cif.g08.bks.cpg/sg12_126_cif.got.tgz:250022.got - 2010.06.03 13:09:07.
