data_PCOD9196473
_publ_section_title
;
Structure prediction by ZEFSAII (Michael W. Deem and Ramdas Pophale) SiO2 
 PCOD9196473
Probable space group: C 2/M
;
_chemical_formula_sum "Si O2"
_cell_formula_units_Z 56
_cell_length_a 9.217320
_cell_length_b 10.775787
_cell_length_c 32.502353
_cell_angle_alpha 90.000000
_cell_angle_beta 113.253285
_cell_angle_gamma 90.000000
_cell_volume 2966.023580
_symmetry_space_group_name_H-M "C 2/M"
_symmetry_group_IT_number 12
_symmetry_cell_setting 'monoclinic'
loop_
_space_group_symop_operation_xyz
x,y,z
-x,y,-z
-x,-y,-z
x,-y,z
1/2+x,1/2+y,z
1/2-x,1/2+y,-z
1/2-x,1/2-y,-z
1/2+x,1/2-y,z
loop_
_atom_site_type_symbol
_atom_site_label
_atom_site_fract_x
_atom_site_fract_y
_atom_site_fract_z
Si Si1 0.257255 0.500000 0.446605
Si Si2 0.424485 0.246243 0.602978
Si Si3 0.003918 0.360716 0.127548
Si Si4 0.356826 0.291931 0.185803
Si Si5 0.624110 0.856647 0.976741
Si Si6 0.238173 0.849365 0.342124
Si Si7 0.709219 0.640258 0.244648
Si Si8 0.111095 0.000000 0.450845
O O1 0.174230 0.625561 0.421592
O O2 0.434278 0.500000 0.449067
O O3 0.269167 0.500000 0.497444
O O4 0.604872 0.203686 0.618756
O O5 0.399727 0.284522 0.647682
O O6 0.376579 0.371493 0.573173
O O7 0.947942 0.500000 0.127605
O O8 0.914155 0.281849 0.151831
O O9 0.959843 0.326015 0.076044
O O10 0.192983 0.357450 0.155102
O O11 0.519700 0.359689 0.216059
O O12 0.300409 0.214139 0.219383
O O13 0.686011 0.000000 0.981093
O O14 0.500000 0.855483 0.000000
O O15 0.750000 0.750000 0.000000
O O16 0.235123 0.813401 0.293934
O O17 0.231530 0.000000 0.344061
O O18 0.768388 0.500000 0.249570
#
# Coordination Sequence:
#
# PCOD9196473 Si02
#       8
#     4   8   8   8   8   8   8   4
#     4  11  24  41  63  91 123 155 193 243 291 339
#     4  12  22  42  62  90 118 158 193 238 289 347
#     4  10  20  35  57  81 112 150 188 241 289 341
#     4  10  20  36  57  82 110 145 193 232 289 344
#     4  10  21  37  56  83 118 154 197 241 290 346
#     4  11  23  38  61  86 120 152 193 237 291 345
#     4  10  21  37  56  83 113 148 183 237 285 345
#     4  11  24  41  63  91 123 153 197 243 287 343
#
# _framework density 18.880497999999999
#
# number of rings (size 3 to 8) (size 9 to 14) (size 15 to 20)
#    0.000    1.429    2.857    3.000    0.000    0.286 
#    0.000    4.286    3.143    0.000    0.000    0.000 
#    0.000    0.000    0.000    0.000    0.000    0.000 
#
# Total GULP energy -156097.118393 kJ/mol
# GULP energy per Si atom -5574.897085 kJ/mol
# Density = 1.883753 g / cm^3
# Si number density = 18.880498 Si / 1000 Ang^3
#
#
#
# Elastic Constant Matrix: (Units=GPa)
#
#
# Indices 1 2 3 4 5 6 
#
# 1 66.9877 29.0190 14.7135 0.0000 -7.7103 0.0000
# 2 29.0190 102.4201 53.0056 0.0000 -6.4747 0.0000
# 3 14.7135 53.0056 109.1966 0.0000 -18.7163 0.0000
# 4 0.0000 0.0000 0.0000 21.7951 0.0000 1.3411
# 5 -7.7103 -6.4747 -18.7163 0.0000 30.4222 0.0000
# 6 0.0000 0.0000 0.0000 1.3411 0.0000 17.0297
#
#
#
# Elastic Compliance Matrix: (Units=1/GPa)
#
#
# Indices 1 2 3 4 5 6 
#
# 1 0.017401 -0.005094 0.000780 0.000000 0.003806 0.000000
# 2 -0.005094 0.014573 -0.006794 0.000000 -0.002369 0.000000
# 3 0.000780 -0.006794 0.013567 0.000000 0.007099 0.000000
# 4 0.000000 0.000000 0.000000 0.046105 0.000000 -0.003631
# 5 0.003806 -0.002369 0.007099 0.000000 0.037698 0.000000
# 6 0.000000 0.000000 0.000000 -0.003631 0.000000 0.059007
#
#
# Mechanical properties :
#
#
# Convention : Reuss Voigt Hill
#
# Bulk Modulus (GPa) = 42.86806 52.45339 47.66072
# Shear Modulus (GPa) = 22.89984 25.97382 24.43683
#
# Velocity S-wave (km/s) = 3.48643 3.71306 3.60153
# Velocity P-wave (km/s) = 6.24188 6.79886 6.52632
#
# Compressibility (1/GPa) = 0.02332739
#
# Stress axis : x y z
#
# Youngs Moduli (GPa) = 57.46677 68.61977 73.70766
#
# Poissons Ratio (x) = 0.34952 -0.05750
# Poissons Ratio (y) = 0.29271 0.50075
# Poissons Ratio (z) = -0.04483 0.46618
#
# Static dielectric constant tensor:
#      x y z
#    x 1.622380 0.000000 -0.007310 
#    y 0.000000 1.633900 0.000000 
#    z -0.007310 0.000000 1.669050 
# 
# From -- ./inp_files/372234.got.cif
#   From: 2010.05.17/outbox.cif.g08.bks.cpg/sg12_187_cif.got.tgz:372234.got - 2010.06.03 13:09:07.
