data_PCOD9196829
_publ_section_title
;
Structure prediction by ZEFSAII (Michael W. Deem and Ramdas Pophale) SiO2 
 PCOD9196829
Probable space group: C 2/M
;
_chemical_formula_sum "Si O2"
_cell_formula_units_Z 48
_cell_length_a 10.876713
_cell_length_b 20.769890
_cell_length_c 10.736631
_cell_angle_alpha 90.000000
_cell_angle_beta 82.205239
_cell_angle_gamma 90.000000
_cell_volume 2403.081307
_symmetry_space_group_name_H-M "C 2/M"
_symmetry_group_IT_number 12
_symmetry_cell_setting 'monoclinic'
loop_
_space_group_symop_operation_xyz
x,y,z
-x,y,-z
-x,-y,-z
x,-y,z
1/2+x,1/2+y,z
1/2-x,1/2+y,-z
1/2-x,1/2-y,-z
1/2+x,1/2-y,z
loop_
_atom_site_type_symbol
_atom_site_label
_atom_site_fract_x
_atom_site_fract_y
_atom_site_fract_z
Si Si1 0.663748 0.327104 0.752333
Si Si2 0.601335 0.216836 0.382701
Si Si3 0.572478 0.634650 0.372579
Si Si4 0.143251 0.926656 0.956036
Si Si5 0.546554 0.802445 0.851077
Si Si6 0.289391 0.927437 0.195844
O O1 0.767951 0.319359 0.632635
O O2 0.533704 0.352660 0.716096
O O3 0.702371 0.377413 0.851816
O O4 0.641736 0.256614 0.814379
O O5 0.500000 0.196547 0.500000
O O6 0.619524 0.293305 0.398482
O O7 0.551033 0.206928 0.248527
O O8 0.500000 0.606701 0.500000
O O9 0.684219 0.591706 0.309504
O O10 0.141363 0.000000 0.908025
O O11 0.218534 0.925612 0.073346
O O12 0.000000 0.907612 0.000000
O O13 0.608965 0.871654 0.821934
O O14 0.500000 0.797649 0.000000
O O15 0.336702 0.000000 0.209308
#
# Coordination Sequence:
#
# PCOD9196829 Si02
#       6
#     8   8   8   8   8   8
#     4  11  21  37  65  90 122 152 198 257 299 350
#     4  10  23  39  61  90 124 160 196 247 309 363
#     4  10  22  36  59  91 118 155 201 250 303 353
#     4  10  20  35  57  88 121 151 189 243 309 355
#     4  11  24  38  62  94 122 157 206 249 295 358
#     4  11  23  40  60  86 125 161 198 247 299 358
#
# _framework density 19.974354000000002
#
# number of rings (size 3 to 8) (size 9 to 14) (size 15 to 20)
#    0.000    1.500    3.333    1.500    4.667    4.000 
#    0.000    0.833    0.000    1.000    0.000    0.000 
#    0.000    0.000    0.000    0.000    0.000    0.000 
#
# Total GULP energy -134055.530049 kJ/mol
# GULP energy per Si atom -5585.647085 kJ/mol
# Density = 1.992889 g / cm^3
# Si number density = 19.974354 Si / 1000 Ang^3
#
#
#
# Elastic Constant Matrix: (Units=GPa)
#
#
# Indices 1 2 3 4 5 6 
#
# 1 34.1836 15.8166 20.7187 0.0000 -3.4113 0.0000
# 2 15.8166 82.2201 42.1269 0.0000 -9.6237 0.0000
# 3 20.7187 42.1269 113.0125 0.0000 -15.2116 0.0000
# 4 0.0000 0.0000 0.0000 -18.0501 0.0000 -42.2913
# 5 -3.4113 -9.6237 -15.2116 0.0000 30.9376 0.0000
# 6 0.0000 0.0000 0.0000 -42.2913 0.0000 -4.0696
#
#
#
# Elastic Compliance Matrix: (Units=1/GPa)
#
#
# Indices 1 2 3 4 5 6 
#
# 1 0.034014 -0.004129 -0.004674 0.000000 0.000168 0.000000
# 2 -0.004129 0.015658 -0.004803 0.000000 0.002054 0.000000
# 3 -0.004674 -0.004803 0.012021 0.000000 0.003901 0.000000
# 4 0.000000 0.000000 0.000000 0.002373 0.000000 -0.024658
# 5 0.000168 0.002054 0.003901 0.000000 0.034899 0.000000
# 6 0.000000 0.000000 0.000000 -0.024658 0.000000 0.010524
#
#
# Mechanical properties :
#
#
# Convention : Reuss Voigt Hill
#
# Bulk Modulus (GPa) = 29.00179 42.97119 35.98649
# Shear Modulus (GPa) = 33.73930 11.81385 22.77658
#
# Velocity S-wave (km/s) = 4.11436 2.43462 3.38048
# Velocity P-wave (km/s) = 6.09276 5.42798 5.76995
#
# Compressibility (1/GPa) = 0.03448063
#
# Stress axis : x y z
#
# Youngs Moduli (GPa) = 29.39974 63.86418 83.18676
#
# Poissons Ratio (x) = 0.26368 0.38883
# Poissons Ratio (y) = 0.12138 0.39958
# Poissons Ratio (z) = 0.13742 0.30677
#
# Static dielectric constant tensor:
#      x y z
#    x 1.752020 0.000000 0.009930 
#    y 0.000000 1.681830 0.000000 
#    z 0.009930 0.000000 1.722630 
# 
# From -- ./inp_files/51347.got.cif
#   From: 2010.05.17/outbox.cif.g08.bks.cpg/sg12_26_cif.got.tgz:51347.got - 2010.06.03 13:09:07.
