data_PCOD9196822
_publ_section_title
;
Structure prediction by ZEFSAII (Michael W. Deem and Ramdas Pophale) SiO2 
 PCOD9196822
Probable space group: C 2/M
;
_chemical_formula_sum "Si O2"
_cell_formula_units_Z 64
_cell_length_a 29.569243
_cell_length_b 8.703387
_cell_length_c 15.516549
_cell_angle_alpha 90.000000
_cell_angle_beta 48.897892
_cell_angle_gamma 90.000000
_cell_volume 3009.050606
_symmetry_space_group_name_H-M "C 2/M"
_symmetry_group_IT_number 12
_symmetry_cell_setting 'monoclinic'
loop_
_space_group_symop_operation_xyz
x,y,z
-x,y,-z
-x,-y,-z
x,-y,z
1/2+x,1/2+y,z
1/2-x,1/2+y,-z
1/2-x,1/2-y,-z
1/2+x,1/2-y,z
loop_
_atom_site_type_symbol
_atom_site_label
_atom_site_fract_x
_atom_site_fract_y
_atom_site_fract_z
Si Si1 0.468931 0.317257 0.900141
Si Si2 0.889957 0.685054 0.845085
Si Si3 0.432179 0.316164 0.610395
Si Si4 0.890180 0.820387 0.292171
Si Si5 0.181125 0.683362 0.326225
Si Si6 0.781390 0.680103 0.092152
Si Si7 0.207861 0.319734 0.479594
Si Si8 0.626962 0.822088 0.861928
O O1 0.460239 0.500000 0.923374
O O2 0.435311 0.261746 0.856283
O O3 0.539389 0.287325 0.804653
O O4 0.436446 0.229406 0.018429
O O5 0.892794 0.500000 0.849796
O O6 0.910122 0.737724 0.726120
O O7 0.822401 0.730376 0.959995
O O8 0.500000 0.271969 0.500000
O O9 0.430517 0.500000 0.622526
O O10 0.383157 0.263205 0.602310
O O11 0.858827 0.719738 0.404123
O O12 0.860792 0.780465 0.236710
O O13 0.881944 0.000000 0.321945
O O14 0.173702 0.500000 0.338754
O O15 0.222894 0.727097 0.192976
O O16 0.212590 0.737461 0.375580
O O17 0.765971 0.500000 0.101801
O O18 0.826371 0.694927 0.118072
O O19 0.218653 0.500000 0.465181
O O20 0.250000 0.250000 0.500000
O O21 0.626137 0.000000 0.836621
#
# Coordination Sequence:
#
# PCOD9196822 Si02
#       8
#     8   8   8   8   8   8   8   8
#     4  10  21  36  56  86 124 164 209 259 315 380
#     4  10  22  41  66  95 127 164 209 261 318 375
#     4  11  26  46  69  96 128 168 212 260 320 384
#     4  11  23  36  55  83 119 164 211 262 318 379
#     4  11  25  43  66  97 127 166 215 263 319 379
#     4   9  20  39  63  92 125 163 205 256 316 377
#     4  11  25  43  63  91 125 165 213 262 319 381
#     4  10  20  35  57  87 123 165 211 261 319 375
#
# _framework density 21.269165000000001
#
# number of rings (size 3 to 8) (size 9 to 14) (size 15 to 20)
#    0.000    1.625    0.000    4.500    1.750   12.000 
#    0.000    0.000    0.000    0.000    0.000    0.000 
#    0.000    0.000    0.000    0.000    0.000    0.000 
#
# Total GULP energy -178950.163695 kJ/mol
# GULP energy per Si atom -5592.192615 kJ/mol
# Density = 2.122076 g / cm^3
# Si number density = 21.269165 Si / 1000 Ang^3
#
#
#
# Elastic Constant Matrix: (Units=GPa)
#
#
# Indices 1 2 3 4 5 6 
#
# 1 72.2377 15.1370 32.5848 0.0000 -9.1334 -0.0001
# 2 15.1370 25.1530 12.4159 -0.0001 -14.1571 -0.0001
# 3 32.5848 12.4159 104.2533 0.0000 -3.0169 0.0000
# 4 0.0000 -0.0001 0.0000 28.2620 0.0000 -3.0185
# 5 -9.1334 -14.1571 -3.0169 0.0000 35.4791 0.0000
# 6 -0.0001 -0.0001 0.0000 -3.0185 0.0000 29.8376
#
#
#
# Elastic Compliance Matrix: (Units=1/GPa)
#
#
# Indices 1 2 3 4 5 6 
#
# 1 0.017667 -0.007786 -0.004564 0.000000 0.001053 0.000000
# 2 -0.007786 0.058091 -0.003881 0.000000 0.020845 0.000000
# 3 -0.004564 -0.003881 0.011430 0.000000 -0.001752 0.000000
# 4 0.000000 0.000000 0.000000 0.035770 0.000000 0.003619
# 5 0.001053 0.020845 -0.001752 0.000000 0.036626 0.000000
# 6 0.000000 0.000000 0.000000 0.003619 0.000000 0.033881
#
#
# Mechanical properties :
#
#
# Convention : Reuss Voigt Hill
#
# Bulk Modulus (GPa) = 18.27341 35.76882 27.02112
# Shear Modulus (GPa) = 20.47768 28.14949 24.31359
#
# Velocity S-wave (km/s) = 3.10625 3.64192 3.38470
# Velocity P-wave (km/s) = 4.63413 5.87695 5.29215
#
# Compressibility (1/GPa) = 0.05472432
#
# Stress axis : x y z
#
# Youngs Moduli (GPa) = 56.60399 17.21440 87.48851
#
# Poissons Ratio (x) = 0.13404 0.39930
# Poissons Ratio (y) = 0.44073 0.33958
# Poissons Ratio (z) = 0.25834 0.06682
#
# Static dielectric constant tensor:
#      x y z
#    x 1.804740 0.000000 0.007550 
#    y 0.000000 1.711930 0.000000 
#    z 0.007550 0.000000 1.776690 
# 
# From -- ./inp_files/249894.got.cif
#   From: 2010.05.17/outbox.cif.g08.bks.cpg/sg12_125_cif.got.tgz:249894.got - 2010.06.03 13:09:07.
