data_PCOD9196715
_publ_section_title
;
Structure prediction by ZEFSAII (Michael W. Deem and Ramdas Pophale) SiO2 
 PCOD9196715
Probable space group: C 2/M
;
_chemical_formula_sum "Si O2"
_cell_formula_units_Z 56
_cell_length_a 9.271852
_cell_length_b 18.035055
_cell_length_c 17.105937
_cell_angle_alpha 90.000000
_cell_angle_beta 103.290508
_cell_angle_gamma 90.000000
_cell_volume 2783.815852
_symmetry_space_group_name_H-M "C 2/M"
_symmetry_group_IT_number 12
_symmetry_cell_setting 'monoclinic'
loop_
_space_group_symop_operation_xyz
x,y,z
-x,y,-z
-x,-y,-z
x,-y,z
1/2+x,1/2+y,z
1/2-x,1/2+y,-z
1/2-x,1/2-y,-z
1/2+x,1/2-y,z
loop_
_atom_site_type_symbol
_atom_site_label
_atom_site_fract_x
_atom_site_fract_y
_atom_site_fract_z
Si Si1 0.995077 0.582582 0.904977
Si Si2 0.396135 0.228013 0.060488
Si Si3 0.654545 0.590252 0.480157
Si Si4 0.746559 0.911004 0.681765
Si Si5 0.779705 0.345440 0.760589
Si Si6 0.093115 0.412797 0.373741
Si Si7 0.535814 0.695027 0.218701
O O1 0.021839 0.500000 0.876112
O O2 0.110733 0.647883 0.898138
O O3 0.844670 0.616213 0.847909
O O4 0.000000 0.575052 0.000000
O O5 0.462979 0.289043 0.125617
O O6 0.500000 0.217715 0.000000
O O7 0.250000 0.250000 0.000000
O O8 0.500000 0.615722 0.500000
O O9 0.654271 0.500000 0.485845
O O10 0.676531 0.607513 0.391904
O O11 0.799837 0.617861 0.545137
O O12 0.575253 0.884793 0.656431
O O13 0.844440 0.869682 0.758318
O O14 0.748811 0.000000 0.692612
O O15 0.817247 0.400480 0.694922
O O16 0.608141 0.323991 0.747098
O O17 0.874578 0.271175 0.754541
O O18 0.075205 0.500000 0.388032
#
# Coordination Sequence:
#
# PCOD9196715 Si02
#       7
#     8   8   8   8   8   8   8
#     4   9  18  33  55  83 111 142 184 234 286 339
#     4  10  20  37  59  82 111 150 190 233 287 350
#     4   9  17  32  56  84 114 151 194 236 283 345
#     4  10  21  37  57  84 118 152 190 239 292 347
#     4  11  22  36  55  80 112 149 192 241 287 346
#     4  10  20  35  57  85 116 152 192 238 294 350
#     4  11  22  37  57  82 112 150 193 237 292 350
#
# _framework density 20.116273
#
# number of rings (size 3 to 8) (size 9 to 14) (size 15 to 20)
#    0.000    2.000    0.000    5.143    0.000    5.143 
#    0.000    1.429    0.000    0.857    0.000    0.000 
#    0.000    0.000    0.000    0.000    0.000    0.000 
#
# Total GULP energy -156000.155080 kJ/mol
# GULP energy per Si atom -5571.434110 kJ/mol
# Density = 2.007049 g / cm^3
# Si number density = 20.116273 Si / 1000 Ang^3
#
#
#
# Elastic Constant Matrix: (Units=GPa)
#
#
# Indices 1 2 3 4 5 6 
#
# 1 121.0435 49.2146 24.5654 0.0000 23.6509 0.0000
# 2 49.2146 69.7916 36.3873 0.0000 21.4453 0.0000
# 3 24.5654 36.3873 80.7440 0.0000 22.6307 0.0000
# 4 0.0000 0.0000 0.0000 32.5309 0.0000 -8.5006
# 5 23.6509 21.4453 22.6307 0.0000 37.7989 0.0000
# 6 0.0000 0.0000 0.0000 -8.5006 0.0000 20.3451
#
#
#
# Elastic Compliance Matrix: (Units=1/GPa)
#
#
# Indices 1 2 3 4 5 6 
#
# 1 0.011948 -0.007780 0.000876 0.000000 -0.003586 0.000000
# 2 -0.007780 0.025320 -0.007668 0.000000 -0.004906 0.000000
# 3 0.000876 -0.007668 0.017434 0.000000 -0.006635 0.000000
# 4 0.000000 0.000000 0.000000 0.034508 0.000000 0.014418
# 5 -0.003586 -0.004906 -0.006635 0.000000 0.035456 0.000000
# 6 0.000000 0.000000 0.000000 0.014418 0.000000 0.055176
#
#
# Mechanical properties :
#
#
# Convention : Reuss Voigt Hill
#
# Bulk Modulus (GPa) = 39.12765 54.65709 46.89237
# Shear Modulus (GPa) = 22.98801 28.89576 25.94189
#
# Velocity S-wave (km/s) = 3.38414 3.79415 3.59499
# Velocity P-wave (km/s) = 5.89600 6.81349 6.37128
#
# Compressibility (1/GPa) = 0.02555737
#
# Stress axis : x y z
#
# Youngs Moduli (GPa) = 83.69885 39.49412 57.35995
#
# Poissons Ratio (x) = 0.30726 -0.05026
# Poissons Ratio (y) = 0.65117 0.43986
# Poissons Ratio (z) = -0.07334 0.30286
#
# Static dielectric constant tensor:
#      x y z
#    x 1.720800 0.000000 -0.057160 
#    y 0.000000 1.902430 0.000000 
#    z -0.057160 0.000000 1.937560 
# 
# From -- ./inp_files/257153.got.cif
#   From: 2010.05.17/outbox.cif.g08.bks.cpg/sg12_129_cif.got.tgz:257153.got - 2010.06.03 13:09:07.
