data_PCOD9196940
_publ_section_title
;
Structure prediction by ZEFSAII (Michael W. Deem and Ramdas Pophale) SiO2 
 PCOD9196940
Probable space group: C 2/M
;
_chemical_formula_sum "Si O2"
_cell_formula_units_Z 48
_cell_length_a 15.479145
_cell_length_b 14.579754
_cell_length_c 11.626592
_cell_angle_alpha 90.000000
_cell_angle_beta 75.884138
_cell_angle_gamma 90.000000
_cell_volume 2544.683699
_symmetry_space_group_name_H-M "C 2/M"
_symmetry_group_IT_number 12
_symmetry_cell_setting 'monoclinic'
loop_
_space_group_symop_operation_xyz
x,y,z
-x,y,-z
-x,-y,-z
x,-y,z
1/2+x,1/2+y,z
1/2-x,1/2+y,-z
1/2-x,1/2-y,-z
1/2+x,1/2-y,z
loop_
_atom_site_type_symbol
_atom_site_label
_atom_site_fract_x
_atom_site_fract_y
_atom_site_fract_z
Si Si1 0.099510 0.102642 0.429931
Si Si2 0.777685 0.837106 0.413942
Si Si3 0.925348 0.109267 0.199301
Si Si4 0.608367 0.294585 0.204582
Si Si5 0.684852 0.396782 0.983336
Si Si6 0.347109 0.102710 0.747694
O O1 0.169151 0.101481 0.511073
O O2 0.137208 0.166392 0.318212
O O3 0.000000 0.134854 0.500000
O O4 0.086510 0.000000 0.388981
O O5 0.750000 0.750000 0.500000
O O6 0.854530 0.828679 0.292160
O O7 0.696505 0.877317 0.363993
O O8 0.898843 0.115190 0.074744
O O9 0.020991 0.148814 0.198194
O O10 0.916897 0.000000 0.232133
O O11 0.592426 0.187189 0.231159
O O12 0.679877 0.321583 0.084366
O O13 0.681112 0.500000 0.035280
O O14 0.767773 0.395063 0.868613
O O15 0.385173 0.000000 0.735478
#
# Coordination Sequence:
#
# PCOD9196940 Si02
#       6
#     8   8   8   8   8   8
#     4  11  21  33  54  83 112 135 167 226 285 322
#     4  11  20  36  54  77 109 145 179 210 266 337
#     4  10  20  35  58  84 113 140 172 227 286 324
#     4  12  20  32  56  86 108 137 185 225 266 322
#     4   9  19  35  56  84 111 137 175 224 279 326
#     4  10  22  38  54  74 110 155 184 214 265 326
#
# _framework density 18.862856000000001
#
# number of rings (size 3 to 8) (size 9 to 14) (size 15 to 20)
#    0.000    1.500    3.333    5.000    0.000    1.333 
#    0.000    0.000    0.000    8.500    0.000    0.000 
#    0.000    0.000    0.000    0.000    0.000    0.000 
#
# Total GULP energy -133696.503623 kJ/mol
# GULP energy per Si atom -5570.687651 kJ/mol
# Density = 1.881992 g / cm^3
# Si number density = 18.862856 Si / 1000 Ang^3
#
#
#
# Elastic Constant Matrix: (Units=GPa)
#
#
# Indices 1 2 3 4 5 6 
#
# 1 27.6509 12.5359 7.7132 0.0000 3.9487 0.0000
# 2 12.5359 114.4659 53.5351 0.0000 5.4077 0.0000
# 3 7.7132 53.5351 88.7047 0.0000 6.0018 0.0000
# 4 0.0000 0.0000 0.0000 27.0305 0.0000 -5.2703
# 5 3.9487 5.4077 6.0018 0.0000 21.0726 0.0000
# 6 0.0000 0.0000 0.0000 -5.2703 0.0000 4.0258
#
#
#
# Elastic Compliance Matrix: (Units=1/GPa)
#
#
# Indices 1 2 3 4 5 6 
#
# 1 0.038895 -0.003598 -0.000795 0.000000 -0.006139 0.000000
# 2 -0.003598 0.012528 -0.007215 0.000000 -0.000486 0.000000
# 3 -0.000795 -0.007215 0.015867 0.000000 -0.002519 0.000000
# 4 0.000000 0.000000 0.000000 0.049674 0.000000 0.065030
# 5 -0.006139 -0.000486 -0.002519 0.000000 0.049447 0.000000
# 6 0.000000 0.000000 0.000000 0.065030 0.000000 0.333527
#
#
# Mechanical properties :
#
#
# Convention : Reuss Voigt Hill
#
# Bulk Modulus (GPa) = 22.68929 42.04332 32.36631
# Shear Modulus (GPa) = 9.29634 20.89495 15.09564
#
# Velocity S-wave (km/s) = 2.22240 3.33187 2.83200
# Velocity P-wave (km/s) = 4.31742 6.09419 5.28106
#
# Compressibility (1/GPa) = 0.04407366
#
# Stress axis : x y z
#
# Youngs Moduli (GPa) = 25.71038 79.82401 63.02265
#
# Poissons Ratio (x) = 0.28717 0.05013
# Poissons Ratio (y) = 0.09249 0.45471
# Poissons Ratio (z) = 0.02045 0.57593
#
# Static dielectric constant tensor:
#      x y z
#    x 1.669460 0.000000 -0.007400 
#    y 0.000000 1.666820 0.000000 
#    z -0.007400 0.000000 1.702580 
# 
# From -- ./inp_files/142740.got.cif
#   From: 2010.05.17/outbox.cif.g08.bks.cpg/sg12_72_cif.got.tgz:142740.got - 2010.06.03 13:09:07.
