data_PCOD9196379
_publ_section_title
;
Structure prediction by ZEFSAII (Michael W. Deem and Ramdas Pophale) SiO2 
 PCOD9196379
Probable space group: C 2/M
;
_chemical_formula_sum "Si O2"
_cell_formula_units_Z 48
_cell_length_a 23.330308
_cell_length_b 7.662511
_cell_length_c 12.354135
_cell_angle_alpha 90.000000
_cell_angle_beta 70.322945
_cell_angle_gamma 90.000000
_cell_volume 2079.566900
_symmetry_space_group_name_H-M "C 2/M"
_symmetry_group_IT_number 12
_symmetry_cell_setting 'monoclinic'
loop_
_space_group_symop_operation_xyz
x,y,z
-x,y,-z
-x,-y,-z
x,-y,z
1/2+x,1/2+y,z
1/2-x,1/2+y,-z
1/2-x,1/2-y,-z
1/2+x,1/2-y,z
loop_
_atom_site_type_symbol
_atom_site_label
_atom_site_fract_x
_atom_site_fract_y
_atom_site_fract_z
Si Si1 0.067049 0.199874 0.446928
Si Si2 0.310107 0.705275 0.228040
Si Si3 0.409547 0.202455 0.334466
Si Si4 0.819141 0.787725 0.754120
Si Si5 0.657499 0.296298 0.028612
Si Si6 0.981546 0.711548 0.890041
O O1 0.095086 0.201453 0.549020
O O2 0.117016 0.277518 0.334818
O O3 0.000000 0.281368 0.500000
O O4 0.057534 0.000000 0.415848
O O5 0.324416 0.500000 0.219811
O O6 0.350306 0.785118 0.297080
O O7 0.238046 0.731605 0.280881
O O8 0.328343 0.781166 0.098189
O O9 0.466855 0.268204 0.227258
O O10 0.420702 0.000000 0.352774
O O11 0.811512 0.723849 0.882685
O O12 0.820505 0.000000 0.754150
O O13 0.674109 0.500000 0.012040
O O14 0.585190 0.280966 0.092918
O O15 0.979445 0.500000 0.889809
O O16 0.000000 0.765043 0.000000
#
# Coordination Sequence:
#
# PCOD9196379 Si02
#       6
#     8   8   8   8   8   8
#     4  10  22  42  66  89 117 153 195 243 292 348
#     4  11  23  38  59  89 121 155 198 244 292 348
#     4  11  23  39  61  88 121 158 196 242 294 348
#     4  10  22  40  61  86 118 157 197 239 294 351
#     4  10  21  37  60  89 119 155 198 243 292 349
#     4  10  20  35  56  85 119 153 190 235 292 348
#
# _framework density 23.081727999999998
#
# number of rings (size 3 to 8) (size 9 to 14) (size 15 to 20)
#    0.000    1.667    1.667    2.500    0.000    6.000 
#    0.000    0.000    0.000    0.000    0.000    0.000 
#    0.000    0.000    0.000    0.000    0.000    0.000 
#
# Total GULP energy -134224.449170 kJ/mol
# GULP energy per Si atom -5592.685382 kJ/mol
# Density = 2.302919 g / cm^3
# Si number density = 23.081728 Si / 1000 Ang^3
#
#
#
# Elastic Constant Matrix: (Units=GPa)
#
#
# Indices 1 2 3 4 5 6 
#
# 1 118.1413 -10.1270 20.7507 0.0000 -0.4223 0.0000
# 2 -10.1270 54.6364 2.1417 0.0000 -0.7312 0.0000
# 3 20.7507 2.1417 87.9462 0.0000 3.9456 0.0000
# 4 0.0000 0.0000 0.0000 3.7696 0.0000 -0.7598
# 5 -0.4223 -0.7312 3.9456 0.0000 35.4980 0.0000
# 6 0.0000 0.0000 0.0000 -0.7598 0.0000 26.4651
#
#
#
# Elastic Compliance Matrix: (Units=1/GPa)
#
#
# Indices 1 2 3 4 5 6 
#
# 1 0.009000 0.001759 -0.002184 0.000000 0.000386 0.000000
# 2 0.001759 0.018671 -0.000892 0.000000 0.000505 0.000000
# 3 -0.002184 -0.000892 0.011969 0.000000 -0.001375 0.000000
# 4 0.000000 0.000000 0.000000 0.266828 0.000000 0.007661
# 5 0.000386 0.000505 -0.001375 0.000000 0.028338 0.000000
# 6 0.000000 0.000000 0.000000 0.007661 0.000000 0.038006
#
#
# Mechanical properties :
#
#
# Convention : Reuss Voigt Hill
#
# Bulk Modulus (GPa) = 27.02281 31.80608 29.41445
# Shear Modulus (GPa) = 12.89387 29.67711 21.28549
#
# Velocity S-wave (km/s) = 2.36607 3.58961 3.04003
# Velocity P-wave (km/s) = 4.38147 5.56688 5.00936
#
# Compressibility (1/GPa) = 0.03700577
#
# Stress axis : x y z
#
# Youngs Moduli (GPa) = 111.10926 53.56026 83.54755
#
# Poissons Ratio (x) = -0.09421 0.18244
# Poissons Ratio (y) = -0.19544 0.07455
# Poissons Ratio (z) = 0.24263 0.04779
#
# Static dielectric constant tensor:
#      x y z
#    x 1.836760 0.000000 -0.013630 
#    y 0.000000 1.847760 0.000000 
#    z -0.013630 0.000000 1.865720 
# 
# From -- ./inp_files/172912.got.cif
#   From: 2010.05.17/outbox.cif.g08.bks.cpg/sg12_87_cif.got.tgz:172912.got - 2010.06.03 13:09:07.
