data_PCOD9196610
_publ_section_title
;
Structure prediction by ZEFSAII (Michael W. Deem and Ramdas Pophale) SiO2 
 PCOD9196610
Probable space group: C 2/M
;
_chemical_formula_sum "Si O2"
_cell_formula_units_Z 44
_cell_length_a 13.378840
_cell_length_b 18.790807
_cell_length_c 12.044637
_cell_angle_alpha 90.000000
_cell_angle_beta 45.371721
_cell_angle_gamma 90.000000
_cell_volume 2154.973852
_symmetry_space_group_name_H-M "C 2/M"
_symmetry_group_IT_number 12
_symmetry_cell_setting 'monoclinic'
loop_
_space_group_symop_operation_xyz
x,y,z
-x,y,-z
-x,-y,-z
x,-y,z
1/2+x,1/2+y,z
1/2-x,1/2+y,-z
1/2-x,1/2-y,-z
1/2+x,1/2-y,z
loop_
_atom_site_type_symbol
_atom_site_label
_atom_site_fract_x
_atom_site_fract_y
_atom_site_fract_z
Si Si1 0.789841 0.626109 0.978020
Si Si2 0.697488 0.077059 0.782788
Si Si3 0.775599 0.000000 0.116153
Si Si4 0.966016 0.846920 0.285323
Si Si5 0.037934 0.716331 0.842631
Si Si6 0.085896 0.000000 0.758822
Si Si7 0.000000 0.872872 0.500000
O O1 0.799996 0.570386 0.870289
O O2 0.897016 0.691278 0.889119
O O3 0.826805 0.587706 0.066467
O O4 0.627563 0.648667 0.116612
O O5 0.632806 0.145742 0.774163
O O6 0.864004 0.081057 0.635146
O O7 0.643652 0.000000 0.788933
O O8 0.807608 0.000000 0.221089
O O9 0.928512 0.000000 0.934937
O O10 0.968006 0.829536 0.413635
O O11 0.897052 0.784716 0.267230
O O12 0.903788 0.926246 0.316689
O O13 0.000000 0.734368 0.000000
#
# Coordination Sequence:
#
# PCOD9196610 Si02
#       7
#     8   8   4   8   8   4   4
#     4   9  18  32  56  82 114 145 174 224 274 336
#     4  10  20  35  57  84 109 145 188 227 274 321
#     4   9  16  30  51  77 113 142 174 212 272 331
#     4  10  21  37  55  83 110 144 188 224 276 321
#     4  10  22  34  55  85 118 144 174 227 281 334
#     4   9  20  31  52  81 105 144 179 227 269 314
#     4  10  23  38  62  76 107 146 192 239 262 320
#
# _framework density 20.417881999999999
#
# number of rings (size 3 to 8) (size 9 to 14) (size 15 to 20)
#    0.000    2.364    0.909    0.818   11.455    1.818 
#    0.000    0.000    0.000    0.000    0.000    1.909 
#    0.000    0.000    0.000    0.000    0.000    0.000 
#
# Total GULP energy -122768.715399 kJ/mol
# GULP energy per Si atom -5580.396154 kJ/mol
# Density = 2.037141 g / cm^3
# Si number density = 20.417882 Si / 1000 Ang^3
#
#
#
# Elastic Constant Matrix: (Units=GPa)
#
#
# Indices 1 2 3 4 5 6 
#
# 1 72.0081 50.9584 11.8444 0.0001 18.6139 -0.0001
# 2 50.9584 159.0253 28.0872 0.0000 22.6027 -0.0001
# 3 11.8444 28.0872 40.9699 0.0001 9.3178 -0.0002
# 4 0.0001 0.0000 0.0001 4.8125 -0.0001 5.3881
# 5 18.6139 22.6027 9.3178 -0.0001 29.9676 0.0001
# 6 -0.0001 -0.0001 -0.0002 5.3881 0.0001 25.5505
#
#
#
# Elastic Compliance Matrix: (Units=1/GPa)
#
#
# Indices 1 2 3 4 5 6 
#
# 1 0.019671 -0.005067 -0.000327 -0.000001 -0.008295 0.000000
# 2 -0.005067 0.008978 -0.004160 0.000000 -0.002331 0.000000
# 3 -0.000327 -0.004160 0.028619 -0.000001 -0.005558 0.000000
# 4 -0.000001 0.000000 -0.000001 0.272015 0.000002 -0.057363
# 5 -0.008295 -0.002331 -0.005558 0.000002 0.042008 -0.000001
# 6 0.000000 0.000000 0.000000 -0.057363 -0.000001 0.051235
#
#
# Mechanical properties :
#
#
# Convention : Reuss Voigt Hill
#
# Bulk Modulus (GPa) = 26.20511 50.42040 38.31276
# Shear Modulus (GPa) = 11.00468 24.14033 17.57250
#
# Velocity S-wave (km/s) = 2.32410 3.44221 2.93685
# Velocity P-wave (km/s) = 4.47930 6.36759 5.50502
#
# Compressibility (1/GPa) = 0.03816049
#
# Stress axis : x y z
#
# Youngs Moduli (GPa) = 50.83645 111.38433 34.94241
#
# Poissons Ratio (x) = 0.56435 0.01142
# Poissons Ratio (y) = 0.25757 0.14536
# Poissons Ratio (z) = 0.01661 0.46336
#
# Static dielectric constant tensor:
#      x y z
#    x 1.751080 0.000000 -0.020950 
#    y 0.000000 1.761890 0.000000 
#    z -0.020950 0.000000 1.724640 
# 
# From -- ./inp_files/145361.got.cif
#   From: 2010.05.17/outbox.cif.g08.bks.cpg/sg12_73_cif.got.tgz:145361.got - 2010.06.03 13:09:07.
