data_PCOD9196641
_publ_section_title
;
Structure prediction by ZEFSAII (Michael W. Deem and Ramdas Pophale) SiO2 
 PCOD9196641
Probable space group: C 2/M
;
_chemical_formula_sum "Si O2"
_cell_formula_units_Z 48
_cell_length_a 14.435700
_cell_length_b 13.123799
_cell_length_c 14.437097
_cell_angle_alpha 90.000000
_cell_angle_beta 40.294693
_cell_angle_gamma 90.000000
_cell_volume 1768.858136
_symmetry_space_group_name_H-M "C 2/M"
_symmetry_group_IT_number 12
_symmetry_cell_setting 'monoclinic'
loop_
_space_group_symop_operation_xyz
x,y,z
-x,y,-z
-x,-y,-z
x,-y,z
1/2+x,1/2+y,z
1/2-x,1/2+y,-z
1/2-x,1/2-y,-z
1/2+x,1/2-y,z
loop_
_atom_site_type_symbol
_atom_site_label
_atom_site_fract_x
_atom_site_fract_y
_atom_site_fract_z
Si Si1 0.730198 0.336682 0.373951
Si Si2 0.052505 0.832469 0.318535
Si Si3 0.882078 0.392684 0.736838
Si Si4 0.611557 0.659267 0.066038
Si Si5 0.035720 0.387794 0.081387
Si Si6 0.295169 0.609875 0.313073
O O1 0.663753 0.341587 0.319117
O O2 0.599840 0.376773 0.534895
O O3 0.883887 0.387574 0.250296
O O4 0.763992 0.220235 0.379232
O O5 0.032148 0.710955 0.320192
O O6 0.105962 0.870220 0.178807
O O7 0.957273 0.500000 0.696475
O O8 0.819810 0.394136 0.681214
O O9 0.742772 0.384188 0.908494
O O10 0.612342 0.782539 0.051962
O O11 0.455879 0.622433 0.149800
O O12 0.102710 0.500000 0.042547
O O13 0.000000 0.376852 0.000000
O O14 0.288482 0.500000 0.366741
#
# Coordination Sequence:
#
# PCOD9196641 Si02
#       6
#     8   8   8   8   8   8
#     4   9  20  40  57  75 110 150 183 222 273 330
#     4  10  21  36  55  78 111 150 183 220 273 325
#     4  10  20  35  57  84 114 145 178 220 274 334
#     4  11  20  34  56  84 112 141 182 234 275 314
#     4  10  21  38  60  82 107 146 190 227 267 319
#     4   9  18  33  56  82 107 138 176 223 281 335
#
# _framework density 27.136151999999999
#
# number of rings (size 3 to 8) (size 9 to 14) (size 15 to 20)
#    0.000    2.167    0.000    4.500    0.000    5.333 
#    0.000   11.667    0.000    1.000    0.000    0.000 
#    0.000    0.000    0.000    0.000    0.000    0.000 
#
# Total GULP energy -134393.585643 kJ/mol
# GULP energy per Si atom -5599.732735 kJ/mol
# Density = 2.707439 g / cm^3
# Si number density = 27.136152 Si / 1000 Ang^3
#
#
#
# Elastic Constant Matrix: (Units=GPa)
#
#
# Indices 1 2 3 4 5 6 
#
# 1 78.5322 27.5021 9.9536 0.0000 21.4332 0.0000
# 2 27.5021 164.2390 27.5892 0.0000 -0.6840 0.0000
# 3 9.9536 27.5892 111.9469 0.0000 -17.7306 0.0000
# 4 0.0000 0.0000 0.0000 -18.7431 0.0000 7.9768
# 5 21.4332 -0.6840 -17.7306 0.0000 45.6847 0.0000
# 6 0.0000 0.0000 0.0000 7.9768 0.0000 25.2765
#
#
#
# Elastic Compliance Matrix: (Units=1/GPa)
#
#
# Indices 1 2 3 4 5 6 
#
# 1 0.016152 -0.002372 -0.002192 0.000000 -0.008464 0.000000
# 2 -0.002372 0.006713 -0.001333 0.000000 0.000696 0.000000
# 3 -0.002192 -0.001333 0.010246 0.000000 0.004985 0.000000
# 4 0.000000 0.000000 0.000000 -0.047036 0.000000 0.014844
# 5 -0.008464 0.000696 0.004985 0.000000 0.027805 0.000000
# 6 0.000000 0.000000 0.000000 0.014844 0.000000 0.034878
#
#
# Mechanical properties :
#
#
# Convention : Reuss Voigt Hill
#
# Bulk Modulus (GPa) = 46.91250 53.86755 50.39002
# Shear Modulus (GPa) = 73.90093 29.75516 51.82804
#
# Velocity S-wave (km/s) = 5.22422 3.31496 4.37501
# Velocity P-wave (km/s) = 7.32908 5.87757 6.64309
#
# Compressibility (1/GPa) = 0.02131628
#
# Stress axis : x y z
#
# Youngs Moduli (GPa) = 61.91142 148.97153 97.60037
#
# Poissons Ratio (x) = 0.35331 0.21396
# Poissons Ratio (y) = 0.14683 0.13013
# Poissons Ratio (z) = 0.13572 0.19862
#
# Static dielectric constant tensor:
#      x y z
#    x 2.135330 0.000000 0.033690 
#    y 0.000000 2.125690 0.000000 
#    z 0.033690 0.000000 2.058220 
# 
# From -- ./inp_files/225078.got.cif
#   From: 2010.05.17/outbox.cif.g08.bks.cpg/sg12_113_cif.got.tgz:225078.got - 2010.06.03 13:09:07.
