data_PCOD9196921
_publ_section_title
;
Structure prediction by ZEFSAII (Michael W. Deem and Ramdas Pophale) SiO2 
 PCOD9196921
Probable space group: C 2/M
;
_chemical_formula_sum "Si O2"
_cell_formula_units_Z 64
_cell_length_a 28.304036
_cell_length_b 7.608246
_cell_length_c 18.292292
_cell_angle_alpha 90.000000
_cell_angle_beta 49.066351
_cell_angle_gamma 90.000000
_cell_volume 2975.894863
_symmetry_space_group_name_H-M "C 2/M"
_symmetry_group_IT_number 12
_symmetry_cell_setting 'monoclinic'
loop_
_space_group_symop_operation_xyz
x,y,z
-x,y,-z
-x,-y,-z
x,-y,z
1/2+x,1/2+y,z
1/2-x,1/2+y,-z
1/2-x,1/2-y,-z
1/2+x,1/2-y,z
loop_
_atom_site_type_symbol
_atom_site_label
_atom_site_fract_x
_atom_site_fract_y
_atom_site_fract_z
Si Si1 0.122795 0.788736 0.711579
Si Si2 0.247153 0.792282 0.177394
Si Si3 0.130011 0.209423 0.203075
Si Si4 0.876376 0.288828 0.460577
Si Si5 0.748341 0.705436 0.658981
Si Si6 0.127724 0.212672 0.038750
Si Si7 0.502938 0.715122 0.081467
Si Si8 0.999138 0.287583 0.584718
O O1 0.123890 0.749645 0.624855
O O2 0.185294 0.718910 0.687449
O O3 0.059008 0.724412 0.813447
O O4 0.122108 0.000000 0.721472
O O5 0.187407 0.720528 0.193443
O O6 0.253199 0.715665 0.252169
O O7 0.309668 0.762568 0.067515
O O8 0.238191 0.000000 0.196650
O O9 0.064329 0.238613 0.309605
O O10 0.139890 0.000000 0.187188
O O11 0.129034 0.277811 0.121028
O O12 0.877067 0.500000 0.469354
O O13 0.813071 0.219046 0.562170
O O14 0.939543 0.222313 0.434778
O O15 0.748783 0.500000 0.637501
O O16 0.124986 0.000000 0.043225
O O17 0.065945 0.273362 0.058350
O O18 0.503542 0.500000 0.081543
O O19 0.500000 0.769299 0.000000
O O20 0.001238 0.500000 0.581148
O O21 0.000000 0.225875 0.500000
#
# Coordination Sequence:
#
# PCOD9196921 Si02
#       8
#     8   8   8   8   8   8   8   8
#     4  10  20  35  58  84 109 144 187 226 268 322
#     4  11  23  37  55  82 112 140 179 232 281 324
#     4  10  22  38  56  81 110 143 185 230 276 326
#     4  10  21  36  55  82 114 145 181 227 275 323
#     4  10  21  38  59  81 108 147 188 221 266 330
#     4  10  20  36  57  78 107 146 182 221 272 331
#     4   9  17  31  53  80 106 135 178 224 261 310
#     4  10  21  37  57  81 111 149 188 225 271 327
#
# _framework density 21.506138
#
# number of rings (size 3 to 8) (size 9 to 14) (size 15 to 20)
#    0.000    2.000    0.000    3.375    0.000    7.250 
#    0.000    0.625    0.000    1.500    0.000    0.000 
#    0.000    0.000    0.000    0.000    0.000    0.000 
#
# Total GULP energy -178899.446035 kJ/mol
# GULP energy per Si atom -5590.607689 kJ/mol
# Density = 2.145719 g / cm^3
# Si number density = 21.506138 Si / 1000 Ang^3
#
#
#
# Elastic Constant Matrix: (Units=GPa)
#
#
# Indices 1 2 3 4 5 6 
#
# 1 261.0360 -9.6176 135.1078 0.0006 -10.8571 0.0121
# 2 -9.6176 39.9800 -24.6264 0.0055 -6.1996 -0.0126
# 3 135.1078 -24.6264 210.7489 0.0212 -8.3217 0.0011
# 4 0.0006 0.0055 0.0212 9.4799 -0.0094 7.3573
# 5 -10.8571 -6.1996 -8.3217 -0.0094 45.9024 0.0028
# 6 0.0121 -0.0126 0.0011 7.3573 0.0028 2.7941
#
#
#
# Elastic Compliance Matrix: (Units=1/GPa)
#
#
# Indices 1 2 3 4 5 6 
#
# 1 0.005781 -0.000852 -0.003783 -0.000030 0.000566 0.000050
# 2 -0.000852 0.027924 0.003978 0.000112 0.004291 -0.000171
# 3 -0.003783 0.003978 0.007676 0.000040 0.001034 -0.000075
# 4 -0.000030 0.000112 0.000040 -0.101083 -0.000021 0.266167
# 5 0.000566 0.004291 0.001034 -0.000021 0.022686 0.000050
# 6 0.000050 -0.000171 -0.000075 0.266167 0.000050 -0.342959
#
#
# Mechanical properties :
#
#
# Convention : Reuss Voigt Hill
#
# Bulk Modulus (GPa) = 24.95803 79.27697 52.11750
# Shear Modulus (GPa) = -13.68718 39.02869 12.67075
#
# Velocity S-wave (km/s) = -2.52550 4.26463 2.42991
# Velocity P-wave (km/s) = 1.76808 7.82253 5.67089
#
# Compressibility (1/GPa) = 0.04006726
#
# Stress axis : x y z
#
# Youngs Moduli (GPa) = 172.97053 35.81212 130.27208
#
# Poissons Ratio (x) = 0.03051 0.49288
# Poissons Ratio (y) = 0.14735 -0.51828
# Poissons Ratio (z) = 0.65443 -0.14248
#
# Static dielectric constant tensor:
#      x y z
#    x 1.759100 0.000000 -0.013370 
#    y 0.000000 1.803380 0.000000 
#    z -0.013370 0.000000 1.716220 
# 
# From -- ./inp_files/295467.got.cif
#   From: 2010.05.17/outbox.cif.g08.bks.cpg/sg12_148_cif.got.tgz:295467.got - 2010.06.03 13:09:07.
