data_PCOD9196923
_publ_section_title
;
Structure prediction by ZEFSAII (Michael W. Deem and Ramdas Pophale) SiO2 
 PCOD9196923
Probable space group: C 2/M
;
_chemical_formula_sum "Si O2"
_cell_formula_units_Z 40
_cell_length_a 8.164971
_cell_length_b 12.056768
_cell_length_c 17.805417
_cell_angle_alpha 90.000000
_cell_angle_beta 94.811666
_cell_angle_gamma 90.000000
_cell_volume 1746.644242
_symmetry_space_group_name_H-M "C 2/M"
_symmetry_group_IT_number 12
_symmetry_cell_setting 'monoclinic'
loop_
_space_group_symop_operation_xyz
x,y,z
-x,y,-z
-x,-y,-z
x,-y,z
1/2+x,1/2+y,z
1/2-x,1/2+y,-z
1/2-x,1/2-y,-z
1/2+x,1/2-y,z
loop_
_atom_site_type_symbol
_atom_site_label
_atom_site_fract_x
_atom_site_fract_y
_atom_site_fract_z
Si Si1 0.745910 0.615597 0.941557
Si Si2 0.039889 0.277923 0.645934
Si Si3 0.849800 0.877408 0.731171
Si Si4 0.764592 0.867169 0.451576
Si Si5 0.863609 0.840595 0.898784
O O1 0.813690 0.500000 0.918422
O O2 0.852470 0.710164 0.909717
O O3 0.554036 0.625114 0.911253
O O4 0.735762 0.620135 0.031676
O O5 0.200747 0.348630 0.669832
O O6 0.083681 0.171450 0.595091
O O7 0.977271 0.220835 0.719794
O O8 0.902970 0.355019 0.602985
O O9 0.796857 0.873648 0.815683
O O10 0.916279 0.000000 0.718661
O O11 0.750000 0.750000 0.500000
O O12 0.778563 0.000000 0.476296
#
# Coordination Sequence:
#
# PCOD9196923 Si02
#       5
#     8   8   8   8   8
#     4  10  20  37  55  79 116 148 191 251 295 335
#     4  10  24  40  60  91 123 154 194 239 289 351
#     4  11  21  38  60  83 118 158 195 239 293 347
#     4  11  24  43  67  94 123 156 196 241 291 348
#     4  10  20  35  58  84 109 151 200 238 290 351
#
# _framework density 22.901059
#
# number of rings (size 3 to 8) (size 9 to 14) (size 15 to 20)
#    0.000    1.600    0.000    5.400    0.000    6.400 
#    0.000   17.000    0.000    0.000    0.000    0.000 
#    0.000    0.000    0.000    0.000    0.000    0.000 
#
# Total GULP energy -111508.636053 kJ/mol
# GULP energy per Si atom -5575.431803 kJ/mol
# Density = 2.284893 g / cm^3
# Si number density = 22.901059 Si / 1000 Ang^3
#
#
#
# Elastic Constant Matrix: (Units=GPa)
#
#
# Indices 1 2 3 4 5 6 
#
# 1 31.1381 8.1256 -1.5758 0.0000 0.5453 0.0000
# 2 8.1256 194.3994 32.4987 0.0000 -3.5150 0.0000
# 3 -1.5758 32.4987 64.3702 0.0000 -2.9128 0.0000
# 4 0.0000 0.0000 0.0000 181.8191 0.0000 -50.2234
# 5 0.5453 -3.5150 -2.9128 0.0000 17.6069 0.0000
# 6 0.0000 0.0000 0.0000 -50.2234 0.0000 42.9207
#
#
#
# Elastic Compliance Matrix: (Units=1/GPa)
#
#
# Indices 1 2 3 4 5 6 
#
# 1 0.032644 -0.001649 0.001583 0.000000 -0.001078 0.000000
# 2 -0.001649 0.005709 -0.002890 0.000000 0.000713 0.000000
# 3 0.001583 -0.002890 0.017133 0.000000 0.002208 0.000000
# 4 0.000000 0.000000 0.000000 0.008127 0.000000 0.009509
# 5 -0.001078 0.000713 0.002208 0.000000 0.057337 0.000000
# 6 0.000000 0.000000 0.000000 0.009509 0.000000 0.034426
#
#
# Mechanical properties :
#
#
# Convention : Reuss Voigt Hill
#
# Bulk Modulus (GPa) = 20.17202 40.88943 30.53072
# Shear Modulus (GPa) = 28.11933 65.19326 46.65630
#
# Velocity S-wave (km/s) = 3.50789 5.34127 4.51854
# Velocity P-wave (km/s) = 5.02339 7.47880 6.37052
#
# Compressibility (1/GPa) = 0.04957362
#
# Stress axis : x y z
#
# Youngs Moduli (GPa) = 30.63331 175.16040 58.36651
#
# Poissons Ratio (x) = 0.28876 -0.09237
# Poissons Ratio (y) = 0.05050 0.16871
# Poissons Ratio (z) = -0.04848 0.50629
#
# Static dielectric constant tensor:
#      x y z
#    x 1.843640 0.000000 -0.013480 
#    y 0.000000 1.881230 0.000000 
#    z -0.013480 0.000000 1.914580 
# 
# From -- ./inp_files/254731.got.cif
#   From: 2010.05.17/outbox.cif.g08.bks.cpg/sg12_128_cif.got.tgz:254731.got - 2010.06.03 13:09:07.
