data_PCOD9196660
_publ_section_title
;
Structure prediction by ZEFSAII (Michael W. Deem and Ramdas Pophale) SiO2 
 PCOD9196660
Probable space group: C 2/M
;
_chemical_formula_sum "Si O2"
_cell_formula_units_Z 44
_cell_length_a 19.629839
_cell_length_b 7.644914
_cell_length_c 12.866276
_cell_angle_alpha 90.000000
_cell_angle_beta 75.622415
_cell_angle_gamma 90.000000
_cell_volume 1870.349242
_symmetry_space_group_name_H-M "C 2/M"
_symmetry_group_IT_number 12
_symmetry_cell_setting 'monoclinic'
loop_
_space_group_symop_operation_xyz
x,y,z
-x,y,-z
-x,-y,-z
x,-y,z
1/2+x,1/2+y,z
1/2-x,1/2+y,-z
1/2-x,1/2-y,-z
1/2+x,1/2-y,z
loop_
_atom_site_type_symbol
_atom_site_label
_atom_site_fract_x
_atom_site_fract_y
_atom_site_fract_z
Si Si1 0.309110 0.198683 0.061226
Si Si2 0.000000 0.247687 0.500000
Si Si3 0.707915 0.698402 0.702958
Si Si4 0.363332 0.209927 0.654996
Si Si5 0.079458 0.208865 0.140874
Si Si6 0.442574 0.715741 0.307501
O O1 0.303332 0.306276 0.168544
O O2 0.296632 0.000000 0.097670
O O3 0.250000 0.250000 0.000000
O O4 0.383236 0.216074 0.974451
O O5 0.027380 0.309145 0.601921
O O6 0.923896 0.186575 0.571510
O O7 0.711359 0.500000 0.662115
O O8 0.785413 0.773101 0.655789
O O9 0.636453 0.774523 0.684103
O O10 0.377561 0.232733 0.772516
O O11 0.370515 0.000000 0.629632
O O12 0.998093 0.252800 0.194463
O O13 0.085138 0.000000 0.131876
O O14 0.445238 0.500000 0.322446
#
# Coordination Sequence:
#
# PCOD9196660 Si02
#       6
#     8   4   8   8   8   8
#     4  12  23  37  59  89 121 156 194 235 289 350
#     4  10  20  36  60  86 115 154 201 248 299 350
#     4  10  21  38  59  85 119 156 199 244 289 344
#     4  10  20  35  57  84 116 154 197 246 297 348
#     4  10  20  36  60  86 117 156 199 240 286 345
#     4   9  20  38  59  86 117 155 200 246 292 345
#
# _framework density 23.525016999999998
#
# number of rings (size 3 to 8) (size 9 to 14) (size 15 to 20)
#    0.000    1.818    1.818    2.727    0.000    2.182 
#    0.000    9.091    0.000    0.000    0.000    0.000 
#    0.000    0.000    0.000    0.000    0.000    0.000 
#
# Total GULP energy -122659.921194 kJ/mol
# GULP energy per Si atom -5575.450963 kJ/mol
# Density = 2.347147 g / cm^3
# Si number density = 23.525017 Si / 1000 Ang^3
#
#
#
# Elastic Constant Matrix: (Units=GPa)
#
#
# Indices 1 2 3 4 5 6 
#
# 1 224.7360 13.4378 43.9256 0.0000 -27.1088 0.0000
# 2 13.4378 89.1421 -6.0933 0.0000 -6.1755 0.0000
# 3 43.9256 -6.0933 69.9044 0.0000 -27.5899 0.0000
# 4 0.0000 0.0000 0.0000 -120.1447 0.0000 -14.6814
# 5 -27.1088 -6.1755 -27.5899 0.0000 36.9162 0.0000
# 6 0.0000 0.0000 0.0000 -14.6814 0.0000 -24.6672
#
#
#
# Elastic Compliance Matrix: (Units=1/GPa)
#
#
# Indices 1 2 3 4 5 6 
#
# 1 0.005231 -0.000856 -0.002698 0.000000 0.001682 0.000000
# 2 -0.000856 0.011798 0.002975 0.000000 0.003568 0.000000
# 3 -0.002698 0.002975 0.022232 0.000000 0.015132 0.000000
# 4 0.000000 0.000000 0.000000 -0.008976 0.000000 0.005342
# 5 0.001682 0.003568 0.015132 0.000000 0.040229 0.000000
# 6 0.000000 0.000000 0.000000 0.005342 0.000000 -0.043719
#
#
# Mechanical properties :
#
#
# Convention : Reuss Voigt Hill
#
# Bulk Modulus (GPa) = 26.24579 54.03586 40.14082
# Shear Modulus (GPa) = 122.98689 0.58832 61.78760
#
# Velocity S-wave (km/s) = 7.23828 0.50062 5.13046
# Velocity P-wave (km/s) = 9.00209 4.83255 7.22465
#
# Compressibility (1/GPa) = 0.03810136
#
# Stress axis : x y z
#
# Youngs Moduli (GPa) = 191.16586 84.76262 44.97994
#
# Poissons Ratio (x) = 0.07260 0.12135
# Poissons Ratio (y) = 0.16373 -0.13380
# Poissons Ratio (z) = 0.51575 -0.25214
#
# Static dielectric constant tensor:
#      x y z
#    x 1.897820 0.000000 -0.017660 
#    y 0.000000 1.973040 0.000000 
#    z -0.017660 0.000000 1.900810 
# 
# From -- ./inp_files/220902.got.cif
#   From: 2010.05.17/outbox.cif.g08.bks.cpg/sg12_111_cif.got.tgz:220902.got - 2010.06.03 13:09:07.
