data_PCOD9196813
_publ_section_title
;
Structure prediction by ZEFSAII (Michael W. Deem and Ramdas Pophale) SiO2 
 PCOD9196813
Probable space group: C 2/M
;
_chemical_formula_sum "Si O2"
_cell_formula_units_Z 56
_cell_length_a 18.359184
_cell_length_b 7.862875
_cell_length_c 30.691988
_cell_angle_alpha 90.000000
_cell_angle_beta 41.479988
_cell_angle_gamma 90.000000
_cell_volume 2934.626430
_symmetry_space_group_name_H-M "C 2/M"
_symmetry_group_IT_number 12
_symmetry_cell_setting 'monoclinic'
loop_
_space_group_symop_operation_xyz
x,y,z
-x,y,-z
-x,-y,-z
x,-y,z
1/2+x,1/2+y,z
1/2-x,1/2+y,-z
1/2-x,1/2-y,-z
1/2+x,1/2-y,z
loop_
_atom_site_type_symbol
_atom_site_label
_atom_site_fract_x
_atom_site_fract_y
_atom_site_fract_z
Si Si1 0.040253 0.208087 0.934392
Si Si2 0.544674 0.295403 0.197497
Si Si3 0.682706 0.000000 0.424772
Si Si4 0.376075 0.691670 0.668426
Si Si5 0.701262 0.192707 0.669325
Si Si6 0.505101 0.000000 0.425039
Si Si7 0.787581 0.703423 0.801242
Si Si8 0.874907 0.795338 0.933241
O O1 0.164278 0.261456 0.868034
O O2 0.956592 0.265930 0.934472
O O3 0.039748 0.000000 0.934898
O O4 0.000000 0.263830 0.000000
O O5 0.534649 0.500000 0.200814
O O6 0.425440 0.221971 0.262224
O O7 0.631775 0.245678 0.195267
O O8 0.587043 0.234611 0.131344
O O9 0.755885 0.166735 0.383662
O O10 0.591251 0.000000 0.427028
O O11 0.614868 0.000000 0.499826
O O12 0.418187 0.500000 0.643827
O O13 0.274330 0.714654 0.680405
O O14 0.465284 0.833466 0.616056
O O15 0.331953 0.716843 0.736835
O O16 0.718135 0.000000 0.646133
O O17 0.784654 0.500000 0.796176
O O18 0.882493 0.000000 0.929179
O O19 0.750000 0.750000 0.000000
#
# Coordination Sequence:
#
# PCOD9196813 Si02
#       8
#     8   8   4   8   8   4   8   8
#     4   9  18  33  54  79 109 148 193 240 291 351
#     4  11  22  36  54  80 114 153 195 246 295 347
#     4   9  18  34  58  88 122 150 190 243 281 347
#     4  10  20  35  57  87 119 150 194 243 286 349
#     4  10  20  35  58  87 117 154 194 238 293 347
#     4   9  18  34  58  88 119 156 189 229 299 345
#     4  11  21  35  57  82 110 151 197 245 294 352
#     4  10  21  36  55  79 111 150 190 241 297 349
#
# _framework density 19.082495999999999
#
# number of rings (size 3 to 8) (size 9 to 14) (size 15 to 20)
#    0.000    2.000    1.429    2.571    0.000    4.000 
#    0.000    4.286    0.000    4.714    0.000    0.000 
#    0.000    0.000    0.000    0.000    0.000    0.000 
#
# Total GULP energy -156411.814448 kJ/mol
# GULP energy per Si atom -5586.136230 kJ/mol
# Density = 1.903906 g / cm^3
# Si number density = 19.082496 Si / 1000 Ang^3
#
#
#
# Elastic Constant Matrix: (Units=GPa)
#
#
# Indices 1 2 3 4 5 6 
#
# 1 96.9974 42.8453 76.7260 0.0002 -1.6342 0.0033
# 2 42.8453 88.9316 62.3704 0.0013 -1.3250 0.0084
# 3 76.7260 62.3704 192.1886 0.0003 -3.8166 0.0004
# 4 0.0002 0.0013 0.0003 9.2881 -0.0002 0.0427
# 5 -1.6342 -1.3250 -3.8166 -0.0002 24.1215 0.0007
# 6 0.0033 0.0084 0.0004 0.0427 0.0007 19.5617
#
#
#
# Elastic Compliance Matrix: (Units=1/GPa)
#
#
# Indices 1 2 3 4 5 6 
#
# 1 0.016213 -0.004236 -0.005097 0.000000 0.000059 -0.000001
# 2 -0.004236 0.015665 -0.003392 -0.000002 0.000037 -0.000006
# 3 -0.005097 -0.003392 0.008354 0.000000 0.000790 0.000002
# 4 0.000000 -0.000002 0.000000 0.107666 0.000001 -0.000235
# 5 0.000059 0.000037 0.000790 0.000001 0.041588 -0.000002
# 6 -0.000001 -0.000006 0.000002 -0.000235 -0.000002 0.051121
#
#
# Mechanical properties :
#
#
# Convention : Reuss Voigt Hill
#
# Bulk Modulus (GPa) = 67.64354 82.44456 75.04405
# Shear Modulus (GPa) = 18.45128 23.67265 21.06196
#
# Velocity S-wave (km/s) = 3.11291 3.52595 3.32585
# Velocity P-wave (km/s) = 6.96026 7.73786 7.35934
#
# Compressibility (1/GPa) = 0.01478338
#
# Stress axis : x y z
#
# Youngs Moduli (GPa) = 61.67802 63.83809 119.69627
#
# Poissons Ratio (x) = 0.27040 0.61008
# Poissons Ratio (y) = 0.26125 0.40600
# Poissons Ratio (z) = 0.31437 0.21653
#
# Static dielectric constant tensor:
#      x y z
#    x 1.637410 0.000000 0.005790 
#    y 0.000000 1.690900 0.000000 
#    z 0.005790 0.000000 1.621760 
# 
# From -- ./inp_files/363062.got.cif
#   From: 2010.05.17/outbox.cif.g08.bks.cpg/sg12_182_cif.got.tgz:363062.got - 2010.06.03 13:09:07.
