data_PCOD9196431
_publ_section_title
;
Structure prediction by ZEFSAII (Michael W. Deem and Ramdas Pophale) SiO2 
 PCOD9196431
Probable space group: C 2/M
;
_chemical_formula_sum "Si O2"
_cell_formula_units_Z 34
_cell_length_a 14.563758
_cell_length_b 7.625714
_cell_length_c 13.571540
_cell_angle_alpha 90.000000
_cell_angle_beta 110.258810
_cell_angle_gamma 90.000000
_cell_volume 1414.001513
_symmetry_space_group_name_H-M "C 2/M"
_symmetry_group_IT_number 12
_symmetry_cell_setting 'monoclinic'
loop_
_space_group_symop_operation_xyz
x,y,z
-x,y,-z
-x,-y,-z
x,-y,z
1/2+x,1/2+y,z
1/2-x,1/2+y,-z
1/2-x,1/2-y,-z
1/2+x,1/2-y,z
loop_
_atom_site_type_symbol
_atom_site_label
_atom_site_fract_x
_atom_site_fract_y
_atom_site_fract_z
Si Si1 0.289702 0.711484 0.363732
Si Si2 0.500000 0.500000 0.000000
Si Si3 0.359282 0.804143 0.004838
Si Si4 0.097728 0.798496 0.774517
Si Si5 0.595796 0.792620 0.401729
O O1 0.288196 0.500000 0.360418
O O2 0.316541 0.770665 0.264332
O O3 0.372010 0.763531 0.473809
O O4 0.187122 0.772677 0.369961
O O5 0.585746 0.655403 0.036058
O O6 0.416446 0.804744 0.130851
O O7 0.358691 0.000000 0.960922
O O8 0.250000 0.750000 0.000000
O O9 0.002235 0.795942 0.671127
O O10 0.116652 0.000000 0.811571
O O11 0.584012 0.000000 0.382545
#
# Coordination Sequence:
#
# PCOD9196431 Si02
#       5
#     8   2   8   8   8
#     4   9  20  37  58  84 128 181 217 278 342 404
#     4  12  26  52  80 108 142 196 232 308 378 444
#     4  12  26  50  78 109 148 189 244 307 374 448
#     4  11  22  40  63  94 133 174 233 284 349 425
#     4  10  20  35  56  90 130 172 230 277 338 414
#
# _framework density 24.045237
#
# number of rings (size 3 to 8) (size 9 to 14) (size 15 to 20)
#    0.000    1.412    2.353    2.471    0.000    7.529 
#    0.000    4.706    0.000    0.000    0.000    0.000 
#    0.000    0.000    0.000    0.000    0.000    0.000 
#
# Total GULP energy -94843.035611 kJ/mol
# GULP energy per Si atom -5579.002095 kJ/mol
# Density = 2.399051 g / cm^3
# Si number density = 24.045237 Si / 1000 Ang^3
#
#
#
# Elastic Constant Matrix: (Units=GPa)
#
#
# Indices 1 2 3 4 5 6 
#
# 1 79.7039 35.1162 2.5620 0.0000 19.7192 0.0000
# 2 35.1162 148.1639 0.0282 0.0000 2.1506 0.0000
# 3 2.5620 0.0282 28.7538 0.0000 -7.7853 0.0000
# 4 0.0000 0.0000 0.0000 24.2632 0.0000 2.1385
# 5 19.7192 2.1506 -7.7853 0.0000 17.2729 0.0000
# 6 0.0000 0.0000 0.0000 2.1385 0.0000 28.5859
#
#
#
# Elastic Compliance Matrix: (Units=1/GPa)
#
#
# Indices 1 2 3 4 5 6 
#
# 1 0.022231 -0.004843 -0.009891 0.000000 -0.029235 0.000000
# 2 -0.004843 0.007818 0.001887 0.000000 0.005406 0.000000
# 3 -0.009891 0.001887 0.044024 0.000000 0.030900 0.000000
# 4 0.000000 0.000000 0.000000 0.041488 0.000000 -0.003104
# 5 -0.029235 0.005406 0.030900 0.000000 0.104523 0.000000
# 6 0.000000 0.000000 0.000000 -0.003104 0.000000 0.035214
#
#
# Mechanical properties :
#
#
# Convention : Reuss Voigt Hill
#
# Bulk Modulus (GPa) = 20.66993 36.89272 28.78132
# Shear Modulus (GPa) = 16.82828 28.61874 22.72351
#
# Velocity S-wave (km/s) = 2.64836 3.45368 3.07747
# Velocity P-wave (km/s) = 4.23871 5.59287 4.96220
#
# Compressibility (1/GPa) = 0.04837946
#
# Stress axis : x y z
#
# Youngs Moduli (GPa) = 44.98256 127.90628 22.71499
#
# Poissons Ratio (x) = 0.61941 0.22468
# Poissons Ratio (y) = 0.21784 -0.04287
# Poissons Ratio (z) = 0.44494 -0.24142
#
# Static dielectric constant tensor:
#      x y z
#    x 1.953740 0.000000 -0.022080 
#    y 0.000000 1.918580 0.000000 
#    z -0.022080 0.000000 1.945300 
# 
# From -- ./inp_files/210553.got.cif
#   From: 2010.05.17/outbox.cif.g08.bks.cpg/sg12_106_cif.got.tgz:210553.got - 2010.06.03 13:09:07.
