data_PCOD9196628
_publ_section_title
;
Structure prediction by ZEFSAII (Michael W. Deem and Ramdas Pophale) SiO2 
 PCOD9196628
Probable space group: C 2/M
;
_chemical_formula_sum "Si O2"
_cell_formula_units_Z 48
_cell_length_a 21.364103
_cell_length_b 13.292447
_cell_length_c 16.165433
_cell_angle_alpha 90.000000
_cell_angle_beta 150.860280
_cell_angle_gamma 90.000000
_cell_volume 2235.389914
_symmetry_space_group_name_H-M "C 2/M"
_symmetry_group_IT_number 12
_symmetry_cell_setting 'monoclinic'
loop_
_space_group_symop_operation_xyz
x,y,z
-x,y,-z
-x,-y,-z
x,-y,z
1/2+x,1/2+y,z
1/2-x,1/2+y,-z
1/2-x,1/2-y,-z
1/2+x,1/2-y,z
loop_
_atom_site_type_symbol
_atom_site_label
_atom_site_fract_x
_atom_site_fract_y
_atom_site_fract_z
Si Si1 0.252307 0.887751 0.478581
Si Si2 0.524714 0.798876 0.786078
Si Si3 0.943707 0.274997 0.353346
Si Si4 0.527047 0.618382 0.893298
Si Si5 0.326882 0.204212 0.890204
Si Si6 0.333820 0.612939 0.430478
O O1 0.372377 0.815436 0.608431
O O2 0.126905 0.869537 0.277780
O O3 0.204386 0.888316 0.517760
O O4 0.299817 0.000000 0.513602
O O5 0.574614 0.831858 0.754513
O O6 0.605507 0.687453 0.047493
O O7 0.583651 0.848118 0.937015
O O8 0.942120 0.181092 0.155836
O O9 0.051746 0.190504 0.457636
O O10 0.000000 0.329856 0.500000
O O11 0.808921 0.226714 0.222528
O O12 0.556387 0.500000 0.926126
O O13 0.290628 0.145150 0.766459
O O14 0.373376 0.500000 0.452558
#
# Coordination Sequence:
#
# PCOD9196628 Si02
#       6
#     8   8   8   8   8   8
#     4  10  20  36  60  89 113 146 188 233 287 341
#     4  10  20  35  59  82 115 149 189 233 282 330
#     4  10  20  35  57  84 112 149 190 230 277 338
#     4   9  19  36  59  82 108 150 196 230 275 333
#     4   9  21  33  55  83 116 154 184 223 283 334
#     4  10  20  36  58  88 121 147 180 230 290 345
#
# _framework density 21.472764000000002
#
# number of rings (size 3 to 8) (size 9 to 14) (size 15 to 20)
#    1.000    1.333    1.667    1.000    0.000    4.333 
#    0.000    2.500    0.000   11.000    0.000    0.000 
#    0.000    0.000    0.000    0.000    0.000    0.000 
#
# Total GULP energy -133634.676462 kJ/mol
# GULP energy per Si atom -5568.111519 kJ/mol
# Density = 2.142389 g / cm^3
# Si number density = 21.472764 Si / 1000 Ang^3
#
#
#
# Elastic Constant Matrix: (Units=GPa)
#
#
# Indices 1 2 3 4 5 6 
#
# 1 54.5811 6.4143 20.4669 0.0000 -4.0524 0.0000
# 2 6.4143 65.9703 21.2823 0.0000 -4.8144 0.0000
# 3 20.4669 21.2823 81.7428 0.0000 -9.4704 0.0000
# 4 0.0000 0.0000 0.0000 16.5065 0.0000 -4.2183
# 5 -4.0524 -4.8144 -9.4704 0.0000 26.7740 0.0000
# 6 0.0000 0.0000 0.0000 -4.2183 0.0000 9.4068
#
#
#
# Elastic Compliance Matrix: (Units=1/GPa)
#
#
# Indices 1 2 3 4 5 6 
#
# 1 0.020271 -0.000314 -0.004843 0.000000 0.001299 0.000000
# 2 -0.000314 0.016612 -0.004073 0.000000 0.001499 0.000000
# 3 -0.004843 -0.004073 0.014949 0.000000 0.003822 0.000000
# 4 0.000000 0.000000 0.000000 0.068423 0.000000 0.030683
# 5 0.001299 0.001499 0.003822 0.000000 0.039168 0.000000
# 6 0.000000 0.000000 0.000000 0.030683 0.000000 0.120064
#
#
# Mechanical properties :
#
#
# Convention : Reuss Voigt Hill
#
# Bulk Modulus (GPa) = 29.96471 33.18014 31.57243
# Shear Modulus (GPa) = 16.17746 20.81283 18.49514
#
# Velocity S-wave (km/s) = 2.74778 3.11668 2.93803
# Velocity P-wave (km/s) = 4.90430 5.33267 5.12296
#
# Compressibility (1/GPa) = 0.03337259
#
# Stress axis : x y z
#
# Youngs Moduli (GPa) = 49.33206 60.19684 66.89213
#
# Poissons Ratio (x) = 0.01888 0.32398
# Poissons Ratio (y) = 0.01548 0.27244
# Poissons Ratio (z) = 0.23893 0.24517
#
# Static dielectric constant tensor:
#      x y z
#    x 1.811760 0.000000 -0.052230 
#    y 0.000000 1.815760 0.000000 
#    z -0.052230 0.000000 1.811070 
# 
# From -- ./inp_files/284861.got.cif
#   From: 2010.05.17/outbox.cif.g08.bks.cpg/sg12_143_cif.got.tgz:284861.got - 2010.06.03 13:09:07.
