data_PCOD9196667
_publ_section_title
;
Structure prediction by ZEFSAII (Michael W. Deem and Ramdas Pophale) SiO2 
 PCOD9196667
Probable space group: C 2/M
;
_chemical_formula_sum "Si O2"
_cell_formula_units_Z 64
_cell_length_a 33.040235
_cell_length_b 8.866885
_cell_length_c 15.379876
_cell_angle_alpha 90.000000
_cell_angle_beta 46.791275
_cell_angle_gamma 90.000000
_cell_volume 3284.080255
_symmetry_space_group_name_H-M "C 2/M"
_symmetry_group_IT_number 12
_symmetry_cell_setting 'monoclinic'
loop_
_space_group_symop_operation_xyz
x,y,z
-x,y,-z
-x,-y,-z
x,-y,z
1/2+x,1/2+y,z
1/2-x,1/2+y,-z
1/2-x,1/2-y,-z
1/2+x,1/2-y,z
loop_
_atom_site_type_symbol
_atom_site_label
_atom_site_fract_x
_atom_site_fract_y
_atom_site_fract_z
Si Si1 0.859214 0.679807 0.190106
Si Si2 0.047667 0.181724 0.072395
Si Si3 0.120565 0.681995 0.504285
Si Si4 0.401212 0.320763 0.825596
Si Si5 0.746760 0.182020 0.282888
Si Si6 0.564303 0.181470 0.405178
Si Si7 0.921235 0.180413 0.257803
Si Si8 0.774716 0.179291 0.049954
O O1 0.858102 0.500000 0.190314
O O2 0.798933 0.744266 0.253810
O O3 0.879109 0.740310 0.254083
O O4 0.905347 0.740636 0.054371
O O5 0.056087 0.224004 0.161406
O O6 0.984800 0.217553 0.138272
O O7 0.055449 0.000000 0.054321
O O8 0.114325 0.500000 0.521042
O O9 0.186228 0.717054 0.409549
O O10 0.095211 0.728143 0.448173
O O11 0.090239 0.762754 0.628175
O O12 0.406292 0.500000 0.804269
O O13 0.408643 0.241125 0.722880
O O14 0.340341 0.290395 0.953873
O O15 0.753886 0.000000 0.274006
O O16 0.748445 0.231239 0.179186
O O17 0.500000 0.230256 0.500000
O O18 0.565838 0.000000 0.400689
O O19 0.915255 0.000000 0.261583
O O20 0.766527 0.000000 0.056963
O O21 0.750000 0.250000 0.000000
#
# Coordination Sequence:
#
# PCOD9196667 Si02
#       8
#     8   8   8   8   8   8   8   8
#     4  12  25  40  63  93 122 154 198 257 311 361
#     4  10  21  41  64  89 123 160 200 244 303 370
#     4  10  22  40  62  88 122 164 206 252 300 351
#     4  10  20  35  58  86 117 155 197 242 289 347
#     4  10  21  41  63  83 120 167 204 246 300 360
#     4  10  21  37  58  87 124 162 199 244 300 356
#     4  11  24  41  65  90 118 160 202 249 305 368
#     4  10  20  35  57  84 117 155 195 241 292 348
#
# _framework density 19.487950999999999
#
# number of rings (size 3 to 8) (size 9 to 14) (size 15 to 20)
#    0.000    1.625    1.250    3.375    0.000    6.750 
#    0.000    0.000    0.000    0.000    0.000    0.000 
#    0.000    0.000    0.000    0.000    0.000    0.000 
#
# Total GULP energy -178841.146988 kJ/mol
# GULP energy per Si atom -5588.785843 kJ/mol
# Density = 1.944360 g / cm^3
# Si number density = 19.487951 Si / 1000 Ang^3
#
#
#
# Elastic Constant Matrix: (Units=GPa)
#
#
# Indices 1 2 3 4 5 6 
#
# 1 103.2044 28.8251 16.7928 0.0000 -8.3255 -0.0001
# 2 28.8251 27.7535 29.1571 0.0000 -13.4051 -0.0001
# 3 16.7928 29.1571 69.5125 0.0000 0.4328 0.0000
# 4 0.0000 0.0000 0.0000 31.5282 0.0000 6.4508
# 5 -8.3255 -13.4051 0.4328 0.0000 29.9077 0.0000
# 6 -0.0001 -0.0001 0.0000 6.4508 0.0000 24.0916
#
#
#
# Elastic Compliance Matrix: (Units=1/GPa)
#
#
# Indices 1 2 3 4 5 6 
#
# 1 0.016049 -0.030811 0.009105 0.000000 -0.009474 0.000000
# 2 -0.030811 0.166092 -0.062640 0.000000 0.066774 0.000001
# 3 0.009105 -0.062640 0.038623 0.000000 -0.026100 0.000000
# 4 0.000000 0.000000 0.000000 0.033556 0.000000 -0.008985
# 5 -0.009474 0.066774 -0.026100 0.000000 0.061106 0.000000
# 6 0.000000 0.000001 0.000000 -0.008985 0.000000 0.043914
#
#
# Mechanical properties :
#
#
# Convention : Reuss Voigt Hill
#
# Bulk Modulus (GPa) = 19.20346 38.89114 29.04730
# Shear Modulus (GPa) = 9.16777 25.48522 17.32649
#
# Velocity S-wave (km/s) = 2.17130 3.62020 2.98499
# Velocity P-wave (km/s) = 4.02013 6.12162 5.17860
#
# Compressibility (1/GPa) = 0.05207396
#
# Stress axis : x y z
#
# Youngs Moduli (GPa) = 62.30870 6.02075 25.89121
#
# Poissons Ratio (x) = 0.18550 -0.23575
# Poissons Ratio (y) = 1.91977 1.62183
# Poissons Ratio (z) = -0.56735 0.37714
#
# Static dielectric constant tensor:
#      x y z
#    x 1.687470 0.000000 -0.008300 
#    y 0.000000 1.654940 0.000000 
#    z -0.008300 0.000000 1.663050 
# 
# From -- ./inp_files/249815.got.cif
#   From: 2010.05.17/outbox.cif.g08.bks.cpg/sg12_125_cif.got.tgz:249815.got - 2010.06.03 13:09:07.
