data_PCOD9196252
_publ_section_title
;
Structure prediction by ZEFSAII (Michael W. Deem and Ramdas Pophale) SiO2 
 PCOD9196252
Probable space group: C 2/M
;
_chemical_formula_sum "Si O2"
_cell_formula_units_Z 32
_cell_length_a 14.038698
_cell_length_b 8.109357
_cell_length_c 16.606775
_cell_angle_alpha 90.000000
_cell_angle_beta 135.637764
_cell_angle_gamma 90.000000
_cell_volume 1321.889566
_symmetry_space_group_name_H-M "C 2/M"
_symmetry_group_IT_number 12
_symmetry_cell_setting 'monoclinic'
loop_
_space_group_symop_operation_xyz
x,y,z
-x,y,-z
-x,-y,-z
x,-y,z
1/2+x,1/2+y,z
1/2-x,1/2+y,-z
1/2-x,1/2-y,-z
1/2+x,1/2-y,z
loop_
_atom_site_type_symbol
_atom_site_label
_atom_site_fract_x
_atom_site_fract_y
_atom_site_fract_z
Si Si1 0.294200 0.818875 0.210194
Si Si2 0.616735 0.802695 0.969312
Si Si3 0.220659 0.000000 0.591592
Si Si4 0.933784 0.000000 0.330958
Si Si5 0.854086 0.182172 0.714584
O O1 0.397233 0.667205 0.261428
O O2 0.259759 0.830223 0.283563
O O3 0.340956 0.000000 0.210212
O O4 0.155715 0.770727 0.079844
O O5 0.489872 0.728196 0.845483
O O6 0.602549 0.000000 0.966737
O O7 0.750000 0.750000 0.000000
O O8 0.308117 0.834591 0.632073
O O9 0.171273 0.000000 0.655798
O O10 0.082651 0.000000 0.458104
O O11 0.864501 0.000000 0.683941
#
# Coordination Sequence:
#
# PCOD9196252 Si02
#       5
#     8   8   4   4   8
#     4  10  20  35  56  83 114 145 180 224 273 325
#     4  12  23  36  55  82 111 146 181 227 278 332
#     4   9  18  33  55  83 111 144 185 224 266 317
#     4   9  18  33  55  83 111 144 185 224 266 317
#     4  10  20  35  56  83 114 145 180 224 273 325
#
# _framework density 24.20777
#
# number of rings (size 3 to 8) (size 9 to 14) (size 15 to 20)
#    0.000    1.750    2.500    3.000    0.000    4.000 
#    0.000    5.000    0.000    1.500    0.000    0.000 
#    0.000    0.000    0.000    0.000    0.000    0.000 
#
# Total GULP energy -89537.026354 kJ/mol
# GULP energy per Si atom -5596.064147 kJ/mol
# Density = 2.415267 g / cm^3
# Si number density = 24.207770 Si / 1000 Ang^3
#
#
#
# Elastic Constant Matrix: (Units=GPa)
#
#
# Indices 1 2 3 4 5 6 
#
# 1 43.3087 8.4903 -17.2482 0.0000 -6.2862 0.0000
# 2 8.4903 295.4668 95.4834 0.0000 18.6347 0.0000
# 3 -17.2482 95.4834 95.4923 0.0000 24.8695 0.0000
# 4 0.0000 0.0000 0.0000 19.7017 0.0000 1.8913
# 5 -6.2862 18.6347 24.8695 0.0000 32.5089 0.0000
# 6 0.0000 0.0000 0.0000 1.8913 0.0000 23.2435
#
#
#
# Elastic Compliance Matrix: (Units=1/GPa)
#
#
# Indices 1 2 3 4 5 6 
#
# 1 0.027142 -0.003460 0.008091 0.000000 0.001042 0.000000
# 2 -0.003460 0.005479 -0.006383 0.000000 0.001073 0.000000
# 3 0.008091 -0.006383 0.021174 0.000000 -0.010975 0.000000
# 4 0.000000 0.000000 0.000000 0.051157 0.000000 -0.004163
# 5 0.001042 0.001073 -0.010975 0.000000 0.038743 0.000000
# 6 0.000000 0.000000 0.000000 -0.004163 0.000000 0.043362
#
#
# Mechanical properties :
#
#
# Convention : Reuss Voigt Hill
#
# Bulk Modulus (GPa) = 19.88438 67.52432 43.70435
# Shear Modulus (GPa) = 24.11680 38.26031 31.18856
#
# Velocity S-wave (km/s) = 3.15975 3.97986 3.59328
# Velocity P-wave (km/s) = 4.64155 7.00523 5.94210
#
# Compressibility (1/GPa) = 0.05029074
#
# Stress axis : x y z
#
# Youngs Moduli (GPa) = 36.84311 182.51643 47.22741
#
# Poissons Ratio (x) = 0.63158 -0.38213
# Poissons Ratio (y) = 0.12749 0.30145
# Poissons Ratio (z) = -0.29810 1.16500
#
# Static dielectric constant tensor:
#      x y z
#    x 2.150320 0.000000 -0.049360 
#    y 0.000000 1.959600 0.000000 
#    z -0.049360 0.000000 1.829740 
# 
# From -- ./inp_files/138379.got.cif
#   From: 2010.05.17/outbox.cif.g08.bks.cpg/sg12_70_cif.got.tgz:138379.got - 2010.06.03 13:09:07.
