data_PCOD9196174
_publ_section_title
;
Structure prediction by ZEFSAII (Michael W. Deem and Ramdas Pophale) SiO2 
 PCOD9196174
Probable space group: C 2/M
;
_chemical_formula_sum "Si O2"
_cell_formula_units_Z 40
_cell_length_a 8.928738
_cell_length_b 26.284847
_cell_length_c 15.886669
_cell_angle_alpha 90.000000
_cell_angle_beta 149.605879
_cell_angle_gamma 90.000000
_cell_volume 1886.391853
_symmetry_space_group_name_H-M "C 2/M"
_symmetry_group_IT_number 12
_symmetry_cell_setting 'monoclinic'
loop_
_space_group_symop_operation_xyz
x,y,z
-x,y,-z
-x,-y,-z
x,-y,z
1/2+x,1/2+y,z
1/2-x,1/2+y,-z
1/2-x,1/2-y,-z
1/2+x,1/2-y,z
loop_
_atom_site_type_symbol
_atom_site_label
_atom_site_fract_x
_atom_site_fract_y
_atom_site_fract_z
Si Si1 0.349934 0.660263 0.175042
Si Si2 0.600955 0.139326 0.645492
Si Si3 0.240766 0.146603 0.690660
Si Si4 0.143259 0.442444 0.346978
Si Si5 0.651569 0.780170 0.816138
O O1 0.543918 0.635726 0.196178
O O2 0.427176 0.638910 0.304457
O O3 0.411403 0.720522 0.211723
O O4 0.000000 0.652196 0.000000
O O5 0.500000 0.148190 0.500000
O O6 0.464680 0.088907 0.623152
O O7 0.560063 0.187865 0.688201
O O8 0.440715 0.097652 0.766294
O O9 0.456882 0.194700 0.795860
O O10 0.000000 0.155132 0.500000
O O11 0.500000 0.445667 0.500000
O O12 0.032295 0.500000 0.292078
O O13 0.000000 0.787327 0.000000
#
# Coordination Sequence:
#
# PCOD9196174 Si02
#       5
#     8   8   8   8   8
#     4  11  22  36  55  82 119 157 187 223 274 329
#     4  11  22  35  58  90 113 139 191 243 275 315
#     4  10  20  35  56  82 111 145 187 230 278 327
#     4   9  19  38  61  82 108 142 182 232 290 345
#     4  10  21  36  54  78 115 162 193 213 265 338
#
# _framework density 21.204502000000002
#
# number of rings (size 3 to 8) (size 9 to 14) (size 15 to 20)
#    0.000    1.800    0.000    6.000    0.000    8.400 
#    0.000    1.000    0.000   22.800    0.000    0.000 
#    0.000    0.000    0.000    0.000    0.000    0.000 
#
# Total GULP energy -111472.176689 kJ/mol
# GULP energy per Si atom -5573.608834 kJ/mol
# Density = 2.115624 g / cm^3
# Si number density = 21.204502 Si / 1000 Ang^3
#
#
#
# Elastic Constant Matrix: (Units=GPa)
#
#
# Indices 1 2 3 4 5 6 
#
# 1 137.9198 39.6446 25.1264 0.0000 20.9232 0.0000
# 2 39.6446 121.5082 41.3777 0.0000 11.6431 0.0000
# 3 25.1264 41.3777 46.1794 -0.0001 9.1482 0.0000
# 4 0.0000 0.0000 -0.0001 22.9143 0.0000 -2.6777
# 5 20.9232 11.6431 9.1482 0.0000 35.2498 0.0000
# 6 0.0000 0.0000 0.0000 -2.6777 0.0000 43.8449
#
#
#
# Elastic Compliance Matrix: (Units=1/GPa)
#
#
# Indices 1 2 3 4 5 6 
#
# 1 0.008788 -0.001619 -0.002534 0.000000 -0.004024 0.000000
# 2 -0.001619 0.012192 -0.009947 0.000000 -0.000485 0.000000
# 3 -0.002534 -0.009947 0.032678 0.000000 -0.003691 0.000000
# 4 0.000000 0.000000 0.000000 0.043955 0.000000 0.002684
# 5 -0.004024 -0.000485 -0.003691 0.000000 0.031875 0.000000
# 6 0.000000 0.000000 0.000000 0.002684 0.000000 0.022972
#
#
# Mechanical properties :
#
#
# Convention : Reuss Voigt Hill
#
# Bulk Modulus (GPa) = 39.28155 57.54498 48.41326
# Shear Modulus (GPa) = 26.43469 33.69904 30.06687
#
# Velocity S-wave (km/s) = 3.53463 3.99085 3.76965
# Velocity P-wave (km/s) = 5.93494 6.95937 6.46747
#
# Compressibility (1/GPa) = 0.02545725
#
# Stress axis : x y z
#
# Youngs Moduli (GPa) = 113.79149 82.02139 30.60190
#
# Poissons Ratio (x) = 0.13277 0.07754
# Poissons Ratio (y) = 0.18420 0.30441
# Poissons Ratio (z) = 0.28834 0.81590
#
# Static dielectric constant tensor:
#      x y z
#    x 1.852760 0.000000 0.023940 
#    y 0.000000 1.763590 0.000000 
#    z 0.023940 0.000000 1.952450 
# 
# From -- ./inp_files/41430.got.cif
#   From: 2010.05.17/outbox.cif.g08.bks.cpg/sg12_21_cif.got.tgz:41430.got - 2010.06.03 13:09:07.
