data_PCOD9196869
_publ_section_title
;
Structure prediction by ZEFSAII (Michael W. Deem and Ramdas Pophale) SiO2 
 PCOD9196869
Probable space group: C 2/M
;
_chemical_formula_sum "Si O2"
_cell_formula_units_Z 42
_cell_length_a 17.147761
_cell_length_b 14.266612
_cell_length_c 7.128513
_cell_angle_alpha 90.000000
_cell_angle_beta 62.083546
_cell_angle_gamma 90.000000
_cell_volume 1540.984489
_symmetry_space_group_name_H-M "C 2/M"
_symmetry_group_IT_number 12
_symmetry_cell_setting 'monoclinic'
loop_
_space_group_symop_operation_xyz
x,y,z
-x,y,-z
-x,-y,-z
x,-y,z
1/2+x,1/2+y,z
1/2-x,1/2+y,-z
1/2-x,1/2-y,-z
1/2+x,1/2-y,z
loop_
_atom_site_type_symbol
_atom_site_label
_atom_site_fract_x
_atom_site_fract_y
_atom_site_fract_z
Si Si1 0.500000 0.000000 0.000000
Si Si2 0.344110 0.695686 0.986710
Si Si3 0.795009 0.886436 0.636031
Si Si4 0.522773 0.392049 0.698036
Si Si5 0.411279 0.895404 0.820651
Si Si6 0.309392 0.889232 0.586636
O O1 0.499937 0.918461 0.833925
O O2 0.311754 0.659211 0.818236
O O3 0.440788 0.650560 0.900128
O O4 0.366051 0.805151 0.955876
O O5 0.267476 0.662245 0.210153
O O6 0.708258 0.865496 0.610024
O O7 0.878358 0.852411 0.414624
O O8 0.802292 0.000000 0.650853
O O9 0.500000 0.387021 0.500000
O O10 0.528562 0.500000 0.745323
O O11 0.397728 0.879174 0.614160
O O12 0.367986 0.000000 0.913909
O O13 0.290356 0.000000 0.615153
#
# Coordination Sequence:
#
# PCOD9196869 Si02
#       6
#     2   8   8   8   8   8
#     4   8  20  44  60  72 112 166 196 254 304 308
#     4  11  19  33  60  87 112 159 202 233 289 357
#     4   9  19  34  54  89 130 153 174 234 305 358
#     4   8  15  29  49  81 121 152 176 221 291 358
#     4   9  21  39  58  81 112 154 206 257 296 329
#     4  10  20  35  57  91 121 148 192 241 299 367
#
# _framework density 27.255302
#
# number of rings (size 3 to 8) (size 9 to 14) (size 15 to 20)
#    0.571    2.095    0.000    3.429    0.000    3.048 
#    0.000    2.857    0.000    6.286    0.000    0.000 
#    0.000    0.000    0.000    0.000    0.000    0.000 
#
# Total GULP energy -116988.650332 kJ/mol
# GULP energy per Si atom -5570.888111 kJ/mol
# Density = 2.719327 g / cm^3
# Si number density = 27.255302 Si / 1000 Ang^3
#
#
#
# Elastic Constant Matrix: (Units=GPa)
#
#
# Indices 1 2 3 4 5 6 
#
# 1 102.3090 11.9992 19.8546 0.0000 17.2573 0.0000
# 2 11.9992 83.0784 27.6369 0.0000 14.4404 0.0000
# 3 19.8546 27.6369 117.7676 0.0000 24.6618 0.0000
# 4 0.0000 0.0000 0.0000 14.8042 0.0000 11.1158
# 5 17.2573 14.4404 24.6618 0.0000 37.9690 0.0000
# 6 0.0000 0.0000 0.0000 11.1158 0.0000 18.6286
#
#
#
# Elastic Compliance Matrix: (Units=1/GPa)
#
#
# Indices 1 2 3 4 5 6 
#
# 1 0.010692 -0.000559 -0.000808 0.000000 -0.004122 0.000000
# 2 -0.000559 0.013486 -0.002372 0.000000 -0.003334 0.000000
# 3 -0.000808 -0.002372 0.010322 0.000000 -0.005435 0.000000
# 4 0.000000 0.000000 0.000000 0.122380 0.000000 -0.073025
# 5 -0.004122 -0.003334 -0.005435 0.000000 0.033009 0.000000
# 6 0.000000 0.000000 0.000000 -0.073025 0.000000 0.097255
#
#
# Mechanical properties :
#
#
# Convention : Reuss Voigt Hill
#
# Bulk Modulus (GPa) = 37.00734 46.90404 41.95569
# Shear Modulus (GPa) = 16.46734 30.52463 23.49599
#
# Velocity S-wave (km/s) = 2.46069 3.35020 2.93929
# Velocity P-wave (km/s) = 4.65627 5.67553 5.19098
#
# Compressibility (1/GPa) = 0.02702166
#
# Stress axis : x y z
#
# Youngs Moduli (GPa) = 93.52769 74.14934 96.87610
#
# Poissons Ratio (x) = 0.04144 0.07829
# Poissons Ratio (y) = 0.05228 0.22983
# Poissons Ratio (z) = 0.07559 0.17591
#
# Static dielectric constant tensor:
#      x y z
#    x 2.457300 0.000000 -0.062340 
#    y 0.000000 2.082000 0.000000 
#    z -0.062340 0.000000 2.167740 
# 
# From -- ./inp_files/85013.got.cif
#   From: 2010.05.17/outbox.cif.g08.bks.cpg/sg12_43_cif.got.tgz:85013.got - 2010.06.03 13:09:07.
