data_PCOD9196341
_publ_section_title
;
Structure prediction by ZEFSAII (Michael W. Deem and Ramdas Pophale) SiO2 
 PCOD9196341
Probable space group: C 2/M
;
_chemical_formula_sum "Si O2"
_cell_formula_units_Z 56
_cell_length_a 27.605685
_cell_length_b 13.755818
_cell_length_c 9.305463
_cell_angle_alpha 90.000000
_cell_angle_beta 125.769029
_cell_angle_gamma 90.000000
_cell_volume 2867.128641
_symmetry_space_group_name_H-M "C 2/M"
_symmetry_group_IT_number 12
_symmetry_cell_setting 'monoclinic'
loop_
_space_group_symop_operation_xyz
x,y,z
-x,y,-z
-x,-y,-z
x,-y,z
1/2+x,1/2+y,z
1/2-x,1/2+y,-z
1/2-x,1/2-y,-z
1/2+x,1/2-y,z
loop_
_atom_site_type_symbol
_atom_site_label
_atom_site_fract_x
_atom_site_fract_y
_atom_site_fract_z
Si Si1 0.917783 0.388295 0.981058
Si Si2 0.687513 0.385536 0.352069
Si Si3 0.237088 0.756604 0.684900
Si Si4 0.198023 0.609010 0.022583
Si Si5 0.145809 0.606279 0.612771
Si Si6 0.981221 0.313587 0.628329
Si Si7 0.440131 0.296554 0.818613
O O1 0.925781 0.500000 0.945671
O O2 0.853290 0.380185 0.944951
O O3 0.926435 0.308462 0.871450
O O4 0.965855 0.362913 0.188642
O O5 0.696532 0.500000 0.349606
O O6 0.710548 0.319855 0.259869
O O7 0.727546 0.340437 0.550166
O O8 0.618283 0.361545 0.262617
O O9 0.252411 0.811683 0.857339
O O10 0.177655 0.692202 0.582951
O O11 0.222870 0.500000 0.076190
O O12 0.167582 0.617187 0.814723
O O13 0.164779 0.500000 0.592456
O O14 0.075180 0.615595 0.483481
O O15 0.957837 0.224668 0.685212
O O16 0.000000 0.286476 0.500000
O O17 0.500000 0.334923 0.000000
#
# Coordination Sequence:
#
# PCOD9196341 Si02
#       7
#     8   8   8   8   8   8   8
#     4  10  20  35  56  84 119 154 190 233 289 353
#     4  11  23  40  62  85 112 151 198 243 292 346
#     4  11  22  40  57  85 118 155 188 240 290 344
#     4  10  20  35  58  85 116 155 192 230 285 350
#     4  11  22  35  57  89 119 153 193 235 284 350
#     4  11  21  36  58  86 120 153 188 238 296 346
#     4  10  22  40  59  86 114 153 195 242 294 348
#
# _framework density 19.531735999999999
#
# number of rings (size 3 to 8) (size 9 to 14) (size 15 to 20)
#    0.000    1.429    4.286    1.714    0.000    4.000 
#    0.000    0.000    0.000    0.429    0.000    0.000 
#    0.000    0.000    0.000    0.000    0.000    0.000 
#
# Total GULP energy -156360.928281 kJ/mol
# GULP energy per Si atom -5584.318867 kJ/mol
# Density = 1.948728 g / cm^3
# Si number density = 19.531736 Si / 1000 Ang^3
#
#
#
# Elastic Constant Matrix: (Units=GPa)
#
#
# Indices 1 2 3 4 5 6 
#
# 1 54.6789 23.4629 5.2646 0.0000 4.2625 0.0000
# 2 23.4629 109.1832 39.9646 0.0000 3.5898 0.0000
# 3 5.2646 39.9646 64.7669 0.0000 1.1725 0.0000
# 4 0.0000 0.0000 0.0000 19.9020 0.0000 5.3886
# 5 4.2625 3.5898 1.1725 0.0000 31.8927 0.0000
# 6 0.0000 0.0000 0.0000 5.3886 0.0000 18.1058
#
#
#
# Elastic Compliance Matrix: (Units=1/GPa)
#
#
# Indices 1 2 3 4 5 6 
#
# 1 0.020394 -0.004802 0.001346 0.000000 -0.002235 0.000000
# 2 -0.004802 0.012998 -0.007620 0.000000 -0.000541 0.000000
# 3 0.001346 -0.007620 0.020034 0.000000 -0.000059 0.000000
# 4 0.000000 0.000000 0.000000 0.054650 0.000000 -0.016265
# 5 -0.002235 -0.000541 -0.000059 0.000000 0.031717 0.000000
# 6 0.000000 0.000000 0.000000 -0.016265 0.000000 0.060072
#
#
# Mechanical properties :
#
#
# Convention : Reuss Voigt Hill
#
# Bulk Modulus (GPa) = 31.97675 40.66812 36.32243
# Shear Modulus (GPa) = 21.51089 24.64255 23.07672
#
# Velocity S-wave (km/s) = 3.32223 3.55585 3.44102
# Velocity P-wave (km/s) = 5.57884 6.14211 5.86724
#
# Compressibility (1/GPa) = 0.03127272
#
# Stress axis : x y z
#
# Youngs Moduli (GPa) = 49.03499 76.93623 49.91580
#
# Poissons Ratio (x) = 0.36941 -0.06716
# Poissons Ratio (y) = 0.23544 0.38037
# Poissons Ratio (z) = -0.06598 0.58627
#
# Static dielectric constant tensor:
#      x y z
#    x 1.703160 0.000000 -0.003420 
#    y 0.000000 1.667720 0.000000 
#    z -0.003420 0.000000 1.691240 
# 
# From -- ./inp_files/111731.got.cif
#   From: 2010.05.17/outbox.cif.g08.bks.cpg/sg12_56_cif.got.tgz:111731.got - 2010.06.03 13:09:07.
