data_PCOD9196980
_publ_section_title
;
Structure prediction by ZEFSAII (Michael W. Deem and Ramdas Pophale) SiO2 
 PCOD9196980
Probable space group: C 2/M
;
_chemical_formula_sum "Si O2"
_cell_formula_units_Z 64
_cell_length_a 23.994254
_cell_length_b 16.718358
_cell_length_c 14.649027
_cell_angle_alpha 90.000000
_cell_angle_beta 145.997292
_cell_angle_gamma 90.000000
_cell_volume 3286.258583
_symmetry_space_group_name_H-M "C 2/M"
_symmetry_group_IT_number 12
_symmetry_cell_setting 'monoclinic'
loop_
_space_group_symop_operation_xyz
x,y,z
-x,y,-z
-x,-y,-z
x,-y,z
1/2+x,1/2+y,z
1/2-x,1/2+y,-z
1/2-x,1/2-y,-z
1/2+x,1/2-y,z
loop_
_atom_site_type_symbol
_atom_site_label
_atom_site_fract_x
_atom_site_fract_y
_atom_site_fract_z
Si Si1 0.658338 0.094582 0.858366
Si Si2 0.041863 0.661831 0.154680
Si Si3 0.029299 0.705944 0.438766
Si Si4 0.757444 0.593035 0.637291
Si Si5 0.561064 0.404561 0.991286
Si Si6 0.168571 0.595861 0.070698
Si Si7 0.926694 0.807874 0.675003
Si Si8 0.716499 0.905146 0.735244
O O1 0.559469 0.146442 0.710916
O O2 0.705465 0.117926 0.019747
O O3 0.721785 0.104556 0.852581
O O4 0.632965 0.000000 0.829118
O O5 0.132335 0.602182 0.255762
O O6 0.084635 0.731975 0.274353
O O7 0.945626 0.624029 0.072972
O O8 0.000000 0.690946 0.000000
O O9 0.042394 0.774333 0.381750
O O10 0.128596 0.651521 0.580945
O O11 0.000000 0.735899 0.500000
O O12 0.729085 0.500000 0.599592
O O13 0.674773 0.642890 0.472440
O O14 0.769210 0.624942 0.757537
O O15 0.557889 0.500000 0.971993
O O16 0.511219 0.360761 0.838286
O O17 0.500000 0.386631 0.000000
O O18 0.676657 0.382504 0.159985
O O19 0.169104 0.500000 0.079128
O O20 0.695942 0.000000 0.689586
#
# Coordination Sequence:
#
# PCOD9196980 Si02
#       8
#     8   8   8   8   8   8   8   8
#     4   9  16  33  61  90 118 148 192 246 296 344
#     4  10  20  35  58  85 113 148 190 239 295 346
#     4  10  21  38  57  90 124 152 186 240 305 354
#     4  10  22  38  56  81 116 155 195 237 284 344
#     4  10  23  44  64  83 113 156 204 242 276 334
#     4   9  17  33  56  82 114 150 191 238 288 343
#     4  12  23  38  57  83 120 155 192 235 288 346
#     4   9  19  37  63  89 115 153 198 244 288 337
#
# _framework density 19.475034999999998
#
# number of rings (size 3 to 8) (size 9 to 14) (size 15 to 20)
#    0.000    2.125    1.250    1.875    0.000    7.000 
#    2.250    2.500    0.000    0.750    0.000    0.000 
#    0.000    0.000    0.000    0.000    0.000    0.000 
#
# Total GULP energy -178603.816727 kJ/mol
# GULP energy per Si atom -5581.369273 kJ/mol
# Density = 1.943071 g / cm^3
# Si number density = 19.475035 Si / 1000 Ang^3
#
#
#
# Elastic Constant Matrix: (Units=GPa)
#
#
# Indices 1 2 3 4 5 6 
#
# 1 83.2787 22.5410 29.9292 0.0000 -2.9001 0.0000
# 2 22.5410 34.4169 29.7302 0.0000 -3.3630 0.0000
# 3 29.9292 29.7302 78.5181 0.0000 -1.5897 0.0000
# 4 0.0000 0.0000 0.0000 33.6988 0.0000 5.3626
# 5 -2.9001 -3.3630 -1.5897 0.0000 28.8069 0.0000
# 6 0.0000 0.0000 0.0000 5.3626 0.0000 91.7053
#
#
#
# Elastic Compliance Matrix: (Units=1/GPa)
#
#
# Indices 1 2 3 4 5 6 
#
# 1 0.015057 -0.007227 -0.002993 0.000000 0.000507 0.000000
# 2 -0.007227 0.047146 -0.015017 0.000000 0.003948 0.000000
# 3 -0.002993 -0.015017 0.019543 0.000000 -0.000976 0.000000
# 4 0.000000 0.000000 0.000000 0.029953 0.000000 -0.001752
# 5 0.000507 0.003948 -0.000976 0.000000 0.035172 0.000000
# 6 0.000000 0.000000 0.000000 -0.001752 0.000000 0.011007
#
#
# Mechanical properties :
#
#
# Convention : Reuss Voigt Hill
#
# Bulk Modulus (GPa) = 31.97600 40.06829 36.02214
# Shear Modulus (GPa) = 22.85440 38.44310 30.64875
#
# Velocity S-wave (km/s) = 3.42939 4.44776 3.97135
# Velocity P-wave (km/s) = 5.66882 6.85533 6.29012
#
# Compressibility (1/GPa) = 0.03127346
#
# Stress axis : x y z
#
# Youngs Moduli (GPa) = 66.41364 21.21057 51.16918
#
# Poissons Ratio (x) = 0.15328 0.15314
# Poissons Ratio (y) = 0.47995 0.76841
# Poissons Ratio (z) = 0.19876 0.31852
#
# Static dielectric constant tensor:
#      x y z
#    x 1.706430 0.000000 -0.024450 
#    y 0.000000 1.670690 0.000000 
#    z -0.024450 0.000000 1.654990 
# 
# From -- ./inp_files/241525.got.cif
#   From: 2010.05.17/outbox.cif.g08.bks.cpg/sg12_121_cif.got.tgz:241525.got - 2010.06.03 13:09:07.
