data_PCOD9196802
_publ_section_title
;
Structure prediction by ZEFSAII (Michael W. Deem and Ramdas Pophale) SiO2 
 PCOD9196802
Probable space group: C 2/M
;
_chemical_formula_sum "Si O2"
_cell_formula_units_Z 50
_cell_length_a 29.240041
_cell_length_b 7.554663
_cell_length_c 11.897256
_cell_angle_alpha 90.000000
_cell_angle_beta 54.490332
_cell_angle_gamma 90.000000
_cell_volume 2139.309561
_symmetry_space_group_name_H-M "C 2/M"
_symmetry_group_IT_number 12
_symmetry_cell_setting 'monoclinic'
loop_
_space_group_symop_operation_xyz
x,y,z
-x,y,-z
-x,-y,-z
x,-y,z
1/2+x,1/2+y,z
1/2-x,1/2+y,-z
1/2-x,1/2-y,-z
1/2+x,1/2-y,z
loop_
_atom_site_type_symbol
_atom_site_label
_atom_site_fract_x
_atom_site_fract_y
_atom_site_fract_z
Si Si1 0.588734 0.709293 0.165798
Si Si2 0.500000 0.500000 0.500000
Si Si3 0.579836 0.802956 0.431569
Si Si4 0.802741 0.714579 0.620585
Si Si5 0.513080 0.213797 0.853520
Si Si6 0.860300 0.285749 0.319536
Si Si7 0.816466 0.792463 0.136531
O O1 0.593184 0.500000 0.190503
O O2 0.583691 0.805765 0.290917
O O3 0.535366 0.725414 0.160736
O O4 0.642344 0.776254 0.018649
O O5 0.534088 0.655378 0.520557
O O6 0.640887 0.750722 0.390495
O O7 0.565659 0.000000 0.495134
O O8 0.797149 0.500000 0.623496
O O9 0.815255 0.776350 0.475922
O O10 0.745804 0.783889 0.757591
O O11 0.576799 0.268596 0.735214
O O12 0.511692 0.000000 0.854560
O O13 0.500000 0.271325 0.000000
O O14 0.859414 0.500000 0.319097
O O15 0.846413 0.224438 0.214403
O O16 0.810798 0.000000 0.118033
#
# Coordination Sequence:
#
# PCOD9196802 Si02
#       7
#     8   2   8   8   8   8   8
#     4  11  23  39  61  94 132 169 223 278 328 391
#     4  12  26  48  68 102 138 160 226 270 318 404
#     4  11  25  46  71  97 134 180 215 268 335 386
#     4   9  21  41  63  90 126 174 223 263 332 400
#     4  10  20  35  57  86 124 165 217 270 330 404
#     4  10  20  36  59  89 121 162 219 274 330 401
#     4  10  21  39  61  89 130 170 214 277 329 389
#
# _framework density 23.372029000000001
#
# number of rings (size 3 to 8) (size 9 to 14) (size 15 to 20)
#    0.000    1.760    2.400    1.200    2.240    2.240 
#    2.880    0.000    0.000    0.000    0.000    0.000 
#    0.000    0.000    0.000    0.000    0.000    0.000 
#
# Total GULP energy -139630.827261 kJ/mol
# GULP energy per Si atom -5585.233090 kJ/mol
# Density = 2.331883 g / cm^3
# Si number density = 23.372029 Si / 1000 Ang^3
#
#
#
# Elastic Constant Matrix: (Units=GPa)
#
#
# Indices 1 2 3 4 5 6 
#
# 1 48.0905 9.9463 21.7377 0.0000 -13.7237 0.0000
# 2 9.9463 86.7310 7.5052 0.0000 -12.9511 0.0000
# 3 21.7377 7.5052 94.3447 0.0000 -3.3603 0.0000
# 4 0.0000 0.0000 0.0000 161.8830 0.0000 -2.2380
# 5 -13.7237 -12.9511 -3.3603 0.0000 43.5307 0.0000
# 6 0.0000 0.0000 0.0000 -2.2380 0.0000 5.0276
#
#
#
# Elastic Compliance Matrix: (Units=1/GPa)
#
#
# Indices 1 2 3 4 5 6 
#
# 1 0.025654 -0.001380 -0.005543 0.000000 0.007249 0.000000
# 2 -0.001380 0.012206 -0.000541 0.000000 0.003155 0.000000
# 3 -0.005543 -0.000541 0.011884 0.000000 -0.000991 0.000000
# 4 0.000000 0.000000 0.000000 0.006216 0.000000 0.002767
# 5 0.007249 0.003155 -0.000991 0.000000 0.026120 0.000000
# 6 0.000000 0.000000 0.000000 0.002767 0.000000 0.200135
#
#
# Mechanical properties :
#
#
# Convention : Reuss Voigt Hill
#
# Bulk Modulus (GPa) = 28.72138 34.17160 31.44649
# Shear Modulus (GPa) = 16.19452 54.75340 35.47396
#
# Velocity S-wave (km/s) = 2.63516 4.84538 3.90012
# Velocity P-wave (km/s) = 4.64480 6.77909 5.81078
#
# Compressibility (1/GPa) = 0.03481727
#
# Stress axis : x y z
#
# Youngs Moduli (GPa) = 38.98071 81.92686 84.14494
#
# Poissons Ratio (x) = 0.11304 0.46640
# Poissons Ratio (y) = 0.05379 0.04550
# Poissons Ratio (z) = 0.21606 0.04430
#
# Static dielectric constant tensor:
#      x y z
#    x 1.833590 0.000000 -0.047130 
#    y 0.000000 1.892280 0.000000 
#    z -0.047130 0.000000 1.956960 
# 
# From -- ./inp_files/180561.got.cif
#   From: 2010.05.17/outbox.cif.g08.bks.cpg/sg12_91_cif.got.tgz:180561.got - 2010.06.03 13:09:07.
