data_PCOD9196964
_publ_section_title
;
Structure prediction by ZEFSAII (Michael W. Deem and Ramdas Pophale) SiO2 
 PCOD9196964
Probable space group: C 2/M
;
_chemical_formula_sum "Si O2"
_cell_formula_units_Z 48
_cell_length_a 20.967599
_cell_length_b 7.597879
_cell_length_c 27.413476
_cell_angle_alpha 90.000000
_cell_angle_beta 29.443862
_cell_angle_gamma 90.000000
_cell_volume 2146.797316
_symmetry_space_group_name_H-M "C 2/M"
_symmetry_group_IT_number 12
_symmetry_cell_setting 'monoclinic'
loop_
_space_group_symop_operation_xyz
x,y,z
-x,y,-z
-x,-y,-z
x,-y,z
1/2+x,1/2+y,z
1/2-x,1/2+y,-z
1/2-x,1/2-y,-z
1/2+x,1/2-y,z
loop_
_atom_site_type_symbol
_atom_site_label
_atom_site_fract_x
_atom_site_fract_y
_atom_site_fract_z
Si Si1 0.334341 0.795454 0.793855
Si Si2 0.104781 0.716062 0.778273
Si Si3 0.853217 0.289073 0.889409
Si Si4 0.123715 0.784874 0.448420
Si Si5 0.388232 0.709729 0.432105
Si Si6 0.091417 0.296213 0.896900
O O1 0.316277 0.720660 0.860491
O O2 0.485693 0.782139 0.679433
O O3 0.238822 0.709112 0.818244
O O4 0.297054 0.000000 0.818691
O O5 0.104387 0.500000 0.779361
O O6 0.243771 0.771447 0.665473
O O7 0.081599 0.778819 0.849045
O O8 0.991559 0.774074 0.817254
O O9 0.863027 0.500000 0.877579
O O10 0.750000 0.250000 0.000000
O O11 0.114497 0.726080 0.510345
O O12 0.000000 0.727939 0.500000
O O13 0.124478 0.000000 0.448453
O O14 0.404462 0.500000 0.421857
O O15 0.250000 0.750000 0.500000
O O16 0.050831 0.500000 0.918992
O O17 0.000000 0.217199 0.000000
#
# Coordination Sequence:
#
# PCOD9196964 Si02
#       6
#     8   8   8   8   8   8
#     4  11  23  38  57  83 116 150 184 227 282 339
#     4   9  17  32  54  79 107 139 180 228 273 321
#     4  10  21  37  57  80 108 144 185 229 274 324
#     4   9  17  31  54  81 106 138 182 226 269 322
#     4  11  22  37  59  84 112 147 188 234 282 334
#     4  10  20  35  58  85 111 144 187 232 277 330
#
# _framework density 22.358888
#
# number of rings (size 3 to 8) (size 9 to 14) (size 15 to 20)
#    0.000    2.000    0.000    4.000    0.000    8.333 
#    0.000    0.833    0.000   11.000    0.000    0.000 
#    0.000    0.000    0.000    0.000    0.000    0.000 
#
# Total GULP energy -134191.545917 kJ/mol
# GULP energy per Si atom -5591.314413 kJ/mol
# Density = 2.230800 g / cm^3
# Si number density = 22.358888 Si / 1000 Ang^3
#
#
#
# Elastic Constant Matrix: (Units=GPa)
#
#
# Indices 1 2 3 4 5 6 
#
# 1 90.9948 0.2430 -15.5770 0.0024 7.4888 -0.0034
# 2 0.2430 52.7936 -6.0777 0.0035 6.0472 -0.0019
# 3 -15.5770 -6.0777 65.2715 0.0007 1.3399 0.0000
# 4 0.0024 0.0035 0.0007 16.8512 -0.0004 -8.5755
# 5 7.4888 6.0472 1.3399 -0.0004 48.3467 0.0012
# 6 -0.0034 -0.0019 0.0000 -8.5755 0.0012 9.4332
#
#
#
# Elastic Compliance Matrix: (Units=1/GPa)
#
#
# Indices 1 2 3 4 5 6 
#
# 1 0.011639 0.000499 0.002864 0.000001 -0.001945 0.000005
# 2 0.000499 0.019462 0.001984 -0.000004 -0.002567 0.000001
# 3 0.002864 0.001984 0.016212 -0.000001 -0.001141 0.000001
# 4 0.000001 -0.000004 -0.000001 0.110431 -0.000001 0.100389
# 5 -0.001945 -0.002567 -0.001141 -0.000001 0.021338 -0.000005
# 6 0.000005 0.000001 0.000001 0.100389 -0.000005 0.197269
#
#
# Mechanical properties :
#
#
# Convention : Reuss Voigt Hill
#
# Bulk Modulus (GPa) = 17.23958 18.47071 17.85515
# Shear Modulus (GPa) = 12.98727 30.29098 21.63913
#
# Velocity S-wave (km/s) = 2.41271 3.68470 3.11434
# Velocity P-wave (km/s) = 3.93557 5.13631 4.57550
#
# Compressibility (1/GPa) = 0.05800605
#
# Stress axis : x y z
#
# Youngs Moduli (GPa) = 85.92100 51.38276 61.68173
#
# Poissons Ratio (x) = -0.02563 -0.17665
# Poissons Ratio (y) = -0.04286 -0.12237
# Poissons Ratio (z) = -0.24607 -0.10194
#
# Static dielectric constant tensor:
#      x y z
#    x 1.801460 -0.000020 0.017060 
#    y -0.000020 1.889510 0.000010 
#    z 0.017060 0.000010 1.765430 
# 
# From -- ./inp_files/365362.got.cif
#   From: 2010.05.17/outbox.cif.g08.bks.cpg/sg12_183_cif.got.tgz:365362.got - 2010.06.03 13:09:07.
