data_PCOD9196423
_publ_section_title
;
Structure prediction by ZEFSAII (Michael W. Deem and Ramdas Pophale) SiO2 
 PCOD9196423
Probable space group: C 2/M
;
_chemical_formula_sum "Si O2"
_cell_formula_units_Z 64
_cell_length_a 9.038817
_cell_length_b 28.445610
_cell_length_c 18.994320
_cell_angle_alpha 90.000000
_cell_angle_beta 37.948925
_cell_angle_gamma 90.000000
_cell_volume 3003.285365
_symmetry_space_group_name_H-M "C 2/M"
_symmetry_group_IT_number 12
_symmetry_cell_setting 'monoclinic'
loop_
_space_group_symop_operation_xyz
x,y,z
-x,y,-z
-x,-y,-z
x,-y,z
1/2+x,1/2+y,z
1/2-x,1/2+y,-z
1/2-x,1/2-y,-z
1/2+x,1/2-y,z
loop_
_atom_site_type_symbol
_atom_site_label
_atom_site_fract_x
_atom_site_fract_y
_atom_site_fract_z
Si Si1 0.864186 0.056102 0.390224
Si Si2 0.454134 0.444627 0.100753
Si Si3 0.083632 0.303029 0.107604
Si Si4 0.225135 0.280410 0.202233
Si Si5 0.145918 0.139702 0.267583
Si Si6 0.276465 0.721716 0.419189
Si Si7 0.923265 0.851184 0.871899
Si Si8 0.576115 0.056115 0.355797
O O1 0.749729 0.069488 0.356532
O O2 0.684734 0.072070 0.520094
O O3 0.100888 0.086467 0.305875
O O4 0.895376 0.000000 0.380082
O O5 0.510036 0.500000 0.096232
O O6 0.595948 0.403001 0.086754
O O7 0.191751 0.435290 0.236033
O O8 0.500000 0.439081 0.000000
O O9 0.246527 0.292887 0.113016
O O10 0.909688 0.260201 0.154135
O O11 0.899554 0.343343 0.200244
O O12 0.237495 0.318827 0.983659
O O13 0.315030 0.325671 0.214153
O O14 0.957932 0.256918 0.308403
O O15 0.144243 0.146041 0.183887
O O16 0.926539 0.173739 0.372836
O O17 0.250000 0.750000 0.500000
O O18 0.000000 0.713110 0.500000
O O19 0.561115 0.000000 0.366942
#
# Coordination Sequence:
#
# PCOD9196423 Si02
#       8
#     8   8   8   8   8   8   8   8
#     4   9  17  32  57  88 123 161 207 259 307 363
#     4  10  20  35  56  88 128 165 203 253 310 369
#     4  11  24  42  61  88 117 155 203 258 312 377
#     4  11  23  42  63  85 116 155 204 252 309 371
#     4  11  23  37  60  90 123 159 203 251 315 371
#     4  11  23  39  57  85 121 155 193 246 314 381
#     4  12  23  39  63  90 119 159 209 256 308 371
#     4   8  15  29  52  84 121 159 205 254 300 358
#
# _framework density 21.309996000000002
#
# number of rings (size 3 to 8) (size 9 to 14) (size 15 to 20)
#    0.000    1.625    1.250    6.375    1.750    3.000 
#    0.000    0.625    0.000    2.250    0.000    0.000 
#    0.000   15.000    0.000    0.000    0.000    0.000 
#
# Total GULP energy -178420.149360 kJ/mol
# GULP energy per Si atom -5575.629668 kJ/mol
# Density = 2.126149 g / cm^3
# Si number density = 21.309996 Si / 1000 Ang^3
#
#
#
# Elastic Constant Matrix: (Units=GPa)
#
#
# Indices 1 2 3 4 5 6 
#
# 1 39.6546 1.0452 19.3584 0.0000 0.6500 0.0000
# 2 1.0452 66.9288 20.9050 0.0001 2.4464 0.0000
# 3 19.3584 20.9050 111.6770 -0.0001 9.1716 -0.0001
# 4 0.0000 0.0001 -0.0001 29.1573 0.0000 6.4353
# 5 0.6500 2.4464 9.1716 0.0000 37.0088 0.0000
# 6 0.0000 0.0000 -0.0001 6.4353 0.0000 15.1494
#
#
#
# Elastic Compliance Matrix: (Units=1/GPa)
#
#
# Indices 1 2 3 4 5 6 
#
# 1 0.027647 0.001123 -0.005060 0.000000 0.000694 0.000000
# 2 0.001123 0.015918 -0.003151 0.000000 -0.000291 0.000000
# 3 -0.005060 -0.003151 0.010613 0.000000 -0.002333 0.000000
# 4 0.000000 0.000000 0.000000 0.037845 0.000000 -0.016076
# 5 0.000694 -0.000291 -0.002333 0.000000 0.027606 0.000000
# 6 0.000000 0.000000 0.000000 -0.016076 0.000000 0.072838
#
#
# Mechanical properties :
#
#
# Convention : Reuss Voigt Hill
#
# Bulk Modulus (GPa) = 24.99750 33.43086 29.21418
# Shear Modulus (GPa) = 22.72982 28.05989 25.39485
#
# Velocity S-wave (km/s) = 3.26947 3.63264 3.45583
# Velocity P-wave (km/s) = 5.09985 5.77206 5.44633
#
# Compressibility (1/GPa) = 0.04000401
#
# Stress axis : x y z
#
# Youngs Moduli (GPa) = 36.17064 62.82030 94.22582
#
# Poissons Ratio (x) = -0.07056 0.47675
# Poissons Ratio (y) = -0.04063 0.29687
# Poissons Ratio (z) = 0.18301 0.19792
#
# Static dielectric constant tensor:
#      x y z
#    x 1.743170 0.000000 0.010000 
#    y 0.000000 1.805390 0.000000 
#    z 0.010000 0.000000 1.820940 
# 
# From -- ./inp_files/260334.got.cif
#   From: 2010.05.17/outbox.cif.g08.bks.cpg/sg12_131_cif.got.tgz:260334.got - 2010.06.03 13:09:07.
