data_PCOD9196268
_publ_section_title
;
Structure prediction by ZEFSAII (Michael W. Deem and Ramdas Pophale) SiO2 
 PCOD9196268
Probable space group: C 2/M
;
_chemical_formula_sum "Si O2"
_cell_formula_units_Z 48
_cell_length_a 29.933735
_cell_length_b 7.763256
_cell_length_c 17.381157
_cell_angle_alpha 90.000000
_cell_angle_beta 150.239537
_cell_angle_gamma 90.000000
_cell_volume 2004.903321
_symmetry_space_group_name_H-M "C 2/M"
_symmetry_group_IT_number 12
_symmetry_cell_setting 'monoclinic'
loop_
_space_group_symop_operation_xyz
x,y,z
-x,y,-z
-x,-y,-z
x,-y,z
1/2+x,1/2+y,z
1/2-x,1/2+y,-z
1/2-x,1/2-y,-z
1/2+x,1/2-y,z
loop_
_atom_site_type_symbol
_atom_site_label
_atom_site_fract_x
_atom_site_fract_y
_atom_site_fract_z
Si Si1 0.647103 0.292961 0.331533
Si Si2 0.685453 0.303283 0.659616
Si Si3 0.023269 0.789547 0.834654
Si Si4 0.136933 0.800596 0.147578
Si Si5 0.197696 0.696460 0.844724
Si Si6 0.520285 0.709562 0.658280
O O1 0.640467 0.500000 0.318630
O O2 0.750000 0.250000 0.500000
O O3 0.577965 0.236945 0.293887
O O4 0.619733 0.225060 0.206063
O O5 0.682192 0.500000 0.626855
O O6 0.757558 0.208413 0.714728
O O7 0.717212 0.297496 0.795764
O O8 0.583263 0.236472 0.506306
O O9 0.048651 0.736817 0.786891
O O10 0.027408 0.000000 0.838950
O O11 0.085366 0.725527 0.997056
O O12 0.108309 0.000000 0.108634
O O13 0.221371 0.500000 0.863144
O O14 0.092306 0.717547 0.706839
O O15 0.250000 0.750000 0.000000
O O16 0.523643 0.500000 0.656170
#
# Coordination Sequence:
#
# PCOD9196268 Si02
#       6
#     8   8   8   8   8   8
#     4  10  20  35  56  83 114 150 193 239 289 345
#     4  11  23  39  60  87 120 155 192 236 288 347
#     4   9  18  35  58  82 111 150 193 236 283 339
#     4  10  20  35  58  85 113 150 198 245 287 340
#     4  12  25  41  62  87 117 152 193 240 290 344
#     4  10  21  38  60  85 116 155 196 237 286 345
#
# _framework density 23.941306000000001
#
# number of rings (size 3 to 8) (size 9 to 14) (size 15 to 20)
#    0.000    1.667    0.000    5.000    0.000    8.667 
#    0.000    1.667    0.000    2.000    0.000    0.000 
#    0.000    0.000    0.000    0.000    0.000    0.000 
#
# Total GULP energy -134280.046696 kJ/mol
# GULP energy per Si atom -5595.001946 kJ/mol
# Density = 2.388681 g / cm^3
# Si number density = 23.941306 Si / 1000 Ang^3
#
#
#
# Elastic Constant Matrix: (Units=GPa)
#
#
# Indices 1 2 3 4 5 6 
#
# 1 96.1302 -8.6254 -15.2575 0.0000 -3.6935 0.0000
# 2 -8.6254 41.4579 -5.6987 0.0000 -0.7531 0.0000
# 3 -15.2575 -5.6987 62.2371 0.0000 -0.4880 0.0000
# 4 0.0000 0.0000 0.0000 20.9248 0.0000 5.8834
# 5 -3.6935 -0.7531 -0.4880 0.0000 40.4192 0.0000
# 6 0.0000 0.0000 0.0000 5.8834 0.0000 15.8463
#
#
#
# Elastic Compliance Matrix: (Units=1/GPa)
#
#
# Indices 1 2 3 4 5 6 
#
# 1 0.011168 0.002756 0.002999 0.000000 0.001108 0.000000
# 2 0.002756 0.025118 0.002981 0.000000 0.000756 0.000000
# 3 0.002999 0.002981 0.017080 0.000000 0.000536 0.000000
# 4 0.000000 0.000000 0.000000 0.053361 0.000000 -0.019812
# 5 0.001108 0.000756 0.000536 0.000000 0.024863 0.000000
# 6 0.000000 0.000000 0.000000 -0.019812 0.000000 0.070462
#
#
# Mechanical properties :
#
#
# Convention : Reuss Voigt Hill
#
# Bulk Modulus (GPa) = 14.11651 15.62911 14.87281
# Shear Modulus (GPa) = 24.01631 30.73182 27.37407
#
# Velocity S-wave (km/s) = 3.17066 3.58667 3.38506
# Velocity P-wave (km/s) = 4.39468 4.86770 4.63723
#
# Compressibility (1/GPa) = 0.07083902
#
# Stress axis : x y z
#
# Youngs Moduli (GPa) = 89.53827 39.81238 58.54805
#
# Poissons Ratio (x) = -0.10972 -0.17558
# Poissons Ratio (y) = -0.24677 -0.17456
# Poissons Ratio (z) = -0.26852 -0.11870
#
# Static dielectric constant tensor:
#      x y z
#    x 1.865070 0.000000 -0.018970 
#    y 0.000000 1.900600 0.000000 
#    z -0.018970 0.000000 1.943960 
# 
# From -- ./inp_files/274101.got.cif
#   From: 2010.05.17/outbox.cif.g08.bks.cpg/sg12_138_cif.got.tgz:274101.got - 2010.06.03 13:09:07.
