data_PCOD9196987
_publ_section_title
;
Structure prediction by ZEFSAII (Michael W. Deem and Ramdas Pophale) SiO2 
 PCOD9196987
Probable space group: C 2/M
;
_chemical_formula_sum "Si O2"
_cell_formula_units_Z 40
_cell_length_a 25.083348
_cell_length_b 8.982113
_cell_length_c 14.725896
_cell_angle_alpha 90.000000
_cell_angle_beta 138.026765
_cell_angle_gamma 90.000000
_cell_volume 2218.866741
_symmetry_space_group_name_H-M "C 2/M"
_symmetry_group_IT_number 12
_symmetry_cell_setting 'monoclinic'
loop_
_space_group_symop_operation_xyz
x,y,z
-x,y,-z
-x,-y,-z
x,-y,z
1/2+x,1/2+y,z
1/2-x,1/2+y,-z
1/2-x,1/2-y,-z
1/2+x,1/2-y,z
loop_
_atom_site_type_symbol
_atom_site_label
_atom_site_fract_x
_atom_site_fract_y
_atom_site_fract_z
Si Si1 0.723667 0.821437 0.747622
Si Si2 0.019086 0.823264 0.292391
Si Si3 0.909963 0.672590 0.287554
Si Si4 0.132178 0.672618 0.963806
Si Si5 0.190566 0.678048 0.496826
O O1 0.641235 0.775165 0.692394
O O2 0.720167 0.790246 0.636671
O O3 0.729648 0.000000 0.768301
O O4 0.797523 0.743372 0.889911
O O5 0.102678 0.747061 0.377661
O O6 0.984706 0.766998 0.346590
O O7 0.950740 0.763374 0.137022
O O8 0.024664 0.000000 0.297149
O O9 0.934550 0.500000 0.330856
O O10 0.852004 0.676864 0.125235
O O11 0.120017 0.500000 0.972517
O O12 0.186930 0.500000 0.480829
O O13 0.250000 0.750000 0.500000
#
# Coordination Sequence:
#
# PCOD9196987 Si02
#       5
#     8   8   8   8   8
#     4  10  20  35  58  85 114 149 186 224 274 332
#     4  10  20  36  58  82 114 150 184 226 275 328
#     4   8  17  33  55  85 118 148 178 220 275 331
#     4   9  18  33  56  86 119 148 179 222 273 330
#     4  11  24  42  60  79 108 147 190 236 280 326
#
# _framework density 18.027221000000001
#
# number of rings (size 3 to 8) (size 9 to 14) (size 15 to 20)
#    1.200    1.200    0.000    3.000    0.000    3.200 
#    0.000    5.000    0.000    6.000    0.000    0.000 
#    0.000    0.000    0.000    0.000    0.000    0.000 
#
# Total GULP energy -111430.521996 kJ/mol
# GULP energy per Si atom -5571.526100 kJ/mol
# Density = 1.798619 g / cm^3
# Si number density = 18.027221 Si / 1000 Ang^3
#
#
#
# Elastic Constant Matrix: (Units=GPa)
#
#
# Indices 1 2 3 4 5 6 
#
# 1 162.5465 82.9641 77.8170 0.0000 7.7433 0.0000
# 2 82.9641 98.5882 68.0172 0.0000 -2.3754 0.0000
# 3 77.8170 68.0172 131.4334 0.0000 -14.0509 0.0000
# 4 0.0000 0.0000 0.0000 23.8189 0.0000 11.5625
# 5 7.7433 -2.3754 -14.0509 0.0000 34.3745 0.0000
# 6 0.0000 0.0000 0.0000 11.5625 0.0000 27.0078
#
#
#
# Elastic Compliance Matrix: (Units=1/GPa)
#
#
# Indices 1 2 3 4 5 6 
#
# 1 0.012091 -0.007777 -0.003642 0.000000 -0.004750 0.000000
# 2 -0.007777 0.020961 -0.006171 0.000000 0.000678 0.000000
# 3 -0.003642 -0.006171 0.013594 0.000000 0.005951 0.000000
# 4 0.000000 0.000000 0.000000 0.052998 0.000000 -0.022689
# 5 -0.004750 0.000678 0.005951 0.000000 0.032641 0.000000
# 6 0.000000 0.000000 0.000000 -0.022689 0.000000 0.046740
#
#
# Mechanical properties :
#
#
# Convention : Reuss Voigt Hill
#
# Bulk Modulus (GPa) = 87.20175 94.46275 90.83225
# Shear Modulus (GPa) = 22.93305 27.95823 25.44564
#
# Velocity S-wave (km/s) = 3.57057 3.94241 3.76109
# Velocity P-wave (km/s) = 8.09172 8.55788 8.32806
#
# Compressibility (1/GPa) = 0.01146766
#
# Stress axis : x y z
#
# Youngs Moduli (GPa) = 82.70458 47.70764 73.56080
#
# Poissons Ratio (x) = 0.37101 0.26791
# Poissons Ratio (y) = 0.64317 0.45391
# Poissons Ratio (z) = 0.30122 0.29438
#
# Static dielectric constant tensor:
#      x y z
#    x 1.607620 0.000000 -0.010330 
#    y 0.000000 1.601820 0.000000 
#    z -0.010330 0.000000 1.621430 
# 
# From -- ./inp_files/236924.got.cif
#   From: 2010.05.17/outbox.cif.g08.bks.cpg/sg12_119_cif.got.tgz:236924.got - 2010.06.03 13:09:07.
