data_PCOD9196659
_publ_section_title
;
Structure prediction by ZEFSAII (Michael W. Deem and Ramdas Pophale) SiO2 
 PCOD9196659
Probable space group: C 2/M
;
_chemical_formula_sum "Si O2"
_cell_formula_units_Z 48
_cell_length_a 27.962021
_cell_length_b 8.502126
_cell_length_c 15.827669
_cell_angle_alpha 90.000000
_cell_angle_beta 40.881083
_cell_angle_gamma 90.000000
_cell_volume 2462.730451
_symmetry_space_group_name_H-M "C 2/M"
_symmetry_group_IT_number 12
_symmetry_cell_setting 'monoclinic'
loop_
_space_group_symop_operation_xyz
x,y,z
-x,y,-z
-x,-y,-z
x,-y,z
1/2+x,1/2+y,z
1/2-x,1/2+y,-z
1/2-x,1/2-y,-z
1/2+x,1/2-y,z
loop_
_atom_site_type_symbol
_atom_site_label
_atom_site_fract_x
_atom_site_fract_y
_atom_site_fract_z
Si Si1 0.945666 0.311453 0.827051
Si Si2 0.699483 0.690182 0.320652
Si Si3 0.030559 0.809912 0.551089
Si Si4 0.709146 0.809706 0.637381
Si Si5 0.958883 0.691888 0.139843
Si Si6 0.281360 0.313032 0.046379
O O1 0.940798 0.500000 0.836368
O O2 0.982177 0.259783 0.690610
O O3 0.997234 0.258020 0.835569
O O4 0.864651 0.243783 0.944731
O O5 0.700730 0.500000 0.315932
O O6 0.615278 0.738860 0.444960
O O7 0.748512 0.741660 0.334673
O O8 0.733273 0.751598 0.188630
O O9 0.000000 0.764591 0.500000
O O10 0.027248 0.000000 0.561367
O O11 0.750000 0.750000 0.500000
O O12 0.625085 0.756236 0.748667
O O13 0.709486 0.000000 0.636423
O O14 0.958519 0.500000 0.140360
O O15 0.000000 0.742658 0.000000
O O16 0.279316 0.500000 0.047801
O O17 0.250000 0.250000 0.000000
#
# Coordination Sequence:
#
# PCOD9196659 Si02
#       6
#     8   8   8   8   8   8
#     4  11  22  37  60  87 116 152 194 238 286 343
#     4  10  21  38  60  86 118 157 199 244 295 347
#     4  10  21  37  57  82 115 153 191 238 295 348
#     4  10  20  35  57  84 116 154 195 240 288 341
#     4   9  18  34  56  81 111 149 191 233 279 335
#     4  12  25  41  62  87 117 151 191 240 292 350
#
# _framework density 19.490562000000001
#
# number of rings (size 3 to 8) (size 9 to 14) (size 15 to 20)
#    0.000    1.667    0.000    5.000    0.000    5.667 
#    0.000    0.833    0.000    3.500    0.000    0.000 
#    0.000    0.000    0.000    0.000    0.000    0.000 
#
# Total GULP energy -134194.988268 kJ/mol
# GULP energy per Si atom -5591.457845 kJ/mol
# Density = 1.944620 g / cm^3
# Si number density = 19.490562 Si / 1000 Ang^3
#
#
#
# Elastic Constant Matrix: (Units=GPa)
#
#
# Indices 1 2 3 4 5 6 
#
# 1 62.8937 2.1401 -25.6911 -0.0002 -2.0167 0.0000
# 2 2.1401 18.7576 1.2524 -0.0002 -1.3237 0.0000
# 3 -25.6911 1.2524 70.0594 -0.0002 -2.3437 0.0000
# 4 -0.0002 -0.0002 -0.0002 36.5241 0.0000 -0.2687
# 5 -2.0167 -1.3237 -2.3437 0.0000 45.8768 0.0000
# 6 0.0000 0.0000 0.0000 -0.2687 0.0000 11.8439
#
#
#
# Elastic Compliance Matrix: (Units=1/GPa)
#
#
# Indices 1 2 3 4 5 6 
#
# 1 0.018885 -0.002544 0.007008 0.000000 0.001115 0.000000
# 2 -0.002544 0.053820 -0.001850 0.000000 0.001347 0.000000
# 3 0.007008 -0.001850 0.016914 0.000000 0.001119 0.000000
# 4 0.000000 0.000000 0.000000 0.027384 0.000000 0.000621
# 5 0.001115 0.001347 0.001119 0.000000 0.021943 0.000000
# 6 0.000000 0.000000 0.000000 0.000621 0.000000 0.084446
#
#
# Mechanical properties :
#
#
# Convention : Reuss Voigt Hill
#
# Bulk Modulus (GPa) = 10.54326 11.90151 11.22238
# Shear Modulus (GPa) = 20.01769 30.44957 25.23363
#
# Velocity S-wave (km/s) = 3.20823 3.95685 3.60204
# Velocity P-wave (km/s) = 4.37548 5.19568 4.80312
#
# Compressibility (1/GPa) = 0.09484734
#
# Stress axis : x y z
#
# Youngs Moduli (GPa) = 52.95266 18.58029 59.12285
#
# Poissons Ratio (x) = 0.04727 -0.41433
# Poissons Ratio (y) = 0.13471 0.10937
# Poissons Ratio (z) = -0.37109 0.03437
#
# Static dielectric constant tensor:
#      x y z
#    x 1.672800 0.000000 -0.014140 
#    y 0.000000 1.725990 0.000000 
#    z -0.014140 0.000000 1.640390 
# 
# From -- ./inp_files/244736.got.cif
#   From: 2010.05.17/outbox.cif.g08.bks.cpg/sg12_123_cif.got.tgz:244736.got - 2010.06.03 13:09:07.
