data_PCOD9196572
_publ_section_title
;
Structure prediction by ZEFSAII (Michael W. Deem and Ramdas Pophale) SiO2 
 PCOD9196572
Probable space group: C 2/M
;
_chemical_formula_sum "Si O2"
_cell_formula_units_Z 64
_cell_length_a 20.068165
_cell_length_b 8.973283
_cell_length_c 31.685985
_cell_angle_alpha 90.000000
_cell_angle_beta 141.883342
_cell_angle_gamma 90.000000
_cell_volume 3522.067212
_symmetry_space_group_name_H-M "C 2/M"
_symmetry_group_IT_number 12
_symmetry_cell_setting 'monoclinic'
loop_
_space_group_symop_operation_xyz
x,y,z
-x,y,-z
-x,-y,-z
x,-y,z
1/2+x,1/2+y,z
1/2-x,1/2+y,-z
1/2-x,1/2-y,-z
1/2+x,1/2-y,z
loop_
_atom_site_type_symbol
_atom_site_label
_atom_site_fract_x
_atom_site_fract_y
_atom_site_fract_z
Si Si1 0.833440 0.677628 0.149706
Si Si2 0.225156 0.821949 0.442714
Si Si3 0.642024 0.677400 0.927740
Si Si4 0.380584 0.823770 0.923855
Si Si5 0.426657 0.822895 0.849947
Si Si6 0.300629 0.176936 0.704067
Si Si7 0.624054 0.179482 0.560717
Si Si8 0.046246 0.323851 0.300081
O O1 0.838037 0.500000 0.144448
O O2 0.868278 0.763203 0.124997
O O3 0.714209 0.729595 0.102508
O O4 0.921344 0.712758 0.229766
O O5 0.250000 0.750000 0.500000
O O6 0.313846 0.776144 0.451447
O O7 0.110543 0.767629 0.367103
O O8 0.226929 0.000000 0.446948
O O9 0.649523 0.500000 0.932692
O O10 0.538160 0.734974 0.901234
O O11 0.750000 0.750000 0.000000
O O12 0.378989 0.803519 0.872668
O O13 0.364061 0.000000 0.925149
O O14 0.500000 0.784426 0.000000
O O15 0.347072 0.775861 0.772467
O O16 0.449186 0.000000 0.855307
O O17 0.194293 0.258130 0.634354
O O18 0.391805 0.202107 0.713579
O O19 0.280330 0.000000 0.695534
O O20 0.500000 0.229482 0.500000
O O21 0.625657 0.000000 0.563319
O O22 0.055662 0.500000 0.314251
#
# Coordination Sequence:
#
# PCOD9196572 Si02
#       8
#     8   8   8   8   8   8   8   8
#     4  11  22  39  61  85 116 151 192 238 288 344
#     4  10  20  35  57  83 113 148 187 227 276 332
#     4  12  24  37  59  88 116 146 190 238 284 340
#     4  10  22  39  58  81 115 157 193 234 290 345
#     4  10  20  38  59  82 117 151 189 237 289 340
#     4   9  17  33  57  82 111 146 183 229 281 334
#     4   9  19  36  56  80 111 145 183 230 275 324
#     4   9  18  35  58  82 112 147 185 232 284 331
#
# _framework density 18.171147999999999
#
# number of rings (size 3 to 8) (size 9 to 14) (size 15 to 20)
#    0.000    2.000    1.250    2.625    0.000    4.000 
#    2.250    0.000    0.000    0.000    0.000    0.000 
#    0.000    0.000    0.000    0.000    0.000    0.000 
#
# Total GULP energy -178672.871276 kJ/mol
# GULP energy per Si atom -5583.527227 kJ/mol
# Density = 1.812979 g / cm^3
# Si number density = 18.171148 Si / 1000 Ang^3
#
#
#
# Elastic Constant Matrix: (Units=GPa)
#
#
# Indices 1 2 3 4 5 6 
#
# 1 16.9925 12.4285 -1.4265 0.0000 3.6230 0.0000
# 2 12.4285 42.5919 16.8089 0.0000 1.4345 0.0000
# 3 -1.4265 16.8089 86.3904 0.0000 1.0570 0.0000
# 4 0.0000 0.0000 0.0000 33.1513 0.0000 3.0436
# 5 3.6230 1.4345 1.0570 0.0000 35.5135 0.0000
# 6 0.0000 0.0000 0.0000 3.0436 0.0000 23.5683
#
#
#
# Elastic Compliance Matrix: (Units=1/GPa)
#
#
# Indices 1 2 3 4 5 6 
#
# 1 0.079576 -0.025486 0.006362 0.000000 -0.007278 0.000000
# 2 -0.025486 0.033622 -0.006980 0.000000 0.001450 0.000000
# 3 0.006362 -0.006980 0.013048 0.000000 -0.000755 0.000000
# 4 0.000000 0.000000 0.000000 0.030527 0.000000 -0.003942
# 5 -0.007278 0.001450 -0.000755 0.000000 0.028865 0.000000
# 6 0.000000 0.000000 0.000000 -0.003942 0.000000 0.042939
#
#
# Mechanical properties :
#
#
# Convention : Reuss Voigt Hill
#
# Bulk Modulus (GPa) = 13.50690 22.39962 17.95326
# Shear Modulus (GPa) = 16.36852 26.32421 21.34637
#
# Velocity S-wave (km/s) = 3.00458 3.81028 3.43117
# Velocity P-wave (km/s) = 4.41429 5.63129 5.05952
#
# Compressibility (1/GPa) = 0.07403626
#
# Stress axis : x y z
#
# Youngs Moduli (GPa) = 12.56655 29.74275 76.64117
#
# Poissons Ratio (x) = 0.75803 -0.48759
# Poissons Ratio (y) = 0.32028 0.53498
# Poissons Ratio (z) = -0.07995 0.20761
#
# Static dielectric constant tensor:
#      x y z
#    x 1.613150 0.000000 -0.001280 
#    y 0.000000 1.610690 0.000000 
#    z -0.001280 0.000000 1.610950 
# 
# From -- ./inp_files/378427.got.cif
#   From: 2010.05.17/outbox.cif.g08.bks.cpg/sg12_190_cif.got.tgz:378427.got - 2010.06.03 13:09:07.
