data_PCOD9196034
_publ_section_title
;
Structure prediction by ZEFSAII (Michael W. Deem and Ramdas Pophale) SiO2 
 PCOD9196034
Probable space group: C 2/M
;
_chemical_formula_sum "Si O2"
_cell_formula_units_Z 56
_cell_length_a 16.417154
_cell_length_b 8.328355
_cell_length_c 22.664134
_cell_angle_alpha 90.000000
_cell_angle_beta 131.932429
_cell_angle_gamma 90.000000
_cell_volume 2305.315181
_symmetry_space_group_name_H-M "C 2/M"
_symmetry_group_IT_number 12
_symmetry_cell_setting 'monoclinic'
loop_
_space_group_symop_operation_xyz
x,y,z
-x,y,-z
-x,-y,-z
x,-y,z
1/2+x,1/2+y,z
1/2-x,1/2+y,-z
1/2-x,1/2-y,-z
1/2+x,1/2-y,z
loop_
_atom_site_type_symbol
_atom_site_label
_atom_site_fract_x
_atom_site_fract_y
_atom_site_fract_z
Si Si1 0.668988 0.309258 0.089640
Si Si2 0.402274 0.812313 0.243179
Si Si3 0.379970 0.689826 0.613571
Si Si4 0.357948 0.311327 0.473444
Si Si5 0.872708 0.685577 0.051696
Si Si6 0.676347 0.310021 0.669950
Si Si7 0.598140 0.313166 0.191081
O O1 0.661150 0.500000 0.072279
O O2 0.797484 0.261872 0.154155
O O3 0.624696 0.288327 0.134170
O O4 0.609030 0.214511 0.009365
O O5 0.516170 0.719844 0.295021
O O6 0.360849 0.784441 0.290316
O O7 0.421599 0.000000 0.242467
O O8 0.354705 0.500000 0.599887
O O9 0.407907 0.744682 0.559748
O O10 0.271739 0.783705 0.579379
O O11 0.382224 0.500000 0.481656
O O12 0.378112 0.248850 0.417196
O O13 0.875047 0.500000 0.067738
O O14 0.971235 0.767831 0.134913
O O15 0.750000 0.750000 0.000000
O O16 0.652252 0.500000 0.666326
O O17 0.808131 0.286938 0.730452
O O18 0.615157 0.500000 0.213472
#
# Coordination Sequence:
#
# PCOD9196034 Si02
#       7
#     8   8   8   8   8   8   8
#     4   9  20  39  60  81 110 146 180 221 274 327
#     4  10  21  37  57  82 113 146 181 225 276 325
#     4  10  20  35  56  80 108 145 188 229 272 328
#     4   9  20  37  55  78 110 147 183 226 280 328
#     4  12  25  39  58  84 113 145 184 227 270 320
#     4  10  20  36  58  83 112 144 183 228 272 323
#     4  10  21  39  61  84 113 146 180 221 273 329
#
# _framework density 24.291689000000002
#
# number of rings (size 3 to 8) (size 9 to 14) (size 15 to 20)
#    0.000    2.000    0.000    4.286    0.000    8.571 
#    0.000    4.286    0.000    0.000    0.000    0.000 
#    0.000    0.000    0.000    0.000    0.000    0.000 
#
# Total GULP energy -156635.979895 kJ/mol
# GULP energy per Si atom -5594.142139 kJ/mol
# Density = 2.423640 g / cm^3
# Si number density = 24.291689 Si / 1000 Ang^3
#
#
#
# Elastic Constant Matrix: (Units=GPa)
#
#
# Indices 1 2 3 4 5 6 
#
# 1 63.7966 1.1957 12.4971 0.0000 9.7469 0.0000
# 2 1.1957 33.2332 21.5730 0.0000 2.2920 0.0000
# 3 12.4971 21.5730 121.8933 0.0000 8.7551 0.0000
# 4 0.0000 0.0000 0.0000 16.9242 0.0000 -0.9300
# 5 9.7469 2.2920 8.7551 0.0000 52.9153 0.0000
# 6 0.0000 0.0000 0.0000 -0.9300 0.0000 21.8884
#
#
#
# Elastic Compliance Matrix: (Units=1/GPa)
#
#
# Indices 1 2 3 4 5 6 
#
# 1 0.016401 0.000637 -0.001594 0.000000 -0.002785 0.000000
# 2 0.000637 0.034033 -0.006046 0.000000 -0.000591 0.000000
# 3 -0.001594 -0.006046 0.009511 0.000000 -0.001018 0.000000
# 4 0.000000 0.000000 0.000000 0.059225 0.000000 0.002516
# 5 -0.002785 -0.000591 -0.001018 0.000000 0.019605 0.000000
# 6 0.000000 0.000000 0.000000 0.002516 0.000000 0.045793
#
#
# Mechanical properties :
#
#
# Convention : Reuss Voigt Hill
#
# Bulk Modulus (GPa) = 21.76879 32.16161 26.96520
# Shear Modulus (GPa) = 23.37684 30.58940 26.98312
#
# Velocity S-wave (km/s) = 3.10552 3.55245 3.33648
# Velocity P-wave (km/s) = 4.67332 5.48589 5.09583
#
# Compressibility (1/GPa) = 0.04593732
#
# Stress axis : x y z
#
# Youngs Moduli (GPa) = 60.97333 29.38323 105.14686
#
# Poissons Ratio (x) = -0.01871 0.16762
# Poissons Ratio (y) = -0.03883 0.63573
# Poissons Ratio (z) = 0.09720 0.17765
#
# Static dielectric constant tensor:
#      x y z
#    x 2.058850 0.000000 -0.017500 
#    y 0.000000 1.824530 0.000000 
#    z -0.017500 0.000000 1.961800 
# 
# From -- ./inp_files/342565.got.cif
#   From: 2010.05.17/outbox.cif.g08.bks.cpg/sg12_172_cif.got.tgz:342565.got - 2010.06.03 13:09:07.
