data_PCOD9196304
_publ_section_title
;
Structure prediction by ZEFSAII (Michael W. Deem and Ramdas Pophale) SiO2 
 PCOD9196304
Probable space group: C 2/M
;
_chemical_formula_sum "Si O2"
_cell_formula_units_Z 48
_cell_length_a 17.957545
_cell_length_b 14.581932
_cell_length_c 11.890382
_cell_angle_alpha 90.000000
_cell_angle_beta 45.628024
_cell_angle_gamma 90.000000
_cell_volume 2225.621867
_symmetry_space_group_name_H-M "C 2/M"
_symmetry_group_IT_number 12
_symmetry_cell_setting 'monoclinic'
loop_
_space_group_symop_operation_xyz
x,y,z
-x,y,-z
-x,-y,-z
x,-y,z
1/2+x,1/2+y,z
1/2-x,1/2+y,-z
1/2-x,1/2-y,-z
1/2+x,1/2-y,z
loop_
_atom_site_type_symbol
_atom_site_label
_atom_site_fract_x
_atom_site_fract_y
_atom_site_fract_z
Si Si1 0.257955 0.108076 0.910512
Si Si2 0.349635 0.665198 0.433168
Si Si3 0.929133 0.897282 0.741341
Si Si4 0.113397 0.270551 0.382364
Si Si5 0.099212 0.609019 0.024898
Si Si6 0.633955 0.174269 0.742108
O O1 0.299276 0.168119 0.765854
O O2 0.330935 0.130510 0.941084
O O3 0.268349 0.000000 0.875815
O O4 0.141237 0.125642 0.076241
O O5 0.450269 0.604547 0.351470
O O6 0.359978 0.742167 0.520175
O O7 0.361537 0.720724 0.305081
O O8 0.234290 0.626838 0.577461
O O9 0.903606 0.821982 0.673982
O O10 0.899706 0.000000 0.733760
O O11 0.000000 0.318187 0.500000
O O12 0.105929 0.500000 0.996174
O O13 0.978870 0.634902 0.172370
O O14 0.138716 0.659745 0.871031
#
# Coordination Sequence:
#
# PCOD9196304 Si02
#       6
#     8   8   8   8   8   8
#     4  10  21  37  58  85 113 143 185 232 281 333
#     4  10  22  35  53  80 113 145 181 221 273 336
#     4  10  21  36  57  84 112 145 185 233 282 328
#     4  10  20  35  56  84 113 144 179 228 287 336
#     4  10  20  35  57  81 104 136 183 233 271 312
#     4  10  20  36  52  78 109 145 184 220 267 323
#
# _framework density 21.567005000000002
#
# number of rings (size 3 to 8) (size 9 to 14) (size 15 to 20)
#    0.000    2.000    0.000    4.500    0.000    7.333 
#    0.000    1.667    0.000    1.000    0.000   23.333 
#    0.000    0.000    0.000    0.000    0.000    0.000 
#
# Total GULP energy -134139.231077 kJ/mol
# GULP energy per Si atom -5589.134628 kJ/mol
# Density = 2.151792 g / cm^3
# Si number density = 21.567005 Si / 1000 Ang^3
#
#
#
# Elastic Constant Matrix: (Units=GPa)
#
#
# Indices 1 2 3 4 5 6 
#
# 1 53.7368 14.2711 33.9672 0.0000 -18.9270 0.0000
# 2 14.2711 50.8585 38.4394 0.0000 3.4056 0.0000
# 3 33.9672 38.4394 127.7094 0.0000 -17.4572 0.0000
# 4 0.0000 0.0000 0.0000 -3.3288 0.0000 -21.1402
# 5 -18.9270 3.4056 -17.4572 0.0000 35.7433 0.0000
# 6 0.0000 0.0000 0.0000 -21.1402 0.0000 9.1028
#
#
#
# Elastic Compliance Matrix: (Units=1/GPa)
#
#
# Indices 1 2 3 4 5 6 
#
# 1 0.027055 -0.005665 -0.003706 0.000000 0.013056 0.000000
# 2 -0.005665 0.028184 -0.008308 0.000000 -0.009743 0.000000
# 3 -0.003706 -0.008308 0.011955 0.000000 0.004668 0.000000
# 4 0.000000 0.000000 0.000000 -0.019075 0.000000 -0.044300
# 5 0.013056 -0.009743 0.004668 0.000000 0.038099 0.000000
# 6 0.000000 0.000000 0.000000 -0.044300 0.000000 0.006976
#
#
# Mechanical properties :
#
#
# Convention : Reuss Voigt Hill
#
# Bulk Modulus (GPa) = 31.41183 45.07333 38.24258
# Shear Modulus (GPa) = 35.92927 18.01193 26.97060
#
# Velocity S-wave (km/s) = 4.08602 2.89305 3.54015
# Velocity P-wave (km/s) = 6.07100 5.66606 5.87202
#
# Compressibility (1/GPa) = 0.03183514
#
# Stress axis : x y z
#
# Youngs Moduli (GPa) = 36.96208 35.48152 83.64887
#
# Poissons Ratio (x) = 0.20100 0.31001
# Poissons Ratio (y) = 0.20938 0.69497
# Poissons Ratio (z) = 0.13699 0.29478
#
# Static dielectric constant tensor:
#      x y z
#    x 1.795290 0.000000 -0.050140 
#    y 0.000000 1.776190 0.000000 
#    z -0.050140 0.000000 1.800150 
# 
# From -- ./inp_files/167549.got.cif
#   From: 2010.05.17/outbox.cif.g08.bks.cpg/sg12_84_cif.got.tgz:167549.got - 2010.06.03 13:09:07.
