data_PCOD9196391
_publ_section_title
;
Structure prediction by ZEFSAII (Michael W. Deem and Ramdas Pophale) SiO2 
 PCOD9196391
Probable space group: C 2/M
;
_chemical_formula_sum "Si O2"
_cell_formula_units_Z 56
_cell_length_a 20.692432
_cell_length_b 19.069815
_cell_length_c 17.482169
_cell_angle_alpha 90.000000
_cell_angle_beta 156.781635
_cell_angle_gamma 90.000000
_cell_volume 2719.632114
_symmetry_space_group_name_H-M "C 2/M"
_symmetry_group_IT_number 12
_symmetry_cell_setting 'monoclinic'
loop_
_space_group_symop_operation_xyz
x,y,z
-x,y,-z
-x,-y,-z
x,-y,z
1/2+x,1/2+y,z
1/2-x,1/2+y,-z
1/2-x,1/2-y,-z
1/2+x,1/2-y,z
loop_
_atom_site_type_symbol
_atom_site_label
_atom_site_fract_x
_atom_site_fract_y
_atom_site_fract_z
Si Si1 0.773852 0.156674 0.146546
Si Si2 0.415333 0.584036 0.591775
Si Si3 0.845823 0.684475 0.229849
Si Si4 0.263686 0.188039 0.311472
Si Si5 0.816805 0.347600 0.781299
Si Si6 0.919914 0.419621 0.180288
Si Si7 0.193166 0.919818 0.359961
O O1 0.776895 0.239444 0.132624
O O2 0.782277 0.146294 0.246710
O O3 0.926564 0.119768 0.272637
O O4 0.616448 0.119894 0.938212
O O5 0.424095 0.500000 0.597913
O O6 0.264974 0.610633 0.376414
O O7 0.394914 0.604170 0.658316
O O8 0.765492 0.666898 0.224263
O O9 0.830473 0.624842 0.149460
O O10 0.042486 0.693667 0.456376
O O11 0.186866 0.264489 0.240127
O O12 0.177390 0.131890 0.271728
O O13 0.000000 0.370393 0.000000
O O14 0.862209 0.500000 0.114706
O O15 0.112616 0.420414 0.408284
O O16 0.145316 0.000000 0.290182
#
# Coordination Sequence:
#
# PCOD9196391 Si02
#       7
#     8   8   8   8   8   8   8
#     4  11  21  38  58  82 119 152 189 233 282 335
#     4  11  23  39  59  85 116 152 189 229 282 343
#     4   9  18  35  59  84 114 149 193 237 278 333
#     4   9  18  37  59  84 114 149 191 235 281 335
#     4  11  23  39  59  85 113 148 192 237 283 333
#     4  10  20  35  56  86 117 149 190 235 282 334
#     4   9  20  38  59  85 117 150 188 233 281 336
#
# _framework density 20.59102
#
# number of rings (size 3 to 8) (size 9 to 14) (size 15 to 20)
#    0.000    2.000    1.429    2.143    0.000    3.143 
#    7.714    2.857    0.000    0.429    0.000    0.000 
#    0.000    0.000    0.000    0.000    0.000    0.000 
#
# Total GULP energy -156496.027044 kJ/mol
# GULP energy per Si atom -5589.143823 kJ/mol
# Density = 2.054415 g / cm^3
# Si number density = 20.591020 Si / 1000 Ang^3
#
#
#
# Elastic Constant Matrix: (Units=GPa)
#
#
# Indices 1 2 3 4 5 6 
#
# 1 114.2443 63.7635 1.1733 0.0000 -3.6615 -0.0001
# 2 63.7635 79.6764 -2.0776 0.0001 -10.0912 -0.0001
# 3 1.1733 -2.0776 28.6080 0.0000 2.2612 -0.0002
# 4 0.0000 0.0001 0.0000 41.0215 0.0000 -17.3145
# 5 -3.6615 -10.0912 2.2612 0.0000 25.2009 0.0000
# 6 -0.0001 -0.0001 -0.0002 -17.3145 0.0000 36.6627
#
#
#
# Elastic Compliance Matrix: (Units=1/GPa)
#
#
# Indices 1 2 3 4 5 6 
#
# 1 0.016081 -0.013267 -0.001398 0.000000 -0.002851 0.000000
# 2 -0.013267 0.024175 0.001699 0.000000 0.007600 0.000000
# 3 -0.001398 0.001699 0.035349 0.000000 -0.002694 0.000000
# 4 0.000000 0.000000 0.000000 0.030447 0.000000 0.014379
# 5 -0.002851 0.007600 -0.002694 0.000000 0.042552 0.000000
# 6 0.000000 0.000000 0.000000 0.014379 0.000000 0.034066
#
#
# Mechanical properties :
#
#
# Convention : Reuss Voigt Hill
#
# Bulk Modulus (GPa) = 20.13131 38.69413 29.41272
# Shear Modulus (GPa) = 22.20668 31.22165 26.71416
#
# Velocity S-wave (km/s) = 3.28756 3.89816 3.60581
# Velocity P-wave (km/s) = 4.92023 6.25247 5.62593
#
# Compressibility (1/GPa) = 0.04967385
#
# Stress axis : x y z
#
# Youngs Moduli (GPa) = 62.18653 41.36567 28.28939
#
# Poissons Ratio (x) = 0.54878 0.03954
# Poissons Ratio (y) = 0.82500 -0.04806
# Poissons Ratio (z) = 0.08692 -0.07028
#
# Static dielectric constant tensor:
#      x y z
#    x 1.722280 0.000000 0.013800 
#    y 0.000000 1.690300 0.000000 
#    z 0.013800 0.000000 1.765620 
# 
# From -- ./inp_files/75973.got.cif
#   From: 2010.05.17/outbox.cif.g08.bks.cpg/sg12_38_cif.got.tgz:75973.got - 2010.06.03 13:09:07.
