data_PCOD9196470
_publ_section_title
;
Structure prediction by ZEFSAII (Michael W. Deem and Ramdas Pophale) SiO2 
 PCOD9196470
Probable space group: C 2/M
;
_chemical_formula_sum "Si O2"
_cell_formula_units_Z 56
_cell_length_a 14.884491
_cell_length_b 8.033007
_cell_length_c 30.993282
_cell_angle_alpha 90.000000
_cell_angle_beta 127.853196
_cell_angle_gamma 90.000000
_cell_volume 2926.031061
_symmetry_space_group_name_H-M "C 2/M"
_symmetry_group_IT_number 12
_symmetry_cell_setting 'monoclinic'
loop_
_space_group_symop_operation_xyz
x,y,z
-x,y,-z
-x,-y,-z
x,-y,z
1/2+x,1/2+y,z
1/2-x,1/2+y,-z
1/2-x,1/2-y,-z
1/2+x,1/2-y,z
loop_
_atom_site_type_symbol
_atom_site_label
_atom_site_fract_x
_atom_site_fract_y
_atom_site_fract_z
Si Si1 0.082063 0.703367 0.562398
Si Si2 0.660344 0.696262 0.354028
Si Si3 0.691547 0.301153 0.937894
Si Si4 0.102543 0.703071 0.061180
Si Si5 0.563229 0.804169 0.144677
Si Si6 0.692298 0.196605 0.266238
Si Si7 0.553227 0.802537 0.651671
O O1 0.083699 0.500000 0.561876
O O2 0.213213 0.760222 0.595886
O O3 0.038009 0.751793 0.597118
O O4 0.000000 0.760724 0.500000
O O5 0.658882 0.500000 0.361666
O O6 0.655493 0.725357 0.301061
O O7 0.554712 0.767838 0.349813
O O8 0.675116 0.500000 0.933402
O O9 0.779909 0.256108 0.926761
O O10 0.572001 0.215091 0.894603
O O11 0.750000 0.250000 0.000000
O O12 0.092508 0.500000 0.059787
O O13 0.097685 0.767714 0.108342
O O14 0.000000 0.761133 0.000000
O O15 0.623279 0.734155 0.204899
O O16 0.593260 0.000000 0.152844
O O17 0.827109 0.222994 0.298641
O O18 0.670123 0.000000 0.263787
O O19 0.572550 0.000000 0.656670
#
# Coordination Sequence:
#
# PCOD9196470 Si02
#       7
#     8   8   8   8   8   8   8
#     4   8  16  32  53  80 114 150 187 229 276 326
#     4  10  20  35  57  81 111 150 189 230 277 332
#     4  11  21  34  55  79 105 139 175 214 261 319
#     4   9  17  33  55  74 100 136 167 201 254 320
#     4  10  21  38  57  79 105 136 175 220 272 328
#     4  10  21  37  57  80 109 143 184 234 283 335
#     4  10  20  35  57  82 112 148 187 232 278 329
#
# _framework density 19.138553000000002
#
# number of rings (size 3 to 8) (size 9 to 14) (size 15 to 20)
#    0.000    2.286    1.429    2.571    0.000    2.857 
#    0.000    3.571    0.000   14.571    0.000    0.000 
#    0.000    0.000    0.000    0.000    0.000    0.000 
#
# Total GULP energy -156194.594469 kJ/mol
# GULP energy per Si atom -5578.378374 kJ/mol
# Density = 1.909499 g / cm^3
# Si number density = 19.138553 Si / 1000 Ang^3
#
#
#
# Elastic Constant Matrix: (Units=GPa)
#
#
# Indices 1 2 3 4 5 6 
#
# 1 112.7251 -15.7572 52.7649 0.0000 -7.2252 0.0000
# 2 -15.7572 12.1847 -12.6678 0.0000 -2.2516 0.0000
# 3 52.7649 -12.6678 160.8887 0.0000 -6.1748 0.0000
# 4 0.0000 0.0000 0.0000 17.0197 0.0000 3.9487
# 5 -7.2252 -2.2516 -6.1748 0.0000 12.6745 0.0000
# 6 0.0000 0.0000 0.0000 3.9487 0.0000 20.7808
#
#
#
# Elastic Compliance Matrix: (Units=1/GPa)
#
#
# Indices 1 2 3 4 5 6 
#
# 1 0.012838 0.015461 -0.002656 0.000000 0.008771 0.000000
# 2 0.015461 0.113097 0.005038 0.000000 0.031360 0.000000
# 3 -0.002656 0.005038 0.007602 0.000000 0.003084 0.000000
# 4 0.000000 0.000000 0.000000 0.061465 0.000000 -0.011679
# 5 0.008771 0.031360 0.003084 0.000000 0.090972 0.000000
# 6 0.000000 0.000000 0.000000 -0.011679 0.000000 0.050341
#
#
# Mechanical properties :
#
#
# Convention : Reuss Voigt Hill
#
# Bulk Modulus (GPa) = 5.90942 37.16427 21.53684
# Shear Modulus (GPa) = 14.00417 27.52555 20.76486
#
# Velocity S-wave (km/s) = 2.70798 3.79651 3.29747
# Velocity P-wave (km/s) = 3.58775 6.21922 5.07694
#
# Compressibility (1/GPa) = 0.16922140
#
# Stress axis : x y z
#
# Youngs Moduli (GPa) = 77.89415 8.84198 131.55006
#
# Poissons Ratio (x) = -0.13671 0.34944
# Poissons Ratio (y) = -1.20433 -0.66272
# Poissons Ratio (z) = 0.20691 -0.04454
#
# Static dielectric constant tensor:
#      x y z
#    x 1.639150 0.000000 -0.015650 
#    y 0.000000 1.678980 0.000000 
#    z -0.015650 0.000000 1.667450 
# 
# From -- ./inp_files/375125.got.cif
#   From: 2010.05.17/outbox.cif.g08.bks.cpg/sg12_188_cif.got.tgz:375125.got - 2010.06.03 13:09:07.
