data_PCOD9196973
_publ_section_title
;
Structure prediction by ZEFSAII (Michael W. Deem and Ramdas Pophale) SiO2 
 PCOD9196973
Probable space group: C 2/M
;
_chemical_formula_sum "Si O2"
_cell_formula_units_Z 48
_cell_length_a 16.342200
_cell_length_b 8.002122
_cell_length_c 14.820457
_cell_angle_alpha 90.000000
_cell_angle_beta 101.323290
_cell_angle_gamma 90.000000
_cell_volume 1900.379573
_symmetry_space_group_name_H-M "C 2/M"
_symmetry_group_IT_number 12
_symmetry_cell_setting 'monoclinic'
loop_
_space_group_symop_operation_xyz
x,y,z
-x,y,-z
-x,-y,-z
x,-y,z
1/2+x,1/2+y,z
1/2-x,1/2+y,-z
1/2-x,1/2-y,-z
1/2+x,1/2-y,z
loop_
_atom_site_type_symbol
_atom_site_label
_atom_site_fract_x
_atom_site_fract_y
_atom_site_fract_z
Si Si1 0.584686 0.804345 0.556843
Si Si2 0.856427 0.198055 0.612068
Si Si3 0.216376 0.299393 0.720441
Si Si4 0.594375 0.695576 0.061273
Si Si5 0.015409 0.693880 0.219848
Si Si6 0.161501 0.194287 0.893830
O O1 0.500000 0.724583 0.500000
O O2 0.646020 0.789175 0.484158
O O3 0.631323 0.735920 0.654475
O O4 0.567692 0.000000 0.571438
O O5 0.788844 0.260691 0.669822
O O6 0.943881 0.233415 0.681500
O O7 0.846676 0.000000 0.595942
O O8 0.216567 0.500000 0.713999
O O9 0.220104 0.260540 0.826970
O O10 0.614415 0.500000 0.082892
O O11 0.582836 0.786222 0.153551
O O12 0.500000 0.699218 0.000000
O O13 0.652911 0.766522 0.993645
O O14 0.995415 0.500000 0.228468
O O15 0.931479 0.782111 0.167982
O O16 0.177757 0.000000 0.909075
#
# Coordination Sequence:
#
# PCOD9196973 Si02
#       6
#     8   8   8   8   8   8
#     4  10  21  38  60  85 111 141 181 230 279 328
#     4  11  23  38  56  80 113 151 188 227 273 327
#     4  10  22  38  56  82 116 150 183 224 275 330
#     4   8  16  32  53  80 112 143 180 229 279 325
#     4  11  21  34  56  83 111 146 189 234 278 326
#     4  10  20  35  58  85 113 146 184 228 277 331
#
# _framework density 25.258113999999999
#
# number of rings (size 3 to 8) (size 9 to 14) (size 15 to 20)
#    0.000    2.000    0.000    5.000    0.000    7.333 
#    0.000    0.833    0.000    0.000    0.000    0.000 
#    0.000    0.000    0.000    0.000    0.000    0.000 
#
# Total GULP energy -134261.094716 kJ/mol
# GULP energy per Si atom -5594.212280 kJ/mol
# Density = 2.520063 g / cm^3
# Si number density = 25.258114 Si / 1000 Ang^3
#
#
#
# Elastic Constant Matrix: (Units=GPa)
#
#
# Indices 1 2 3 4 5 6 
#
# 1 75.1644 -11.6941 20.4035 0.0000 -9.9949 0.0000
# 2 -11.6941 36.2702 -3.2413 0.0000 2.0041 0.0000
# 3 20.4035 -3.2413 171.7986 0.0000 -12.8835 0.0000
# 4 0.0000 0.0000 0.0000 27.8260 0.0000 -9.0878
# 5 -9.9949 2.0041 -12.8835 0.0000 52.7016 0.0000
# 6 0.0000 0.0000 0.0000 -9.0878 0.0000 18.9084
#
#
#
# Elastic Compliance Matrix: (Units=1/GPa)
#
#
# Indices 1 2 3 4 5 6 
#
# 1 0.014707 0.004484 -0.001493 0.000000 0.002254 0.000000
# 2 0.004484 0.029030 -0.000004 0.000000 -0.000255 0.000000
# 3 -0.001493 -0.000004 0.006088 0.000000 0.001205 0.000000
# 4 0.000000 0.000000 0.000000 0.042629 0.000000 0.020489
# 5 0.002254 -0.000255 0.001205 0.000000 0.019706 0.000000
# 6 0.000000 0.000000 0.000000 0.020489 0.000000 0.062734
#
#
# Mechanical properties :
#
#
# Convention : Reuss Voigt Hill
#
# Bulk Modulus (GPa) = 17.92150 32.68549 25.30350
# Shear Modulus (GPa) = 26.66371 38.40488 32.53430
#
# Velocity S-wave (km/s) = 3.25260 3.90358 3.59287
# Velocity P-wave (km/s) = 4.60615 5.76940 5.22028
#
# Compressibility (1/GPa) = 0.05579890
#
# Stress axis : x y z
#
# Youngs Moduli (GPa) = 67.99617 34.44690 164.24654
#
# Poissons Ratio (x) = -0.15445 0.24522
# Poissons Ratio (y) = -0.30488 0.00064
# Poissons Ratio (z) = 0.10152 0.00013
#
# Static dielectric constant tensor:
#      x y z
#    x 2.141070 0.000000 -0.035940 
#    y 0.000000 1.880450 0.000000 
#    z -0.035940 0.000000 1.981580 
# 
# From -- ./inp_files/221584.got.cif
#   From: 2010.05.17/outbox.cif.g08.bks.cpg/sg12_111_cif.got.tgz:221584.got - 2010.06.03 13:09:07.
