data_PCOD9196151
_publ_section_title
;
Structure prediction by ZEFSAII (Michael W. Deem and Ramdas Pophale) SiO2 
 PCOD9196151
Probable space group: C 2/M
;
_chemical_formula_sum "Si O2"
_cell_formula_units_Z 64
_cell_length_a 29.059368
_cell_length_b 8.570026
_cell_length_c 21.595438
_cell_angle_alpha 90.000000
_cell_angle_beta 45.036524
_cell_angle_gamma 90.000000
_cell_volume 3805.327100
_symmetry_space_group_name_H-M "C 2/M"
_symmetry_group_IT_number 12
_symmetry_cell_setting 'monoclinic'
loop_
_space_group_symop_operation_xyz
x,y,z
-x,y,-z
-x,-y,-z
x,-y,z
1/2+x,1/2+y,z
1/2-x,1/2+y,-z
1/2-x,1/2-y,-z
1/2+x,1/2-y,z
loop_
_atom_site_type_symbol
_atom_site_label
_atom_site_fract_x
_atom_site_fract_y
_atom_site_fract_z
Si Si1 0.263074 0.814166 0.296735
Si Si2 0.692693 0.312548 0.099557
Si Si3 0.092455 0.813587 0.862963
Si Si4 0.064230 0.187572 0.754499
Si Si5 0.104612 0.312951 0.978524
Si Si6 0.257262 0.688754 0.816771
Si Si7 0.714585 0.686324 0.594040
Si Si8 0.933153 0.686346 0.847204
O O1 0.338275 0.771673 0.211715
O O2 0.226688 0.757684 0.268607
O O3 0.250677 0.741237 0.375579
O O4 0.255849 0.000000 0.308207
O O5 0.697180 0.500000 0.094507
O O6 0.704391 0.256556 0.159138
O O7 0.622315 0.260077 0.142575
O O8 0.750000 0.250000 0.000000
O O9 0.054298 0.769818 0.836788
O O10 0.070319 0.766147 0.952429
O O11 0.101945 0.000000 0.852049
O O12 0.138280 0.235897 0.668288
O O13 0.007577 0.261896 0.767411
O O14 0.060285 0.000000 0.753244
O O15 0.097012 0.500000 0.980167
O O16 0.181437 0.275282 0.901144
O O17 0.083135 0.263629 0.066882
O O18 0.262367 0.500000 0.810510
O O19 0.714607 0.500000 0.593422
O O20 0.750000 0.750000 0.500000
O O21 0.927761 0.500000 0.848775
#
# Coordination Sequence:
#
# PCOD9196151 Si02
#       8
#     8   8   8   8   8   8   8   8
#     4   9  16  29  49  73 101 131 161 198 246 295
#     4  11  20  33  50  70  97 132 176 222 262 296
#     4   9  17  29  45  66  93 125 166 207 246 293
#     4   9  20  36  49  68  99 130 160 201 247 297
#     4   9  17  30  44  62  91 127 170 210 248 293
#     4   8  15  29  47  66  95 130 167 210 250 292
#     4  10  20  35  56  82 108 131 160 196 240 301
#     4  11  22  34  47  67  95 130 175 216 253 299
#
# _framework density 16.818528000000001
#
# number of rings (size 3 to 8) (size 9 to 14) (size 15 to 20)
#    0.000    2.500    1.250    3.375    0.000    4.500 
#    0.000    4.375    0.000    0.000    0.000    0.875 
#    0.000    7.000    0.000    0.000    0.000    0.000 
#
# Total GULP energy -178287.632527 kJ/mol
# GULP energy per Si atom -5571.488516 kJ/mol
# Density = 1.678025 g / cm^3
# Si number density = 16.818528 Si / 1000 Ang^3
#
#
#
# Elastic Constant Matrix: (Units=GPa)
#
#
# Indices 1 2 3 4 5 6 
#
# 1 145.8345 33.3159 61.4647 0.0022 14.1591 -0.0027
# 2 33.3159 29.0514 19.6022 -0.0068 4.4566 0.0028
# 3 61.4647 19.6022 74.8411 0.0014 21.8218 0.0004
# 4 0.0022 -0.0068 0.0014 18.1091 0.0004 5.6847
# 5 14.1591 4.4566 21.8218 0.0004 22.1173 -0.0013
# 6 -0.0027 0.0028 0.0004 5.6847 -0.0013 23.4230
#
#
#
# Elastic Compliance Matrix: (Units=1/GPa)
#
#
# Indices 1 2 3 4 5 6 
#
# 1 0.012130 -0.008616 -0.008349 -0.000005 0.002208 0.000004
# 2 -0.008616 0.048107 -0.006045 0.000023 0.001787 -0.000012
# 3 -0.008349 -0.006045 0.027920 -0.000002 -0.020984 -0.000001
# 4 -0.000005 0.000023 -0.000002 0.059775 -0.000001 -0.014507
# 5 0.002208 0.001787 -0.020984 -0.000001 0.064144 0.000004
# 6 0.000004 -0.000012 -0.000001 -0.014507 0.000004 0.046214
#
#
# Mechanical properties :
#
#
# Convention : Reuss Voigt Hill
#
# Bulk Modulus (GPa) = 23.73207 53.16586 38.44896
# Shear Modulus (GPa) = 15.70570 21.75281 18.72925
#
# Velocity S-wave (km/s) = 3.05918 3.60027 3.34070
# Velocity P-wave (km/s) = 5.15940 6.99733 6.14744
#
# Compressibility (1/GPa) = 0.04213708
#
# Stress axis : x y z
#
# Youngs Moduli (GPa) = 82.44137 20.78700 35.81606
#
# Poissons Ratio (x) = 0.17909 0.29903
# Poissons Ratio (y) = 0.71028 0.21652
# Poissons Ratio (z) = 0.68832 0.12566
#
# Static dielectric constant tensor:
#      x y z
#    x 1.599890 0.000000 0.019230 
#    y 0.000000 1.567370 0.000000 
#    z 0.019230 0.000000 1.571470 
# 
# From -- ./inp_files/324205.got.cif
#   From: 2010.05.17/outbox.cif.g08.bks.cpg/sg12_163_cif.got.tgz:324205.got - 2010.06.03 13:09:07.
