data_PCOD9196027
_publ_section_title
;
Structure prediction by ZEFSAII (Michael W. Deem and Ramdas Pophale) SiO2 
 PCOD9196027
Probable space group: C 2/M
;
_chemical_formula_sum "Si O2"
_cell_formula_units_Z 56
_cell_length_a 27.823567
_cell_length_b 7.653226
_cell_length_c 13.886654
_cell_angle_alpha 90.000000
_cell_angle_beta 61.239830
_cell_angle_gamma 90.000000
_cell_volume 2592.250214
_symmetry_space_group_name_H-M "C 2/M"
_symmetry_group_IT_number 12
_symmetry_cell_setting 'monoclinic'
loop_
_space_group_symop_operation_xyz
x,y,z
-x,y,-z
-x,-y,-z
x,-y,z
1/2+x,1/2+y,z
1/2-x,1/2+y,-z
1/2-x,1/2-y,-z
1/2+x,1/2-y,z
loop_
_atom_site_type_symbol
_atom_site_label
_atom_site_fract_x
_atom_site_fract_y
_atom_site_fract_z
Si Si1 0.602687 0.701826 0.266849
Si Si2 0.165671 0.785902 0.831964
Si Si3 0.762784 0.289903 0.598196
Si Si4 0.984374 0.295173 0.310858
Si Si5 0.045264 0.788113 0.878398
Si Si6 0.688422 0.709894 0.027332
Si Si7 0.883031 0.297545 0.530295
O O1 0.617439 0.500000 0.270278
O O2 0.542055 0.710084 0.281577
O O3 0.645579 0.776670 0.148149
O O4 0.605270 0.791097 0.367820
O O5 0.214583 0.725943 0.714951
O O6 0.106113 0.731676 0.850931
O O7 0.165880 0.000000 0.831773
O O8 0.175916 0.726927 0.931523
O O9 0.763748 0.500000 0.609423
O O10 0.750000 0.250000 0.500000
O O11 0.823108 0.220813 0.566817
O O12 0.990837 0.500000 0.328408
O O13 0.970237 0.275068 0.212614
O O14 0.933894 0.220612 0.422040
O O15 0.044862 0.000000 0.876593
O O16 0.000000 0.732203 0.000000
O O17 0.681869 0.500000 0.030544
O O18 0.750000 0.750000 0.000000
O O19 0.880166 0.500000 0.501552
#
# Coordination Sequence:
#
# PCOD9196027 Si02
#       7
#     8   8   8   8   8   8   8
#     4  11  23  38  59  86 113 145 188 235 280 333
#     4   9  18  34  56  79 106 144 182 218 271 332
#     4  10  20  35  56  80 108 143 182 225 273 327
#     4  11  23  38  57  82 113 149 188 232 285 341
#     4  10  20  36  58  82 111 147 186 231 281 335
#     4  10  21  38  59  84 113 145 184 227 274 330
#     4  10  22  39  57  80 113 151 188 232 287 340
#
# _framework density 21.602853
#
# number of rings (size 3 to 8) (size 9 to 14) (size 15 to 20)
#    0.000    1.857    0.000    3.857    0.000    8.286 
#    0.000    1.429    0.000    0.000    0.000    0.000 
#    0.000    0.000    0.000    0.000    0.000    0.000 
#
# Total GULP energy -156558.330404 kJ/mol
# GULP energy per Si atom -5591.368943 kJ/mol
# Density = 2.155368 g / cm^3
# Si number density = 21.602853 Si / 1000 Ang^3
#
#
#
# Elastic Constant Matrix: (Units=GPa)
#
#
# Indices 1 2 3 4 5 6 
#
# 1 183.5863 -13.9445 96.4530 0.0000 -13.3398 0.0000
# 2 -13.9445 40.1515 -10.0551 0.0000 -8.4634 0.0000
# 3 96.4530 -10.0551 197.6722 0.0000 -19.4784 0.0000
# 4 0.0000 0.0000 0.0000 14.4353 0.0000 12.5239
# 5 -13.3398 -8.4634 -19.4784 0.0000 47.9061 0.0000
# 6 0.0000 0.0000 0.0000 12.5239 0.0000 16.9326
#
#
#
# Elastic Compliance Matrix: (Units=1/GPa)
#
#
# Indices 1 2 3 4 5 6 
#
# 1 0.007483 0.001951 -0.003451 0.000000 0.001025 0.000000
# 2 0.001951 0.027036 0.000987 0.000000 0.005721 0.000000
# 3 -0.003451 0.000987 0.006996 0.000000 0.002058 0.000000
# 4 0.000000 0.000000 0.000000 0.193339 0.000000 -0.142999
# 5 0.001025 0.005721 0.002058 0.000000 0.023007 0.000000
# 6 0.000000 0.000000 0.000000 -0.142999 0.000000 0.164824
#
#
# Mechanical properties :
#
#
# Convention : Reuss Voigt Hill
#
# Bulk Modulus (GPa) = 24.69838 62.92412 43.81125
# Shear Modulus (GPa) = 11.43623 39.11858 25.27740
#
# Velocity S-wave (km/s) = 2.30333 4.25997 3.42438
# Velocity P-wave (km/s) = 4.30483 7.30667 5.99662
#
# Compressibility (1/GPa) = 0.04048849
#
# Stress axis : x y z
#
# Youngs Moduli (GPa) = 133.64115 36.98739 142.94416
#
# Poissons Ratio (x) = -0.07215 0.49329
# Poissons Ratio (y) = -0.26068 -0.14112
# Poissons Ratio (z) = 0.46119 -0.03651
#
# Static dielectric constant tensor:
#      x y z
#    x 1.739250 0.000000 -0.031290 
#    y 0.000000 1.824830 0.000000 
#    z -0.031290 0.000000 1.746230 
# 
# From -- ./inp_files/180842.got.cif
#   From: 2010.05.17/outbox.cif.g08.bks.cpg/sg12_91_cif.got.tgz:180842.got - 2010.06.03 13:09:07.
