data_PCOD9196739
_publ_section_title
;
Structure prediction by ZEFSAII (Michael W. Deem and Ramdas Pophale) SiO2 
 PCOD9196739
Probable space group: C 2/M
;
_chemical_formula_sum "Si O2"
_cell_formula_units_Z 64
_cell_length_a 15.965072
_cell_length_b 8.427526
_cell_length_c 24.473114
_cell_angle_alpha 90.000000
_cell_angle_beta 90.697891
_cell_angle_gamma 90.000000
_cell_volume 3292.516788
_symmetry_space_group_name_H-M "C 2/M"
_symmetry_group_IT_number 12
_symmetry_cell_setting 'monoclinic'
loop_
_space_group_symop_operation_xyz
x,y,z
-x,y,-z
-x,-y,-z
x,-y,z
1/2+x,1/2+y,z
1/2-x,1/2+y,-z
1/2-x,1/2-y,-z
1/2+x,1/2-y,z
loop_
_atom_site_type_symbol
_atom_site_label
_atom_site_fract_x
_atom_site_fract_y
_atom_site_fract_z
Si Si1 0.002996 0.806165 0.937233
Si Si2 0.597510 0.808544 0.247930
Si Si3 0.845990 0.191172 0.364876
Si Si4 0.838474 0.810343 0.132456
Si Si5 0.098085 0.689740 0.751683
Si Si6 0.841679 0.810628 0.866929
Si Si7 0.503874 0.691813 0.437315
Si Si8 0.840750 0.691885 0.631630
O O1 0.087127 0.754426 0.906799
O O2 0.921179 0.754168 0.902932
O O3 0.002988 0.000000 0.936964
O O4 0.000000 0.754534 0.000000
O O5 0.499702 0.761263 0.246243
O O6 0.642997 0.738767 0.195635
O O7 0.636822 0.759210 0.306068
O O8 0.601992 0.000000 0.244691
O O9 0.861777 0.240016 0.302579
O O10 0.923014 0.249531 0.402507
O O11 0.753674 0.245124 0.382351
O O12 0.846206 0.000000 0.367378
O O13 0.856792 0.745537 0.193114
O O14 0.746497 0.757272 0.113924
O O15 0.841413 0.000000 0.134732
O O16 0.100976 0.500000 0.748345
O O17 0.838558 0.000000 0.870112
O O18 0.500000 0.745634 0.500000
O O19 0.502024 0.500000 0.437101
O O20 0.588267 0.745321 0.408058
O O21 0.843253 0.500000 0.630280
#
# Coordination Sequence:
#
# PCOD9196739 Si02
#       8
#     8   8   8   8   8   8   8   8
#     4   9  20  39  60  82 113 154 197 239 285 340
#     4  10  20  35  57  85 119 149 182 236 294 345
#     4  10  21  37  59  84 115 153 190 230 285 346
#     4  11  22  38  60  86 117 154 190 231 289 345
#     4  11  21  35  59  89 118 147 187 237 286 343
#     4  11  22  37  60  89 117 151 195 237 283 342
#     4  10  22  39  57  81 114 151 192 237 282 333
#     4  10  21  38  58  83 111 146 188 232 284 340
#
# _framework density 19.438016999999999
#
# number of rings (size 3 to 8) (size 9 to 14) (size 15 to 20)
#    0.000    1.750    2.500    1.875    0.000    3.750 
#    0.000    0.000    0.000    5.250    0.000    0.000 
#    0.000    0.000    0.000    0.000    0.000    0.000 
#
# Total GULP energy -178810.589965 kJ/mol
# GULP energy per Si atom -5587.830936 kJ/mol
# Density = 1.939378 g / cm^3
# Si number density = 19.438017 Si / 1000 Ang^3
#
#
#
# Elastic Constant Matrix: (Units=GPa)
#
#
# Indices 1 2 3 4 5 6 
#
# 1 193.3415 16.0718 82.0275 0.0000 -11.9049 0.0000
# 2 16.0718 -2.2704 3.4139 0.0000 7.6454 0.0000
# 3 82.0275 3.4139 146.9000 0.0000 -9.2125 0.0000
# 4 0.0000 0.0000 0.0000 0.0127 0.0000 -5.7835
# 5 -11.9049 7.6454 -9.2125 0.0000 -3.2613 0.0000
# 6 0.0000 0.0000 0.0000 -5.7835 0.0000 25.3106
#
#
#
# Elastic Compliance Matrix: (Units=1/GPa)
#
#
# Indices 1 2 3 4 5 6 
#
# 1 0.006272 -0.000148 -0.004211 0.000000 -0.011349 0.000000
# 2 -0.000148 0.072781 0.007752 0.000000 0.149261 0.000000
# 3 -0.004211 0.007752 0.009414 0.000000 0.006950 0.000000
# 4 0.000000 0.000000 0.000000 -0.764021 0.000000 -0.174580
# 5 -0.011349 0.149261 0.006950 0.000000 0.065079 0.000000
# 6 0.000000 0.000000 0.000000 -0.174580 0.000000 -0.000383
#
#
# Mechanical properties :
#
#
# Convention : Reuss Voigt Hill
#
# Bulk Modulus (GPa) = 10.49825 60.11084 35.30455
# Shear Modulus (GPa) = -8.53400 20.17624 5.82112
#
# Velocity S-wave (km/s) = -2.09759 3.22526 1.73240
# Velocity P-wave (km/s) = 0.67373 6.69785 4.71208
#
# Compressibility (1/GPa) = 0.09525394
#
# Stress axis : x y z
#
# Youngs Moduli (GPa) = 159.43631 13.73977 106.22305
#
# Poissons Ratio (x) = 0.00204 0.44726
# Poissons Ratio (y) = 0.02363 -0.82343
# Poissons Ratio (z) = 0.67131 -0.10651
#
# Static dielectric constant tensor:
#      x y z
#    x 1.686170 0.000000 0.014180 
#    y 0.000000 1.666970 0.000000 
#    z 0.014180 0.000000 1.643350 
# 
# From -- ./inp_files/338717.got.cif
#   From: 2010.05.17/outbox.cif.g08.bks.cpg/sg12_170_cif.got.tgz:338717.got - 2010.06.03 13:09:07.
