data_PCOD9196312
_publ_section_title
;
Structure prediction by ZEFSAII (Michael W. Deem and Ramdas Pophale) SiO2 
 PCOD9196312
Probable space group: C 2/M
;
_chemical_formula_sum "Si O2"
_cell_formula_units_Z 64
_cell_length_a 21.154603
_cell_length_b 8.326824
_cell_length_c 25.258597
_cell_angle_alpha 90.000000
_cell_angle_beta 129.012002
_cell_angle_gamma 90.000000
_cell_volume 3457.183235
_symmetry_space_group_name_H-M "C 2/M"
_symmetry_group_IT_number 12
_symmetry_cell_setting 'monoclinic'
loop_
_space_group_symop_operation_xyz
x,y,z
-x,y,-z
-x,-y,-z
x,-y,z
1/2+x,1/2+y,z
1/2-x,1/2+y,-z
1/2-x,1/2-y,-z
1/2+x,1/2-y,z
loop_
_atom_site_type_symbol
_atom_site_label
_atom_site_fract_x
_atom_site_fract_y
_atom_site_fract_z
Si Si1 0.708791 0.806364 0.205726
Si Si2 0.994211 0.192172 0.657037
Si Si3 0.406849 0.194341 0.948774
Si Si4 0.351394 0.192204 0.206972
Si Si5 0.246478 0.196306 0.657107
Si Si6 0.060900 0.803967 0.578382
Si Si7 0.734683 0.307807 0.051271
Si Si8 0.188763 0.692268 0.422196
O O1 0.638435 0.749526 0.128811
O O2 0.793894 0.756150 0.223901
O O3 0.706019 0.751380 0.264931
O O4 0.706488 0.000000 0.204845
O O5 0.903088 0.252994 0.616160
O O6 0.057623 0.248195 0.735127
O O7 0.029445 0.249799 0.619023
O O8 0.993186 0.000000 0.655681
O O9 0.349518 0.247595 0.967033
O O10 0.407507 0.000000 0.948835
O O11 0.500000 0.250111 0.000000
O O12 0.306808 0.246242 0.129397
O O13 0.350747 0.000000 0.207711
O O14 0.152795 0.246419 0.614753
O O15 0.282129 0.251628 0.620195
O O16 0.247511 0.000000 0.657069
O O17 0.000000 0.752422 0.500000
O O18 0.060911 0.000000 0.579012
O O19 0.733518 0.500000 0.051082
O O20 0.750000 0.250000 0.000000
O O21 0.191268 0.500000 0.422937
O O22 0.250000 0.750000 0.500000
#
# Coordination Sequence:
#
# PCOD9196312 Si02
#       8
#     8   8   8   8   8   8   8   8
#     4   9  16  32  57  80 105 142 185 223 267 324
#     4  11  21  36  59  82 110 146 185 227 275 333
#     4   9  18  33  55  84 115 146 183 226 273 332
#     4  10  20  35  56  84 115 145 179 227 284 331
#     4   9  17  32  54  78 102 140 185 222 264 324
#     4   9  16  28  52  81 101 127 176 224 259 310
#     4  10  21  37  58  83 114 151 189 232 282 333
#     4  11  23  39  57  78 111 149 188 231 282 336
#
# _framework density 18.512181000000002
#
# number of rings (size 3 to 8) (size 9 to 14) (size 15 to 20)
#    0.000    2.250    1.250    2.250    0.000    3.750 
#    2.250    1.250    0.000    1.500    0.000    0.000 
#    0.000    0.000    0.000    0.000    0.000    0.000 
#
# Total GULP energy -178568.385199 kJ/mol
# GULP energy per Si atom -5580.262037 kJ/mol
# Density = 1.847005 g / cm^3
# Si number density = 18.512181 Si / 1000 Ang^3
#
#
#
# Elastic Constant Matrix: (Units=GPa)
#
#
# Indices 1 2 3 4 5 6 
#
# 1 150.0414 16.2292 103.3914 0.0000 2.6176 0.0000
# 2 16.2292 15.7986 19.2752 0.0000 -0.3262 0.0000
# 3 103.3914 19.2752 157.5991 0.0000 2.2344 0.0000
# 4 0.0000 0.0000 0.0000 21.7126 0.0000 1.7874
# 5 2.6176 -0.3262 2.2344 0.0000 39.6013 0.0000
# 6 0.0000 0.0000 0.0000 1.7874 0.0000 25.1925
#
#
#
# Elastic Compliance Matrix: (Units=1/GPa)
#
#
# Indices 1 2 3 4 5 6 
#
# 1 0.012313 -0.003301 -0.007668 0.000000 -0.000408 0.000000
# 2 -0.003301 0.075334 -0.007065 0.000000 0.001237 0.000000
# 3 -0.007668 -0.007065 0.012244 0.000000 -0.000242 0.000000
# 4 0.000000 0.000000 0.000000 0.046327 0.000000 -0.003287
# 5 -0.000408 0.001237 -0.000242 0.000000 0.025303 0.000000
# 6 0.000000 0.000000 0.000000 -0.003287 0.000000 0.039928
#
#
# Mechanical properties :
#
#
# Convention : Reuss Voigt Hill
#
# Bulk Modulus (GPa) = 15.66899 66.80339 41.23619
# Shear Modulus (GPa) = 18.60178 29.60418 24.10298
#
# Velocity S-wave (km/s) = 3.17336 4.00330 3.61225
# Velocity P-wave (km/s) = 4.68076 7.58506 6.30248
#
# Compressibility (1/GPa) = 0.06382032
#
# Stress axis : x y z
#
# Youngs Moduli (GPa) = 81.21337 13.27422 81.67545
#
# Poissons Ratio (x) = 0.04382 0.62632
# Poissons Ratio (y) = 0.26811 0.57707
# Poissons Ratio (z) = 0.62278 0.09379
#
# Static dielectric constant tensor:
#      x y z
#    x 1.673180 0.000000 -0.086530 
#    y 0.000000 1.643850 0.000000 
#    z -0.086530 0.000000 1.732970 
# 
# From -- ./inp_files/346272.got.cif
#   From: 2010.05.17/outbox.cif.g08.bks.cpg/sg12_174_cif.got.tgz:346272.got - 2010.06.03 13:09:07.
