data_PCOD9196035
_publ_section_title
;
Structure prediction by ZEFSAII (Michael W. Deem and Ramdas Pophale) SiO2 
 PCOD9196035
Probable space group: C 2/M
;
_chemical_formula_sum "Si O2"
_cell_formula_units_Z 48
_cell_length_a 13.837979
_cell_length_b 18.241974
_cell_length_c 16.176908
_cell_angle_alpha 90.000000
_cell_angle_beta 29.530922
_cell_angle_gamma 90.000000
_cell_volume 2012.763980
_symmetry_space_group_name_H-M "C 2/M"
_symmetry_group_IT_number 12
_symmetry_cell_setting 'monoclinic'
loop_
_space_group_symop_operation_xyz
x,y,z
-x,y,-z
-x,-y,-z
x,-y,z
1/2+x,1/2+y,z
1/2-x,1/2+y,-z
1/2-x,1/2-y,-z
1/2+x,1/2-y,z
loop_
_atom_site_type_symbol
_atom_site_label
_atom_site_fract_x
_atom_site_fract_y
_atom_site_fract_z
Si Si1 0.960014 0.419629 0.233126
Si Si2 0.567111 0.764587 0.695357
Si Si3 0.715291 0.108428 0.807497
Si Si4 0.385776 0.611381 0.841485
Si Si5 0.287876 0.760872 0.695515
Si Si6 0.645099 0.580683 0.812353
O O1 0.940133 0.500000 0.285913
O O2 0.968012 0.350905 0.288908
O O3 0.796585 0.412165 0.281019
O O4 0.173368 0.411904 0.032330
O O5 0.750000 0.750000 0.500000
O O6 0.412342 0.698893 0.809701
O O7 0.635495 0.755440 0.737589
O O8 0.881052 0.082391 0.749474
O O9 0.733513 0.196664 0.797960
O O10 0.500000 0.086235 0.000000
O O11 0.535082 0.588240 0.804130
O O12 0.500000 0.745940 0.500000
O O13 0.272372 0.845927 0.729554
O O14 0.741005 0.500000 0.741743
O O15 0.500000 0.581883 0.000000
#
# Coordination Sequence:
#
# PCOD9196035 Si02
#       6
#     8   8   8   8   8   8
#     4  10  21  37  59  90 122 150 188 243 300 345
#     4  10  21  37  58  83 115 157 198 234 280 346
#     4   9  19  35  59  86 112 145 186 232 284 344
#     4  10  20  37  62  86 112 153 197 236 283 346
#     4  10  20  35  56  80 108 145 192 238 280 336
#     4  10  22  38  55  80 114 149 187 235 289 340
#
# _framework density 23.847804
#
# number of rings (size 3 to 8) (size 9 to 14) (size 15 to 20)
#    0.000    2.167    0.000    2.500    0.000    9.333 
#    0.000    4.167    0.000   17.000    0.000    0.000 
#    0.000    0.000    0.000    0.000    0.000    0.000 
#
# Total GULP energy -133604.077794 kJ/mol
# GULP energy per Si atom -5566.836575 kJ/mol
# Density = 2.379353 g / cm^3
# Si number density = 23.847804 Si / 1000 Ang^3
#
#
#
# Elastic Constant Matrix: (Units=GPa)
#
#
# Indices 1 2 3 4 5 6 
#
# 1 117.9837 14.2625 -8.7691 -0.0068 -4.1620 0.0020
# 2 14.2625 223.7554 21.6899 0.0061 2.5116 0.0015
# 3 -8.7691 21.6899 22.8019 0.0183 3.7114 -0.0047
# 4 -0.0068 0.0061 0.0183 13.0016 -0.0129 3.4316
# 5 -4.1620 2.5116 3.7114 -0.0129 19.2895 0.0140
# 6 0.0020 0.0015 -0.0047 3.4316 0.0140 2.2059
#
#
#
# Elastic Compliance Matrix: (Units=1/GPa)
#
#
# Indices 1 2 3 4 5 6 
#
# 1 0.008950 -0.000990 0.004179 0.000004 0.001256 -0.000012
# 2 -0.000990 0.005034 -0.005190 0.000014 0.000130 -0.000037
# 3 0.004179 -0.005190 0.051765 -0.000203 -0.008383 0.000479
# 4 0.000004 0.000014 -0.000203 0.130494 0.000272 -0.203002
# 5 0.001256 0.000130 -0.008383 0.000272 0.053709 -0.000782
# 6 -0.000012 -0.000037 0.000479 -0.203002 -0.000782 0.769129
#
#
# Mechanical properties :
#
#
# Convention : Reuss Voigt Hill
#
# Bulk Modulus (GPa) = 16.19494 46.54528 31.37011
# Shear Modulus (GPa) = 4.79081 29.38992 17.09036
#
# Velocity S-wave (km/s) = 1.41890 3.51436 2.67992
# Velocity P-wave (km/s) = 3.08059 6.00230 4.77062
#
# Compressibility (1/GPa) = 0.06174768
#
# Stress axis : x y z
#
# Youngs Moduli (GPa) = 111.72801 198.65284 19.31807
#
# Poissons Ratio (x) = 0.19661 -0.08073
# Poissons Ratio (y) = 0.11058 0.10026
# Poissons Ratio (z) = -0.46692 1.03104
#
# Static dielectric constant tensor:
#      x y z
#    x 1.971120 0.000000 -0.001680 
#    y 0.000000 1.962220 0.000010 
#    z -0.001680 0.000010 1.846850 
# 
# From -- ./inp_files/271583.got.cif
#   From: 2010.05.17/outbox.cif.g08.bks.cpg/sg12_136_cif.got.tgz:271583.got - 2010.06.03 13:09:07.
