data_PCOD9196784
_publ_section_title
;
Structure prediction by ZEFSAII (Michael W. Deem and Ramdas Pophale) SiO2 
 PCOD9196784
Probable space group: C 2/M
;
_chemical_formula_sum "Si O2"
_cell_formula_units_Z 64
_cell_length_a 19.050701
_cell_length_b 13.770087
_cell_length_c 14.746465
_cell_angle_alpha 90.000000
_cell_angle_beta 53.062190
_cell_angle_gamma 90.000000
_cell_volume 3091.996576
_symmetry_space_group_name_H-M "C 2/M"
_symmetry_group_IT_number 12
_symmetry_cell_setting 'monoclinic'
loop_
_space_group_symop_operation_xyz
x,y,z
-x,y,-z
-x,-y,-z
x,-y,z
1/2+x,1/2+y,z
1/2-x,1/2+y,-z
1/2-x,1/2-y,-z
1/2+x,1/2-y,z
loop_
_atom_site_type_symbol
_atom_site_label
_atom_site_fract_x
_atom_site_fract_y
_atom_site_fract_z
Si Si1 0.443579 0.112883 0.668130
Si Si2 0.400564 0.389077 0.079732
Si Si3 0.136253 0.315242 0.103885
Si Si4 0.672277 0.394385 0.063343
Si Si5 0.399126 0.893271 0.054656
Si Si6 0.285053 0.887401 0.324063
Si Si7 0.723534 0.192265 0.310050
Si Si8 0.634728 0.885621 0.546093
O O1 0.433443 0.125281 0.784563
O O2 0.357720 0.163451 0.692045
O O3 0.542094 0.152544 0.576446
O O4 0.438287 0.000000 0.644645
O O5 0.404716 0.500000 0.115109
O O6 0.318910 0.334124 0.192284
O O7 0.500000 0.347412 0.000000
O O8 0.377676 0.399594 0.992224
O O9 0.140686 0.204389 0.135824
O O10 0.228502 0.369339 0.041844
O O11 0.121510 0.317004 0.007586
O O12 0.666636 0.500000 0.114042
O O13 0.349277 0.886763 0.187823
O O14 0.377868 0.000000 0.031277
O O15 0.500000 0.889781 0.000000
O O16 0.217394 0.804414 0.346197
O O17 0.333621 0.853259 0.378825
O O18 0.255307 0.000000 0.359730
O O19 0.708806 0.132751 0.414038
O O20 0.618790 0.000000 0.568886
#
# Coordination Sequence:
#
# PCOD9196784 Si02
#       8
#     8   8   8   8   8   8   8   8
#     4  11  22  38  63  96 125 152 197 258 313 361
#     4  10  21  37  58  87 124 159 193 240 297 363
#     4  11  21  34  57  85 116 159 195 239 302 357
#     4  10  21  36  52  78 118 157 198 238 283 352
#     4  10  20  35  57  86 119 155 196 244 301 360
#     4  10  23  40  58  86 122 160 205 253 299 355
#     4  12  22  38  64  91 120 162 201 247 308 365
#     4  10  22  41  65  92 120 151 200 262 312 357
#
# _framework density 20.698599999999999
#
# number of rings (size 3 to 8) (size 9 to 14) (size 15 to 20)
#    0.000    1.500    1.250    4.500    1.750    6.000 
#    0.000    0.000    0.000    2.250    0.000    0.000 
#    0.000    0.000    0.000    0.000    0.000    0.000 
#
# Total GULP energy -178377.490144 kJ/mol
# GULP energy per Si atom -5574.296567 kJ/mol
# Density = 2.065149 g / cm^3
# Si number density = 20.698600 Si / 1000 Ang^3
#
#
#
# Elastic Constant Matrix: (Units=GPa)
#
#
# Indices 1 2 3 4 5 6 
#
# 1 81.7423 19.3973 33.5125 0.0000 -6.2794 0.0000
# 2 19.3973 99.5236 6.2045 0.0000 -0.7374 0.0000
# 3 33.5125 6.2045 70.0315 0.0000 -4.2186 0.0000
# 4 0.0000 0.0000 0.0000 20.0782 0.0000 10.6937
# 5 -6.2794 -0.7374 -4.2186 0.0000 25.4962 0.0000
# 6 0.0000 0.0000 0.0000 10.6937 0.0000 24.1793
#
#
#
# Elastic Compliance Matrix: (Units=1/GPa)
#
#
# Indices 1 2 3 4 5 6 
#
# 1 0.016057 -0.002655 -0.007287 0.000000 0.002672 0.000000
# 2 -0.002655 0.010543 0.000319 0.000000 -0.000296 0.000000
# 3 -0.007287 0.000319 0.017808 0.000000 0.001161 0.000000
# 4 0.000000 0.000000 0.000000 0.065152 0.000000 -0.028815
# 5 0.002672 -0.000296 0.001161 0.000000 0.040063 0.000000
# 6 0.000000 0.000000 0.000000 -0.028815 0.000000 0.054102
#
#
# Mechanical properties :
#
#
# Convention : Reuss Voigt Hill
#
# Bulk Modulus (GPa) = 39.74544 41.05845 40.40194
# Shear Modulus (GPa) = 21.61135 26.76294 24.18714
#
# Velocity S-wave (km/s) = 3.23475 3.59971 3.42210
# Velocity P-wave (km/s) = 5.76153 6.09562 5.93093
#
# Compressibility (1/GPa) = 0.02516012
#
# Stress axis : x y z
#
# Youngs Moduli (GPa) = 62.27959 94.84669 56.15363
#
# Poissons Ratio (x) = 0.25185 0.40922
# Poissons Ratio (y) = 0.16537 -0.01790
# Poissons Ratio (z) = 0.45386 -0.03023
#
# Static dielectric constant tensor:
#      x y z
#    x 1.781330 0.000000 0.012700 
#    y 0.000000 1.853210 0.000000 
#    z 0.012700 0.000000 1.756540 
# 
# From -- ./inp_files/225653.got.cif
#   From: 2010.05.17/outbox.cif.g08.bks.cpg/sg12_113_cif.got.tgz:225653.got - 2010.06.03 13:09:07.
