data_PCOD9196432
_publ_section_title
;
Structure prediction by ZEFSAII (Michael W. Deem and Ramdas Pophale) SiO2 
 PCOD9196432
Probable space group: C 2/M
;
_chemical_formula_sum "Si O2"
_cell_formula_units_Z 64
_cell_length_a 20.604098
_cell_length_b 14.176982
_cell_length_c 12.281833
_cell_angle_alpha 90.000000
_cell_angle_beta 64.601674
_cell_angle_gamma 90.000000
_cell_volume 3240.825040
_symmetry_space_group_name_H-M "C 2/M"
_symmetry_group_IT_number 12
_symmetry_cell_setting 'monoclinic'
loop_
_space_group_symop_operation_xyz
x,y,z
-x,y,-z
-x,-y,-z
x,-y,z
1/2+x,1/2+y,z
1/2-x,1/2+y,-z
1/2-x,1/2-y,-z
1/2+x,1/2-y,z
loop_
_atom_site_type_symbol
_atom_site_label
_atom_site_fract_x
_atom_site_fract_y
_atom_site_fract_z
Si Si1 0.331146 0.893724 0.803297
Si Si2 0.066518 0.112466 0.106768
Si Si3 0.922282 0.209933 0.262953
Si Si4 0.668720 0.391192 0.834073
Si Si5 0.435779 0.108961 0.129645
Si Si6 0.795402 0.391163 0.081461
Si Si7 0.851799 0.807993 0.744437
Si Si8 0.575498 0.390154 0.509454
O O1 0.251336 0.891943 0.809661
O O2 0.370731 0.802790 0.726964
O O3 0.360564 0.000000 0.766553
O O4 0.322640 0.876760 0.938914
O O5 0.100176 0.143564 0.197235
O O6 0.988718 0.158472 0.154526
O O7 0.059731 0.000000 0.109393
O O8 0.120974 0.140715 0.971721
O O9 0.851066 0.173540 0.253229
O O10 0.933101 0.319864 0.231958
O O11 0.923291 0.174989 0.385461
O O12 0.648628 0.500000 0.823508
O O13 0.361831 0.117446 0.115374
O O14 0.445824 0.000000 0.154567
O O15 0.500000 0.133460 0.000000
O O16 0.768060 0.500000 0.105390
O O17 0.730323 0.323148 0.158964
O O18 0.865350 0.858240 0.620355
O O19 0.500000 0.381405 0.500000
O O20 0.584056 0.500000 0.534956
#
# Coordination Sequence:
#
# PCOD9196432 Si02
#       8
#     8   8   8   8   8   8   8   8
#     4  10  22  37  58  89 123 158 197 243 299 367
#     4  11  21  34  58  91 120 149 190 248 309 366
#     4  12  23  37  60  85 122 164 199 242 307 357
#     4  10  20  35  56  91 127 151 186 244 314 370
#     4  10  23  40  61  91 125 161 204 249 295 358
#     4  10  20  37  62  91 123 158 200 250 302 357
#     4  12  22  36  63  89 120 157 204 250 299 351
#     4  11  24  42  62  86 119 159 206 250 293 356
#
# _framework density 19.748058
#
# number of rings (size 3 to 8) (size 9 to 14) (size 15 to 20)
#    0.000    1.250    2.500    4.500    3.500    1.000 
#    0.000    3.125    0.000    3.750    0.000    0.000 
#    0.000    0.000    0.000    0.000    0.000    0.000 
#
# Total GULP energy -178939.254703 kJ/mol
# GULP energy per Si atom -5591.851709 kJ/mol
# Density = 1.970311 g / cm^3
# Si number density = 19.748058 Si / 1000 Ang^3
#
#
#
# Elastic Constant Matrix: (Units=GPa)
#
#
# Indices 1 2 3 4 5 6 
#
# 1 26.4553 14.8292 7.8290 0.0000 11.5055 0.0000
# 2 14.8292 114.3481 40.3401 0.0000 20.4293 0.0000
# 3 7.8290 40.3401 63.1355 0.0000 26.9615 0.0000
# 4 0.0000 0.0000 0.0000 27.2770 0.0000 9.9990
# 5 11.5055 20.4293 26.9615 0.0000 21.7831 0.0000
# 6 0.0000 0.0000 0.0000 9.9990 0.0000 15.3841
#
#
#
# Elastic Compliance Matrix: (Units=1/GPa)
#
#
# Indices 1 2 3 4 5 6 
#
# 1 0.054373 -0.004521 0.013999 0.000000 -0.041806 0.000000
# 2 -0.004521 0.011795 -0.006939 0.000000 -0.000085 0.000000
# 3 0.013999 -0.006939 0.040123 0.000000 -0.050547 0.000000
# 4 0.000000 0.000000 0.000000 0.048128 0.000000 -0.031281
# 5 -0.041806 -0.000085 -0.050547 0.000000 0.130632 0.000000
# 6 0.000000 0.000000 0.000000 -0.031281 0.000000 0.085334
#
#
# Mechanical properties :
#
#
# Convention : Reuss Voigt Hill
#
# Bulk Modulus (GPa) = 8.97925 36.65948 22.81936
# Shear Modulus (GPa) = 12.42458 22.28487 17.35473
#
# Velocity S-wave (km/s) = 2.51102 3.36290 2.96768
# Velocity P-wave (km/s) = 3.60052 5.80368 4.82941
#
# Compressibility (1/GPa) = 0.11136789
#
# Stress axis : x y z
#
# Youngs Moduli (GPa) = 18.39159 84.78331 24.92358
#
# Poissons Ratio (x) = 0.38330 -0.34891
# Poissons Ratio (y) = 0.08315 0.17296
# Poissons Ratio (z) = -0.25747 0.58835
#
# Static dielectric constant tensor:
#      x y z
#    x 1.707270 0.000000 -0.010470 
#    y 0.000000 1.733120 0.000000 
#    z -0.010470 0.000000 1.666020 
# 
# From -- ./inp_files/167257.got.cif
#   From: 2010.05.17/outbox.cif.g08.bks.cpg/sg12_84_cif.got.tgz:167257.got - 2010.06.03 13:09:07.
