data_PCOD9196686
_publ_section_title
;
Structure prediction by ZEFSAII (Michael W. Deem and Ramdas Pophale) SiO2 
 PCOD9196686
Probable space group: C 2/M
;
_chemical_formula_sum "Si O2"
_cell_formula_units_Z 56
_cell_length_a 29.906604
_cell_length_b 7.938109
_cell_length_c 22.396543
_cell_angle_alpha 90.000000
_cell_angle_beta 30.589740
_cell_angle_gamma 90.000000
_cell_volume 2705.744204
_symmetry_space_group_name_H-M "C 2/M"
_symmetry_group_IT_number 12
_symmetry_cell_setting 'monoclinic'
loop_
_space_group_symop_operation_xyz
x,y,z
-x,y,-z
-x,-y,-z
x,-y,z
1/2+x,1/2+y,z
1/2-x,1/2+y,-z
1/2-x,1/2-y,-z
1/2+x,1/2-y,z
loop_
_atom_site_type_symbol
_atom_site_label
_atom_site_fract_x
_atom_site_fract_y
_atom_site_fract_z
Si Si1 0.409389 0.704143 0.366730
Si Si2 0.392830 0.302892 0.855385
Si Si3 0.946432 0.802573 0.003479
Si Si4 0.748533 0.695729 0.218197
Si Si5 0.605581 0.200219 0.747291
Si Si6 0.776799 0.206352 0.621297
Si Si7 0.222063 0.302668 0.118068
O O1 0.410031 0.500000 0.367942
O O2 0.509620 0.769332 0.253272
O O3 0.370228 0.758179 0.348342
O O4 0.351775 0.761148 0.489134
O O5 0.401337 0.500000 0.860781
O O6 0.352625 0.284610 0.835436
O O7 0.316903 0.233660 0.986398
O O8 0.013063 0.781476 0.871870
O O9 0.927167 0.000000 0.034258
O O10 0.854301 0.712135 0.100206
O O11 0.000000 0.739674 0.000000
O O12 0.724941 0.500000 0.240481
O O13 0.713334 0.763149 0.321912
O O14 0.715934 0.782693 0.195632
O O15 0.682577 0.259731 0.703000
O O16 0.596629 0.000000 0.764262
O O17 0.775860 0.000000 0.623258
O O18 0.218716 0.500000 0.106238
#
# Coordination Sequence:
#
# PCOD9196686 Si02
#       7
#     8   8   8   8   8   8   8
#     4  10  20  37  58  80 109 145 189 234 275 323
#     4   9  19  36  58  81 106 138 179 226 277 331
#     4  11  22  35  53  79 110 144 183 226 273 321
#     4  11  21  36  57  81 113 149 185 223 275 332
#     4  11  21  35  55  81 112 147 188 229 277 328
#     4   9  20  36  54  78 111 150 188 228 270 325
#     4  10  20  35  57  85 113 138 175 226 281 336
#
# _framework density 20.696709999999999
#
# number of rings (size 3 to 8) (size 9 to 14) (size 15 to 20)
#    0.000    1.857    1.429    3.000    0.000    2.857 
#    0.000    2.857    0.000    4.286    0.000    0.000 
#    0.000    0.000    0.000    0.000    0.000    0.000 
#
# Total GULP energy -156443.146780 kJ/mol
# GULP energy per Si atom -5587.255242 kJ/mol
# Density = 2.064960 g / cm^3
# Si number density = 20.696710 Si / 1000 Ang^3
#
#
#
# Elastic Constant Matrix: (Units=GPa)
#
#
# Indices 1 2 3 4 5 6 
#
# 1 78.4107 -9.8411 20.6193 0.0030 28.7551 -0.0021
# 2 -9.8411 23.1072 -3.0460 0.0027 -3.0945 0.0015
# 3 20.6193 -3.0460 61.7893 -0.0009 25.1417 -0.0002
# 4 0.0030 0.0027 -0.0009 8.0550 0.0013 8.9893
# 5 28.7551 -3.0945 25.1417 0.0013 34.4913 -0.0009
# 6 -0.0021 0.0015 -0.0002 8.9893 -0.0009 23.9512
#
#
#
# Elastic Compliance Matrix: (Units=1/GPa)
#
#
# Indices 1 2 3 4 5 6 
#
# 1 0.019186 0.006112 0.000262 -0.000013 -0.015638 0.000005
# 2 0.006112 0.045777 0.000880 -0.000025 -0.001630 0.000007
# 3 0.000262 0.000880 0.023026 0.000010 -0.016924 -0.000004
# 4 -0.000013 -0.000025 0.000010 0.213623 -0.000009 -0.080177
# 5 -0.015638 -0.001630 -0.016924 -0.000009 0.054220 0.000004
# 6 0.000005 0.000007 -0.000004 -0.080177 0.000004 0.071843
#
#
# Mechanical properties :
#
#
# Convention : Reuss Voigt Hill
#
# Bulk Modulus (GPa) = 9.75634 19.86349 14.80992
# Shear Modulus (GPa) = 11.17731 23.67117 17.42424
#
# Velocity S-wave (km/s) = 2.32642 3.38556 2.90467
# Velocity P-wave (km/s) = 3.45551 4.99008 4.29194
#
# Compressibility (1/GPa) = 0.10249741
#
# Stress axis : x y z
#
# Youngs Moduli (GPa) = 52.12023 21.84490 43.42870
#
# Poissons Ratio (x) = -0.13351 -0.01137
# Poissons Ratio (y) = -0.31854 -0.03824
# Poissons Ratio (z) = -0.01364 -0.01923
#
# Static dielectric constant tensor:
#      x y z
#    x 1.727020 0.000000 0.014480 
#    y 0.000000 1.743920 0.000000 
#    z 0.014480 0.000000 1.744890 
# 
# From -- ./inp_files/237413.got.cif
#   From: 2010.05.17/outbox.cif.g08.bks.cpg/sg12_119_cif.got.tgz:237413.got - 2010.06.03 13:09:07.
