data_PCOD9196858
_publ_section_title
;
Structure prediction by ZEFSAII (Michael W. Deem and Ramdas Pophale) SiO2 
 PCOD9196858
Probable space group: C 2/M
;
_chemical_formula_sum "Si O2"
_cell_formula_units_Z 58
_cell_length_a 25.407436
_cell_length_b 7.484842
_cell_length_c 24.192628
_cell_angle_alpha 90.000000
_cell_angle_beta 36.076270
_cell_angle_gamma 90.000000
_cell_volume 2709.192141
_symmetry_space_group_name_H-M "C 2/M"
_symmetry_group_IT_number 12
_symmetry_cell_setting 'monoclinic'
loop_
_space_group_symop_operation_xyz
x,y,z
-x,y,-z
-x,-y,-z
x,-y,z
1/2+x,1/2+y,z
1/2-x,1/2+y,-z
1/2-x,1/2-y,-z
1/2+x,1/2-y,z
loop_
_atom_site_type_symbol
_atom_site_label
_atom_site_fract_x
_atom_site_fract_y
_atom_site_fract_z
Si Si1 0.510979 0.218854 0.741338
Si Si2 0.290064 0.212381 0.405358
Si Si3 0.500000 0.500000 0.000000
Si Si4 0.875262 0.293962 0.049686
Si Si5 0.519490 0.218157 0.359250
Si Si6 0.849841 0.293230 0.570087
Si Si7 0.841175 0.712665 0.954551
Si Si8 0.298905 0.217379 0.734451
O O1 0.607603 0.276760 0.681701
O O2 0.498159 0.274740 0.688602
O O3 0.428008 0.282064 0.848387
O O4 0.511914 0.000000 0.740485
O O5 0.250000 0.250000 0.500000
O O6 0.226906 0.287453 0.411173
O O7 0.290588 0.000000 0.397113
O O8 0.449029 0.656930 0.007336
O O9 0.907257 0.500000 0.018659
O O10 0.792389 0.286779 0.162299
O O11 0.840152 0.233029 0.019222
O O12 0.439805 0.283312 0.466626
O O13 0.615970 0.268896 0.300614
O O14 0.516531 0.000000 0.361599
O O15 0.871428 0.500000 0.563757
O O16 0.816918 0.219721 0.656511
O O17 0.850728 0.500000 0.946746
O O18 0.750000 0.750000 0.000000
O O19 0.292021 0.000000 0.740493
#
# Coordination Sequence:
#
# PCOD9196858 Si02
#       8
#     8   8   2   8   8   8   8   8
#     4   9  18  34  58  87 119 161 204 248 323 387
#     4  11  21  36  58  82 118 161 203 255 314 382
#     4  12  26  48  76  94 134 180 230 278 346 410
#     4  11  25  45  70 100 135 176 226 283 338 402
#     4   9  16  31  59  90 125 166 208 258 313 386
#     4  10  20  35  57  90 124 162 212 258 312 380
#     4  10  22  40  66 100 132 168 217 278 341 404
#     4  10  20  37  63  93 124 166 216 264 325 387
#
# _framework density 21.408595999999999
#
# number of rings (size 3 to 8) (size 9 to 14) (size 15 to 20)
#    0.000    1.931    2.069    1.862    0.966    4.414 
#    0.000    3.448    0.000    1.655    0.000    0.000 
#    0.000    0.000    0.000    0.000    0.000    0.000 
#
# Total GULP energy -161812.839144 kJ/mol
# GULP energy per Si atom -5579.753074 kJ/mol
# Density = 2.135987 g / cm^3
# Si number density = 21.408596 Si / 1000 Ang^3
#
#
#
# Elastic Constant Matrix: (Units=GPa)
#
#
# Indices 1 2 3 4 5 6 
#
# 1 75.6871 19.1105 -17.0039 -0.0020 3.1029 -0.0041
# 2 19.1105 88.0510 6.7729 0.0009 0.7524 -0.0028
# 3 -17.0039 6.7729 59.4152 0.0028 11.6744 -0.0120
# 4 -0.0020 0.0009 0.0028 11.2283 -0.0037 -0.7555
# 5 3.1029 0.7524 11.6744 -0.0037 29.9844 0.0030
# 6 -0.0041 -0.0028 -0.0120 -0.7555 0.0030 22.4820
#
#
#
# Elastic Compliance Matrix: (Units=1/GPa)
#
#
# Indices 1 2 3 4 5 6 
#
# 1 0.015581 -0.003782 0.005618 0.000001 -0.003705 0.000006
# 2 -0.003782 0.012377 -0.002717 -0.000001 0.001139 -0.000001
# 3 0.005618 -0.002717 0.020411 -0.000006 -0.008460 0.000013
# 4 0.000001 -0.000001 -0.000006 0.089263 0.000013 0.003000
# 5 -0.003705 0.001139 -0.008460 0.000013 0.037000 -0.000009
# 6 0.000006 -0.000001 0.000013 0.003000 -0.000009 0.044581
#
#
# Mechanical properties :
#
#
# Convention : Reuss Voigt Hill
#
# Bulk Modulus (GPa) = 21.45591 26.76806 24.11199
# Shear Modulus (GPa) = 21.14074 27.02383 24.08229
#
# Velocity S-wave (km/s) = 3.14584 3.55673 3.35757
# Velocity P-wave (km/s) = 4.82068 5.42196 5.13014
#
# Compressibility (1/GPa) = 0.04660720
#
# Stress axis : x y z
#
# Youngs Moduli (GPa) = 64.17912 80.79350 48.99397
#
# Poissons Ratio (x) = 0.30558 -0.27526
# Poissons Ratio (y) = 0.24274 0.13312
# Poissons Ratio (z) = -0.36058 0.21953
#
# Static dielectric constant tensor:
#      x y z
#    x 1.640330 0.000050 -0.009120 
#    y 0.000050 1.806020 0.000010 
#    z -0.009120 0.000010 1.758160 
# 
# From -- ./inp_files/324551.got.cif
#   From: 2010.05.17/outbox.cif.g08.bks.cpg/sg12_163_cif.got.tgz:324551.got - 2010.06.03 13:09:07.
