data_PCOD9196144
_publ_section_title
;
Structure prediction by ZEFSAII (Michael W. Deem and Ramdas Pophale) SiO2 
 PCOD9196144
Probable space group: C 2/M
;
_chemical_formula_sum "Si O2"
_cell_formula_units_Z 60
_cell_length_a 27.941176
_cell_length_b 15.606456
_cell_length_c 25.350835
_cell_angle_alpha 90.000000
_cell_angle_beta 14.844244
_cell_angle_gamma 90.000000
_cell_volume 2832.091346
_symmetry_space_group_name_H-M "C 2/M"
_symmetry_group_IT_number 12
_symmetry_cell_setting 'monoclinic'
loop_
_space_group_symop_operation_xyz
x,y,z
-x,y,-z
-x,-y,-z
x,-y,z
1/2+x,1/2+y,z
1/2-x,1/2+y,-z
1/2-x,1/2-y,-z
1/2+x,1/2-y,z
loop_
_atom_site_type_symbol
_atom_site_label
_atom_site_fract_x
_atom_site_fract_y
_atom_site_fract_z
Si Si1 0.611286 0.595667 0.073356
Si Si2 0.000000 0.142810 0.500000
Si Si3 0.559131 0.904736 0.592006
Si Si4 0.126261 0.662928 0.636876
Si Si5 0.096997 0.264323 0.038294
Si Si6 0.556918 0.404104 0.635352
Si Si7 0.911752 0.594726 0.035806
Si Si8 0.037534 0.234697 0.563399
O O1 0.534477 0.500000 0.146545
O O2 0.525604 0.668130 0.126502
O O3 0.575337 0.616843 0.173407
O O4 0.833066 0.592910 0.828523
O O5 0.183770 0.095376 0.281776
O O6 0.908785 0.198094 0.550231
O O7 0.596990 0.878613 0.611854
O O8 0.624532 0.825495 0.486471
O O9 0.629487 0.000000 0.504629
O O10 0.250000 0.750000 0.500000
O O11 0.242125 0.600519 0.551000
O O12 0.940593 0.687689 0.866338
O O13 0.024933 0.326239 0.068708
O O14 0.314802 0.254043 0.796062
O O15 0.513071 0.500000 0.662869
O O16 0.559420 0.334381 0.586754
O O17 0.968856 0.500000 0.954681
O O18 0.000000 0.602989 0.000000
#
# Coordination Sequence:
#
# PCOD9196144 Si02
#       8
#     8   4   8   8   8   8   8   8
#     4   9  18  35  57  81 110 149 189 227 279 344
#     4  10  23  42  63  82 116 152 199 256 299 350
#     4  10  20  35  56  81 114 149 186 231 282 343
#     4  12  21  33  53  84 121 154 183 229 283 346
#     4  10  21  37  57  80 113 150 188 238 284 342
#     4  11  22  34  52  82 115 150 187 228 280 342
#     4  10  23  40  61  86 114 152 199 247 299 352
#     4  10  21  39  59  82 107 150 197 239 293 341
#
# _framework density 21.185756000000001
#
# number of rings (size 3 to 8) (size 9 to 14) (size 15 to 20)
#    0.000    1.733    2.667    1.400    1.867    5.867 
#    0.000    0.333    0.000    1.200    0.000    0.000 
#    0.000    0.000    0.000    0.000    0.000    0.000 
#
# Total GULP energy -167387.765491 kJ/mol
# GULP energy per Si atom -5579.592183 kJ/mol
# Density = 2.113754 g / cm^3
# Si number density = 21.185756 Si / 1000 Ang^3
#
#
#
# Elastic Constant Matrix: (Units=GPa)
#
#
# Indices 1 2 3 4 5 6 
#
# 1 99.2794 87.9701 -9.4825 -0.0191 8.5599 0.0091
# 2 87.9701 192.8771 -1.2963 0.0307 20.3308 -0.0225
# 3 -9.4825 -1.2963 30.1806 0.0260 3.7679 -0.0067
# 4 -0.0191 0.0307 0.0260 8.8588 -0.0016 -5.0950
# 5 8.5599 20.3308 3.7679 -0.0016 23.7399 0.0013
# 6 0.0091 -0.0225 -0.0067 -5.0950 0.0013 15.1007
#
#
#
# Elastic Compliance Matrix: (Units=1/GPa)
#
#
# Indices 1 2 3 4 5 6 
#
# 1 0.017691 -0.007994 0.005261 0.000048 -0.000367 -0.000004
# 2 -0.007994 0.009334 -0.001502 -0.000044 -0.004873 0.000004
# 3 0.005261 -0.001502 0.035502 -0.000103 -0.006245 -0.000024
# 4 0.000048 -0.000044 -0.000103 0.140061 0.000044 0.047256
# 5 -0.000367 -0.004873 -0.006245 0.000044 0.047420 0.000001
# 6 -0.000004 0.000004 -0.000024 0.047256 0.000001 0.082167
#
#
# Mechanical properties :
#
#
# Convention : Reuss Voigt Hill
#
# Bulk Modulus (GPa) = 18.49998 52.96886 35.73442
# Shear Modulus (GPa) = 13.94059 25.88294 19.91177
#
# Velocity S-wave (km/s) = 2.56797 3.49909 3.06905
# Velocity P-wave (km/s) = 4.18854 6.43283 5.42794
#
# Compressibility (1/GPa) = 0.05405412
#
# Stress axis : x y z
#
# Youngs Moduli (GPa) = 56.52746 107.13010 28.16755
#
# Poissons Ratio (x) = 0.85645 -0.14818
# Poissons Ratio (y) = 0.45191 0.04232
# Poissons Ratio (z) = -0.29737 0.16096
#
# Static dielectric constant tensor:
#      x y z
#    x 1.738960 0.000000 -0.018410 
#    y 0.000000 1.841140 0.000020 
#    z -0.018410 0.000020 1.814170 
# 
# From -- ./inp_files/352125.got.cif
#   From: 2010.05.17/outbox.cif.g08.bks.cpg/sg12_177_cif.got.tgz:352125.got - 2010.06.03 13:09:07.
