data_PCOD9196584
_publ_section_title
;
Structure prediction by ZEFSAII (Michael W. Deem and Ramdas Pophale) SiO2 
 PCOD9196584
Probable space group: C 2/M
;
_chemical_formula_sum "Si O2"
_cell_formula_units_Z 48
_cell_length_a 27.528393
_cell_length_b 7.486732
_cell_length_c 10.286676
_cell_angle_alpha 90.000000
_cell_angle_beta 74.741264
_cell_angle_gamma 90.000000
_cell_volume 2045.322228
_symmetry_space_group_name_H-M "C 2/M"
_symmetry_group_IT_number 12
_symmetry_cell_setting 'monoclinic'
loop_
_space_group_symop_operation_xyz
x,y,z
-x,y,-z
-x,-y,-z
x,-y,z
1/2+x,1/2+y,z
1/2-x,1/2+y,-z
1/2-x,1/2-y,-z
1/2+x,1/2-y,z
loop_
_atom_site_type_symbol
_atom_site_label
_atom_site_fract_x
_atom_site_fract_y
_atom_site_fract_z
Si Si1 0.569168 0.219389 0.315933
Si Si2 0.807066 0.211552 0.417035
Si Si3 0.414661 0.207828 0.415002
Si Si4 0.288497 0.717202 0.146991
Si Si5 0.678188 0.207195 0.160402
Si Si6 0.011524 0.282235 0.845826
O O1 0.560909 0.280728 0.469975
O O2 0.625236 0.283072 0.240598
O O3 0.530862 0.270628 0.229663
O O4 0.568483 0.000000 0.316876
O O5 0.750000 0.250000 0.500000
O O6 0.854194 0.281881 0.464876
O O7 0.811890 0.277341 0.265491
O O8 0.812659 0.000000 0.413974
O O9 0.437021 0.277841 0.263107
O O10 0.428353 0.000000 0.405488
O O11 0.287898 0.500000 0.143940
O O12 0.230451 0.782000 0.179458
O O13 0.316363 0.780688 0.998823
O O14 0.677706 0.000000 0.199828
O O15 0.011726 0.500000 0.855214
O O16 0.000000 0.217598 0.000000
#
# Coordination Sequence:
#
# PCOD9196584 Si02
#       6
#     8   8   8   8   8   8
#     4   9  17  31  52  79 113 147 184 231 281 327
#     4  11  23  38  57  81 113 148 186 230 278 333
#     4  10  20  35  57  83 114 151 188 230 283 331
#     4   9  19  34  49  73 109 142 176 223 277 328
#     4   9  17  30  52  76 102 139 182 224 270 326
#     4   9  18  31  52  85 116 145 189 238 278 327
#
# _framework density 23.468183
#
# number of rings (size 3 to 8) (size 9 to 14) (size 15 to 20)
#    0.000    2.500    0.000    2.000    2.333    6.000 
#    0.000    4.167    0.000    3.500    0.000    0.000 
#    0.000    0.000    0.000    0.000    0.000    0.000 
#
# Total GULP energy -134018.232656 kJ/mol
# GULP energy per Si atom -5584.093027 kJ/mol
# Density = 2.341477 g / cm^3
# Si number density = 23.468183 Si / 1000 Ang^3
#
#
#
# Elastic Constant Matrix: (Units=GPa)
#
#
# Indices 1 2 3 4 5 6 
#
# 1 103.4402 -5.5498 82.7798 0.0000 -3.9683 0.0000
# 2 -5.5498 65.4033 0.4111 0.0000 -0.9277 0.0000
# 3 82.7798 0.4111 147.6420 0.0000 13.9015 0.0000
# 4 0.0000 0.0000 0.0000 7.1697 0.0000 -2.3418
# 5 -3.9683 -0.9277 13.9015 0.0000 40.1442 0.0000
# 6 0.0000 0.0000 0.0000 -2.3418 0.0000 0.2053
#
#
#
# Elastic Compliance Matrix: (Units=1/GPa)
#
#
# Indices 1 2 3 4 5 6 
#
# 1 0.018903 0.001756 -0.011147 0.000000 0.005769 0.000000
# 2 0.001756 0.015459 -0.001114 0.000000 0.000917 0.000000
# 3 -0.011147 -0.001114 0.013575 0.000000 -0.005828 0.000000
# 4 0.000000 0.000000 0.000000 -0.051180 0.000000 -0.583711
# 5 0.005769 0.000917 -0.005828 0.000000 0.027520 0.000000
# 6 0.000000 0.000000 0.000000 -0.583711 0.000000 -1.787087
#
#
# Mechanical properties :
#
#
# Convention : Reuss Voigt Hill
#
# Bulk Modulus (GPa) = 37.13682 52.41864 44.77773
# Shear Modulus (GPa) = -2.88546 25.42681 11.27067
#
# Velocity S-wave (km/s) = -1.11004 3.29516 2.19385
# Velocity P-wave (km/s) = 3.77038 6.07141 5.05360
#
# Compressibility (1/GPa) = 0.02692745
#
# Stress axis : x y z
#
# Youngs Moduli (GPa) = 52.90045 64.68830 73.66572
#
# Poissons Ratio (x) = -0.11359 0.82114
# Poissons Ratio (y) = -0.09289 0.08205
# Poissons Ratio (z) = 0.58967 0.07205
#
# Static dielectric constant tensor:
#      x y z
#    x 2.238720 0.000000 -0.088110 
#    y 0.000000 1.897670 0.000000 
#    z -0.088110 0.000000 1.896200 
# 
# From -- ./inp_files/94293.got.cif
#   From: 2010.05.17/outbox.cif.g08.bks.cpg/sg12_48_cif.got.tgz:94293.got - 2010.06.03 13:09:07.
