data_PCOD9196943
_publ_section_title
;
Structure prediction by ZEFSAII (Michael W. Deem and Ramdas Pophale) SiO2 
 PCOD9196943
Probable space group: C 2/M
;
_chemical_formula_sum "Si O2"
_cell_formula_units_Z 56
_cell_length_a 19.335993
_cell_length_b 8.986658
_cell_length_c 18.238424
_cell_angle_alpha 90.000000
_cell_angle_beta 118.393477
_cell_angle_gamma 90.000000
_cell_volume 2787.968966
_symmetry_space_group_name_H-M "C 2/M"
_symmetry_group_IT_number 12
_symmetry_cell_setting 'monoclinic'
loop_
_space_group_symop_operation_xyz
x,y,z
-x,y,-z
-x,-y,-z
x,-y,z
1/2+x,1/2+y,z
1/2-x,1/2+y,-z
1/2-x,1/2-y,-z
1/2+x,1/2-y,z
loop_
_atom_site_type_symbol
_atom_site_label
_atom_site_fract_x
_atom_site_fract_y
_atom_site_fract_z
Si Si1 0.370487 0.677996 0.250346
Si Si2 0.180884 0.322338 0.511365
Si Si3 0.095047 0.668185 0.043327
Si Si4 0.600928 0.324556 0.197663
Si Si5 0.005465 0.321400 0.416879
Si Si6 0.415497 0.321458 0.113226
Si Si7 0.246311 0.823499 0.684580
O O1 0.381259 0.500000 0.255395
O O2 0.441394 0.747107 0.332918
O O3 0.373882 0.725895 0.167522
O O4 0.290749 0.709364 0.254400
O O5 0.187860 0.500000 0.515467
O O6 0.250000 0.250000 0.500000
O O7 0.094431 0.283968 0.438422
O O8 0.192251 0.259936 0.598737
O O9 0.126387 0.500000 0.068629
O O10 0.115818 0.773880 0.121376
O O11 0.113956 0.736403 0.973729
O O12 0.000000 0.659278 0.000000
O O13 0.613238 0.500000 0.212730
O O14 0.509529 0.291707 0.168852
O O15 0.665001 0.235114 0.276324
O O16 0.995206 0.500000 0.408922
O O17 0.000000 0.277511 0.500000
O O18 0.407289 0.500000 0.098424
O O19 0.243685 0.000000 0.670662
#
# Coordination Sequence:
#
# PCOD9196943 Si02
#       7
#     8   8   8   8   8   8   8
#     4  10  22  38  58  83 113 150 189 232 279 333
#     4  11  24  41  60  84 114 148 187 234 284 335
#     4   9  17  32  55  84 114 145 182 228 280 333
#     4  10  20  35  58  84 113 150 187 231 282 334
#     4  10  21  39  60  82 110 147 189 232 278 332
#     4   9  19  36  57  84 112 143 186 231 277 333
#     4  11  23  39  57  82 116 151 188 232 281 335
#
# _framework density 20.086306
#
# number of rings (size 3 to 8) (size 9 to 14) (size 15 to 20)
#    0.000    2.000    1.429    1.714    2.000    4.857 
#    0.000    0.714    0.000    0.000    0.000    0.000 
#    0.000    0.000    0.000    0.000    0.000    0.000 
#
# Total GULP energy -156373.727692 kJ/mol
# GULP energy per Si atom -5584.775989 kJ/mol
# Density = 2.004059 g / cm^3
# Si number density = 20.086306 Si / 1000 Ang^3
#
#
#
# Elastic Constant Matrix: (Units=GPa)
#
#
# Indices 1 2 3 4 5 6 
#
# 1 57.2034 22.9846 -4.9654 0.0000 -13.3719 0.0000
# 2 22.9846 31.3575 -7.9937 0.0000 -0.9929 0.0000
# 3 -4.9654 -7.9937 17.9108 0.0000 -14.4684 0.0000
# 4 0.0000 0.0000 0.0000 32.7666 0.0000 -0.9191
# 5 -13.3719 -0.9929 -14.4684 0.0000 37.2663 0.0000
# 6 0.0000 0.0000 0.0000 -0.9191 0.0000 22.2021
#
#
#
# Elastic Compliance Matrix: (Units=1/GPa)
#
#
# Indices 1 2 3 4 5 6 
#
# 1 0.029082 -0.017828 0.011876 0.000000 0.014571 0.000000
# 2 -0.017828 0.049961 0.019324 0.000000 0.002437 0.000000
# 3 0.011876 0.019324 0.104327 0.000000 0.045281 0.000000
# 4 0.000000 0.000000 0.000000 0.030554 0.000000 0.001265
# 5 0.014571 0.002437 0.045281 0.000000 0.049707 0.000000
# 6 0.000000 0.000000 0.000000 0.001265 0.000000 0.045093
#
#
# Mechanical properties :
#
#
# Convention : Reuss Voigt Hill
#
# Bulk Modulus (GPa) = 4.75931 14.05806 9.40868
# Shear Modulus (GPa) = 14.20385 24.87673 19.54029
#
# Velocity S-wave (km/s) = 2.66210 3.52304 3.12238
# Velocity P-wave (km/s) = 3.43854 4.85418 4.20635
#
# Compressibility (1/GPa) = 0.21011469
#
# Stress axis : x y z
#
# Youngs Moduli (GPa) = 34.38590 20.01565 9.58525
#
# Poissons Ratio (x) = 0.35683 -0.11384
# Poissons Ratio (y) = 0.61302 -0.18522
# Poissons Ratio (z) = -0.40838 -0.38678
#
# Static dielectric constant tensor:
#      x y z
#    x 1.728370 0.000000 -0.024910 
#    y 0.000000 1.668900 0.000000 
#    z -0.024910 0.000000 1.754780 
# 
# From -- ./inp_files/275071.got.cif
#   From: 2010.05.17/outbox.cif.g08.bks.cpg/sg12_138_cif.got.tgz:275071.got - 2010.06.03 13:09:07.
