data_PCOD9196846
_publ_section_title
;
Structure prediction by ZEFSAII (Michael W. Deem and Ramdas Pophale) SiO2 
 PCOD9196846
Probable space group: C 2/M
;
_chemical_formula_sum "Si O2"
_cell_formula_units_Z 64
_cell_length_a 16.271702
_cell_length_b 13.811637
_cell_length_c 19.051505
_cell_angle_alpha 90.000000
_cell_angle_beta 142.793256
_cell_angle_gamma 90.000000
_cell_volume 2589.060934
_symmetry_space_group_name_H-M "C 2/M"
_symmetry_group_IT_number 12
_symmetry_cell_setting 'monoclinic'
loop_
_space_group_symop_operation_xyz
x,y,z
-x,y,-z
-x,-y,-z
x,-y,z
1/2+x,1/2+y,z
1/2-x,1/2+y,-z
1/2-x,1/2-y,-z
1/2+x,1/2-y,z
loop_
_atom_site_type_symbol
_atom_site_label
_atom_site_fract_x
_atom_site_fract_y
_atom_site_fract_z
Si Si1 0.812394 0.886356 0.008900
Si Si2 0.426488 0.890576 0.241995
Si Si3 0.429293 0.695360 0.638413
Si Si4 0.133730 0.112672 0.257237
Si Si5 0.926356 0.604248 0.807886
Si Si6 0.222469 0.885798 0.858445
Si Si7 0.870267 0.113180 0.455194
Si Si8 0.616500 0.266100 0.125331
O O1 0.759871 0.850851 0.048772
O O2 0.974361 0.883120 0.126287
O O3 0.779180 0.000000 0.986627
O O4 0.727169 0.855815 0.882154
O O5 0.511196 0.803192 0.332964
O O6 0.497463 0.896853 0.214011
O O7 0.429218 0.000000 0.274518
O O8 0.356448 0.672591 0.663430
O O9 0.562720 0.626985 0.733402
O O10 0.348019 0.664164 0.514566
O O11 0.200118 0.163434 0.234067
O O12 0.170957 0.000000 0.292291
O O13 0.949088 0.500000 0.857997
O O14 0.766585 0.616002 0.682937
O O15 0.969083 0.695340 0.881135
O O16 0.300210 0.815802 0.858966
O O17 0.255920 0.000000 0.875228
O O18 0.000000 0.151521 0.500000
O O19 0.897948 0.000000 0.489052
O O20 0.500000 0.316943 0.000000
#
# Coordination Sequence:
#
# PCOD9196846 Si02
#       8
#     8   8   8   8   8   8   8   8
#     4   8  17  35  59  81 113 157 203 253 299 349
#     4  10  20  35  57  89 122 156 198 251 306 359
#     4  11  21  38  68  90 116 160 209 256 303 364
#     4  10  22  40  59  87 121 163 214 257 293 358
#     4  10  21  38  57  86 124 154 197 253 309 365
#     4  10  21  35  57  89 119 153 207 260 306 357
#     4  10  21  39  64  91 120 155 197 253 315 367
#     4  12  24  36  56  88 124 170 199 247 309 369
#
# _framework density 24.719387000000001
#
# number of rings (size 3 to 8) (size 9 to 14) (size 15 to 20)
#    0.000    1.875    1.250    3.750    1.750    4.750 
#    0.000    0.625    0.000    0.375    0.000    0.000 
#    0.000    0.000    0.000    0.000    0.000    0.000 
#
# Total GULP energy -178889.603438 kJ/mol
# GULP energy per Si atom -5590.300107 kJ/mol
# Density = 2.466312 g / cm^3
# Si number density = 24.719387 Si / 1000 Ang^3
#
#
#
# Elastic Constant Matrix: (Units=GPa)
#
#
# Indices 1 2 3 4 5 6 
#
# 1 38.2305 10.1399 10.0475 0.0000 -4.7292 0.0000
# 2 10.1399 153.6007 30.3788 0.0000 -22.2979 0.0000
# 3 10.0475 30.3788 77.0408 0.0000 -10.5094 0.0000
# 4 0.0000 0.0000 0.0000 35.2834 0.0000 -3.9739
# 5 -4.7292 -22.2979 -10.5094 0.0000 38.5851 0.0000
# 6 0.0000 0.0000 0.0000 -3.9739 0.0000 33.1133
#
#
#
# Elastic Compliance Matrix: (Units=1/GPa)
#
#
# Indices 1 2 3 4 5 6 
#
# 1 0.027426 -0.000937 -0.002932 0.000000 0.002021 0.000000
# 2 -0.000937 0.007565 -0.002368 0.000000 0.003612 0.000000
# 3 -0.002932 -0.002368 0.014603 0.000000 0.002250 0.000000
# 4 0.000000 0.000000 0.000000 0.028730 0.000000 0.003448
# 5 0.002021 0.003612 0.002250 0.000000 0.028864 0.000000
# 6 0.000000 0.000000 0.000000 0.003448 0.000000 0.030613
#
#
# Mechanical properties :
#
#
# Convention : Reuss Voigt Hill
#
# Bulk Modulus (GPa) = 26.93935 41.11163 34.02549
# Shear Modulus (GPa) = 30.74097 35.95007 33.34552
#
# Velocity S-wave (km/s) = 3.53029 3.81770 3.67681
# Velocity P-wave (km/s) = 5.24776 6.00837 5.64090
#
# Compressibility (1/GPa) = 0.03712042
#
# Stress axis : x y z
#
# Youngs Moduli (GPa) = 36.46150 132.18887 68.47854
#
# Poissons Ratio (x) = 0.12390 0.20075
# Poissons Ratio (y) = 0.03418 0.16216
# Poissons Ratio (z) = 0.10689 0.31303
#
# Static dielectric constant tensor:
#      x y z
#    x 2.086080 0.000000 -0.001370 
#    y 0.000000 1.977180 0.000000 
#    z -0.001370 0.000000 1.970780 
# 
# From -- ./inp_files/278198.got.cif
#   From: 2010.05.17/outbox.cif.g08.bks.cpg/sg12_140_cif.got.tgz:278198.got - 2010.06.03 13:09:07.
