data_PCOD9196897
_publ_section_title
;
Structure prediction by ZEFSAII (Michael W. Deem and Ramdas Pophale) SiO2 
 PCOD9196897
Probable space group: C 2/M
;
_chemical_formula_sum "Si O2"
_cell_formula_units_Z 48
_cell_length_a 15.721180
_cell_length_b 17.673163
_cell_length_c 11.148779
_cell_angle_alpha 90.000000
_cell_angle_beta 56.603970
_cell_angle_gamma 90.000000
_cell_volume 2586.151187
_symmetry_space_group_name_H-M "C 2/M"
_symmetry_group_IT_number 12
_symmetry_cell_setting 'monoclinic'
loop_
_space_group_symop_operation_xyz
x,y,z
-x,y,-z
-x,-y,-z
x,-y,z
1/2+x,1/2+y,z
1/2-x,1/2+y,-z
1/2-x,1/2-y,-z
1/2+x,1/2-y,z
loop_
_atom_site_type_symbol
_atom_site_label
_atom_site_fract_x
_atom_site_fract_y
_atom_site_fract_z
Si Si1 0.049072 0.632288 0.586597
Si Si2 0.762406 0.415765 0.420522
Si Si3 0.753928 0.232520 0.139268
Si Si4 0.605800 0.702896 0.458131
Si Si5 0.619852 0.134090 0.907159
Si Si6 0.657897 0.087482 0.138899
O O1 0.154582 0.593873 0.539429
O O2 0.074485 0.721085 0.553179
O O3 0.000000 0.606062 0.500000
O O4 0.957924 0.616217 0.749198
O O5 0.719338 0.500000 0.455091
O O6 0.676603 0.351506 0.481190
O O7 0.828370 0.401963 0.248926
O O8 0.666913 0.270074 0.291258
O O9 0.854149 0.275816 0.108595
O O10 0.731797 0.142893 0.156971
O O11 0.750000 0.250000 0.000000
O O12 0.500000 0.665361 0.500000
O O13 0.500000 0.120398 0.000000
O O14 0.671543 0.099005 0.985826
O O15 0.667208 0.000000 0.163757
#
# Coordination Sequence:
#
# PCOD9196897 Si02
#       6
#     8   8   8   8   8   8
#     4  11  21  36  55  78 115 153 185 225 284 341
#     4  11  23  36  56  86 117 148 190 243 289 333
#     4   9  19  36  55  81 109 149 187 223 275 342
#     4  10  20  39  58  81 116 152 192 231 280 346
#     4  10  20  35  58  83 111 144 189 235 286 333
#     4  11  20  33  56  84 113 144 183 235 285 331
#
# _framework density 18.560400999999999
#
# number of rings (size 3 to 8) (size 9 to 14) (size 15 to 20)
#    0.000    1.667    5.000    1.500    0.000    2.333 
#    0.000    0.000    0.000    0.500    0.000    0.000 
#    0.000    0.000    0.000    0.000    0.000    0.000 
#
# Total GULP energy -133768.899979 kJ/mol
# GULP energy per Si atom -5573.704166 kJ/mol
# Density = 1.851816 g / cm^3
# Si number density = 18.560401 Si / 1000 Ang^3
#
#
#
# Elastic Constant Matrix: (Units=GPa)
#
#
# Indices 1 2 3 4 5 6 
#
# 1 52.6053 30.5225 8.0715 0.0000 13.9337 0.0000
# 2 30.5225 117.3656 19.4907 0.0000 1.5167 0.0000
# 3 8.0715 19.4907 36.5467 0.0000 4.4411 0.0000
# 4 0.0000 0.0000 0.0000 15.5923 0.0000 0.9246
# 5 13.9337 1.5167 4.4411 0.0000 20.3364 0.0000
# 6 0.0000 0.0000 0.0000 0.9246 0.0000 9.2054
#
#
#
# Elastic Compliance Matrix: (Units=1/GPa)
#
#
# Indices 1 2 3 4 5 6 
#
# 1 0.028056 -0.007025 -0.000182 0.000000 -0.018659 0.000000
# 2 -0.007025 0.011110 -0.004990 0.000000 0.005074 0.000000
# 3 -0.000182 -0.004990 0.030822 0.000000 -0.006234 0.000000
# 4 0.000000 0.000000 0.000000 0.064518 0.000000 -0.006480
# 5 -0.018659 0.005074 -0.006234 0.000000 0.062940 0.000000
# 6 0.000000 0.000000 0.000000 -0.006480 0.000000 0.109283
#
#
# Mechanical properties :
#
#
# Convention : Reuss Voigt Hill
#
# Bulk Modulus (GPa) = 21.93356 35.85410 28.89383
# Shear Modulus (GPa) = 14.43743 18.92234 16.67988
#
# Velocity S-wave (km/s) = 2.79204 3.19643 3.00105
# Velocity P-wave (km/s) = 4.71562 5.74302 5.25449
#
# Compressibility (1/GPa) = 0.04559224
#
# Stress axis : x y z
#
# Youngs Moduli (GPa) = 35.64344 90.00521 32.44483
#
# Poissons Ratio (x) = 0.63227 0.00592
# Poissons Ratio (y) = 0.25039 0.16192
# Poissons Ratio (z) = 0.00650 0.44917
#
# Static dielectric constant tensor:
#      x y z
#    x 1.655870 0.000000 0.035560 
#    y 0.000000 1.669690 0.000000 
#    z 0.035560 0.000000 1.697550 
# 
# From -- ./inp_files/157655.got.cif
#   From: 2010.05.17/outbox.cif.g08.bks.cpg/sg12_79_cif.got.tgz:157655.got - 2010.06.03 13:09:07.
