data_PCOD9196556
_publ_section_title
;
Structure prediction by ZEFSAII (Michael W. Deem and Ramdas Pophale) SiO2 
 PCOD9196556
Probable space group: C 2/M
;
_chemical_formula_sum "Si O2"
_cell_formula_units_Z 56
_cell_length_a 23.198432
_cell_length_b 7.646016
_cell_length_c 14.107580
_cell_angle_alpha 90.000000
_cell_angle_beta 85.888061
_cell_angle_gamma 90.000000
_cell_volume 2495.898850
_symmetry_space_group_name_H-M "C 2/M"
_symmetry_group_IT_number 12
_symmetry_cell_setting 'monoclinic'
loop_
_space_group_symop_operation_xyz
x,y,z
-x,y,-z
-x,-y,-z
x,-y,z
1/2+x,1/2+y,z
1/2-x,1/2+y,-z
1/2-x,1/2-y,-z
1/2+x,1/2-y,z
loop_
_atom_site_type_symbol
_atom_site_label
_atom_site_fract_x
_atom_site_fract_y
_atom_site_fract_z
Si Si1 0.941611 0.711424 0.955825
Si Si2 0.481488 0.297797 0.601315
Si Si3 0.230671 0.202447 0.203479
Si Si4 0.604002 0.708062 0.237901
Si Si5 0.903804 0.293243 0.310643
Si Si6 0.849191 0.714169 0.116985
Si Si7 0.717847 0.293328 0.601468
O O1 0.942247 0.500000 0.957311
O O2 0.936007 0.768004 0.848643
O O3 0.885712 0.770605 0.022201
O O4 0.000000 0.771841 0.000000
O O5 0.500000 0.214046 0.500000
O O6 0.465582 0.500000 0.583005
O O7 0.428408 0.218902 0.666187
O O8 0.538201 0.294554 0.660026
O O9 0.167189 0.283650 0.208031
O O10 0.283401 0.278043 0.135647
O O11 0.252042 0.207783 0.310238
O O12 0.225254 0.000000 0.174675
O O13 0.611377 0.500000 0.252687
O O14 0.915045 0.500000 0.303967
O O15 0.882850 0.234121 0.209136
O O16 0.849351 0.261828 0.386591
O O17 0.847701 0.500000 0.117843
O O18 0.720301 0.500000 0.615722
O O19 0.750000 0.250000 0.500000
#
# Coordination Sequence:
#
# PCOD9196556 Si02
#       7
#     8   8   8   8   8   8   8
#     4  10  20  35  57  83 111 149 193 240 291 346
#     4  10  22  38  55  78 110 151 191 235 294 353
#     4   9  19  37  57  80 114 154 192 235 288 347
#     4  10  22  38  56  82 116 151 189 240 296 345
#     4  10  20  37  59  84 111 145 189 238 287 343
#     4   8  16  33  56  80 110 145 185 231 286 344
#     4  11  22  36  57  85 115 150 192 239 286 339
#
# _framework density 22.436807000000002
#
# number of rings (size 3 to 8) (size 9 to 14) (size 15 to 20)
#    0.000    2.286    0.000    3.429    2.000    3.429 
#    0.000    3.571    0.000    0.000    0.000    0.000 
#    0.000    0.000    0.000    0.000    0.000    0.000 
#
# Total GULP energy -156417.334813 kJ/mol
# GULP energy per Si atom -5586.333386 kJ/mol
# Density = 2.238574 g / cm^3
# Si number density = 22.436807 Si / 1000 Ang^3
#
#
#
# Elastic Constant Matrix: (Units=GPa)
#
#
# Indices 1 2 3 4 5 6 
#
# 1 117.1810 -2.6399 41.4658 0.0000 -16.5202 0.0000
# 2 -2.6399 55.1359 -3.4383 0.0000 -3.6075 0.0000
# 3 41.4658 -3.4383 88.2507 0.0000 -38.2456 0.0000
# 4 0.0000 0.0000 0.0000 3.5504 0.0000 10.4243
# 5 -16.5202 -3.6075 -38.2456 0.0000 32.1540 0.0000
# 6 0.0000 0.0000 0.0000 10.4243 0.0000 8.3213
#
#
#
# Elastic Compliance Matrix: (Units=1/GPa)
#
#
# Indices 1 2 3 4 5 6 
#
# 1 0.010250 0.000106 -0.005211 0.000000 -0.000919 0.000000
# 2 0.000106 0.018751 0.003335 0.000000 0.006125 0.000000
# 3 -0.005211 0.003335 0.026648 0.000000 0.029393 0.000000
# 4 0.000000 0.000000 0.000000 -0.105171 0.000000 0.131750
# 5 -0.000919 0.006125 0.029393 0.000000 0.066277 0.000000
# 6 0.000000 0.000000 0.000000 0.131750 0.000000 -0.044872
#
#
# Mechanical properties :
#
#
# Convention : Reuss Voigt Hill
#
# Bulk Modulus (GPa) = 19.19006 36.81587 28.00297
# Shear Modulus (GPa) = -693.70660 23.81713 -334.94474
#
# Velocity S-wave (km/s) = -17.60266 3.26163 -12.23142
# Velocity P-wave (km/s) = 20.11384 5.53432 13.67366
#
# Compressibility (1/GPa) = 0.05211030
#
# Stress axis : x y z
#
# Youngs Moduli (GPa) = 97.55717 53.33090 37.52634
#
# Poissons Ratio (x) = -0.00564 0.19554
# Poissons Ratio (y) = -0.01031 -0.12517
# Poissons Ratio (z) = 0.50833 -0.17788
#
# Static dielectric constant tensor:
#      x y z
#    x 1.841030 0.000000 -0.032660 
#    y 0.000000 1.833780 0.000000 
#    z -0.032660 0.000000 1.810140 
# 
# From -- ./inp_files/230929.got.cif
#   From: 2010.05.17/outbox.cif.g08.bks.cpg/sg12_116_cif.got.tgz:230929.got - 2010.06.03 13:09:07.
