data_PCOD9196333
_publ_section_title
;
Structure prediction by ZEFSAII (Michael W. Deem and Ramdas Pophale) SiO2 
 PCOD9196333
Probable space group: C 2/M
;
_chemical_formula_sum "Si O2"
_cell_formula_units_Z 56
_cell_length_a 21.455964
_cell_length_b 8.781442
_cell_length_c 18.488454
_cell_angle_alpha 90.000000
_cell_angle_beta 57.416389
_cell_angle_gamma 90.000000
_cell_volume 2935.210535
_symmetry_space_group_name_H-M "C 2/M"
_symmetry_group_IT_number 12
_symmetry_cell_setting 'monoclinic'
loop_
_space_group_symop_operation_xyz
x,y,z
-x,y,-z
-x,-y,-z
x,-y,z
1/2+x,1/2+y,z
1/2-x,1/2+y,-z
1/2-x,1/2-y,-z
1/2+x,1/2-y,z
loop_
_atom_site_type_symbol
_atom_site_label
_atom_site_fract_x
_atom_site_fract_y
_atom_site_fract_z
Si Si1 0.420685 0.180419 0.020669
Si Si2 0.756850 0.679435 0.388218
Si Si3 0.129604 0.320903 0.556084
Si Si4 0.483374 0.319209 0.592986
Si Si5 0.139742 0.321550 0.228489
Si Si6 0.166811 0.818664 0.059214
Si Si7 0.780434 0.323050 0.205586
O O1 0.361136 0.195491 0.121978
O O2 0.427627 0.000000 0.998755
O O3 0.500000 0.235094 0.000000
O O4 0.384890 0.262649 0.974076
O O5 0.738037 0.500000 0.409878
O O6 0.824958 0.712693 0.399145
O O7 0.686885 0.777344 0.456787
O O8 0.777736 0.703733 0.292570
O O9 0.111779 0.500000 0.565193
O O10 0.056280 0.223430 0.592520
O O11 0.500000 0.268334 0.500000
O O12 0.470636 0.500000 0.599166
O O13 0.414533 0.241083 0.675492
O O14 0.127632 0.500000 0.226077
O O15 0.132042 0.237171 0.156655
O O16 0.222749 0.285777 0.202460
O O17 0.173403 0.000000 0.054565
O O18 0.250000 0.750000 0.000000
O O19 0.757552 0.500000 0.206612
#
# Coordination Sequence:
#
# PCOD9196333 Si02
#       7
#     8   8   8   8   8   8   8
#     4  10  22  40  64  94 128 167 208 258 321 382
#     4   9  19  35  56  82 115 159 201 243 303 370
#     4  10  20  35  56  84 117 155 200 251 301 360
#     4  11  24  41  60  85 122 163 202 252 311 371
#     4  12  25  40  63  93 122 160 209 261 313 373
#     4  12  24  42  67  94 127 167 212 264 319 379
#     4  10  20  37  60  85 118 157 201 250 304 374
#
# _framework density 19.078699
#
# number of rings (size 3 to 8) (size 9 to 14) (size 15 to 20)
#    0.000    1.429    1.429    4.286    0.000    7.143 
#    0.000    2.857    0.000    0.000    0.000    0.000 
#    0.000    0.000    0.000    0.000    0.000    0.000 
#
# Total GULP energy -156503.147665 kJ/mol
# GULP energy per Si atom -5589.398131 kJ/mol
# Density = 1.903528 g / cm^3
# Si number density = 19.078699 Si / 1000 Ang^3
#
#
#
# Elastic Constant Matrix: (Units=GPa)
#
#
# Indices 1 2 3 4 5 6 
#
# 1 94.1568 40.7103 35.4723 0.0000 -4.6753 0.0000
# 2 40.7103 82.2307 41.5354 0.0002 2.5021 -0.0001
# 3 35.4723 41.5354 89.5413 0.0001 10.2265 0.0000
# 4 0.0000 0.0002 0.0001 20.2335 0.0000 0.6480
# 5 -4.6753 2.5021 10.2265 0.0000 24.8835 0.0000
# 6 0.0000 -0.0001 0.0000 0.6480 0.0000 29.9108
#
#
#
# Elastic Compliance Matrix: (Units=1/GPa)
#
#
# Indices 1 2 3 4 5 6 
#
# 1 0.014675 -0.005479 -0.003829 0.000000 0.004882 0.000000
# 2 -0.005479 0.017982 -0.006134 0.000000 -0.000317 0.000000
# 3 -0.003829 -0.006134 0.016308 0.000000 -0.006805 0.000000
# 4 0.000000 0.000000 0.000000 0.049457 0.000000 -0.001072
# 5 0.004882 -0.000317 -0.006805 0.000000 0.043933 0.000000
# 6 0.000000 0.000000 0.000000 -0.001072 0.000000 0.033456
#
#
# Mechanical properties :
#
#
# Convention : Reuss Voigt Hill
#
# Bulk Modulus (GPa) = 55.31548 55.70720 55.51134
# Shear Modulus (GPa) = 23.50481 24.88629 24.19555
#
# Velocity S-wave (km/s) = 3.51378 3.61557 3.56504
# Velocity P-wave (km/s) = 6.74674 6.83314 6.79008
#
# Compressibility (1/GPa) = 0.01807812
#
# Stress axis : x y z
#
# Youngs Moduli (GPa) = 68.14423 55.61198 61.32068
#
# Poissons Ratio (x) = 0.30472 0.23482
# Poissons Ratio (y) = 0.37339 0.37616
# Poissons Ratio (z) = 0.26095 0.34114
#
# Static dielectric constant tensor:
#      x y z
#    x 1.646460 0.000000 0.006970 
#    y 0.000000 1.656550 0.000000 
#    z 0.006970 0.000000 1.648500 
# 
# From -- ./inp_files/281042.got.cif
#   From: 2010.05.17/outbox.cif.g08.bks.cpg/sg12_141_cif.got.tgz:281042.got - 2010.06.03 13:09:07.
