data_PCOD9196197
_publ_section_title
;
Structure prediction by ZEFSAII (Michael W. Deem and Ramdas Pophale) SiO2 
 PCOD9196197
Probable space group: C 2/M
;
_chemical_formula_sum "Si O2"
_cell_formula_units_Z 64
_cell_length_a 15.122978
_cell_length_b 8.449473
_cell_length_c 27.826384
_cell_angle_alpha 90.000000
_cell_angle_beta 104.709936
_cell_angle_gamma 90.000000
_cell_volume 3439.146380
_symmetry_space_group_name_H-M "C 2/M"
_symmetry_group_IT_number 12
_symmetry_cell_setting 'monoclinic'
loop_
_space_group_symop_operation_xyz
x,y,z
-x,y,-z
-x,-y,-z
x,-y,z
1/2+x,1/2+y,z
1/2-x,1/2+y,-z
1/2-x,1/2-y,-z
1/2+x,1/2-y,z
loop_
_atom_site_type_symbol
_atom_site_label
_atom_site_fract_x
_atom_site_fract_y
_atom_site_fract_z
Si Si1 0.027200 0.307385 0.056704
Si Si2 0.287750 0.190272 0.865472
Si Si3 0.851293 0.686381 0.392101
Si Si4 0.835806 0.192171 0.677727
Si Si5 0.584971 0.190148 0.865207
Si Si6 0.651099 0.688600 0.501370
Si Si7 0.901853 0.809248 0.791172
Si Si8 0.536011 0.309132 0.394056
O O1 0.026670 0.500000 0.056283
O O2 0.130045 0.260280 0.086674
O O3 0.953685 0.259230 0.087423
O O4 0.000000 0.251569 0.000000
O O5 0.186328 0.249121 0.865640
O O6 0.327313 0.251100 0.819935
O O7 0.285394 0.000000 0.863998
O O8 0.838287 0.500000 0.397595
O O9 0.763660 0.750402 0.351878
O O10 0.865715 0.759538 0.446690
O O11 0.940449 0.724920 0.374525
O O12 0.872249 0.246721 0.734102
O O13 0.899950 0.230021 0.641685
O O14 0.831904 0.000000 0.680343
O O15 0.502820 0.247377 0.819079
O O16 0.587641 0.000000 0.864615
O O17 0.650209 0.500000 0.499436
O O18 0.750000 0.750000 0.500000
O O19 0.580690 0.743831 0.450751
O O20 0.904117 0.000000 0.792677
O O21 0.524674 0.500000 0.394382
#
# Coordination Sequence:
#
# PCOD9196197 Si02
#       8
#     8   8   8   8   8   8   8   8
#     4   8  16  32  53  79 113 150 186 228 275 324
#     4  10  20  35  56  82 113 148 188 230 275 328
#     4  11  22  38  57  82 111 139 176 219 263 322
#     4   9  20  39  58  78 109 143 174 221 279 325
#     4  10  20  35  56  82 113 147 187 231 276 327
#     4  11  21  36  59  81 108 143 177 216 265 320
#     4  10  20  37  60  81 107 143 185 232 282 331
#     4  10  21  39  57  78 109 142 174 214 266 322
#
# _framework density 18.609269999999999
#
# number of rings (size 3 to 8) (size 9 to 14) (size 15 to 20)
#    0.000    2.125    1.250    3.000    0.000    4.000 
#    0.000    6.250    0.000   12.750    0.000    0.000 
#    0.000    0.000    0.000    0.000    0.000    0.000 
#
# Total GULP energy -178513.665379 kJ/mol
# GULP energy per Si atom -5578.552043 kJ/mol
# Density = 1.856691 g / cm^3
# Si number density = 18.609270 Si / 1000 Ang^3
#
#
#
# Elastic Constant Matrix: (Units=GPa)
#
#
# Indices 1 2 3 4 5 6 
#
# 1 147.5945 24.2606 70.7484 0.0000 12.0715 0.0000
# 2 24.2606 36.8543 21.4889 0.0000 3.7183 0.0000
# 3 70.7484 21.4889 169.0490 0.0000 4.5610 0.0000
# 4 0.0000 0.0000 0.0000 21.5880 0.0000 -2.1225
# 5 12.0715 3.7183 4.5610 0.0000 25.1675 0.0000
# 6 0.0000 0.0000 0.0000 -2.1225 0.0000 29.3577
#
#
#
# Elastic Compliance Matrix: (Units=1/GPa)
#
#
# Indices 1 2 3 4 5 6 
#
# 1 0.009254 -0.003840 -0.003297 0.000000 -0.003274 0.000000
# 2 -0.003840 0.031241 -0.002301 0.000000 -0.002357 0.000000
# 3 -0.003297 -0.002301 0.007573 0.000000 0.000549 0.000000
# 4 0.000000 0.000000 0.000000 0.046654 0.000000 0.003373
# 5 -0.003274 -0.002357 0.000549 0.000000 0.041553 0.000000
# 6 0.000000 0.000000 0.000000 0.003373 0.000000 0.034306
#
#
# Mechanical properties :
#
#
# Convention : Reuss Voigt Hill
#
# Bulk Modulus (GPa) = 34.25352 65.16595 49.70974
# Shear Modulus (GPa) = 25.10213 31.02263 28.06238
#
# Velocity S-wave (km/s) = 3.67673 4.08738 3.88748
# Velocity P-wave (km/s) = 6.03913 7.57428 6.84984
#
# Compressibility (1/GPa) = 0.02919408
#
# Stress axis : x y z
#
# Youngs Moduli (GPa) = 108.05600 32.00955 132.05190
#
# Poissons Ratio (x) = 0.12290 0.43533
# Poissons Ratio (y) = 0.41488 0.30382
# Poissons Ratio (z) = 0.35622 0.07365
#
# Static dielectric constant tensor:
#      x y z
#    x 1.630140 0.000000 0.004700 
#    y 0.000000 1.647800 0.000000 
#    z 0.004700 0.000000 1.650080 
# 
# From -- ./inp_files/359910.got.cif
#   From: 2010.05.17/outbox.cif.g08.bks.cpg/sg12_180_cif.got.tgz:359910.got - 2010.06.03 13:09:07.
