data_PCOD9196410
_publ_section_title
;
Structure prediction by ZEFSAII (Michael W. Deem and Ramdas Pophale) SiO2 
 PCOD9196410
Probable space group: C 2/M
;
_chemical_formula_sum "Si O2"
_cell_formula_units_Z 48
_cell_length_a 18.408835
_cell_length_b 15.256868
_cell_length_c 15.984299
_cell_angle_alpha 90.000000
_cell_angle_beta 155.128562
_cell_angle_gamma 90.000000
_cell_volume 1888.154907
_symmetry_space_group_name_H-M "C 2/M"
_symmetry_group_IT_number 12
_symmetry_cell_setting 'monoclinic'
loop_
_space_group_symop_operation_xyz
x,y,z
-x,y,-z
-x,-y,-z
x,-y,z
1/2+x,1/2+y,z
1/2-x,1/2+y,-z
1/2-x,1/2-y,-z
1/2+x,1/2-y,z
loop_
_atom_site_type_symbol
_atom_site_label
_atom_site_fract_x
_atom_site_fract_y
_atom_site_fract_z
Si Si1 0.824002 0.400657 0.258600
Si Si2 0.906176 0.098836 0.657100
Si Si3 0.162860 0.177962 0.245722
Si Si4 0.541363 0.257739 0.682920
Si Si5 0.095422 0.634718 0.211372
Si Si6 0.268785 0.406231 0.215568
O O1 0.208130 0.500000 0.802180
O O2 0.682403 0.364633 0.175546
O O3 0.848196 0.331053 0.209430
O O4 0.000000 0.401572 0.500000
O O5 0.882139 0.108567 0.730527
O O6 0.719025 0.116603 0.418415
O O7 0.021650 0.178839 0.742122
O O8 0.961908 0.000000 0.693921
O O9 0.350624 0.221842 0.462977
O O10 0.051395 0.264357 0.145375
O O11 0.617248 0.324656 0.693473
O O12 0.200695 0.602076 0.239660
O O13 0.907882 0.593505 0.022076
O O14 0.356003 0.500000 0.294509
#
# Coordination Sequence:
#
# PCOD9196410 Si02
#       6
#     8   8   8   8   8   8
#     4   9  17  32  56  82 110 146 189 237 284 333
#     4  11  22  37  59  88 120 153 189 236 289 348
#     4  10  20  37  56  84 117 153 190 236 288 344
#     4  10  20  35  56  87 112 144 196 243 285 328
#     4  10  20  36  55  83 117 155 193 230 289 340
#     4  11  21  35  56  84 120 155 190 235 286 345
#
# _framework density 25.421643
#
# number of rings (size 3 to 8) (size 9 to 14) (size 15 to 20)
#    0.000    1.833    1.667    5.000    2.333    0.667 
#    0.000    5.833    0.000    3.000    0.000    0.000 
#    0.000    0.000    0.000    0.000    0.000    0.000 
#
# Total GULP energy -134301.689882 kJ/mol
# GULP energy per Si atom -5595.903745 kJ/mol
# Density = 2.536378 g / cm^3
# Si number density = 25.421643 Si / 1000 Ang^3
#
#
#
# Elastic Constant Matrix: (Units=GPa)
#
#
# Indices 1 2 3 4 5 6 
#
# 1 86.2435 54.3623 41.5101 -0.0009 4.3143 -0.0005
# 2 54.3623 244.3626 20.8450 -0.0048 11.1399 -0.0039
# 3 41.5101 20.8450 74.5075 -0.0065 -5.1482 -0.0049
# 4 -0.0009 -0.0048 -0.0065 -3.6772 -0.0024 -18.7471
# 5 4.3143 11.1399 -5.1482 -0.0024 34.1721 -0.0016
# 6 -0.0005 -0.0039 -0.0049 -18.7471 -0.0016 6.3476
#
#
#
# Elastic Compliance Matrix: (Units=1/GPa)
#
#
# Indices 1 2 3 4 5 6 
#
# 1 0.018274 -0.003132 -0.009492 0.000004 -0.002716 0.000003
# 2 -0.003132 0.004813 0.000320 -0.000001 -0.001125 -0.000001
# 3 -0.009492 0.000320 0.018892 -0.000007 0.003940 -0.000005
# 4 0.000004 -0.000001 -0.000007 -0.016936 -0.000005 -0.050020
# 5 -0.002716 -0.001125 0.003940 -0.000005 0.030567 -0.000004
# 6 0.000003 -0.000001 -0.000005 -0.050020 -0.000004 0.009811
#
#
# Mechanical properties :
#
#
# Convention : Reuss Voigt Hill
#
# Bulk Modulus (GPa) = 57.56365 70.94984 64.25674
# Shear Modulus (GPa) = 52.18159 26.59491 39.38825
#
# Velocity S-wave (km/s) = 4.53553 3.23794 3.94051
# Velocity P-wave (km/s) = 7.07960 6.47679 6.78489
#
# Compressibility (1/GPa) = 0.01737207
#
# Stress axis : x y z
#
# Youngs Moduli (GPa) = 54.72326 207.77315 52.93111
#
# Poissons Ratio (x) = 0.65069 0.50244
# Poissons Ratio (y) = 0.17138 -0.01696
# Poissons Ratio (z) = 0.51945 -0.06659
#
# Static dielectric constant tensor:
#      x y z
#    x 1.972530 0.000000 0.011930 
#    y 0.000000 1.988400 0.000000 
#    z 0.011930 0.000000 2.080700 
# 
# From -- ./inp_files/278247.got.cif
#   From: 2010.05.17/outbox.cif.g08.bks.cpg/sg12_140_cif.got.tgz:278247.got - 2010.06.03 13:09:07.
