data_PCOD9196602
_publ_section_title
;
Structure prediction by ZEFSAII (Michael W. Deem and Ramdas Pophale) SiO2 
 PCOD9196602
Probable space group: C 2/M
;
_chemical_formula_sum "Si O2"
_cell_formula_units_Z 64
_cell_length_a 19.015717
_cell_length_b 13.762809
_cell_length_c 12.974306
_cell_angle_alpha 90.000000
_cell_angle_beta 90.673862
_cell_angle_gamma 90.000000
_cell_volume 3395.266649
_symmetry_space_group_name_H-M "C 2/M"
_symmetry_group_IT_number 12
_symmetry_cell_setting 'monoclinic'
loop_
_space_group_symop_operation_xyz
x,y,z
-x,y,-z
-x,-y,-z
x,-y,z
1/2+x,1/2+y,z
1/2-x,1/2+y,-z
1/2-x,1/2-y,-z
1/2+x,1/2-y,z
loop_
_atom_site_type_symbol
_atom_site_label
_atom_site_fract_x
_atom_site_fract_y
_atom_site_fract_z
Si Si1 0.186701 0.750207 0.147862
Si Si2 0.103054 0.609708 0.828787
Si Si3 0.429201 0.256724 0.554829
Si Si4 0.021469 0.890420 0.880459
Si Si5 0.154686 0.611923 0.593703
Si Si6 0.687329 0.385826 0.348169
Si Si7 0.833213 0.197922 0.080954
Si Si8 0.457982 0.199192 0.782219
O O1 0.191920 0.823953 0.243247
O O2 0.258383 0.690164 0.135219
O O3 0.117812 0.685674 0.167486
O O4 0.176804 0.809698 0.041657
O O5 0.118649 0.500000 0.861844
O O6 0.131119 0.622977 0.712439
O O7 0.139256 0.692301 0.897540
O O8 0.019625 0.629963 0.823027
O O9 0.500000 0.290524 0.500000
O O10 0.387044 0.185763 0.478182
O O11 0.377520 0.342650 0.589045
O O12 0.450152 0.198607 0.659132
O O13 0.105002 0.870785 0.877611
O O14 0.982654 0.808246 0.814295
O O15 0.003886 0.000000 0.848792
O O16 0.000000 0.877556 0.000000
O O17 0.139995 0.500000 0.564131
O O18 0.238498 0.627935 0.592131
O O19 0.679509 0.500000 0.326566
#
# Coordination Sequence:
#
# PCOD9196602 Si02
#       8
#     8   8   8   8   8   8   8   8
#     4  10  20  35  57  83 118 151 183 238 285 334
#     4  10  20  36  60  84 114 152 192 236 283 342
#     4  11  22  37  59  88 118 153 188 246 298 337
#     4  10  20  37  60  84 114 154 193 232 284 348
#     4  10  20  38  61  87 111 148 201 239 283 347
#     4  10  22  39  61  87 116 153 196 236 285 352
#     4  10  20  36  58  87 116 148 194 236 283 340
#     4  10  21  37  56  85 119 148 192 232 290 343
#
# _framework density 18.849771
#
# number of rings (size 3 to 8) (size 9 to 14) (size 15 to 20)
#    0.000    1.875    3.750    0.375    0.000    3.500 
#    0.000    3.750    0.000    1.500    0.000    0.000 
#    0.000    0.000    0.000    0.000    0.000    0.000 
#
# Total GULP energy -178667.491693 kJ/mol
# GULP energy per Si atom -5583.359115 kJ/mol
# Density = 1.880687 g / cm^3
# Si number density = 18.849771 Si / 1000 Ang^3
#
#
#
# Elastic Constant Matrix: (Units=GPa)
#
#
# Indices 1 2 3 4 5 6 
#
# 1 136.0130 5.1252 27.7542 0.0000 -25.9845 0.0000
# 2 5.1252 42.5063 24.1270 0.0000 0.0317 0.0000
# 3 27.7542 24.1270 61.3184 0.0000 -9.9309 0.0000
# 4 0.0000 0.0000 0.0000 6.1465 0.0000 -3.0652
# 5 -25.9845 0.0317 -9.9309 0.0000 31.6767 0.0000
# 6 0.0000 0.0000 0.0000 -3.0652 0.0000 11.2343
#
#
#
# Elastic Compliance Matrix: (Units=1/GPa)
#
#
# Indices 1 2 3 4 5 6 
#
# 1 0.009275 0.000850 -0.003477 0.000000 0.006517 0.000000
# 2 0.000850 0.030850 -0.013080 0.000000 -0.003434 0.000000
# 3 -0.003477 -0.013080 0.023776 0.000000 0.004615 0.000000
# 4 0.000000 0.000000 0.000000 0.188318 0.000000 0.051381
# 5 0.006517 -0.003434 0.004615 0.000000 0.038365 0.000000
# 6 0.000000 0.000000 0.000000 0.051381 0.000000 0.103031
#
#
# Mechanical properties :
#
#
# Convention : Reuss Voigt Hill
#
# Bulk Modulus (GPa) = 30.78036 39.31671 35.04854
# Shear Modulus (GPa) = 11.47165 22.00026 16.73595
#
# Velocity S-wave (km/s) = 2.46962 3.42004 2.98293
# Velocity P-wave (km/s) = 4.94942 6.04142 5.52248
#
# Compressibility (1/GPa) = 0.03248825
#
# Stress axis : x y z
#
# Youngs Moduli (GPa) = 107.81909 32.41476 42.05918
#
# Poissons Ratio (x) = -0.02757 0.14625
# Poissons Ratio (y) = -0.09170 0.55012
# Poissons Ratio (z) = 0.37490 0.42398
#
# Static dielectric constant tensor:
#      x y z
#    x 1.684210 0.000000 -0.005300 
#    y 0.000000 1.613720 0.000000 
#    z -0.005300 0.000000 1.637240 
# 
# From -- ./inp_files/156659.got.cif
#   From: 2010.05.17/outbox.cif.g08.bks.cpg/sg12_79_cif.got.tgz:156659.got - 2010.06.03 13:09:07.
