data_PCOD9196343
_publ_section_title
;
Structure prediction by ZEFSAII (Michael W. Deem and Ramdas Pophale) SiO2 
 PCOD9196343
Probable space group: C 2/M
;
_chemical_formula_sum "Si O2"
_cell_formula_units_Z 64
_cell_length_a 26.917045
_cell_length_b 8.571258
_cell_length_c 14.889298
_cell_angle_alpha 90.000000
_cell_angle_beta 65.000146
_cell_angle_gamma 90.000000
_cell_volume 3113.310225
_symmetry_space_group_name_H-M "C 2/M"
_symmetry_group_IT_number 12
_symmetry_cell_setting 'monoclinic'
loop_
_space_group_symop_operation_xyz
x,y,z
-x,y,-z
-x,-y,-z
x,-y,z
1/2+x,1/2+y,z
1/2-x,1/2+y,-z
1/2-x,1/2-y,-z
1/2+x,1/2-y,z
loop_
_atom_site_type_symbol
_atom_site_label
_atom_site_fract_x
_atom_site_fract_y
_atom_site_fract_z
Si Si1 0.558534 0.319715 0.431489
Si Si2 0.639605 0.187405 0.221105
Si Si3 0.465942 0.816696 0.185354
Si Si4 0.801081 0.812619 0.514292
Si Si5 0.362772 0.313191 0.152853
Si Si6 0.263099 0.188648 0.731530
Si Si7 0.914628 0.178721 0.382827
Si Si8 0.090624 0.310218 0.067511
O O1 0.500000 0.245527 0.500000
O O2 0.549429 0.500000 0.408400
O O3 0.595364 0.238344 0.329563
O O4 0.584374 0.323614 0.510396
O O5 0.699580 0.238849 0.211577
O O6 0.619093 0.241191 0.139050
O O7 0.640580 0.000000 0.217249
O O8 0.413104 0.743158 0.177028
O O9 0.458037 0.781329 0.297151
O O10 0.526543 0.760157 0.111917
O O11 0.464156 0.000000 0.168765
O O12 0.750000 0.750000 0.500000
O O13 0.794882 0.747493 0.619211
O O14 0.853351 0.762015 0.415250
O O15 0.802815 0.000000 0.516660
O O16 0.361941 0.500000 0.157873
O O17 0.300419 0.258285 0.221689
O O18 0.377753 0.256092 0.041788
O O19 0.262554 0.000000 0.730292
O O20 0.921862 0.000000 0.346403
O O21 0.091117 0.500000 0.064487
#
# Coordination Sequence:
#
# PCOD9196343 Si02
#       8
#     8   8   8   8   8   8   8   8
#     4  10  20  35  56  84 119 155 192 237 287 343
#     4  10  21  39  62  86 119 158 197 245 296 350
#     4  11  23  39  61  89 120 154 197 246 298 359
#     4  11  22  36  56  83 117 155 196 239 287 345
#     4  11  24  41  62  88 117 153 199 249 303 358
#     4  10  22  40  60  86 120 156 198 247 295 350
#     4  10  21  36  54  83 119 152 188 232 283 341
#     4  10  23  42  62  88 119 152 196 250 303 356
#
# _framework density 20.556899000000001
#
# number of rings (size 3 to 8) (size 9 to 14) (size 15 to 20)
#    0.000    1.625    1.250    3.000    0.000    9.250 
#    0.000    0.000    0.000    0.000    0.000    0.000 
#    0.000    0.000    0.000    0.000    0.000    0.000 
#
# Total GULP energy -178588.802140 kJ/mol
# GULP energy per Si atom -5580.900067 kJ/mol
# Density = 2.051011 g / cm^3
# Si number density = 20.556899 Si / 1000 Ang^3
#
#
#
# Elastic Constant Matrix: (Units=GPa)
#
#
# Indices 1 2 3 4 5 6 
#
# 1 100.5188 20.6556 24.0153 0.0000 -5.8778 0.0000
# 2 20.6556 9.8717 7.9324 0.0000 -1.8509 0.0000
# 3 24.0153 7.9324 83.0660 0.0000 0.3279 0.0000
# 4 0.0000 0.0000 0.0000 31.7129 0.0000 0.8938
# 5 -5.8778 -1.8509 0.3279 0.0000 37.4984 0.0000
# 6 0.0000 0.0000 0.0000 0.8938 0.0000 21.8674
#
#
#
# Elastic Compliance Matrix: (Units=1/GPa)
#
#
# Indices 1 2 3 4 5 6 
#
# 1 0.017714 -0.035473 -0.001738 0.000000 0.001041 0.000000
# 2 -0.035473 0.181904 -0.007129 0.000000 0.003481 0.000000
# 3 -0.001738 -0.007129 0.013225 0.000000 -0.000740 0.000000
# 4 0.000000 0.000000 0.000000 0.031569 0.000000 -0.001290
# 5 0.001041 0.003481 -0.000740 0.000000 0.027009 0.000000
# 6 0.000000 0.000000 0.000000 -0.001290 0.000000 0.045783
#
#
# Mechanical properties :
#
#
# Convention : Reuss Voigt Hill
#
# Bulk Modulus (GPa) = 8.05393 33.18479 20.61936
# Shear Modulus (GPa) = 11.17892 27.60595 19.39243
#
# Velocity S-wave (km/s) = 2.33449 3.66854 3.07474
# Velocity P-wave (km/s) = 3.34557 5.84142 4.75999
#
# Compressibility (1/GPa) = 0.12416305
#
# Stress axis : x y z
#
# Youngs Moduli (GPa) = 56.45340 5.49741 75.61560
#
# Poissons Ratio (x) = 0.19501 0.13141
# Poissons Ratio (y) = 2.00255 0.53907
# Poissons Ratio (z) = 0.09811 0.03919
#
# Static dielectric constant tensor:
#      x y z
#    x 1.889240 0.000000 0.005820 
#    y 0.000000 1.704830 0.000000 
#    z 0.005820 0.000000 1.730230 
# 
# From -- ./inp_files/243869.got.cif
#   From: 2010.05.17/outbox.cif.g08.bks.cpg/sg12_122_cif.got.tgz:243869.got - 2010.06.03 13:09:07.
