data_PCOD9196283
_publ_section_title
;
Structure prediction by ZEFSAII (Michael W. Deem and Ramdas Pophale) SiO2 
 PCOD9196283
Probable space group: C 2/M
;
_chemical_formula_sum "Si O2"
_cell_formula_units_Z 56
_cell_length_a 28.533600
_cell_length_b 8.114386
_cell_length_c 15.461724
_cell_angle_alpha 90.000000
_cell_angle_beta 41.262552
_cell_angle_gamma 90.000000
_cell_volume 2360.977606
_symmetry_space_group_name_H-M "C 2/M"
_symmetry_group_IT_number 12
_symmetry_cell_setting 'monoclinic'
loop_
_space_group_symop_operation_xyz
x,y,z
-x,y,-z
-x,-y,-z
x,-y,z
1/2+x,1/2+y,z
1/2-x,1/2+y,-z
1/2-x,1/2-y,-z
1/2+x,1/2-y,z
loop_
_atom_site_type_symbol
_atom_site_label
_atom_site_fract_x
_atom_site_fract_y
_atom_site_fract_z
Si Si1 0.741968 0.799821 0.734929
Si Si2 0.748639 0.820872 0.907322
Si Si3 0.894693 0.687878 0.698372
Si Si4 0.464317 0.312628 0.775723
Si Si5 0.821446 0.806368 0.351591
Si Si6 0.095421 0.309342 0.508280
Si Si7 0.019530 0.797679 0.874595
O O1 0.719265 0.736981 0.861886
O O2 0.692256 0.732645 0.729626
O O3 0.821894 0.737630 0.604219
O O4 0.742407 0.000000 0.735104
O O5 0.832589 0.820162 0.772644
O O6 0.715849 0.000000 0.957639
O O7 0.750000 0.750000 0.000000
O O8 0.865764 0.500000 0.737503
O O9 0.928222 0.716705 0.745992
O O10 0.932347 0.700858 0.552705
O O11 0.437055 0.500000 0.812283
O O12 0.546989 0.307305 0.632726
O O13 0.466011 0.246302 0.871480
O O14 0.750000 0.750000 0.500000
O O15 0.900416 0.738228 0.260081
O O16 0.825239 0.000000 0.361861
O O17 0.087120 0.500000 0.546805
O O18 0.019253 0.000000 0.873293
O O19 0.000000 0.748751 0.000000
#
# Coordination Sequence:
#
# PCOD9196283 Si02
#       7
#     8   8   8   8   8   8   8
#     4  10  21  37  57  84 117 149 188 242 297 350
#     4  10  21  37  57  81 112 149 188 234 287 348
#     4  10  21  36  54  80 114 149 187 230 281 347
#     4  11  21  34  57  84 111 148 190 237 292 346
#     4  11  22  38  64  92 119 155 200 252 305 360
#     4  10  20  35  56  83 116 152 188 230 285 351
#     4   9  21  41  60  82 114 153 199 246 292 348
#
# _framework density 23.718988
#
# number of rings (size 3 to 8) (size 9 to 14) (size 15 to 20)
#    0.000    1.857    0.000    3.857    0.000    7.429 
#    0.000    3.571    0.000    6.000    0.000    0.000 
#    0.000    0.000    0.000    0.000    0.000    0.000 
#
# Total GULP energy -156175.478781 kJ/mol
# GULP energy per Si atom -5577.695671 kJ/mol
# Density = 2.366500 g / cm^3
# Si number density = 23.718988 Si / 1000 Ang^3
#
#
#
# Elastic Constant Matrix: (Units=GPa)
#
#
# Indices 1 2 3 4 5 6 
#
# 1 111.4283 -11.6206 18.9908 0.0000 20.0657 -0.0001
# 2 -11.6206 44.5016 6.4080 -0.0010 -0.9740 0.0005
# 3 18.9908 6.4080 70.8452 -0.0002 27.4904 0.0001
# 4 0.0000 -0.0010 -0.0002 19.9978 0.0001 4.6382
# 5 20.0657 -0.9740 27.4904 0.0001 41.5025 0.0000
# 6 -0.0001 0.0005 0.0001 4.6382 0.0000 25.7152
#
#
#
# Elastic Compliance Matrix: (Units=1/GPa)
#
#
# Indices 1 2 3 4 5 6 
#
# 1 0.010220 0.002797 -0.001481 0.000000 -0.003894 0.000000
# 2 0.002797 0.023736 -0.003483 0.000001 0.001512 -0.000001
# 3 -0.001481 -0.003483 0.019626 0.000000 -0.012365 0.000000
# 4 0.000000 0.000001 0.000000 0.052189 0.000000 -0.009413
# 5 -0.003894 0.001512 -0.012365 0.000000 0.034204 0.000000
# 6 0.000000 -0.000001 0.000000 -0.009413 0.000000 0.040585
#
#
# Mechanical properties :
#
#
# Convention : Reuss Voigt Hill
#
# Bulk Modulus (GPa) = 20.30655 28.25905 24.28280
# Shear Modulus (GPa) = 24.83726 31.64290 28.24008
#
# Velocity S-wave (km/s) = 3.23948 3.65646 3.45427
# Velocity P-wave (km/s) = 4.75102 5.45585 5.11558
#
# Compressibility (1/GPa) = 0.04924520
#
# Stress axis : x y z
#
# Youngs Moduli (GPa) = 97.84953 42.12991 50.95399
#
# Poissons Ratio (x) = -0.11783 0.07548
# Poissons Ratio (y) = -0.27366 0.17750
# Poissons Ratio (z) = 0.14495 0.14676
#
# Static dielectric constant tensor:
#      x y z
#    x 1.940300 0.000000 0.014930 
#    y 0.000000 1.813760 0.000000 
#    z 0.014930 0.000000 2.029140 
# 
# From -- ./inp_files/248876.got.cif
#   From: 2010.05.17/outbox.cif.g08.bks.cpg/sg12_125_cif.got.tgz:248876.got - 2010.06.03 13:09:07.
