data_PCOD9196547
_publ_section_title
;
Structure prediction by ZEFSAII (Michael W. Deem and Ramdas Pophale) SiO2 
 PCOD9196547
Probable space group: C 2/M
;
_chemical_formula_sum "Si O2"
_cell_formula_units_Z 48
_cell_length_a 28.979998
_cell_length_b 19.242508
_cell_length_c 7.767551
_cell_angle_alpha 90.000000
_cell_angle_beta 26.133305
_cell_angle_gamma 90.000000
_cell_volume 1907.882841
_symmetry_space_group_name_H-M "C 2/M"
_symmetry_group_IT_number 12
_symmetry_cell_setting 'monoclinic'
loop_
_space_group_symop_operation_xyz
x,y,z
-x,y,-z
-x,-y,-z
x,-y,z
1/2+x,1/2+y,z
1/2-x,1/2+y,-z
1/2-x,1/2-y,-z
1/2+x,1/2-y,z
loop_
_atom_site_type_symbol
_atom_site_label
_atom_site_fract_x
_atom_site_fract_y
_atom_site_fract_z
Si Si1 0.212763 0.420083 0.472612
Si Si2 0.343886 0.424403 0.516751
Si Si3 0.606548 0.924141 0.474638
Si Si4 0.065619 0.283842 0.454575
Si Si5 0.073185 0.873436 0.418087
Si Si6 0.748390 0.183356 0.628763
O O1 0.239458 0.500000 0.423261
O O2 0.127962 0.422263 0.606100
O O3 0.186825 0.376281 0.728708
O O4 0.312536 0.381233 0.053858
O O5 0.360461 0.500000 0.380913
O O6 0.417108 0.416833 0.438965
O O7 0.346430 0.360423 0.374055
O O8 0.223417 0.423749 0.994769
O O9 0.549202 0.853063 0.617789
O O10 0.560481 0.000000 0.580410
O O11 0.048530 0.204816 0.564917
O O12 0.000000 0.290679 0.500000
O O13 0.187521 0.287965 0.996487
O O14 0.000000 0.891756 0.500000
O O15 0.750000 0.250000 0.500000
#
# Coordination Sequence:
#
# PCOD9196547 Si02
#       6
#     8   8   8   8   8   8
#     4  10  20  35  57  83 111 143 186 233 272 331
#     4   9  19  34  55  82 111 145 188 230 270 332
#     4   8  17  33  55  80 106 144 189 227 275 332
#     4  10  21  36  56  82 112 143 186 232 274 333
#     4  10  20  35  57  84 112 150 191 228 274 329
#     4  11  21  35  58  83 109 147 184 226 281 326
#
# _framework density 25.158777000000001
#
# number of rings (size 3 to 8) (size 9 to 14) (size 15 to 20)
#    0.000    2.333    1.667    2.000    2.333    4.333 
#    0.000    1.667    0.000    4.000    0.000    0.000 
#    0.000    0.000    0.000    0.000    0.000    0.000 
#
# Total GULP energy -134000.145794 kJ/mol
# GULP energy per Si atom -5583.339408 kJ/mol
# Density = 2.510151 g / cm^3
# Si number density = 25.158777 Si / 1000 Ang^3
#
#
#
# Elastic Constant Matrix: (Units=GPa)
#
#
# Indices 1 2 3 4 5 6 
#
# 1 106.0773 79.5411 -7.9090 0.0000 -9.7955 0.0000
# 2 79.5411 198.7576 38.3804 0.0000 -5.6066 0.0000
# 3 -7.9090 38.3804 58.9463 0.0000 3.6576 0.0000
# 4 0.0000 0.0000 0.0000 18.3052 0.0000 3.5936
# 5 -9.7955 -5.6066 3.6576 0.0000 27.9995 0.0000
# 6 0.0000 0.0000 0.0000 3.5936 0.0000 46.4704
#
#
#
# Elastic Compliance Matrix: (Units=1/GPa)
#
#
# Indices 1 2 3 4 5 6 
#
# 1 0.015956 -0.007632 0.006915 0.000000 0.003151 0.000000
# 2 -0.007632 0.009482 -0.007209 0.000000 0.000170 0.000000
# 3 0.006915 -0.007209 0.022709 0.000000 -0.001991 0.000000
# 4 0.000000 0.000000 0.000000 0.055471 0.000000 -0.004290
# 5 0.003151 0.000170 -0.001991 0.000000 0.037111 0.000000
# 6 0.000000 0.000000 0.000000 -0.004290 0.000000 0.021851
#
#
# Mechanical properties :
#
#
# Convention : Reuss Voigt Hill
#
# Bulk Modulus (GPa) = 30.96330 64.86733 47.91531
# Shear Modulus (GPa) = 26.42723 35.47293 30.95008
#
# Velocity S-wave (km/s) = 3.24453 3.75902 3.51121
# Velocity P-wave (km/s) = 5.13516 6.68427 5.96026
#
# Compressibility (1/GPa) = 0.03229630
#
# Stress axis : x y z
#
# Youngs Moduli (GPa) = 62.67111 105.45998 44.03455
#
# Poissons Ratio (x) = 0.80486 -0.30448
# Poissons Ratio (y) = 0.47830 0.31743
# Poissons Ratio (z) = -0.43335 0.76021
#
# Static dielectric constant tensor:
#      x y z
#    x 1.955840 0.000000 -0.014560 
#    y 0.000000 1.998830 0.000000 
#    z -0.014560 0.000000 2.155110 
# 
# From -- ./inp_files/74484.got.cif
#   From: 2010.05.17/outbox.cif.g08.bks.cpg/sg12_38_cif.got.tgz:74484.got - 2010.06.03 13:09:07.
