data_PCOD9196689
_publ_section_title
;
Structure prediction by ZEFSAII (Michael W. Deem and Ramdas Pophale) SiO2 
 PCOD9196689
Probable space group: C 2/M
;
_chemical_formula_sum "Si O2"
_cell_formula_units_Z 40
_cell_length_a 7.834936
_cell_length_b 29.243938
_cell_length_c 13.416830
_cell_angle_alpha 90.000000
_cell_angle_beta 36.277972
_cell_angle_gamma 90.000000
_cell_volume 1818.968619
_symmetry_space_group_name_H-M "C 2/M"
_symmetry_group_IT_number 12
_symmetry_cell_setting 'monoclinic'
loop_
_space_group_symop_operation_xyz
x,y,z
-x,y,-z
-x,-y,-z
x,-y,z
1/2+x,1/2+y,z
1/2-x,1/2+y,-z
1/2-x,1/2-y,-z
1/2+x,1/2-y,z
loop_
_atom_site_type_symbol
_atom_site_label
_atom_site_fract_x
_atom_site_fract_y
_atom_site_fract_z
Si Si1 0.058338 0.228302 0.368646
Si Si2 0.184047 0.052159 0.685804
Si Si3 0.593258 0.708959 0.130937
Si Si4 0.269319 0.552647 0.688368
Si Si5 0.209218 0.611253 0.000094
O O1 0.268714 0.272054 0.280436
O O2 0.154060 0.203524 0.221470
O O3 0.000000 0.201273 0.500000
O O4 0.750000 0.250000 0.500000
O O5 0.500000 0.068351 0.500000
O O6 0.959000 0.050813 0.699737
O O7 0.223573 0.000000 0.703550
O O8 0.006166 0.083409 0.844988
O O9 0.750000 0.750000 0.000000
O O10 0.688485 0.662934 0.032100
O O11 0.500000 0.568935 0.500000
O O12 0.181985 0.500000 0.706922
O O13 0.995200 0.585362 0.825799
O O14 0.000000 0.610944 0.000000
#
# Coordination Sequence:
#
# PCOD9196689 Si02
#       5
#     8   8   8   8   8
#     4   9  20  38  59  80 106 147 196 240 288 344
#     4   9  18  34  56  82 112 145 183 231 286 345
#     4  11  21  38  58  81 114 151 193 241 290 340
#     4   9  18  36  60  84 113 149 190 237 291 351
#     4  10  20  35  57  85 113 150 194 237 287 351
#
# _framework density 21.990486000000001
#
# number of rings (size 3 to 8) (size 9 to 14) (size 15 to 20)
#    0.000    2.400    0.000    2.400    0.000    4.800 
#    0.000   24.000    0.000    4.800    0.000    0.000 
#    0.000    0.000    0.000    0.000    0.000    0.000 
#
# Total GULP energy -111431.753314 kJ/mol
# GULP energy per Si atom -5571.587666 kJ/mol
# Density = 2.194043 g / cm^3
# Si number density = 21.990486 Si / 1000 Ang^3
#
#
#
# Elastic Constant Matrix: (Units=GPa)
#
#
# Indices 1 2 3 4 5 6 
#
# 1 34.4835 9.3222 27.5065 0.0000 -8.1048 0.0000
# 2 9.3222 130.3212 123.2575 0.0000 -7.5260 0.0000
# 3 27.5065 123.2575 214.8518 0.0000 -14.7719 0.0000
# 4 0.0000 0.0000 0.0000-1294.4946 0.0000 -520.0265
# 5 -8.1048 -7.5260 -14.7719 0.0000 42.9292 0.0000
# 6 0.0000 0.0000 0.0000 -520.0265 0.0000 -187.3887
#
#
#
# Elastic Compliance Matrix: (Units=1/GPa)
#
#
# Indices 1 2 3 4 5 6 
#
# 1 0.034047 0.003610 -0.006088 0.000000 0.004966 0.000000
# 2 0.003610 0.017164 -0.010299 0.000000 0.000147 0.000000
# 3 -0.006088 -0.010299 0.011409 0.000000 0.000971 0.000000
# 4 0.000000 0.000000 0.000000 0.006728 0.000000 -0.018670
# 5 0.004966 0.000147 0.000971 0.000000 0.024591 0.000000
# 6 0.000000 0.000000 0.000000 -0.018670 0.000000 0.046475
#
#
# Mechanical properties :
#
#
# Convention : Reuss Voigt Hill
#
# Bulk Modulus (GPa) = 26.97955 77.75876 52.36915
# Shear Modulus (GPa) = 28.03877 -273.15281 -122.55702
#
# Velocity S-wave (km/s) = 3.57465 -11.15723 -7.47347
# Velocity P-wave (km/s) = 5.41598 11.42547 7.11367
#
# Compressibility (1/GPa) = 0.03706511
#
# Stress axis : x y z
#
# Youngs Moduli (GPa) = 29.37105 58.26014 87.65040
#
# Poissons Ratio (x) = -0.21029 0.53363
# Poissons Ratio (y) = -0.10602 0.90271
# Poissons Ratio (z) = 0.17882 0.60002
#
# Static dielectric constant tensor:
#      x y z
#    x 1.980540 0.000000 0.178490 
#    y 0.000000 1.801880 0.000000 
#    z 0.178490 0.000000 2.071100 
# 
# From -- ./inp_files/41432.got.cif
#   From: 2010.05.17/outbox.cif.g08.bks.cpg/sg12_21_cif.got.tgz:41432.got - 2010.06.03 13:09:07.
