data_PCOD9196900
_publ_section_title
;
Structure prediction by ZEFSAII (Michael W. Deem and Ramdas Pophale) SiO2 
 PCOD9196900
Probable space group: C 2/M
;
_chemical_formula_sum "Si O2"
_cell_formula_units_Z 58
_cell_length_a 12.895647
_cell_length_b 14.313466
_cell_length_c 18.106960
_cell_angle_alpha 90.000000
_cell_angle_beta 100.316905
_cell_angle_gamma 90.000000
_cell_volume 3288.172096
_symmetry_space_group_name_H-M "C 2/M"
_symmetry_group_IT_number 12
_symmetry_cell_setting 'monoclinic'
loop_
_space_group_symop_operation_xyz
x,y,z
-x,y,-z
-x,-y,-z
x,-y,z
1/2+x,1/2+y,z
1/2-x,1/2+y,-z
1/2-x,1/2-y,-z
1/2+x,1/2-y,z
loop_
_atom_site_type_symbol
_atom_site_label
_atom_site_fract_x
_atom_site_fract_y
_atom_site_fract_z
Si Si1 0.500000 0.500000 0.000000
Si Si2 0.864685 0.389278 0.696993
Si Si3 0.173063 0.864522 0.039157
Si Si4 0.467601 0.891221 0.411153
Si Si5 0.199279 0.274074 0.697066
Si Si6 0.626106 0.605755 0.203783
Si Si7 0.394238 0.834016 0.022411
Si Si8 0.967430 0.728292 0.192848
O O1 0.416907 0.419438 0.014641
O O2 0.842462 0.500000 0.705029
O O3 0.762971 0.320844 0.685689
O O4 0.930797 0.378892 0.629180
O O5 0.947062 0.348438 0.768199
O O6 0.165559 0.893594 0.123823
O O7 0.286249 0.888758 0.020341
O O8 0.143535 0.755652 0.029937
O O9 0.500000 0.878193 0.500000
O O10 0.376986 0.819372 0.374180
O O11 0.432967 0.000000 0.396612
O O12 0.285971 0.350473 0.732052
O O13 0.125170 0.262454 0.759307
O O14 0.600450 0.500000 0.220133
O O15 0.527559 0.674085 0.195326
O O16 0.423834 0.799799 0.108029
O O17 0.500000 0.875007 0.000000
#
# Coordination Sequence:
#
# PCOD9196900 Si02
#       8
#     2   8   8   8   8   8   8   8
#     4  12  20  40  50  84 100 134 186 230 294 360
#     4   9  20  36  57  82 113 151 184 227 282 336
#     4  11  22  33  59  76 106 143 184 240 296 348
#     4   9  18  35  58  88 119 149 184 226 272 329
#     4  10  20  35  58  83 112 149 190 227 283 340
#     4  11  20  34  55  83 105 140 192 236 287 338
#     4  11  21  38  56  77 107 149 188 243 296 353
#     4  10  20  36  55  79 107 145 187 235 285 342
#
# _framework density 17.638978999999999
#
# number of rings (size 3 to 8) (size 9 to 14) (size 15 to 20)
#    0.000    1.793    4.138    0.414    0.000    1.655 
#    1.241    0.345    6.069    0.414    0.000    0.000 
#    0.000    0.000    0.000    0.000    0.000    0.000 
#
# Total GULP energy -161439.415166 kJ/mol
# GULP energy per Si atom -5566.876385 kJ/mol
# Density = 1.759883 g / cm^3
# Si number density = 17.638979 Si / 1000 Ang^3
#
#
#
# Elastic Constant Matrix: (Units=GPa)
#
#
# Indices 1 2 3 4 5 6 
#
# 1 124.6056 51.2599 28.5492 0.0000 1.4441 0.0000
# 2 51.2599 122.4945 38.1768 0.0000 1.9019 0.0000
# 3 28.5492 38.1768 70.1984 0.0000 4.5891 0.0000
# 4 0.0000 0.0000 0.0000 26.0979 0.0000 15.2264
# 5 1.4441 1.9019 4.5891 0.0000 10.6289 0.0000
# 6 0.0000 0.0000 0.0000 15.2264 0.0000 -5.9269
#
#
#
# Elastic Compliance Matrix: (Units=1/GPa)
#
#
# Indices 1 2 3 4 5 6 
#
# 1 0.009956 -0.003496 -0.002161 0.000000 0.000206 0.000000
# 2 -0.003496 0.011061 -0.004626 0.000000 0.000493 0.000000
# 3 -0.002161 -0.004626 0.018077 0.000000 -0.006683 0.000000
# 4 0.000000 0.000000 0.000000 0.015334 0.000000 0.039393
# 5 0.000206 0.000493 -0.006683 0.000000 0.096853 0.000000
# 6 0.000000 0.000000 0.000000 0.039393 0.000000 -0.067520
#
#
# Mechanical properties :
#
#
# Convention : Reuss Voigt Hill
#
# Bulk Modulus (GPa) = 53.97299 61.47449 57.72374
# Shear Modulus (GPa) = 45.24793 19.44749 32.34771
#
# Velocity S-wave (km/s) = 5.07030 3.32404 4.28702
# Velocity P-wave (km/s) = 8.05868 7.04695 7.56974
#
# Compressibility (1/GPa) = 0.01852778
#
# Stress axis : x y z
#
# Youngs Moduli (GPa) = 100.43890 90.41143 55.31926
#
# Poissons Ratio (x) = 0.31607 0.11957
# Poissons Ratio (y) = 0.35113 0.25589
# Poissons Ratio (z) = 0.21709 0.41821
#
# Static dielectric constant tensor:
#      x y z
#    x 1.619020 0.000000 0.017290 
#    y 0.000000 1.597610 0.000000 
#    z 0.017290 0.000000 1.595750 
# 
# From -- ./inp_files/262944.got.cif
#   From: 2010.05.17/outbox.cif.g08.bks.cpg/sg12_132_cif.got.tgz:262944.got - 2010.06.03 13:09:07.
