data_PCOD9196949
_publ_section_title
;
Structure prediction by ZEFSAII (Michael W. Deem and Ramdas Pophale) SiO2 
 PCOD9196949
Probable space group: C 2/M
;
_chemical_formula_sum "Si O2"
_cell_formula_units_Z 64
_cell_length_a 20.545564
_cell_length_b 13.132489
_cell_length_c 9.961050
_cell_angle_alpha 90.000000
_cell_angle_beta 101.489332
_cell_angle_gamma 90.000000
_cell_volume 2633.779323
_symmetry_space_group_name_H-M "C 2/M"
_symmetry_group_IT_number 12
_symmetry_cell_setting 'monoclinic'
loop_
_space_group_symop_operation_xyz
x,y,z
-x,y,-z
-x,-y,-z
x,-y,z
1/2+x,1/2+y,z
1/2-x,1/2+y,-z
1/2-x,1/2-y,-z
1/2+x,1/2-y,z
loop_
_atom_site_type_symbol
_atom_site_label
_atom_site_fract_x
_atom_site_fract_y
_atom_site_fract_z
Si Si1 0.070105 0.170099 0.602291
Si Si2 0.233185 0.379019 0.423545
Si Si3 0.442792 0.113403 0.305412
Si Si4 0.089085 0.325797 0.292430
Si Si5 0.400834 0.610372 0.092575
Si Si6 0.145435 0.115222 0.378711
Si Si7 0.108471 0.673982 0.001103
Si Si8 0.250085 0.618600 0.127572
O O1 0.088825 0.288489 0.635110
O O2 0.067603 0.119536 0.746577
O O3 0.119603 0.115436 0.521498
O O4 0.000000 0.165011 0.500000
O O5 0.245402 0.500000 0.429593
O O6 0.154441 0.363630 0.395900
O O7 0.278936 0.345155 0.567579
O O8 0.254103 0.342902 0.282511
O O9 0.521221 0.140041 0.332734
O O10 0.431119 0.000000 0.354585
O O11 0.418131 0.117681 0.140837
O O12 0.101541 0.203212 0.292327
O O13 0.089565 0.366447 0.140020
O O14 0.415567 0.500000 0.038999
O O15 0.321607 0.619066 0.088206
O O16 0.419170 0.711270 0.021082
O O17 0.141983 0.000000 0.321876
O O18 0.188751 0.673425 0.030939
O O19 0.229418 0.500000 0.125049
#
# Coordination Sequence:
#
# PCOD9196949 Si02
#       8
#     8   8   8   8   8   8   8   8
#     4  11  22  41  61  89 117 148 194 243 297 346
#     4   9  18  34  60  89 115 149 197 245 292 347
#     4  11  24  42  63  87 118 153 193 242 299 358
#     4  11  22  39  58  88 120 162 198 240 285 349
#     4  10  20  35  58  84 114 152 197 245 290 344
#     4  11  22  39  62  88 121 158 199 243 292 349
#     4  10  22  36  57  83 120 153 197 241 292 344
#     4   9  16  31  56  84 110 147 196 244 294 345
#
# _framework density 24.299683000000002
#
# number of rings (size 3 to 8) (size 9 to 14) (size 15 to 20)
#    0.000    1.750    2.500    2.250    0.000    3.750 
#    0.000    0.000    0.000    3.000    0.000    0.000 
#    0.000    0.000    0.000    0.000    0.000    0.000 
#
# Total GULP energy -178905.951032 kJ/mol
# GULP energy per Si atom -5590.810970 kJ/mol
# Density = 2.424438 g / cm^3
# Si number density = 24.299683 Si / 1000 Ang^3
#
#
#
# Elastic Constant Matrix: (Units=GPa)
#
#
# Indices 1 2 3 4 5 6 
#
# 1 44.2250 1.0262 13.1090 0.0000 10.0020 0.0000
# 2 1.0262 135.4101 15.8116 0.0000 10.9786 0.0000
# 3 13.1090 15.8116 74.1472 0.0000 20.5783 0.0000
# 4 0.0000 0.0000 0.0000 14.9290 0.0000 7.4973
# 5 10.0020 10.9786 20.5783 0.0000 28.5713 0.0000
# 6 0.0000 0.0000 0.0000 7.4973 0.0000 18.3939
#
#
#
# Elastic Compliance Matrix: (Units=1/GPa)
#
#
# Indices 1 2 3 4 5 6 
#
# 1 0.024978 0.000692 -0.002578 0.000000 -0.007153 0.000000
# 2 0.000692 0.007703 -0.001095 0.000000 -0.002413 0.000000
# 3 -0.002578 -0.001095 0.017259 0.000000 -0.011107 0.000000
# 4 0.000000 0.000000 0.000000 0.084224 0.000000 -0.034329
# 5 -0.007153 -0.002413 -0.011107 0.000000 0.046431 0.000000
# 6 0.000000 0.000000 0.000000 -0.034329 0.000000 0.068359
#
#
# Mechanical properties :
#
#
# Convention : Reuss Voigt Hill
#
# Bulk Modulus (GPa) = 22.73980 34.85286 28.79633
# Shear Modulus (GPa) = 18.54771 27.30123 22.92447
#
# Velocity S-wave (km/s) = 2.76577 3.35553 3.07482
# Velocity P-wave (km/s) = 4.42467 5.42097 4.94796
#
# Compressibility (1/GPa) = 0.04397576
#
# Stress axis : x y z
#
# Youngs Moduli (GPa) = 40.03597 129.81481 57.94214
#
# Poissons Ratio (x) = -0.08979 0.14939
# Poissons Ratio (y) = -0.02769 0.06346
# Poissons Ratio (z) = 0.10323 0.14217
#
# Static dielectric constant tensor:
#      x y z
#    x 1.953120 0.000000 0.027100 
#    y 0.000000 1.961040 0.000000 
#    z 0.027100 0.000000 1.937000 
# 
# From -- ./inp_files/175311.got.cif
#   From: 2010.05.17/outbox.cif.g08.bks.cpg/sg12_88_cif.got.tgz:175311.got - 2010.06.03 13:09:07.
