data_PCOD9196705
_publ_section_title
;
Structure prediction by ZEFSAII (Michael W. Deem and Ramdas Pophale) SiO2 
 PCOD9196705
Probable space group: C 2/M
;
_chemical_formula_sum "Si O2"
_cell_formula_units_Z 48
_cell_length_a 9.912739
_cell_length_b 14.825514
_cell_length_c 21.927099
_cell_angle_alpha 90.000000
_cell_angle_beta 37.979565
_cell_angle_gamma 90.000000
_cell_volume 1983.025313
_symmetry_space_group_name_H-M "C 2/M"
_symmetry_group_IT_number 12
_symmetry_cell_setting 'monoclinic'
loop_
_space_group_symop_operation_xyz
x,y,z
-x,y,-z
-x,-y,-z
x,-y,z
1/2+x,1/2+y,z
1/2-x,1/2+y,-z
1/2-x,1/2-y,-z
1/2+x,1/2-y,z
loop_
_atom_site_type_symbol
_atom_site_label
_atom_site_fract_x
_atom_site_fract_y
_atom_site_fract_z
Si Si1 0.362814 0.110661 0.809390
Si Si2 0.191758 0.660674 0.482691
Si Si3 0.746127 0.601817 0.412087
Si Si4 0.053383 0.891141 0.259894
Si Si5 0.555255 0.110084 0.082741
Si Si6 0.529095 0.389792 0.136033
O O1 0.577757 0.144586 0.696434
O O2 0.359817 0.136081 0.880728
O O3 0.147010 0.139340 0.850665
O O4 0.367052 0.000000 0.805944
O O5 0.250000 0.750000 0.500000
O O6 0.156358 0.597489 0.554318
O O7 0.411089 0.638223 0.367426
O O8 0.000000 0.658660 0.500000
O O9 0.500000 0.641576 0.500000
O O10 0.714693 0.500000 0.399805
O O11 0.304695 0.860403 0.169231
O O12 0.958759 0.861306 0.228439
O O13 0.054335 0.000000 0.261151
O O14 0.550783 0.000000 0.081097
O O15 0.727764 0.139657 0.970260
O O16 0.532164 0.500000 0.134995
#
# Coordination Sequence:
#
# PCOD9196705 Si02
#       6
#     8   8   8   8   8   8
#     4   9  16  26  44  74 112 151 184 219 270 330
#     4  12  26  42  59  81 111 152 199 246 297 350
#     4  10  20  36  59  87 119 154 195 243 292 344
#     4  10  20  35  57  85 115 147 185 232 287 345
#     4   9  16  27  47  79 117 150 179 219 275 338
#     4   9  16  27  46  78 117 149 181 224 276 335
#
# _framework density 24.205439999999999
#
# number of rings (size 3 to 8) (size 9 to 14) (size 15 to 20)
#    0.000    2.167    0.000    4.000    0.000    9.333 
#    0.000    0.000    0.000    0.000    0.000   21.000 
#    0.000    0.000    0.000    0.000    0.000    0.667 
#
# Total GULP energy -134146.501832 kJ/mol
# GULP energy per Si atom -5589.437576 kJ/mol
# Density = 2.415035 g / cm^3
# Si number density = 24.205440 Si / 1000 Ang^3
#
#
#
# Elastic Constant Matrix: (Units=GPa)
#
#
# Indices 1 2 3 4 5 6 
#
# 1 100.4081 3.2545 11.4111 -0.0003 4.9658 -0.0004
# 2 3.2545 51.7007 5.8421 0.0012 2.4506 -0.0002
# 3 11.4111 5.8421 131.6440 0.0054 11.1626 -0.0006
# 4 -0.0003 0.0012 0.0054 -15.6906 -0.0018 5.5116
# 5 4.9658 2.4506 11.1626 -0.0018 43.9792 0.0000
# 6 -0.0004 -0.0002 -0.0006 5.5116 0.0000 3.9694
#
#
#
# Elastic Compliance Matrix: (Units=1/GPa)
#
#
# Indices 1 2 3 4 5 6 
#
# 1 0.010109 -0.000505 -0.000776 0.000000 -0.000916 0.000001
# 2 -0.000505 0.019498 -0.000750 0.000001 -0.000839 -0.000001
# 3 -0.000776 -0.000750 0.007855 0.000002 -0.001864 -0.000002
# 4 0.000000 0.000001 0.000002 -0.042838 -0.000002 0.059482
# 5 -0.000916 -0.000839 -0.001864 -0.000002 0.023361 0.000003
# 6 0.000001 -0.000001 -0.000002 0.059482 0.000003 0.169335
#
#
# Mechanical properties :
#
#
# Convention : Reuss Voigt Hill
#
# Bulk Modulus (GPa) = 29.94093 36.08535 33.01314
# Shear Modulus (GPa) = 24.68926 24.00128 24.34527
#
# Velocity S-wave (km/s) = 3.19719 3.15233 3.17484
# Velocity P-wave (km/s) = 5.10154 5.30941 5.20652
#
# Compressibility (1/GPa) = 0.03339910
#
# Stress axis : x y z
#
# Youngs Moduli (GPa) = 98.91926 51.28608 127.30908
#
# Poissons Ratio (x) = 0.02591 0.09881
# Poissons Ratio (y) = 0.04998 0.09553
# Poissons Ratio (z) = 0.07678 0.03848
#
# Static dielectric constant tensor:
#      x y z
#    x 1.920280 0.000000 -0.017480 
#    y 0.000000 2.024950 0.000000 
#    z -0.017480 0.000000 1.866030 
# 
# From -- ./inp_files/301562.got.cif
#   From: 2010.05.17/outbox.cif.g08.bks.cpg/sg12_151_cif.got.tgz:301562.got - 2010.06.03 13:09:07.
