data_PCOD9196915
_publ_section_title
;
Structure prediction by ZEFSAII (Michael W. Deem and Ramdas Pophale) SiO2 
 PCOD9196915
Probable space group: C 2/M
;
_chemical_formula_sum "Si O2"
_cell_formula_units_Z 48
_cell_length_a 16.658104
_cell_length_b 9.193362
_cell_length_c 14.731106
_cell_angle_alpha 90.000000
_cell_angle_beta 80.641601
_cell_angle_gamma 90.000000
_cell_volume 2225.954212
_symmetry_space_group_name_H-M "C 2/M"
_symmetry_group_IT_number 12
_symmetry_cell_setting 'monoclinic'
loop_
_space_group_symop_operation_xyz
x,y,z
-x,y,-z
-x,-y,-z
x,-y,z
1/2+x,1/2+y,z
1/2-x,1/2+y,-z
1/2-x,1/2-y,-z
1/2+x,1/2-y,z
loop_
_atom_site_type_symbol
_atom_site_label
_atom_site_fract_x
_atom_site_fract_y
_atom_site_fract_z
Si Si1 0.680493 0.829248 0.126195
Si Si2 0.807261 0.827973 0.361352
Si Si3 0.141078 0.828582 0.450799
Si Si4 0.071256 0.329113 0.308299
Si Si5 0.629993 0.329593 0.959768
Si Si6 0.080104 0.671742 0.798484
O O1 0.650280 0.792320 0.232279
O O2 0.776517 0.810641 0.092853
O O3 0.661510 0.000000 0.115801
O O4 0.633004 0.737776 0.059267
O O5 0.864534 0.808640 0.439941
O O6 0.721425 0.759763 0.405811
O O7 0.846663 0.745821 0.270179
O O8 0.798883 0.000000 0.344380
O O9 0.071410 0.765958 0.398762
O O10 0.152157 0.000000 0.432713
O O11 0.073662 0.500000 0.332257
O O12 0.997535 0.306782 0.252081
O O13 0.611211 0.500000 0.965284
O O14 0.574582 0.246751 0.897436
O O15 0.093348 0.500000 0.807537
#
# Coordination Sequence:
#
# PCOD9196915 Si02
#       6
#     8   8   8   8   8   8
#     4   9  19  37  58  79 106 142 183 227 277 332
#     4  10  21  38  59  83 112 145 183 229 279 329
#     4  10  21  37  60  86 110 142 185 231 276 327
#     4  10  22  38  56  80 113 152 188 226 275 329
#     4  10  20  35  58  84 108 140 183 233 283 329
#     4  11  23  37  55  81 113 150 189 228 274 329
#
# _framework density 21.563786
#
# number of rings (size 3 to 8) (size 9 to 14) (size 15 to 20)
#    0.000    2.000    0.000    3.000    0.000    7.333 
#    0.000    6.667    0.000    0.000    0.000    0.000 
#    0.000    0.000    0.000    0.000    0.000    0.000 
#
# Total GULP energy -134202.285947 kJ/mol
# GULP energy per Si atom -5591.761914 kJ/mol
# Density = 2.151471 g / cm^3
# Si number density = 21.563786 Si / 1000 Ang^3
#
#
#
# Elastic Constant Matrix: (Units=GPa)
#
#
# Indices 1 2 3 4 5 6 
#
# 1 40.7085 29.1039 15.0008 0.0000 13.2426 0.0000
# 2 29.1039 95.6091 64.0619 0.0000 34.6971 0.0000
# 3 15.0008 64.0619 102.6776 0.0000 35.0398 0.0000
# 4 0.0000 0.0000 0.0000 36.8489 0.0000 14.2689
# 5 13.2426 34.6971 35.0398 0.0000 36.8726 0.0000
# 6 0.0000 0.0000 0.0000 14.2689 0.0000 21.5264
#
#
#
# Elastic Compliance Matrix: (Units=1/GPa)
#
#
# Indices 1 2 3 4 5 6 
#
# 1 0.032331 -0.010261 0.003472 0.000000 -0.005255 0.000000
# 2 -0.010261 0.023653 -0.010242 0.000000 -0.008840 0.000000
# 3 0.003472 -0.010242 0.018882 0.000000 -0.009553 0.000000
# 4 0.000000 0.000000 0.000000 0.036509 0.000000 -0.024200
# 5 -0.005255 -0.008840 -0.009553 0.000000 0.046404 0.000000
# 6 0.000000 0.000000 0.000000 -0.024200 0.000000 0.062496
#
#
# Mechanical properties :
#
#
# Convention : Reuss Voigt Hill
#
# Bulk Modulus (GPa) = 24.50707 50.59206 37.54957
# Shear Modulus (GPa) = 18.66105 27.77147 23.21626
#
# Velocity S-wave (km/s) = 2.94494 3.59259 3.28477
# Velocity P-wave (km/s) = 4.79095 6.38134 5.64246
#
# Compressibility (1/GPa) = 0.04080454
#
# Stress axis : x y z
#
# Youngs Moduli (GPa) = 30.93019 42.27775 52.96063
#
# Poissons Ratio (x) = 0.43380 -0.18387
# Poissons Ratio (y) = 0.31737 0.54241
# Poissons Ratio (z) = -0.10739 0.43300
#
# Static dielectric constant tensor:
#      x y z
#    x 1.848780 0.000000 0.017100 
#    y 0.000000 1.711470 0.000000 
#    z 0.017100 0.000000 1.759140 
# 
# From -- ./inp_files/221588.got.cif
#   From: 2010.05.17/outbox.cif.g08.bks.cpg/sg12_111_cif.got.tgz:221588.got - 2010.06.03 13:09:07.
