data_PCOD9196156
_publ_section_title
;
Structure prediction by ZEFSAII (Michael W. Deem and Ramdas Pophale) SiO2 
 PCOD9196156
Probable space group: C 2/M
;
_chemical_formula_sum "Si O2"
_cell_formula_units_Z 56
_cell_length_a 26.235470
_cell_length_b 9.455668
_cell_length_c 17.472343
_cell_angle_alpha 90.000000
_cell_angle_beta 40.330459
_cell_angle_gamma 90.000000
_cell_volume 2805.223391
_symmetry_space_group_name_H-M "C 2/M"
_symmetry_group_IT_number 12
_symmetry_cell_setting 'monoclinic'
loop_
_space_group_symop_operation_xyz
x,y,z
-x,y,-z
-x,-y,-z
x,-y,z
1/2+x,1/2+y,z
1/2-x,1/2+y,-z
1/2-x,1/2-y,-z
1/2+x,1/2-y,z
loop_
_atom_site_type_symbol
_atom_site_label
_atom_site_fract_x
_atom_site_fract_y
_atom_site_fract_z
Si Si1 0.119341 0.161099 0.464508
Si Si2 0.792901 0.665230 0.884502
Si Si3 0.480777 0.836380 0.206002
Si Si4 0.069554 0.165768 0.981483
Si Si5 0.528358 0.163452 0.330582
Si Si6 0.757073 0.163565 0.229665
Si Si7 0.169300 0.836932 0.586054
O O1 0.189483 0.240318 0.341456
O O2 0.143410 0.160198 0.526726
O O3 0.037345 0.244605 0.552171
O O4 0.111195 0.000000 0.447925
O O5 0.799344 0.500000 0.899606
O O6 0.882051 0.715250 0.765577
O O7 0.746228 0.673119 0.858496
O O8 0.750000 0.750000 0.000000
O O9 0.507008 0.833676 0.264683
O O10 0.401009 0.744853 0.290582
O O11 0.467783 0.000000 0.199481
O O12 0.546802 0.763836 0.078459
O O13 0.154220 0.202763 0.849011
O O14 0.074105 0.000000 0.999772
O O15 0.000000 0.179781 0.000000
O O16 0.524682 0.000000 0.360885
O O17 0.741873 0.000000 0.268787
O O18 0.250000 0.750000 0.500000
O O19 0.177906 0.000000 0.602436
#
# Coordination Sequence:
#
# PCOD9196156 Si02
#       7
#     8   8   8   8   8   8   8
#     4  10  22  38  57  84 116 149 190 236 284 337
#     4  10  21  37  60  88 115 150 194 237 284 340
#     4  10  20  35  56  82 109 143 185 232 284 335
#     4  10  22  38  55  79 110 150 192 232 286 344
#     4   9  19  37  59  83 114 150 188 230 284 343
#     4  10  22  39  58  82 116 154 191 235 289 345
#     4  10  21  36  56  82 111 146 188 235 282 336
#
# _framework density 19.962758000000001
#
# number of rings (size 3 to 8) (size 9 to 14) (size 15 to 20)
#    0.000    2.143    0.000    2.143    2.000    4.857 
#    0.000    2.857    0.000    0.000    0.000    0.000 
#    0.000    0.000    0.000    0.000    0.000    0.000 
#
# Total GULP energy -156449.904481 kJ/mol
# GULP energy per Si atom -5587.496589 kJ/mol
# Density = 1.991732 g / cm^3
# Si number density = 19.962758 Si / 1000 Ang^3
#
#
#
# Elastic Constant Matrix: (Units=GPa)
#
#
# Indices 1 2 3 4 5 6 
#
# 1 37.7464 20.8334 26.2785 0.0006 -23.8910 -0.0006
# 2 20.8334 111.1189 81.8085 0.0022 -7.9672 -0.0026
# 3 26.2785 81.8085 144.4154 0.0016 -23.0089 -0.0014
# 4 0.0006 0.0022 0.0016 42.9675 -0.0008 0.7910
# 5 -23.8910 -7.9672 -23.0089 -0.0008 37.1712 0.0007
# 6 -0.0006 -0.0026 -0.0014 0.7910 0.0007 16.0644
#
#
#
# Elastic Compliance Matrix: (Units=1/GPa)
#
#
# Indices 1 2 3 4 5 6 
#
# 1 0.049673 -0.006927 -0.000293 0.000000 0.030260 -0.000001
# 2 -0.006927 0.016589 -0.009185 -0.000001 -0.006583 0.000002
# 3 -0.000293 -0.009185 0.013133 0.000000 0.005972 -0.000001
# 4 0.000000 -0.000001 0.000000 0.023295 0.000001 -0.001147
# 5 0.030260 -0.006583 0.005972 0.000001 0.048637 -0.000002
# 6 -0.000001 0.000002 -0.000001 -0.001147 -0.000002 0.062306
#
#
# Mechanical properties :
#
#
# Convention : Reuss Voigt Hill
#
# Bulk Modulus (GPa) = 21.46764 61.23573 41.35169
# Shear Modulus (GPa) = 19.08609 30.19799 24.64204
#
# Velocity S-wave (km/s) = 3.09542 3.89358 3.51722
# Velocity P-wave (km/s) = 4.85311 7.13827 6.10359
#
# Compressibility (1/GPa) = 0.04658173
#
# Stress axis : x y z
#
# Youngs Moduli (GPa) = 20.13178 60.28182 76.14611
#
# Poissons Ratio (x) = 0.41760 0.02233
# Poissons Ratio (y) = 0.13946 0.69943
# Poissons Ratio (z) = 0.00590 0.55371
#
# Static dielectric constant tensor:
#      x y z
#    x 1.721890 0.000000 -0.007570 
#    y 0.000000 1.683940 0.000000 
#    z -0.007570 0.000000 1.678810 
# 
# From -- ./inp_files/295105.got.cif
#   From: 2010.05.17/outbox.cif.g08.bks.cpg/sg12_148_cif.got.tgz:295105.got - 2010.06.03 13:09:07.
