data_PCOD9196514
_publ_section_title
;
Structure prediction by ZEFSAII (Michael W. Deem and Ramdas Pophale) SiO2 
 PCOD9196514
Probable space group: C 2/M
;
_chemical_formula_sum "Si O2"
_cell_formula_units_Z 50
_cell_length_a 8.760166
_cell_length_b 11.832411
_cell_length_c 28.387402
_cell_angle_alpha 90.000000
_cell_angle_beta 66.720427
_cell_angle_gamma 90.000000
_cell_volume 2702.910635
_symmetry_space_group_name_H-M "C 2/M"
_symmetry_group_IT_number 12
_symmetry_cell_setting 'monoclinic'
loop_
_space_group_symop_operation_xyz
x,y,z
-x,y,-z
-x,-y,-z
x,-y,z
1/2+x,1/2+y,z
1/2-x,1/2+y,-z
1/2-x,1/2-y,-z
1/2+x,1/2-y,z
loop_
_atom_site_type_symbol
_atom_site_label
_atom_site_fract_x
_atom_site_fract_y
_atom_site_fract_z
Si Si1 0.532277 0.374924 0.141232
Si Si2 0.195714 0.628882 0.733477
Si Si3 0.627389 0.806937 0.552821
Si Si4 0.149713 0.869117 0.019221
Si Si5 0.000000 0.500000 0.500000
Si Si6 0.648761 0.629541 0.386424
Si Si7 0.831528 0.291599 0.797409
O O1 0.582778 0.500000 0.151112
O O2 0.581069 0.363214 0.080812
O O3 0.334227 0.361359 0.171347
O O4 0.621789 0.282883 0.162692
O O5 0.244395 0.500000 0.737361
O O6 0.251187 0.655851 0.673526
O O7 0.284221 0.710810 0.759638
O O8 0.997697 0.641365 0.763831
O O9 0.750000 0.750000 0.500000
O O10 0.527439 0.901843 0.537078
O O11 0.504446 0.712946 0.588225
O O12 0.734223 0.857024 0.582496
O O13 0.225123 0.000000 0.005268
O O14 0.250000 0.750000 0.000000
O O15 0.000000 0.866506 0.000000
O O16 0.589747 0.500000 0.390936
#
# Coordination Sequence:
#
# PCOD9196514 Si02
#       7
#     8   8   8   8   2   8   8
#     4  10  20  35  57  82 110 150 188 232 281 332
#     4  10  21  38  57  83 111 144 180 229 275 329
#     4  12  24  40  60  85 113 146 184 226 271 330
#     4  10  21  37  56  83 119 153 194 239 287 341
#     4  12  24  40  60  84 116 140 186 230 268 320
#     4  11  24  39  61  84 114 147 183 224 280 330
#     4  10  20  36  58  81 112 142 188 229 277 330
#
# _framework density 18.498576
#
# number of rings (size 3 to 8) (size 9 to 14) (size 15 to 20)
#    0.000    1.440    2.400    2.880    1.120    0.960 
#    0.000    4.000    1.760    0.000    0.000    0.000 
#    0.000    0.000    0.000    0.000    0.000    0.000 
#
# Total GULP energy -139229.640015 kJ/mol
# GULP energy per Si atom -5569.185601 kJ/mol
# Density = 1.845647 g / cm^3
# Si number density = 18.498576 Si / 1000 Ang^3
#
#
#
# Elastic Constant Matrix: (Units=GPa)
#
#
# Indices 1 2 3 4 5 6 
#
# 1 28.4031 16.5927 1.9491 0.0000 4.0149 0.0000
# 2 16.5927 117.2448 47.5368 0.0000 -5.8643 0.0000
# 3 1.9491 47.5368 94.1686 0.0000 6.0363 0.0000
# 4 0.0000 0.0000 0.0000 50.2808 0.0000 -25.7176
# 5 4.0149 -5.8643 6.0363 0.0000 26.1704 0.0000
# 6 0.0000 0.0000 0.0000 -25.7176 0.0000 51.4207
#
#
#
# Elastic Compliance Matrix: (Units=1/GPa)
#
#
# Indices 1 2 3 4 5 6 
#
# 1 0.040670 -0.007647 0.003581 0.000000 -0.008779 0.000000
# 2 -0.007647 0.012528 -0.006518 0.000000 0.005484 0.000000
# 3 0.003581 -0.006518 0.014174 0.000000 -0.005279 0.000000
# 4 0.000000 0.000000 0.000000 0.026725 0.000000 0.013366
# 5 -0.008779 0.005484 -0.005279 0.000000 0.042004 0.000000
# 6 0.000000 0.000000 0.000000 0.013366 0.000000 0.026132
#
#
# Mechanical properties :
#
#
# Convention : Reuss Voigt Hill
#
# Bulk Modulus (GPa) = 21.64263 41.33040 31.48652
# Shear Modulus (GPa) = 25.15080 37.15693 31.15387
#
# Velocity S-wave (km/s) = 3.69129 4.48664 4.10826
# Velocity P-wave (km/s) = 5.46740 7.01648 6.28981
#
# Compressibility (1/GPa) = 0.04620510
#
# Stress axis : x y z
#
# Youngs Moduli (GPa) = 24.58837 79.82037 70.55375
#
# Poissons Ratio (x) = 0.61036 -0.25265
# Poissons Ratio (y) = 0.18802 0.45983
# Poissons Ratio (z) = -0.08805 0.52023
#
# Static dielectric constant tensor:
#      x y z
#    x 1.574020 0.000000 -0.048740 
#    y 0.000000 1.642400 0.000000 
#    z -0.048740 0.000000 1.580050 
# 
# From -- ./inp_files/355476.got.cif
#   From: 2010.05.17/outbox.cif.g08.bks.cpg/sg12_178_cif.got.tgz:355476.got - 2010.06.03 13:09:07.
