data_PCOD9196207
_publ_section_title
;
Structure prediction by ZEFSAII (Michael W. Deem and Ramdas Pophale) SiO2 
 PCOD9196207
Probable space group: C 2/M
;
_chemical_formula_sum "Si O2"
_cell_formula_units_Z 48
_cell_length_a 18.973982
_cell_length_b 8.590693
_cell_length_c 32.565562
_cell_angle_alpha 90.000000
_cell_angle_beta 150.757459
_cell_angle_gamma 90.000000
_cell_volume 2593.084278
_symmetry_space_group_name_H-M "C 2/M"
_symmetry_group_IT_number 12
_symmetry_cell_setting 'monoclinic'
loop_
_space_group_symop_operation_xyz
x,y,z
-x,y,-z
-x,-y,-z
x,-y,z
1/2+x,1/2+y,z
1/2-x,1/2+y,-z
1/2-x,1/2-y,-z
1/2+x,1/2-y,z
loop_
_atom_site_type_symbol
_atom_site_label
_atom_site_fract_x
_atom_site_fract_y
_atom_site_fract_z
Si Si1 0.328749 0.313415 0.580062
Si Si2 0.417999 0.188271 0.916405
Si Si3 0.903202 0.685452 0.238531
Si Si4 0.588171 0.186515 0.920799
Si Si5 0.444330 0.312647 0.765727
Si Si6 0.161921 0.311180 0.578308
O O1 0.340857 0.500000 0.584395
O O2 0.250000 0.250000 0.500000
O O3 0.485326 0.243100 0.669866
O O4 0.230110 0.271250 0.569125
O O5 0.258301 0.258281 0.834876
O O6 0.509992 0.236147 0.923261
O O7 0.406248 0.000000 0.910177
O O8 0.500000 0.233370 0.000000
O O9 0.908671 0.500000 0.238546
O O10 0.959383 0.757035 0.223949
O O11 0.501375 0.245106 0.837089
O O12 0.593235 0.000000 0.923225
O O13 0.750000 0.250000 0.000000
O O14 0.450312 0.500000 0.769941
O O15 0.279928 0.262637 0.672005
O O16 0.155936 0.500000 0.577328
O O17 0.000000 0.250755 0.500000
#
# Coordination Sequence:
#
# PCOD9196207 Si02
#       6
#     8   8   8   8   8   8
#     4  10  20  35  56  82 114 150 188 234 287 338
#     4  10  22  40  60  83 114 150 186 231 288 340
#     4  11  22  37  59  84 112 149 194 239 283 337
#     4  11  23  38  59  86 115 147 186 232 282 340
#     4  10  20  36  58  82 114 152 187 231 285 337
#     4   8  16  32  54  79 106 141 184 226 270 323
#
# _framework density 18.510774999999999
#
# number of rings (size 3 to 8) (size 9 to 14) (size 15 to 20)
#    0.000    2.000    0.000    5.000    0.000    4.333 
#    0.000    1.667    0.000   17.000    0.000    0.000 
#    0.000    0.000    0.000    0.000    0.000    0.000 
#
# Total GULP energy -134033.606521 kJ/mol
# GULP energy per Si atom -5584.733605 kJ/mol
# Density = 1.846864 g / cm^3
# Si number density = 18.510775 Si / 1000 Ang^3
#
#
#
# Elastic Constant Matrix: (Units=GPa)
#
#
# Indices 1 2 3 4 5 6 
#
# 1 121.1321 41.3673 120.7099 0.0000 2.9186 0.0000
# 2 41.3673 57.4325 50.8539 0.0000 1.4694 -0.0001
# 3 120.7099 50.8539 216.9154 -0.0001 1.0519 -0.0001
# 4 0.0000 0.0000 -0.0001 32.4803 0.0000 -5.1783
# 5 2.9186 1.4694 1.0519 0.0000 43.1462 0.0000
# 6 0.0000 -0.0001 -0.0001 -5.1783 0.0000 23.5505
#
#
#
# Elastic Compliance Matrix: (Units=1/GPa)
#
#
# Indices 1 2 3 4 5 6 
#
# 1 0.019954 -0.005705 -0.009762 0.000000 -0.000918 0.000000
# 2 -0.005705 0.023621 -0.002361 0.000000 -0.000361 0.000000
# 3 -0.009762 -0.002361 0.010594 0.000000 0.000483 0.000000
# 4 0.000000 0.000000 0.000000 0.031906 0.000000 0.007016
# 5 -0.000918 -0.000361 0.000483 0.000000 0.023240 0.000000
# 6 0.000000 0.000000 0.000000 0.007016 0.000000 0.044005
#
#
# Mechanical properties :
#
#
# Convention : Reuss Voigt Hill
#
# Bulk Modulus (GPa) = 54.01906 91.26024 72.63965
# Shear Modulus (GPa) = 25.62179 32.00534 28.81356
#
# Velocity S-wave (km/s) = 3.72446 4.16265 3.94964
# Velocity P-wave (km/s) = 6.90951 8.51538 7.75413
#
# Compressibility (1/GPa) = 0.01851198
#
# Stress axis : x y z
#
# Youngs Moduli (GPa) = 50.11551 42.33537 94.39511
#
# Poissons Ratio (x) = 0.24152 0.92149
# Poissons Ratio (y) = 0.28591 0.22289
# Poissons Ratio (z) = 0.48923 0.09996
#
# Static dielectric constant tensor:
#      x y z
#    x 1.615350 0.000000 0.004370 
#    y 0.000000 1.625380 0.000000 
#    z 0.004370 0.000000 1.626290 
# 
# From -- ./inp_files/274072.got.cif
#   From: 2010.05.17/outbox.cif.g08.bks.cpg/sg12_138_cif.got.tgz:274072.got - 2010.06.03 13:09:07.
