data_PCOD9196794
_publ_section_title
;
Structure prediction by ZEFSAII (Michael W. Deem and Ramdas Pophale) SiO2 
 PCOD9196794
Probable space group: C 2/M
;
_chemical_formula_sum "Si O2"
_cell_formula_units_Z 48
_cell_length_a 14.103103
_cell_length_b 29.858668
_cell_length_c 10.233230
_cell_angle_alpha 90.000000
_cell_angle_beta 32.034180
_cell_angle_gamma 90.000000
_cell_volume 2285.714010
_symmetry_space_group_name_H-M "C 2/M"
_symmetry_group_IT_number 12
_symmetry_cell_setting 'monoclinic'
loop_
_space_group_symop_operation_xyz
x,y,z
-x,y,-z
-x,-y,-z
x,-y,z
1/2+x,1/2+y,z
1/2-x,1/2+y,-z
1/2-x,1/2-y,-z
1/2+x,1/2-y,z
loop_
_atom_site_type_symbol
_atom_site_label
_atom_site_fract_x
_atom_site_fract_y
_atom_site_fract_z
Si Si1 0.620729 0.096223 0.058062
Si Si2 0.358819 0.500000 0.494775
Si Si3 0.823007 0.315053 0.865708
Si Si4 0.729099 0.401110 0.401386
Si Si5 0.066315 0.193578 0.636184
Si Si6 0.296034 0.220494 0.606890
Si Si7 0.779378 0.500000 0.062713
O O1 0.668089 0.132553 0.110572
O O2 0.424950 0.107167 0.231668
O O3 0.752234 0.097522 0.778338
O O4 0.631092 0.045091 0.092425
O O5 0.328678 0.449797 0.475831
O O6 0.568460 0.500000 0.282342
O O7 0.219432 0.500000 0.780135
O O8 0.794165 0.303979 0.747116
O O9 0.014861 0.294616 0.679973
O O10 0.642420 0.297720 0.143766
O O11 0.606453 0.358800 0.575517
O O12 0.134496 0.207731 0.700932
O O13 0.183897 0.225863 0.406329
#
# Coordination Sequence:
#
# PCOD9196794 Si02
#       7
#     8   4   8   8   8   8   4
#     4  10  20  35  57  86 122 156 193 243 295 350
#     4   9  17  31  53  86 121 148 191 242 291 352
#     4  11  22  40  62  85 116 156 196 243 293 344
#     4  10  20  35  57  88 121 155 193 241 297 354
#     4  11  22  40  61  86 115 157 195 243 295 351
#     4  10  24  41  58  86 118 151 202 245 290 346
#     4   9  17  31  53  85 116 155 194 234 293 354
#
# _framework density 21.000001999999999
#
# number of rings (size 3 to 8) (size 9 to 14) (size 15 to 20)
#    0.000    1.833    1.667    2.500    0.000    8.000 
#    3.000    0.000    0.000    3.000    0.000    3.500 
#    0.000    0.000    0.000    0.000    0.000    0.000 
#
# Total GULP energy -133925.651159 kJ/mol
# GULP energy per Si atom -5580.235465 kJ/mol
# Density = 2.095221 g / cm^3
# Si number density = 21.000002 Si / 1000 Ang^3
#
#
#
# Elastic Constant Matrix: (Units=GPa)
#
#
# Indices 1 2 3 4 5 6 
#
# 1 78.2704 32.3445 10.4411 0.0000 0.8590 0.0000
# 2 32.3445 158.0790 19.0960 0.0000 9.6030 0.0000
# 3 10.4411 19.0960 50.8259 0.0000 -19.0539 0.0000
# 4 0.0000 0.0000 0.0000 28.2091 0.0000 -3.2040
# 5 0.8590 9.6030 -19.0539 0.0000 23.1629 0.0000
# 6 0.0000 0.0000 0.0000 -3.2040 0.0000 31.4618
#
#
#
# Elastic Compliance Matrix: (Units=1/GPa)
#
#
# Indices 1 2 3 4 5 6 
#
# 1 0.014167 -0.002489 -0.002582 0.000000 -0.001617 0.000000
# 2 -0.002489 0.007935 -0.005305 0.000000 -0.007561 0.000000
# 3 -0.002582 -0.005305 0.033340 0.000000 0.029721 0.000000
# 4 0.000000 0.000000 0.000000 0.035864 0.000000 0.003652
# 5 -0.001617 -0.007561 0.029721 0.000000 0.070816 0.000000
# 6 0.000000 0.000000 0.000000 0.003652 0.000000 0.032157
#
#
# Mechanical properties :
#
#
# Convention : Reuss Voigt Hill
#
# Bulk Modulus (GPa) = 28.82464 45.65984 37.24224
# Shear Modulus (GPa) = 22.06601 31.58635 26.82618
#
# Velocity S-wave (km/s) = 3.24506 3.88250 3.57800
# Velocity P-wave (km/s) = 5.27223 6.47212 5.90274
#
# Compressibility (1/GPa) = 0.03469254
#
# Stress axis : x y z
#
# Youngs Moduli (GPa) = 70.58799 126.01922 29.99372
#
# Poissons Ratio (x) = 0.31361 0.07743
# Poissons Ratio (y) = 0.17566 0.15911
# Poissons Ratio (z) = 0.18222 0.66851
#
# Static dielectric constant tensor:
#      x y z
#    x 1.742430 0.000000 0.001670 
#    y 0.000000 1.803000 0.000000 
#    z 0.001670 0.000000 1.780020 
# 
# From -- ./inp_files/149670.got.cif
#   From: 2010.05.17/outbox.cif.g08.bks.cpg/sg12_75_cif.got.tgz:149670.got - 2010.06.03 13:09:07.
