data_PCOD9196793
_publ_section_title
;
Structure prediction by ZEFSAII (Michael W. Deem and Ramdas Pophale) SiO2 
 PCOD9196793
Probable space group: C 2/M
;
_chemical_formula_sum "Si O2"
_cell_formula_units_Z 56
_cell_length_a 19.488877
_cell_length_b 8.536454
_cell_length_c 16.555916
_cell_angle_alpha 90.000000
_cell_angle_beta 90.706191
_cell_angle_gamma 90.000000
_cell_volume 2754.130690
_symmetry_space_group_name_H-M "C 2/M"
_symmetry_group_IT_number 12
_symmetry_cell_setting 'monoclinic'
loop_
_space_group_symop_operation_xyz
x,y,z
-x,y,-z
-x,-y,-z
x,-y,z
1/2+x,1/2+y,z
1/2-x,1/2+y,-z
1/2-x,1/2-y,-z
1/2+x,1/2-y,z
loop_
_atom_site_type_symbol
_atom_site_label
_atom_site_fract_x
_atom_site_fract_y
_atom_site_fract_z
Si Si1 0.148973 0.814142 0.813876
Si Si2 0.035834 0.682582 0.919247
Si Si3 0.419536 0.689824 0.352817
Si Si4 0.401770 0.182702 0.813799
Si Si5 0.078769 0.814608 0.358559
Si Si6 0.274965 0.811035 0.914100
Si Si7 0.672316 0.185904 0.501752
O O1 0.100009 0.777509 0.888555
O O2 0.113992 0.751459 0.731814
O O3 0.223275 0.756012 0.842460
O O4 0.154432 0.000000 0.802823
O O5 0.055607 0.500000 0.932886
O O6 0.978275 0.689647 0.849435
O O7 0.000000 0.740295 0.000000
O O8 0.421272 0.500000 0.350623
O O9 0.499037 0.740270 0.364293
O O10 0.371070 0.743144 0.424690
O O11 0.397627 0.280973 0.732419
O O12 0.350472 0.233196 0.884536
O O13 0.386021 0.000000 0.794795
O O14 0.129531 0.730780 0.421212
O O15 0.080172 0.000000 0.375475
O O16 0.272561 0.000000 0.918825
O O17 0.250000 0.750000 0.000000
O O18 0.750000 0.250000 0.500000
O O19 0.675333 0.000000 0.510288
#
# Coordination Sequence:
#
# PCOD9196793 Si02
#       7
#     8   8   8   8   8   8   8
#     4  10  21  38  60  88 121 161 204 251 310 369
#     4  10  20  35  57  86 121 159 205 257 306 359
#     4  10  22  42  66  94 130 166 206 257 312 368
#     4  10  21  37  59  88 122 163 210 260 312 365
#     4  11  23  42  67  95 128 167 209 254 311 372
#     4  10  22  39  59  85 120 164 210 257 315 372
#     4  12  27  45  68  98 130 163 205 253 307 372
#
# _framework density 20.333096000000001
#
# number of rings (size 3 to 8) (size 9 to 14) (size 15 to 20)
#    0.000    1.571    1.429    3.000    2.000    6.000 
#    0.000    0.000    0.000    0.000    0.000    0.000 
#    0.000    0.000    0.000    0.000    0.000    0.000 
#
# Total GULP energy -156421.350008 kJ/mol
# GULP energy per Si atom -5586.476786 kJ/mol
# Density = 2.028682 g / cm^3
# Si number density = 20.333096 Si / 1000 Ang^3
#
#
#
# Elastic Constant Matrix: (Units=GPa)
#
#
# Indices 1 2 3 4 5 6 
#
# 1 99.6727 18.2898 16.8179 0.0000 -2.9934 0.0000
# 2 18.2898 6.5321 3.2933 0.0000 10.4408 0.0000
# 3 16.8179 3.2933 84.4176 0.0000 -3.9314 0.0000
# 4 0.0000 0.0000 0.0000 34.6799 0.0000 -7.9722
# 5 -2.9934 10.4408 -3.9314 0.0000 32.4445 0.0000
# 6 0.0000 0.0000 0.0000 -7.9722 0.0000 19.9411
#
#
#
# Elastic Compliance Matrix: (Units=1/GPa)
#
#
# Indices 1 2 3 4 5 6 
#
# 1 -0.052409 0.328998 -0.007593 0.000000 -0.111629 0.000000
# 2 0.328998 -1.723367 0.029094 0.000000 0.588469 0.000000
# 3 -0.007593 0.029094 0.011822 0.000000 -0.008631 0.000000
# 4 0.000000 0.000000 0.000000 0.031753 0.000000 0.012695
# 5 -0.111629 0.588469 -0.008631 0.000000 -0.169896 0.000000
# 6 0.000000 0.000000 0.000000 0.012695 0.000000 0.055223
#
#
# Mechanical properties :
#
#
# Convention : Reuss Voigt Hill
#
# Bulk Modulus (GPa) = -0.94077 29.71382 14.38652
# Shear Modulus (GPa) = -1.72284 27.56120 12.91918
#
# Velocity S-wave (km/s) = -0.92149 3.68569 2.52340
# Velocity P-wave (km/s) = 1.26328 5.72343 3.94726
#
# Compressibility (1/GPa) = -1.06295417
#
# Stress axis : x y z
#
# Youngs Moduli (GPa) = -19.08064 -0.58026 84.59158
#
# Poissons Ratio (x) = 0.19090 0.64227
# Poissons Ratio (y) = 6.27750 -2.46113
# Poissons Ratio (z) = -0.14487 0.01688
#
# Static dielectric constant tensor:
#      x y z
#    x 1.721160 0.000000 0.019690 
#    y 0.000000 1.712320 0.000000 
#    z 0.019690 0.000000 1.709650 
# 
# From -- ./inp_files/230882.got.cif
#   From: 2010.05.17/outbox.cif.g08.bks.cpg/sg12_116_cif.got.tgz:230882.got - 2010.06.03 13:09:07.
