data_PCOD9196538
_publ_section_title
;
Structure prediction by ZEFSAII (Michael W. Deem and Ramdas Pophale) SiO2 
 PCOD9196538
Probable space group: C 2/M
;
_chemical_formula_sum "Si O2"
_cell_formula_units_Z 56
_cell_length_a 14.641255
_cell_length_b 14.234664
_cell_length_c 13.362492
_cell_angle_alpha 90.000000
_cell_angle_beta 90.000082
_cell_angle_gamma 90.000000
_cell_volume 2784.921661
_symmetry_space_group_name_H-M "C 2/M"
_symmetry_group_IT_number 12
_symmetry_cell_setting 'monoclinic'
loop_
_space_group_symop_operation_xyz
x,y,z
-x,y,-z
-x,-y,-z
x,-y,z
1/2+x,1/2+y,z
1/2-x,1/2+y,-z
1/2-x,1/2-y,-z
1/2+x,1/2-y,z
loop_
_atom_site_type_symbol
_atom_site_label
_atom_site_fract_x
_atom_site_fract_y
_atom_site_fract_z
Si Si1 0.897538 0.608678 0.278908
Si Si2 0.394203 0.385057 0.999999
Si Si3 0.607311 0.704941 0.611733
Si Si4 0.892688 0.795059 0.611732
Si Si5 0.293837 0.388010 0.200585
Si Si6 0.102463 0.608678 0.278908
Si Si7 0.293837 0.611990 0.799414
O O1 0.889277 0.500000 0.311073
O O2 0.887624 0.683429 0.367810
O O3 0.814866 0.628215 0.203109
O O4 0.000001 0.621503 0.237013
O O5 0.392013 0.500000 0.999999
O O6 0.343054 0.353563 0.899519
O O7 0.500000 0.356745 0.000000
O O8 0.343053 0.353563 0.100479
O O9 0.639273 0.681879 0.500001
O O10 0.499999 0.678663 0.619866
O O11 0.663201 0.656757 0.700113
O O12 0.887623 0.683429 0.632190
O O13 0.836797 0.843243 0.700111
O O14 0.308354 0.500000 0.206158
O O15 0.185135 0.371785 0.203109
O O16 0.110724 0.500000 0.311074
O O17 0.308354 0.500000 0.793841
#
# Coordination Sequence:
#
# PCOD9196538 Si02
#       7
#     8   8   8   8   8   8   8
#     4   9  19  36  55  76 107 146 185 223 263 314
#     4   9  18  34  56  81 110 144 181 220 264 321
#     4  10  21  36  55  81 112 144 179 222 272 325
#     4  10  21  36  55  81 112 144 179 222 272 325
#     4  10  20  35  57  83 110 142 180 222 271 324
#     4   9  19  36  55  76 107 146 185 223 263 314
#     4  10  20  35  57  83 110 142 180 222 271 324
#
# _framework density 20.108287000000001
#
# number of rings (size 3 to 8) (size 9 to 14) (size 15 to 20)
#    0.000    2.429    0.000    1.714    0.000    5.143 
#    0.000   10.714    0.000    7.714    0.000    0.000 
#    0.000    0.000    0.000    0.000    0.000    0.000 
#
# Total GULP energy -156231.663273 kJ/mol
# GULP energy per Si atom -5579.702260 kJ/mol
# Density = 2.006252 g / cm^3
# Si number density = 20.108287 Si / 1000 Ang^3
#
#
#
# Elastic Constant Matrix: (Units=GPa)
#
#
# Indices 1 2 3 4 5 6 
#
# 1 134.2518 38.2258 105.3183 0.0000 -0.0012 0.0000
# 2 38.2258 43.7069 40.9878 0.0000 -0.0003 0.0000
# 3 105.3183 40.9878 166.7161 0.0000 -0.0012 0.0000
# 4 0.0000 0.0000 0.0000 18.1954 0.0000 0.0001
# 5 -0.0012 -0.0003 -0.0012 0.0000 20.8332 0.0000
# 6 0.0000 0.0000 0.0000 0.0001 0.0000 26.7965
#
#
#
# Elastic Compliance Matrix: (Units=1/GPa)
#
#
# Indices 1 2 3 4 5 6 
#
# 1 0.015824 -0.005803 -0.008569 0.000000 0.000000 0.000000
# 2 -0.005803 0.031864 -0.004168 0.000000 0.000000 0.000000
# 3 -0.008569 -0.004168 0.012436 0.000000 0.000000 0.000000
# 4 0.000000 0.000000 0.000000 0.054959 0.000000 0.000000
# 5 0.000000 0.000000 0.000000 0.000000 0.048000 0.000000
# 6 0.000000 0.000000 0.000000 0.000000 0.000000 0.037318
#
#
# Mechanical properties :
#
#
# Convention : Reuss Voigt Hill
#
# Bulk Modulus (GPa) = 43.39723 79.30430 61.35076
# Shear Modulus (GPa) = 20.39463 23.84120 22.11792
#
# Velocity S-wave (km/s) = 3.18817 3.44705 3.32013
# Velocity P-wave (km/s) = 5.93137 7.44091 6.72861
#
# Compressibility (1/GPa) = 0.02304295
#
# Stress axis : x y z
#
# Youngs Moduli (GPa) = 63.19710 31.38386 80.40899
#
# Poissons Ratio (x) = 0.18212 0.68906
# Poissons Ratio (y) = 0.36672 0.33514
# Poissons Ratio (z) = 0.54156 0.13081
#
# Static dielectric constant tensor:
#      x y z
#    x 1.743030 0.000000 0.000000 
#    y 0.000000 1.728330 0.000000 
#    z 0.000000 0.000000 1.658160 
# 
# From -- ./inp_files/143721.got.cif
#   From: 2010.05.17/outbox.cif.g08.bks.cpg/sg12_72_cif.got.tgz:143721.got - 2010.06.03 13:09:07.
