data_PCOD9196076
_publ_section_title
;
Structure prediction by ZEFSAII (Michael W. Deem and Ramdas Pophale) SiO2 
 PCOD9196076
Probable space group: C 2/M
;
_chemical_formula_sum "Si O2"
_cell_formula_units_Z 56
_cell_length_a 19.060630
_cell_length_b 8.287028
_cell_length_c 30.272673
_cell_angle_alpha 90.000000
_cell_angle_beta 142.111663
_cell_angle_gamma 90.000000
_cell_volume 2936.589863
_symmetry_space_group_name_H-M "C 2/M"
_symmetry_group_IT_number 12
_symmetry_cell_setting 'monoclinic'
loop_
_space_group_symop_operation_xyz
x,y,z
-x,y,-z
-x,-y,-z
x,-y,z
1/2+x,1/2+y,z
1/2-x,1/2+y,-z
1/2-x,1/2-y,-z
1/2+x,1/2-y,z
loop_
_atom_site_type_symbol
_atom_site_label
_atom_site_fract_x
_atom_site_fract_y
_atom_site_fract_z
Si Si1 0.745745 0.195078 0.361949
Si Si2 0.131901 0.197515 0.069630
Si Si3 0.213103 0.194678 0.206139
Si Si4 0.589538 0.694638 0.635688
Si Si5 0.951702 0.192816 0.796412
Si Si6 0.671147 0.695250 0.500794
Si Si7 0.290355 0.807691 0.067953
O O1 0.841729 0.247387 0.374086
O O2 0.625225 0.255451 0.283371
O O3 0.778601 0.250323 0.427154
O O4 0.743831 0.000000 0.360903
O O5 0.183574 0.250222 0.142260
O O6 0.207497 0.253408 0.065826
O O7 0.132953 0.000000 0.070027
O O8 0.000000 0.247165 0.000000
O O9 0.335050 0.249282 0.285469
O O10 0.117784 0.250001 0.194424
O O11 0.210975 0.000000 0.205096
O O12 0.588329 0.500000 0.634842
O O13 0.459344 0.751816 0.570310
O O14 0.079203 0.258453 0.858913
O O15 0.956844 0.000000 0.800835
O O16 0.668849 0.500000 0.500657
O O17 0.750000 0.750000 0.500000
O O18 0.282853 0.000000 0.064639
O O19 0.250000 0.750000 0.000000
#
# Coordination Sequence:
#
# PCOD9196076 Si02
#       7
#     8   8   8   8   8   8   8
#     4   9  18  35  57  77 101 137 179 217 257 311
#     4   9  18  34  55  76 100 134 174 212 252 302
#     4   9  18  34  56  79 102 133 174 216 259 310
#     4   9  18  34  55  77 102 135 175 217 261 310
#     4  10  20  35  56  81 108 136 170 215 263 311
#     4  10  21  35  52  76 106 140 176 217 265 314
#     4  11  22  36  56  80 107 140 176 215 260 309
#
# _framework density 19.069738999999998
#
# number of rings (size 3 to 8) (size 9 to 14) (size 15 to 20)
#    0.000    2.429    0.000    2.143    0.000    6.857 
#    0.000    5.714    0.000    7.286    0.000    0.000 
#    0.000    0.000    0.000    0.000    0.000    0.000 
#
# Total GULP energy -156308.296079 kJ/mol
# GULP energy per Si atom -5582.439146 kJ/mol
# Density = 1.902634 g / cm^3
# Si number density = 19.069739 Si / 1000 Ang^3
#
#
#
# Elastic Constant Matrix: (Units=GPa)
#
#
# Indices 1 2 3 4 5 6 
#
# 1 146.7022 18.0479 140.6675 0.0000 -2.9637 0.0001
# 2 18.0479 11.8049 22.0573 0.0000 -0.0756 0.0002
# 3 140.6675 22.0573 216.5047 0.0000 -3.6042 0.0000
# 4 0.0000 0.0000 0.0000 31.4731 0.0000 -1.5213
# 5 -2.9637 -0.0756 -3.6042 0.0000 38.5536 0.0000
# 6 0.0001 0.0002 0.0000 -1.5213 0.0000 22.3269
#
#
#
# Elastic Compliance Matrix: (Units=1/GPa)
#
#
# Indices 1 2 3 4 5 6 
#
# 1 0.018571 -0.007233 -0.011323 0.000000 0.000355 0.000000
# 2 -0.007233 0.107469 -0.006265 0.000000 -0.000931 -0.000001
# 3 -0.011323 -0.006265 0.012619 0.000000 0.000297 0.000000
# 4 0.000000 0.000000 0.000000 0.031878 0.000000 0.002172
# 5 0.000355 -0.000931 0.000297 0.000000 0.025991 0.000000
# 6 0.000000 -0.000001 0.000000 0.002172 0.000000 0.044937
#
#
# Mechanical properties :
#
#
# Convention : Reuss Voigt Hill
#
# Bulk Modulus (GPa) = 11.23383 81.83968 46.53675
# Shear Modulus (GPa) = 15.58707 31.41999 23.50353
#
# Velocity S-wave (km/s) = 2.86207 4.06351 3.51451
# Velocity P-wave (km/s) = 4.10191 8.06383 6.39730
#
# Compressibility (1/GPa) = 0.08901684
#
# Stress axis : x y z
#
# Youngs Moduli (GPa) = 53.84811 9.30502 79.24642
#
# Poissons Ratio (x) = 0.06730 0.89731
# Poissons Ratio (y) = 0.38947 0.49648
# Poissons Ratio (z) = 0.60972 0.05830
#
# Static dielectric constant tensor:
#      x y z
#    x 1.651780 0.000000 -0.007990 
#    y 0.000000 1.673540 0.000000 
#    z -0.007990 0.000000 1.598380 
# 
# From -- ./inp_files/377737.got.cif
#   From: 2010.05.17/outbox.cif.g08.bks.cpg/sg12_189_cif.got.tgz:377737.got - 2010.06.03 13:09:07.
