data_PCOD9196320
_publ_section_title
;
Structure prediction by ZEFSAII (Michael W. Deem and Ramdas Pophale) SiO2 
 PCOD9196320
Probable space group: C 2/M
;
_chemical_formula_sum "Si O2"
_cell_formula_units_Z 64
_cell_length_a 33.170563
_cell_length_b 8.653184
_cell_length_c 25.328396
_cell_angle_alpha 90.000000
_cell_angle_beta 26.403691
_cell_angle_gamma 90.000000
_cell_volume 3232.932559
_symmetry_space_group_name_H-M "C 2/M"
_symmetry_group_IT_number 12
_symmetry_cell_setting 'monoclinic'
loop_
_space_group_symop_operation_xyz
x,y,z
-x,y,-z
-x,-y,-z
x,-y,z
1/2+x,1/2+y,z
1/2-x,1/2+y,-z
1/2-x,1/2-y,-z
1/2+x,1/2-y,z
loop_
_atom_site_type_symbol
_atom_site_label
_atom_site_fract_x
_atom_site_fract_y
_atom_site_fract_z
Si Si1 0.132687 0.814592 0.497014
Si Si2 0.433987 0.815506 0.740980
Si Si3 0.925111 0.686128 0.046619
Si Si4 0.373100 0.314256 0.919094
Si Si5 0.985146 0.814332 0.161902
Si Si6 0.799939 0.686206 0.807178
Si Si7 0.276851 0.314132 0.411353
Si Si8 0.780249 0.813594 0.713663
O O1 0.208106 0.748259 0.448101
O O2 0.156376 0.765065 0.409229
O O3 0.032798 0.758818 0.629191
O O4 0.136560 0.000000 0.495238
O O5 0.373887 0.764387 0.861420
O O6 0.383874 0.767784 0.745801
O O7 0.442151 0.000000 0.731531
O O8 0.925696 0.500000 0.047651
O O9 0.822886 0.737484 0.178122
O O10 0.000000 0.744378 0.000000
O O11 0.955276 0.740829 0.953891
O O12 0.367931 0.500000 0.918470
O O13 0.467347 0.275900 0.838321
O O14 0.291146 0.267479 0.054046
O O15 0.880992 0.765256 0.279053
O O16 0.989036 0.000000 0.152178
O O17 0.798005 0.500000 0.805634
O O18 0.804190 0.752629 0.743493
O O19 0.273865 0.500000 0.415577
O O20 0.250000 0.250000 0.500000
O O21 0.781271 0.000000 0.714439
#
# Coordination Sequence:
#
# PCOD9196320 Si02
#       8
#     8   8   8   8   8   8   8   8
#     4  11  24  43  63  86 121 165 209 257 306 360
#     4  11  24  40  61  91 120 156 205 255 311 370
#     4  10  20  35  56  84 116 150 192 241 290 345
#     4  10  20  38  62  90 124 159 196 245 305 369
#     4  10  21  36  57  86 118 152 192 236 292 355
#     4  10  22  40  63  90 123 159 198 251 312 369
#     4  11  23  39  61  91 124 162 206 251 302 361
#     4  10  22  39  61  88 119 159 207 254 304 361
#
# _framework density 19.796268000000001
#
# number of rings (size 3 to 8) (size 9 to 14) (size 15 to 20)
#    0.000    1.625    1.250    3.000    0.000    6.750 
#    0.000    2.500    0.000    0.000    0.000    0.000 
#    0.000    0.000    0.000    0.000    0.000    0.000 
#
# Total GULP energy -178842.227849 kJ/mol
# GULP energy per Si atom -5588.819620 kJ/mol
# Density = 1.975121 g / cm^3
# Si number density = 19.796268 Si / 1000 Ang^3
#
#
#
# Elastic Constant Matrix: (Units=GPa)
#
#
# Indices 1 2 3 4 5 6 
#
# 1 106.8439 21.8920 14.2977 -0.0154 7.0154 0.0061
# 2 21.8920 21.9766 16.0861 0.0018 -0.5168 0.0035
# 3 14.2977 16.0861 75.1365 -0.0224 7.3864 0.0093
# 4 -0.0154 0.0018 -0.0224 22.1388 0.0059 8.2230
# 5 7.0154 -0.5168 7.3864 0.0059 39.2466 -0.0026
# 6 0.0061 0.0035 0.0093 8.2230 -0.0026 31.7997
#
#
#
# Elastic Compliance Matrix: (Units=1/GPa)
#
#
# Indices 1 2 3 4 5 6 
#
# 1 0.011987 -0.012454 0.000624 0.000012 -0.002424 -0.000005
# 2 -0.012454 0.067233 -0.012563 -0.000031 0.005476 0.000007
# 3 0.000624 -0.012563 0.016207 0.000022 -0.003327 -0.000009
# 4 0.000012 -0.000031 0.000022 0.049969 -0.000015 -0.012921
# 5 -0.002424 0.005476 -0.003327 -0.000015 0.026612 0.000007
# 6 -0.000005 0.000007 -0.000009 -0.012921 0.000007 0.034788
#
#
# Mechanical properties :
#
#
# Convention : Reuss Voigt Hill
#
# Bulk Modulus (GPa) = 21.44033 34.27876 27.85955
# Shear Modulus (GPa) = 18.44137 28.74910 23.59524
#
# Velocity S-wave (km/s) = 3.05545 3.81497 3.45614
# Velocity P-wave (km/s) = 4.82719 6.06290 5.47998
#
# Compressibility (1/GPa) = 0.04664107
#
# Stress axis : x y z
#
# Youngs Moduli (GPa) = 83.42353 14.87354 61.70156
#
# Poissons Ratio (x) = 0.18524 -0.03848
# Poissons Ratio (y) = 1.03899 0.77513
# Poissons Ratio (z) = -0.05203 0.18685
#
# Static dielectric constant tensor:
#      x y z
#    x 1.690770 0.000000 -0.015810 
#    y 0.000000 1.681790 0.000000 
#    z -0.015810 0.000000 1.692590 
# 
# From -- ./inp_files/353363.got.cif
#   From: 2010.05.17/outbox.cif.g08.bks.cpg/sg12_177_cif.got.tgz:353363.got - 2010.06.03 13:09:07.
