data_PCOD9196792
_publ_section_title
;
Structure prediction by ZEFSAII (Michael W. Deem and Ramdas Pophale) SiO2 
 PCOD9196792
Probable space group: C 2/M
;
_chemical_formula_sum "Si O2"
_cell_formula_units_Z 64
_cell_length_a 15.878492
_cell_length_b 8.712754
_cell_length_c 24.428957
_cell_angle_alpha 90.000000
_cell_angle_beta 89.705613
_cell_angle_gamma 90.000000
_cell_volume 3379.589088
_symmetry_space_group_name_H-M "C 2/M"
_symmetry_group_IT_number 12
_symmetry_cell_setting 'monoclinic'
loop_
_space_group_symop_operation_xyz
x,y,z
-x,y,-z
-x,-y,-z
x,-y,z
1/2+x,1/2+y,z
1/2-x,1/2+y,-z
1/2-x,1/2-y,-z
1/2+x,1/2-y,z
loop_
_atom_site_type_symbol
_atom_site_label
_atom_site_fract_x
_atom_site_fract_y
_atom_site_fract_z
Si Si1 0.972003 0.814971 0.562045
Si Si2 0.378162 0.816063 0.365161
Si Si3 0.957740 0.681722 0.057864
Si Si4 0.370797 0.683539 0.243745
Si Si5 0.723358 0.318739 0.942292
Si Si6 0.210597 0.312572 0.173701
Si Si7 0.525049 0.182569 0.176128
Si Si8 0.221760 0.185526 0.441449
O O1 0.039761 0.744257 0.603042
O O2 0.000000 0.774793 0.500000
O O3 0.874590 0.766742 0.571029
O O4 0.975737 0.000000 0.566901
O O5 0.376646 0.754160 0.303744
O O6 0.292859 0.767256 0.397457
O O7 0.380265 0.000000 0.364748
O O8 0.935904 0.500000 0.055306
O O9 0.873903 0.778543 0.066537
O O10 0.015926 0.703394 0.110660
O O11 0.000000 0.722116 0.000000
O O12 0.367837 0.500000 0.247857
O O13 0.286545 0.736878 0.212362
O O14 0.450878 0.732375 0.207552
O O15 0.736500 0.500000 0.945108
O O16 0.772387 0.260051 0.888571
O O17 0.750000 0.250000 0.000000
O O18 0.211191 0.500000 0.172523
O O19 0.118037 0.265422 0.192967
O O20 0.516536 0.000000 0.186651
O O21 0.250000 0.250000 0.500000
O O22 0.221601 0.000000 0.444371
#
# Coordination Sequence:
#
# PCOD9196792 Si02
#       8
#     8   8   8   8   8   8   8   8
#     4  10  20  37  62  91 125 162 198 241 297 352
#     4  11  24  40  60  90 124 159 203 249 294 350
#     4  10  20  35  57  86 121 157 195 243 305 365
#     4  11  23  42  63  85 118 159 204 250 300 351
#     4  11  21  36  57  85 121 155 198 247 301 364
#     4   9  20  39  62  85 116 157 197 244 301 361
#     4  10  20  38  63  87 116 155 200 245 298 360
#     4  10  21  37  60  90 125 160 198 243 294 350
#
# _framework density 18.937214999999998
#
# number of rings (size 3 to 8) (size 9 to 14) (size 15 to 20)
#    0.000    1.750    2.500    1.875    0.000    4.500 
#    0.000    6.250    0.000    0.000    0.000    0.000 
#    0.000    0.000    0.000    0.000    0.000    0.000 
#
# Total GULP energy -178721.380748 kJ/mol
# GULP energy per Si atom -5585.043148 kJ/mol
# Density = 1.889411 g / cm^3
# Si number density = 18.937215 Si / 1000 Ang^3
#
#
#
# Elastic Constant Matrix: (Units=GPa)
#
#
# Indices 1 2 3 4 5 6 
#
# 1 165.4065 31.3153 71.9980 0.0000 12.2734 0.0000
# 2 31.3153 20.5090 31.4820 0.0000 5.0564 0.0000
# 3 71.9980 31.4820 133.7189 0.0000 8.0898 0.0000
# 4 0.0000 0.0000 0.0000 26.4818 0.0000 1.3250
# 5 12.2734 5.0564 8.0898 0.0000 28.0768 0.0000
# 6 0.0000 0.0000 0.0000 1.3250 0.0000 28.3605
#
#
#
# Elastic Compliance Matrix: (Units=1/GPa)
#
#
# Indices 1 2 3 4 5 6 
#
# 1 0.009079 -0.009594 -0.002538 0.000000 -0.001510 0.000000
# 2 -0.009594 0.088650 -0.015259 0.000000 -0.007374 0.000000
# 3 -0.002538 -0.015259 0.012421 0.000000 0.000279 0.000000
# 4 0.000000 0.000000 0.000000 0.037850 0.000000 -0.001768
# 5 -0.001510 -0.007374 0.000279 0.000000 0.037524 0.000000
# 6 0.000000 0.000000 0.000000 -0.001768 0.000000 0.035343
#
#
# Mechanical properties :
#
#
# Convention : Reuss Voigt Hill
#
# Bulk Modulus (GPa) = 18.06155 65.46943 41.76549
# Shear Modulus (GPa) = 17.00065 28.90643 22.95354
#
# Velocity S-wave (km/s) = 2.99948 3.91120 3.48528
# Velocity P-wave (km/s) = 4.64264 7.41913 6.18861
#
# Compressibility (1/GPa) = 0.05536624
#
# Stress axis : x y z
#
# Youngs Moduli (GPa) = 110.14452 11.28029 80.51065
#
# Poissons Ratio (x) = 0.10823 0.20435
# Poissons Ratio (y) = 1.05676 1.22854
# Poissons Ratio (z) = 0.27957 0.17213
#
# Static dielectric constant tensor:
#      x y z
#    x 1.657920 0.000000 -0.005020 
#    y 0.000000 1.643980 0.000000 
#    z -0.005020 0.000000 1.623020 
# 
# From -- ./inp_files/338905.got.cif
#   From: 2010.05.17/outbox.cif.g08.bks.cpg/sg12_170_cif.got.tgz:338905.got - 2010.06.03 13:09:07.
