data_PCOD9196743
_publ_section_title
;
Structure prediction by ZEFSAII (Michael W. Deem and Ramdas Pophale) SiO2 
 PCOD9196743
Probable space group: C 2/M
;
_chemical_formula_sum "Si O2"
_cell_formula_units_Z 64
_cell_length_a 15.877800
_cell_length_b 8.166468
_cell_length_c 34.294254
_cell_angle_alpha 90.000000
_cell_angle_beta 45.561055
_cell_angle_gamma 90.000000
_cell_volume 3174.989569
_symmetry_space_group_name_H-M "C 2/M"
_symmetry_group_IT_number 12
_symmetry_cell_setting 'monoclinic'
loop_
_space_group_symop_operation_xyz
x,y,z
-x,y,-z
-x,-y,-z
x,-y,z
1/2+x,1/2+y,z
1/2-x,1/2+y,-z
1/2-x,1/2-y,-z
1/2+x,1/2-y,z
loop_
_atom_site_type_symbol
_atom_site_label
_atom_site_fract_x
_atom_site_fract_y
_atom_site_fract_z
Si Si1 0.121178 0.802204 0.439774
Si Si2 0.081642 0.301766 0.364320
Si Si3 0.546864 0.806094 0.942055
Si Si4 0.313240 0.802135 0.439584
Si Si5 0.363872 0.311457 0.939800
Si Si6 0.709282 0.199328 0.168727
Si Si7 0.243857 0.806065 0.759207
Si Si8 0.985079 0.309223 0.825276
O O1 0.118239 0.749174 0.395922
O O2 0.233398 0.745483 0.428951
O O3 0.000000 0.746222 0.500000
O O4 0.121178 0.000000 0.440633
O O5 0.080834 0.500000 0.363811
O O6 0.173570 0.240483 0.302030
O O7 0.948724 0.245021 0.397334
O O8 0.473928 0.709205 0.933228
O O9 0.683509 0.767095 0.891782
O O10 0.525829 0.000000 0.943038
O O11 0.500000 0.762187 0.000000
O O12 0.250000 0.750000 0.500000
O O13 0.315107 0.000000 0.437641
O O14 0.346789 0.500000 0.934459
O O15 0.396952 0.213204 0.890346
O O16 0.250000 0.250000 0.000000
O O17 0.726628 0.258762 0.207282
O O18 0.585579 0.248595 0.189774
O O19 0.715424 0.000000 0.165640
O O20 0.106767 0.780058 0.794551
O O21 0.266081 0.000000 0.754053
O O22 0.013166 0.500000 0.811772
#
# Coordination Sequence:
#
# PCOD9196743 Si02
#       8
#     8   8   8   8   8   8   8   8
#     4  10  20  35  57  87 121 156 196 246 305 357
#     4  10  22  38  59  87 119 159 205 246 294 358
#     4  11  23  38  59  90 124 156 198 250 304 363
#     4  10  20  35  57  85 119 158 197 244 300 359
#     4  12  24  39  60  88 124 162 201 251 308 364
#     4  10  22  40  63  88 118 159 201 247 304 365
#     4  10  22  42  62  85 120 162 204 248 302 359
#     4  11  23  40  64  93 120 157 207 252 305 365
#
# _framework density 20.157546
#
# number of rings (size 3 to 8) (size 9 to 14) (size 15 to 20)
#    0.000    1.500    2.500    2.625    0.000    6.250 
#    0.000    2.500    0.000    0.000    0.000    0.000 
#    0.000    0.000    0.000    0.000    0.000    0.000 
#
# Total GULP energy -178834.875124 kJ/mol
# GULP energy per Si atom -5588.589848 kJ/mol
# Density = 2.011167 g / cm^3
# Si number density = 20.157546 Si / 1000 Ang^3
#
#
#
# Elastic Constant Matrix: (Units=GPa)
#
#
# Indices 1 2 3 4 5 6 
#
# 1 158.5549 2.1530 69.1386 0.0002 14.3574 0.0003
# 2 2.1530 10.7704 -1.1704 -0.0003 4.5413 0.0044
# 3 69.1386 -1.1704 145.2425 -0.0003 10.8597 -0.0004
# 4 0.0002 -0.0003 -0.0003 11.1870 -0.0016 3.3050
# 5 14.3574 4.5413 10.8597 -0.0016 26.9307 -0.0004
# 6 0.0003 0.0044 -0.0004 3.3050 -0.0004 25.7824
#
#
#
# Elastic Compliance Matrix: (Units=1/GPa)
#
#
# Indices 1 2 3 4 5 6 
#
# 1 0.008177 -0.000890 -0.003696 -0.000001 -0.002719 0.000000
# 2 -0.000890 0.100694 0.002546 0.000005 -0.017532 -0.000018
# 3 -0.003696 0.002546 0.008816 0.000000 -0.002014 0.000000
# 4 -0.000001 0.000005 0.000000 0.092908 0.000005 -0.011910
# 5 -0.002719 -0.017532 -0.002014 0.000005 0.042350 0.000003
# 6 0.000000 -0.000018 0.000000 -0.011910 0.000003 0.040313
#
#
# Mechanical properties :
#
#
# Convention : Reuss Voigt Hill
#
# Bulk Modulus (GPa) = 8.80235 50.53446 29.66840
# Shear Modulus (GPa) = 14.91614 29.07646 21.99630
#
# Velocity S-wave (km/s) = 2.72320 3.80209 3.30694
# Velocity P-wave (km/s) = 3.77678 6.66324 5.41585
#
# Compressibility (1/GPa) = 0.11360605
#
# Stress axis : x y z
#
# Youngs Moduli (GPa) = 122.29360 9.93108 113.43467
#
# Poissons Ratio (x) = 0.00884 0.41929
# Poissons Ratio (y) = 0.10883 -0.28880
# Poissons Ratio (z) = 0.45204 -0.02528
#
# Static dielectric constant tensor:
#      x y z
#    x 1.708450 0.000010 0.002620 
#    y 0.000010 1.777940 -0.000010 
#    z 0.002620 -0.000010 1.686990 
# 
# From -- ./inp_files/375503.got.cif
#   From: 2010.05.17/outbox.cif.g08.bks.cpg/sg12_188_cif.got.tgz:375503.got - 2010.06.03 13:09:07.
