data_PCOD9196068
_publ_section_title
;
Structure prediction by ZEFSAII (Michael W. Deem and Ramdas Pophale) SiO2 
 PCOD9196068
Probable space group: C 2/M
;
_chemical_formula_sum "Si O2"
_cell_formula_units_Z 64
_cell_length_a 12.386856
_cell_length_b 13.059802
_cell_length_c 23.358720
_cell_angle_alpha 90.000000
_cell_angle_beta 108.946618
_cell_angle_gamma 90.000000
_cell_volume 3574.011139
_symmetry_space_group_name_H-M "C 2/M"
_symmetry_group_IT_number 12
_symmetry_cell_setting 'monoclinic'
loop_
_space_group_symop_operation_xyz
x,y,z
-x,y,-z
-x,-y,-z
x,-y,z
1/2+x,1/2+y,z
1/2-x,1/2+y,-z
1/2-x,1/2-y,-z
1/2+x,1/2-y,z
loop_
_atom_site_type_symbol
_atom_site_label
_atom_site_fract_x
_atom_site_fract_y
_atom_site_fract_z
Si Si1 0.036411 0.879316 0.768945
Si Si2 0.817013 0.620303 0.447332
Si Si3 0.223609 0.379495 0.254673
Si Si4 0.622263 0.303730 0.045033
Si Si5 0.963287 0.270923 0.854624
Si Si6 0.947467 0.620087 0.581563
Si Si7 0.852365 0.617561 0.034234
Si Si8 0.640021 0.261191 0.339719
O O1 0.157461 0.864118 0.758231
O O2 0.025394 0.809294 0.823403
O O3 0.935964 0.839822 0.709862
O O4 0.024011 0.000000 0.779492
O O5 0.788081 0.500000 0.444179
O O6 0.852460 0.650762 0.517847
O O7 0.719264 0.681282 0.398643
O O8 0.931651 0.630972 0.429195
O O9 0.213535 0.500000 0.266810
O O10 0.119702 0.342908 0.196417
O O11 0.213432 0.308538 0.308916
O O12 0.610285 0.290118 0.110646
O O13 0.727888 0.369917 0.041401
O O14 0.500000 0.341049 0.000000
O O15 0.641919 0.191384 0.019976
O O16 0.055289 0.336743 0.905717
O O17 0.931056 0.500000 0.591491
O O18 0.939451 0.686216 0.636927
O O19 0.875342 0.500000 0.024365
#
# Coordination Sequence:
#
# PCOD9196068 Si02
#       8
#     8   8   8   8   8   8   8   8
#     4  10  22  37  52  73 102 135 170 210 255 300
#     4   9  18  32  50  73 101 132 166 205 251 303
#     4  10  21  35  51  73 101 133 169 211 257 298
#     4   9  20  36  53  80 110 134 165 204 250 300
#     4  10  20  36  56  75 100 135 174 210 245 294
#     4   9  18  32  50  74 102 131 165 206 252 302
#     4  10  20  35  56  81 107 134 167 206 247 296
#     4  11  19  32  53  75  99 131 170 210 252 301
#
# _framework density 17.907050999999999
#
# number of rings (size 3 to 8) (size 9 to 14) (size 15 to 20)
#    0.000    2.250    0.000    3.750    0.000    3.500 
#    0.000    7.500    0.000    8.250    0.000   10.500 
#    0.000    0.000    0.000    0.000    0.000    0.000 
#
# Total GULP energy -178576.999717 kJ/mol
# GULP energy per Si atom -5580.531241 kJ/mol
# Density = 1.786629 g / cm^3
# Si number density = 17.907051 Si / 1000 Ang^3
#
#
#
# Elastic Constant Matrix: (Units=GPa)
#
#
# Indices 1 2 3 4 5 6 
#
# 1 62.6868 27.6460 -0.1857 0.0000 -5.6350 0.0000
# 2 27.6460 84.5213 21.3393 0.0000 -4.0041 0.0000
# 3 -0.1857 21.3393 34.9663 0.0000 -8.0763 0.0000
# 4 0.0000 0.0000 0.0000 4.7933 0.0000 6.4151
# 5 -5.6350 -4.0041 -8.0763 0.0000 24.1015 0.0000
# 6 0.0000 0.0000 0.0000 6.4151 0.0000 15.3594
#
#
#
# Elastic Compliance Matrix: (Units=1/GPa)
#
#
# Indices 1 2 3 4 5 6 
#
# 1 0.019893 -0.007793 0.006110 0.000000 0.005404 0.000000
# 2 -0.007793 0.017047 -0.011068 0.000000 -0.002699 0.000000
# 3 0.006110 -0.011068 0.038252 0.000000 0.012408 0.000000
# 4 0.000000 0.000000 0.000000 0.473052 0.000000 -0.197579
# 5 0.005404 -0.002699 0.012408 0.000000 0.046464 0.000000
# 6 0.000000 0.000000 0.000000 -0.197579 0.000000 0.147630
#
#
# Mechanical properties :
#
#
# Convention : Reuss Voigt Hill
#
# Bulk Modulus (GPa) = 20.12530 31.08597 25.60564
# Shear Modulus (GPa) = 6.37426 17.74250 12.05838
#
# Velocity S-wave (km/s) = 1.88875 3.15113 2.59779
# Velocity P-wave (km/s) = 4.00246 5.53505 4.82993
#
# Compressibility (1/GPa) = 0.04968869
#
# Stress axis : x y z
#
# Youngs Moduli (GPa) = 50.26843 58.66113 26.14245
#
# Poissons Ratio (x) = 0.45717 -0.15973
# Poissons Ratio (y) = 0.39176 0.28935
# Poissons Ratio (z) = -0.30714 0.64928
#
# Static dielectric constant tensor:
#      x y z
#    x 1.603590 0.000000 0.000820 
#    y 0.000000 1.592180 0.000000 
#    z 0.000820 0.000000 1.597930 
# 
# From -- ./inp_files/335211.got.cif
#   From: 2010.05.17/outbox.cif.g08.bks.cpg/sg12_168_cif.got.tgz:335211.got - 2010.06.03 13:09:07.
