data_PCOD9196678
_publ_section_title
;
Structure prediction by ZEFSAII (Michael W. Deem and Ramdas Pophale) SiO2 
 PCOD9196678
Probable space group: C 2/M
;
_chemical_formula_sum "Si O2"
_cell_formula_units_Z 64
_cell_length_a 20.329491
_cell_length_b 8.675558
_cell_length_c 31.742440
_cell_angle_alpha 90.000000
_cell_angle_beta 35.943559
_cell_angle_gamma 90.000000
_cell_volume 3286.196037
_symmetry_space_group_name_H-M "C 2/M"
_symmetry_group_IT_number 12
_symmetry_cell_setting 'monoclinic'
loop_
_space_group_symop_operation_xyz
x,y,z
-x,y,-z
-x,-y,-z
x,-y,z
1/2+x,1/2+y,z
1/2-x,1/2+y,-z
1/2-x,1/2-y,-z
1/2+x,1/2-y,z
loop_
_atom_site_type_symbol
_atom_site_label
_atom_site_fract_x
_atom_site_fract_y
_atom_site_fract_z
Si Si1 0.777962 0.187029 0.364287
Si Si2 0.945573 0.323009 0.481362
Si Si3 0.081370 0.818276 0.920014
Si Si4 0.978436 0.684519 0.742715
Si Si5 0.679852 0.816732 0.097337
Si Si6 0.174235 0.687133 0.328349
Si Si7 0.697339 0.682215 0.226391
Si Si8 0.590123 0.180318 0.050273
O O1 0.677547 0.244422 0.447094
O O2 0.744223 0.231008 0.333807
O O3 0.898327 0.248259 0.314786
O O4 0.776722 0.000000 0.366232
O O5 0.929991 0.500000 0.475310
O O6 0.000000 0.328866 0.500000
O O7 0.045419 0.255703 0.401523
O O8 0.199026 0.733180 0.856539
O O9 0.011247 0.781357 0.914402
O O10 0.102180 0.000000 0.913868
O O11 0.000000 0.767169 0.000000
O O12 0.983962 0.500000 0.738919
O O13 0.899780 0.729974 0.823141
O O14 0.915262 0.745142 0.734255
O O15 0.616402 0.793686 0.085818
O O16 0.704865 0.000000 0.088263
O O17 0.796701 0.727434 0.033070
O O18 0.172502 0.500000 0.327835
O O19 0.219557 0.752531 0.261455
O O20 0.688559 0.500000 0.232084
O O21 0.565222 0.000000 0.056786
#
# Coordination Sequence:
#
# PCOD9196678 Si02
#       8
#     8   8   8   8   8   8   8   8
#     4   9  18  34  60  92 119 149 192 236 282 342
#     4   7  12  28  56  87 118 149 185 231 281 337
#     4  11  24  41  60  81 110 149 192 236 288 348
#     4  11  23  39  57  79 115 156 194 236 290 346
#     4   9  20  37  55  78 111 148 183 231 286 339
#     4   9  18  36  62  90 119 153 190 233 288 345
#     4  12  26  41  58  83 117 153 196 245 290 340
#     4  10  20  35  57  85 110 139 184 235 285 340
#
# _framework density 19.475406
#
# number of rings (size 3 to 8) (size 9 to 14) (size 15 to 20)
#    0.000    2.250    0.000    4.500    1.750    6.000 
#    0.000    1.250    0.000    2.250    0.000    0.000 
#    0.000    0.000    0.000    0.000    0.000    0.000 
#
# Total GULP energy -178632.181790 kJ/mol
# GULP energy per Si atom -5582.255681 kJ/mol
# Density = 1.943108 g / cm^3
# Si number density = 19.475406 Si / 1000 Ang^3
#
#
#
# Elastic Constant Matrix: (Units=GPa)
#
#
# Indices 1 2 3 4 5 6 
#
# 1 66.8194 18.7900 27.6322 -0.0001 -21.2524 0.0020
# 2 18.7900 23.9884 17.0596 0.0006 -4.5058 0.0060
# 3 27.6322 17.0596 73.3428 -0.0002 -13.1249 0.0007
# 4 -0.0001 0.0006 -0.0002 14.2052 0.0001 -8.3392
# 5 -21.2524 -4.5058 -13.1249 0.0001 27.7395 -0.0004
# 6 0.0020 0.0060 0.0007 -8.3392 -0.0004 15.7259
#
#
#
# Elastic Compliance Matrix: (Units=1/GPa)
#
#
# Indices 1 2 3 4 5 6 
#
# 1 0.025392 -0.014557 -0.003411 0.000003 0.015475 0.000005
# 2 -0.014557 0.058503 -0.009197 -0.000021 -0.006002 -0.000031
# 3 -0.003411 -0.009197 0.017834 0.000003 0.004331 0.000005
# 4 0.000003 -0.000021 0.000003 0.102217 0.000001 0.054204
# 5 0.015475 -0.006002 0.004331 0.000001 0.048980 0.000002
# 6 0.000005 -0.000031 0.000005 0.054204 0.000002 0.092333
#
#
# Mechanical properties :
#
#
# Convention : Reuss Voigt Hill
#
# Bulk Modulus (GPa) = 21.09801 32.34604 26.72203
# Shear Modulus (GPa) = 12.03690 18.24536 15.14113
#
# Velocity S-wave (km/s) = 2.48877 3.06411 2.79130
# Velocity P-wave (km/s) = 4.37211 5.40028 4.91316
#
# Compressibility (1/GPa) = 0.04739784
#
# Stress axis : x y z
#
# Youngs Moduli (GPa) = 39.38277 17.09325 56.07224
#
# Poissons Ratio (x) = 0.24882 0.19128
# Poissons Ratio (y) = 0.57328 0.51572
# Poissons Ratio (z) = 0.13435 0.15721
#
# Static dielectric constant tensor:
#      x y z
#    x 1.671610 0.000000 0.004940 
#    y 0.000000 1.658260 0.000000 
#    z 0.004940 0.000000 1.701110 
# 
# From -- ./inp_files/378075.got.cif
#   From: 2010.05.17/outbox.cif.g08.bks.cpg/sg12_190_cif.got.tgz:378075.got - 2010.06.03 13:09:07.
