data_PCOD9196529
_publ_section_title
;
Structure prediction by ZEFSAII (Michael W. Deem and Ramdas Pophale) SiO2 
 PCOD9196529
Probable space group: C 2/M
;
_chemical_formula_sum "Si O2"
_cell_formula_units_Z 56
_cell_length_a 16.108608
_cell_length_b 7.461574
_cell_length_c 20.384357
_cell_angle_alpha 90.000000
_cell_angle_beta 123.280990
_cell_angle_gamma 90.000000
_cell_volume 2048.265687
_symmetry_space_group_name_H-M "C 2/M"
_symmetry_group_IT_number 12
_symmetry_cell_setting 'monoclinic'
loop_
_space_group_symop_operation_xyz
x,y,z
-x,y,-z
-x,-y,-z
x,-y,z
1/2+x,1/2+y,z
1/2-x,1/2+y,-z
1/2-x,1/2-y,-z
1/2+x,1/2-y,z
loop_
_atom_site_type_symbol
_atom_site_label
_atom_site_fract_x
_atom_site_fract_y
_atom_site_fract_z
Si Si1 0.599323 0.294175 0.483221
Si Si2 0.995584 0.220647 0.092917
Si Si3 0.690824 0.707906 0.238432
Si Si4 0.406577 0.708372 0.192158
Si Si5 0.190903 0.283357 0.382520
Si Si6 0.081812 0.790477 0.662567
Si Si7 0.297620 0.712740 0.948753
O O1 0.594302 0.500000 0.504564
O O2 0.694447 0.216040 0.561931
O O3 0.636523 0.289120 0.423207
O O4 0.488206 0.216897 0.425485
O O5 0.948263 0.280699 0.142196
O O6 0.109761 0.277517 0.151261
O O7 0.996788 0.000000 0.090471
O O8 0.911992 0.276043 0.003838
O O9 0.705360 0.500000 0.229563
O O10 0.648182 0.725789 0.293952
O O11 0.799950 0.787534 0.292037
O O12 0.434364 0.500000 0.204621
O O13 0.439006 0.791924 0.274831
O O14 0.286361 0.715123 0.135953
O O15 0.190193 0.500000 0.385746
O O16 0.055497 0.000000 0.653116
O O17 0.301438 0.500000 0.940126
O O18 0.250000 0.750000 0.000000
#
# Coordination Sequence:
#
# PCOD9196529 Si02
#       7
#     8   8   8   8   8   8   8
#     4   9  19  37  59  79 103 137 171 207 256 311
#     4   8  16  32  53  74  97 132 172 207 250 306
#     4  11  22  36  53  74 105 142 178 213 254 304
#     4   9  17  32  54  76  99 129 168 213 259 305
#     4  10  20  35  57  83 106 130 169 216 258 304
#     4  10  21  37  54  74 105 142 176 210 254 308
#     4   9  16  29  50  75 101 128 165 210 255 304
#
# _framework density 27.340201
#
# number of rings (size 3 to 8) (size 9 to 14) (size 15 to 20)
#    0.000    2.571    0.000    3.000    0.000    4.571 
#    0.000   13.571    0.000    4.286    0.000    0.000 
#    0.000    0.000    0.000    0.000    0.000    0.000 
#
# Total GULP energy -156548.344205 kJ/mol
# GULP energy per Si atom -5591.012293 kJ/mol
# Density = 2.727797 g / cm^3
# Si number density = 27.340201 Si / 1000 Ang^3
#
#
#
# Elastic Constant Matrix: (Units=GPa)
#
#
# Indices 1 2 3 4 5 6 
#
# 1 98.2037 -2.2701 29.8835 0.0000 30.0981 0.0000
# 2 -2.2701 104.3190 0.4848 0.0000 5.3994 0.0000
# 3 29.8835 0.4848 222.9247 0.0000 23.8300 0.0000
# 4 0.0000 0.0000 0.0000 12.8476 0.0000 7.8554
# 5 30.0981 5.3994 23.8300 0.0000 63.9640 0.0000
# 6 0.0000 0.0000 0.0000 7.8554 0.0000 14.7000
#
#
#
# Elastic Compliance Matrix: (Units=1/GPa)
#
#
# Indices 1 2 3 4 5 6 
#
# 1 0.012165 0.000548 -0.001057 0.000000 -0.005377 0.000000
# 2 0.000548 0.009654 0.000021 0.000000 -0.001081 0.000000
# 3 -0.001057 0.000021 0.004764 0.000000 -0.001279 0.000000
# 4 0.000000 0.000000 0.000000 0.115610 0.000000 -0.061780
# 5 -0.005377 -0.001081 -0.001279 0.000000 0.018732 0.000000
# 6 0.000000 0.000000 0.000000 -0.061780 0.000000 0.101041
#
#
# Mechanical properties :
#
#
# Convention : Reuss Voigt Hill
#
# Bulk Modulus (GPa) = 39.05221 53.51596 46.28408
# Shear Modulus (GPa) = 18.41773 44.79226 31.60500
#
# Velocity S-wave (km/s) = 2.59829 4.05202 3.40367
# Velocity P-wave (km/s) = 4.82870 6.44270 5.69319
#
# Compressibility (1/GPa) = 0.02560675
#
# Stress axis : x y z
#
# Youngs Moduli (GPa) = 82.20187 103.58681 209.89692
#
# Poissons Ratio (x) = -0.05676 0.22190
# Poissons Ratio (y) = -0.04504 -0.00442
# Poissons Ratio (z) = 0.08690 -0.00218
#
# Static dielectric constant tensor:
#      x y z
#    x 2.254410 0.000000 0.015940 
#    y 0.000000 2.072280 0.000000 
#    z 0.015940 0.000000 2.115500 
# 
# From -- ./inp_files/342507.got.cif
#   From: 2010.05.17/outbox.cif.g08.bks.cpg/sg12_172_cif.got.tgz:342507.got - 2010.06.03 13:09:07.
