data_PCOD9196744
_publ_section_title
;
Structure prediction by ZEFSAII (Michael W. Deem and Ramdas Pophale) SiO2 
 PCOD9196744
Probable space group: C 2/M
;
_chemical_formula_sum "Si O2"
_cell_formula_units_Z 64
_cell_length_a 26.806348
_cell_length_b 11.573076
_cell_length_c 15.416223
_cell_angle_alpha 90.000000
_cell_angle_beta 45.001769
_cell_angle_gamma 90.000000
_cell_volume 3381.916268
_symmetry_space_group_name_H-M "C 2/M"
_symmetry_group_IT_number 12
_symmetry_cell_setting 'monoclinic'
loop_
_space_group_symop_operation_xyz
x,y,z
-x,y,-z
-x,-y,-z
x,-y,z
1/2+x,1/2+y,z
1/2-x,1/2+y,-z
1/2-x,1/2-y,-z
1/2+x,1/2-y,z
loop_
_atom_site_type_symbol
_atom_site_label
_atom_site_fract_x
_atom_site_fract_y
_atom_site_fract_z
Si Si1 0.599666 0.873403 0.042541
Si Si2 0.048062 0.302340 0.717529
Si Si3 0.321791 0.758009 0.209426
Si Si4 0.444991 0.633182 0.139149
Si Si5 0.805825 0.372168 0.711042
Si Si6 0.296571 0.132770 0.418656
Si Si7 0.964450 0.366327 0.454607
Si Si8 0.202535 0.635283 0.074702
O O1 0.515990 0.869695 0.157805
O O2 0.637410 0.853422 0.088574
O O3 0.621309 0.000000 0.986102
O O4 0.631292 0.790937 0.931138
O O5 0.049391 0.187426 0.772929
O O6 0.126398 0.355802 0.630266
O O7 0.025987 0.294781 0.644578
O O8 0.366539 0.658366 0.201726
O O9 0.246991 0.718371 0.265348
O O10 0.311332 0.852980 0.297379
O O11 0.460252 0.500000 0.126969
O O12 0.500000 0.683370 0.000000
O O13 0.774521 0.500000 0.736218
O O14 0.881421 0.368446 0.574239
O O15 0.816687 0.357831 0.800494
O O16 0.250000 0.250000 0.500000
O O17 0.269733 0.000000 0.469260
O O18 0.988635 0.500000 0.409497
O O19 0.000000 0.325468 0.500000
O O20 0.229955 0.500000 0.028114
O O21 0.250000 0.750000 0.000000
#
# Coordination Sequence:
#
# PCOD9196744 Si02
#       8
#     8   8   8   8   8   8   8   8
#     4  11  21  35  58  88 122 152 194 251 311 365
#     4  11  22  39  63  90 119 160 204 253 312 363
#     4  11  21  36  58  87 119 154 200 248 307 364
#     4  10  21  38  57  84 121 163 207 249 300 367
#     4  10  20  35  57  85 119 161 202 248 300 364
#     4  11  25  42  63  88 121 160 207 255 311 371
#     4  10  20  36  60  88 117 152 198 250 303 362
#     4  10  20  36  58  87 123 160 201 248 305 369
#
# _framework density 18.924182999999999
#
# number of rings (size 3 to 8) (size 9 to 14) (size 15 to 20)
#    0.000    1.500    2.500    3.375    0.000    5.500 
#    0.000    2.500    0.000    1.125    0.000    0.000 
#    0.000    0.000    0.000    0.000    0.000    0.000 
#
# Total GULP energy -178251.346355 kJ/mol
# GULP energy per Si atom -5570.354574 kJ/mol
# Density = 1.888111 g / cm^3
# Si number density = 18.924183 Si / 1000 Ang^3
#
#
#
# Elastic Constant Matrix: (Units=GPa)
#
#
# Indices 1 2 3 4 5 6 
#
# 1 118.8328 36.8662 34.3200 0.0000 17.7392 0.0000
# 2 36.8662 81.0462 30.3184 0.0000 6.3866 0.0000
# 3 34.3200 30.3184 70.9457 0.0000 13.4807 0.0000
# 4 0.0000 0.0000 0.0000 10.9471 0.0000 1.2295
# 5 17.7392 6.3866 13.4807 0.0000 39.6709 0.0000
# 6 0.0000 0.0000 0.0000 1.2295 0.0000 8.6915
#
#
#
# Elastic Compliance Matrix: (Units=1/GPa)
#
#
# Indices 1 2 3 4 5 6 
#
# 1 0.010902 -0.003525 -0.003153 0.000000 -0.003236 0.000000
# 2 -0.003525 0.015828 -0.005211 0.000000 0.000799 0.000000
# 3 -0.003153 -0.005211 0.018622 0.000000 -0.004079 0.000000
# 4 0.000000 0.000000 0.000000 0.092823 0.000000 -0.013130
# 5 -0.003236 0.000799 -0.004079 0.000000 0.027912 0.000000
# 6 0.000000 0.000000 0.000000 -0.013130 0.000000 0.116912
#
#
# Mechanical properties :
#
#
# Convention : Reuss Voigt Hill
#
# Bulk Modulus (GPa) = 46.34704 52.64820 49.49762
# Shear Modulus (GPa) = 15.92512 23.14992 19.53752
#
# Velocity S-wave (km/s) = 2.90405 3.50136 3.21660
# Velocity P-wave (km/s) = 5.98237 6.65034 6.32518
#
# Compressibility (1/GPa) = 0.02157635
#
# Stress axis : x y z
#
# Youngs Moduli (GPa) = 91.72330 63.17768 53.69878
#
# Poissons Ratio (x) = 0.22269 0.16930
# Poissons Ratio (y) = 0.32331 0.27981
# Poissons Ratio (z) = 0.28918 0.32921
#
# Static dielectric constant tensor:
#      x y z
#    x 1.651730 0.000000 0.000460 
#    y 0.000000 1.682670 0.000000 
#    z 0.000460 0.000000 1.684880 
# 
# From -- ./inp_files/245920.got.cif
#   From: 2010.05.17/outbox.cif.g08.bks.cpg/sg12_123_cif.got.tgz:245920.got - 2010.06.03 13:09:07.
