data_PCOD9196762
_publ_section_title
;
Structure prediction by ZEFSAII (Michael W. Deem and Ramdas Pophale) SiO2 
 PCOD9196762
Probable space group: C 2/M
;
_chemical_formula_sum "Si O2"
_cell_formula_units_Z 40
_cell_length_a 26.909007
_cell_length_b 7.541716
_cell_length_c 20.984851
_cell_angle_alpha 90.000000
_cell_angle_beta 157.385728
_cell_angle_gamma 90.000000
_cell_volume 1637.565306
_symmetry_space_group_name_H-M "C 2/M"
_symmetry_group_IT_number 12
_symmetry_cell_setting 'monoclinic'
loop_
_space_group_symop_operation_xyz
x,y,z
-x,y,-z
-x,-y,-z
x,-y,z
1/2+x,1/2+y,z
1/2-x,1/2+y,-z
1/2-x,1/2-y,-z
1/2+x,1/2-y,z
loop_
_atom_site_type_symbol
_atom_site_label
_atom_site_fract_x
_atom_site_fract_y
_atom_site_fract_z
Si Si1 0.359139 0.788428 0.181826
Si Si2 0.370228 0.205797 0.550607
Si Si3 0.903739 0.785464 0.738272
Si Si4 0.358437 0.291864 0.324756
Si Si5 0.104382 0.707047 0.076590
O O1 0.502717 0.717332 0.333115
O O2 0.321848 0.721007 0.207365
O O3 0.368968 0.000000 0.197206
O O4 0.250000 0.750000 0.000000
O O5 0.223598 0.278231 0.372996
O O6 0.396048 0.218682 0.657051
O O7 0.362570 0.000000 0.523016
O O8 0.902040 0.000000 0.734684
O O9 0.032677 0.719637 0.924073
O O10 0.500000 0.211641 0.500000
O O11 0.367092 0.500000 0.351667
O O12 0.246241 0.214179 0.236246
O O13 0.118438 0.500000 0.110527
O O14 0.000000 0.791956 0.000000
#
# Coordination Sequence:
#
# PCOD9196762 Si02
#       5
#     8   8   8   8   8
#     4  11  23  39  61  88 120 158 200 245 298 354
#     4   9  20  37  56  82 117 152 187 236 291 345
#     4  10  20  35  57  86 115 147 192 240 288 340
#     4  10  23  42  62  88 122 158 199 246 296 354
#     4  10  22  39  59  83 114 153 193 236 288 344
#
# _framework density 24.426504000000001
#
# number of rings (size 3 to 8) (size 9 to 14) (size 15 to 20)
#    0.000    2.000    0.000    2.400    2.800    8.800 
#    0.000    0.000    0.000    0.000    0.000    0.000 
#    0.000    0.000    0.000    0.000    0.000    0.000 
#
# Total GULP energy -111804.566953 kJ/mol
# GULP energy per Si atom -5590.228348 kJ/mol
# Density = 2.437091 g / cm^3
# Si number density = 24.426504 Si / 1000 Ang^3
#
#
#
# Elastic Constant Matrix: (Units=GPa)
#
#
# Indices 1 2 3 4 5 6 
#
# 1 99.9124 -6.7385 63.2400 0.0000 47.5085 0.0000
# 2 -6.7385 80.4945 9.2408 0.0000 12.5186 0.0000
# 3 63.2400 9.2408 134.3517 0.0000 44.9160 0.0000
# 4 0.0000 0.0000 0.0000 11.0125 0.0000 -3.6194
# 5 47.5085 12.5186 44.9160 0.0000 59.6685 0.0000
# 6 0.0000 0.0000 0.0000 -3.6194 0.0000 15.7768
#
#
#
# Elastic Compliance Matrix: (Units=1/GPa)
#
#
# Indices 1 2 3 4 5 6 
#
# 1 0.019603 0.004193 -0.005350 0.000000 -0.012460 0.000000
# 2 0.004193 0.013739 -0.001121 0.000000 -0.005377 0.000000
# 3 -0.005350 -0.001121 0.011406 0.000000 -0.004091 0.000000
# 4 0.000000 0.000000 0.000000 0.098211 0.000000 0.022531
# 5 -0.012460 -0.005377 -0.004091 0.000000 0.030888 0.000000
# 6 0.000000 0.000000 0.000000 0.022531 0.000000 0.068553
#
#
# Mechanical properties :
#
#
# Convention : Reuss Voigt Hill
#
# Bulk Modulus (GPa) = 24.88015 49.58258 37.23136
# Shear Modulus (GPa) = 19.20463 33.89264 26.54864
#
# Velocity S-wave (km/s) = 2.80701 3.72900 3.30036
# Velocity P-wave (km/s) = 4.55121 6.23565 5.45880
#
# Compressibility (1/GPa) = 0.04019268
#
# Stress axis : x y z
#
# Youngs Moduli (GPa) = 51.01347 72.78458 87.67125
#
# Poissons Ratio (x) = -0.30519 0.46902
# Poissons Ratio (y) = -0.21390 0.09828
# Poissons Ratio (z) = 0.27291 0.08159
#
# Static dielectric constant tensor:
#      x y z
#    x 1.950630 0.000000 0.050110 
#    y 0.000000 1.902920 0.000000 
#    z 0.050110 0.000000 1.961240 
# 
# From -- ./inp_files/353116.got.cif
#   From: 2010.05.17/outbox.cif.g08.bks.cpg/sg12_177_cif.got.tgz:353116.got - 2010.06.03 13:09:07.
