data_PCOD9196416
_publ_section_title
;
Structure prediction by ZEFSAII (Michael W. Deem and Ramdas Pophale) SiO2 
 PCOD9196416
Probable space group: C 2/M
;
_chemical_formula_sum "Si O2"
_cell_formula_units_Z 56
_cell_length_a 26.324939
_cell_length_b 8.992929
_cell_length_c 11.096944
_cell_angle_alpha 90.000000
_cell_angle_beta 107.859128
_cell_angle_gamma 90.000000
_cell_volume 2500.482123
_symmetry_space_group_name_H-M "C 2/M"
_symmetry_group_IT_number 12
_symmetry_cell_setting 'monoclinic'
loop_
_space_group_symop_operation_xyz
x,y,z
-x,y,-z
-x,-y,-z
x,-y,z
1/2+x,1/2+y,z
1/2-x,1/2+y,-z
1/2-x,1/2-y,-z
1/2+x,1/2-y,z
loop_
_atom_site_type_symbol
_atom_site_label
_atom_site_fract_x
_atom_site_fract_y
_atom_site_fract_z
Si Si1 0.358077 0.173261 0.901877
Si Si2 0.305438 0.673781 0.074806
Si Si3 0.627550 0.829816 0.697534
Si Si4 0.040201 0.178123 0.143524
Si Si5 0.830223 0.666114 0.515800
Si Si6 0.286089 0.336226 0.689760
Si Si7 0.006020 0.676502 0.645736
O O1 0.405465 0.240775 0.857239
O O2 0.302299 0.208738 0.793670
O O3 0.365475 0.000000 0.928334
O O4 0.351027 0.262397 0.019750
O O5 0.299452 0.500000 0.058299
O O6 0.328010 0.720191 0.220358
O O7 0.250000 0.750000 0.000000
O O8 0.624606 0.815165 0.550806
O O9 0.569730 0.809250 0.711342
O O10 0.645345 0.000000 0.734284
O O11 0.021377 0.241441 0.260378
O O12 0.047086 0.000000 0.157584
O O13 0.000000 0.205809 0.000000
O O14 0.835721 0.500000 0.575720
O O15 0.773830 0.665096 0.403020
O O16 0.823847 0.798539 0.603961
O O17 0.296953 0.500000 0.748816
O O18 0.991847 0.500000 0.639354
O O19 0.000000 0.725531 0.500000
#
# Coordination Sequence:
#
# PCOD9196416 Si02
#       7
#     8   8   8   8   8   8   8
#     4  12  25  41  65  92 124 165 212 263 322 384
#     4  12  25  42  65  96 133 171 217 267 326 395
#     4  10  21  39  63  90 127 171 217 265 322 386
#     4  11  25  45  68  96 131 172 222 283 344 404
#     4   9  19  35  57  85 121 165 206 250 303 370
#     4  10  20  35  56  87 124 160 204 254 307 371
#     4  10  23  42  66  99 136 178 229 283 340 405
#
# _framework density 22.395679999999999
#
# number of rings (size 3 to 8) (size 9 to 14) (size 15 to 20)
#    0.000    1.429    0.000    5.143    2.000    6.571 
#    0.000    0.000    0.000    0.000    0.000    0.000 
#    0.000    0.000    0.000    0.000    0.000    0.000 
#
# Total GULP energy -156454.027062 kJ/mol
# GULP energy per Si atom -5587.643824 kJ/mol
# Density = 2.234471 g / cm^3
# Si number density = 22.395680 Si / 1000 Ang^3
#
#
#
# Elastic Constant Matrix: (Units=GPa)
#
#
# Indices 1 2 3 4 5 6 
#
# 1 99.1925 48.4303 18.8525 0.0000 -22.0903 0.0000
# 2 48.4303 134.0722 44.8145 0.0000 -9.6310 0.0000
# 3 18.8525 44.8145 85.0824 0.0000 -8.2027 0.0000
# 4 0.0000 0.0000 0.0000 35.1086 0.0000 -6.3334
# 5 -22.0903 -9.6310 -8.2027 0.0000 42.0172 0.0000
# 6 0.0000 0.0000 0.0000 -6.3334 0.0000 25.5690
#
#
#
# Elastic Compliance Matrix: (Units=1/GPa)
#
#
# Indices 1 2 3 4 5 6 
#
# 1 0.013640 -0.004459 -0.000082 0.000000 0.006133 0.000000
# 2 -0.004459 0.010567 -0.004658 0.000000 -0.000832 0.000000
# 3 -0.000082 -0.004658 0.014389 0.000000 0.001698 0.000000
# 4 0.000000 0.000000 0.000000 0.029815 0.000000 0.007385
# 5 0.006133 -0.000832 0.001698 0.000000 0.027165 0.000000
# 6 0.000000 0.000000 0.000000 0.007385 0.000000 0.040939
#
#
# Mechanical properties :
#
#
# Convention : Reuss Voigt Hill
#
# Bulk Modulus (GPa) = 49.51291 60.28242 54.89767
# Shear Modulus (GPa) = 30.93200 34.28898 32.61049
#
# Velocity S-wave (km/s) = 3.72043 3.91711 3.82004
# Velocity P-wave (km/s) = 6.37273 6.88722 6.63496
#
# Compressibility (1/GPa) = 0.02019675
#
# Stress axis : x y z
#
# Youngs Moduli (GPa) = 73.31397 94.63868 69.49956
#
# Poissons Ratio (x) = 0.42199 0.00573
# Poissons Ratio (y) = 0.32691 0.32371
# Poissons Ratio (z) = 0.00604 0.44080
#
# Static dielectric constant tensor:
#      x y z
#    x 1.846600 0.000000 -0.024370 
#    y 0.000000 1.765680 0.000000 
#    z -0.024370 0.000000 1.966110 
# 
# From -- ./inp_files/181148.got.cif
#   From: 2010.05.17/outbox.cif.g08.bks.cpg/sg12_91_cif.got.tgz:181148.got - 2010.06.03 13:09:07.
