data_PCOD9196442
_publ_section_title
;
Structure prediction by ZEFSAII (Michael W. Deem and Ramdas Pophale) SiO2 
 PCOD9196442
Probable space group: C 2/M
;
_chemical_formula_sum "Si O2"
_cell_formula_units_Z 56
_cell_length_a 25.830022
_cell_length_b 15.641249
_cell_length_c 9.675204
_cell_angle_alpha 90.000000
_cell_angle_beta 138.032534
_cell_angle_gamma 90.000000
_cell_volume 2613.925434
_symmetry_space_group_name_H-M "C 2/M"
_symmetry_group_IT_number 12
_symmetry_cell_setting 'monoclinic'
loop_
_space_group_symop_operation_xyz
x,y,z
-x,y,-z
-x,-y,-z
x,-y,z
1/2+x,1/2+y,z
1/2-x,1/2+y,-z
1/2-x,1/2-y,-z
1/2+x,1/2-y,z
loop_
_atom_site_type_symbol
_atom_site_label
_atom_site_fract_x
_atom_site_fract_y
_atom_site_fract_z
Si Si1 0.424203 0.397411 0.266641
Si Si2 0.749549 0.657808 0.065752
Si Si3 0.327879 0.101229 0.969767
Si Si4 0.008357 0.895551 0.172680
Si Si5 0.080941 0.604188 0.102818
Si Si6 0.267313 0.896561 0.412888
Si Si7 0.820976 0.104074 0.493767
O O1 0.500000 0.365779 0.500000
O O2 0.427955 0.500000 0.280419
O O3 0.337285 0.376161 0.136152
O O4 0.441708 0.368777 0.144675
O O5 0.817907 0.613742 0.112652
O O6 0.750000 0.750000 0.000000
O O7 0.762116 0.647146 0.253965
O O8 0.396534 0.134486 0.007563
O O9 0.248561 0.133841 0.741203
O O10 0.328450 0.000000 0.949316
O O11 0.094646 0.868899 0.388597
O O12 0.006835 0.000000 0.168771
O O13 0.000000 0.866598 0.000000
O O14 0.075450 0.500000 0.088740
O O15 0.152556 0.622696 0.347641
O O16 0.000000 0.637570 0.000000
O O17 0.200474 0.872621 0.390931
O O18 0.262512 0.000000 0.382171
O O19 0.820872 0.000000 0.491085
#
# Coordination Sequence:
#
# PCOD9196442 Si02
#       7
#     8   8   8   8   8   8   8
#     4  10  20  35  57  80 104 140 186 234 276 316
#     4  12  24  36  49  75 115 154 186 220 269 336
#     4   9  17  32  55  76  97 132 176 222 272 328
#     4   9  15  23  42  75 105 124 153 209 271 317
#     4   8  15  31  57  85 104 123 169 235 287 325
#     4   9  17  32  56  81 107 142 181 226 280 337
#     4   8  14  27  50  79 103 126 168 225 280 329
#
# _framework density 21.423718999999998
#
# number of rings (size 3 to 8) (size 9 to 14) (size 15 to 20)
#    0.000    2.714    0.000    4.714    0.000    4.571 
#    0.000    5.000    0.000    6.000    0.000    0.000 
#    0.000    0.000    0.000    0.000    0.000    0.143 
#
# Total GULP energy -156091.913999 kJ/mol
# GULP energy per Si atom -5574.711214 kJ/mol
# Density = 2.137496 g / cm^3
# Si number density = 21.423719 Si / 1000 Ang^3
#
#
#
# Elastic Constant Matrix: (Units=GPa)
#
#
# Indices 1 2 3 4 5 6 
#
# 1 163.6479 15.5525 26.4346 0.0000 -6.6500 0.0000
# 2 15.5525 23.2723 4.5854 0.0000 -4.8127 0.0000
# 3 26.4346 4.5854 27.4976 0.0000 -11.2352 0.0000
# 4 0.0000 0.0000 0.0000 -2.6367 0.0000 -10.0769
# 5 -6.6500 -4.8127 -11.2352 0.0000 36.8118 0.0000
# 6 0.0000 0.0000 0.0000 -10.0769 0.0000 -7.3852
#
#
#
# Elastic Compliance Matrix: (Units=1/GPa)
#
#
# Indices 1 2 3 4 5 6 
#
# 1 0.007591 -0.003933 -0.007188 0.000000 -0.001337 0.000000
# 2 -0.003933 0.047003 -0.002098 0.000000 0.004794 0.000000
# 3 -0.007188 -0.002098 0.049108 0.000000 0.013415 0.000000
# 4 0.000000 0.000000 0.000000 0.089985 0.000000 -0.122782
# 5 -0.001337 0.004794 0.013415 0.000000 0.031645 0.000000
# 6 0.000000 0.000000 0.000000 -0.122782 0.000000 0.032127
#
#
# Mechanical properties :
#
#
# Convention : Reuss Voigt Hill
#
# Bulk Modulus (GPa) = 12.94267 34.17364 23.55815
# Shear Modulus (GPa) = 16.14712 16.54767 16.34739
#
# Velocity S-wave (km/s) = 2.74834 2.78222 2.76533
# Velocity P-wave (km/s) = 4.01567 5.12903 4.60611
#
# Compressibility (1/GPa) = 0.07726381
#
# Stress axis : x y z
#
# Youngs Moduli (GPa) = 131.73005 21.27529 20.36314
#
# Poissons Ratio (x) = 0.08368 0.14637
# Poissons Ratio (y) = 0.51813 0.04272
# Poissons Ratio (z) = 0.94689 0.04464
#
# Static dielectric constant tensor:
#      x y z
#    x 2.074880 0.000000 -0.021950 
#    y 0.000000 1.806200 0.000000 
#    z -0.021950 0.000000 1.801560 
# 
# From -- ./inp_files/98179.got.cif
#   From: 2010.05.17/outbox.cif.g08.bks.cpg/sg12_50_cif.got.tgz:98179.got - 2010.06.03 13:09:07.
