data_PCOD9196682
_publ_section_title
;
Structure prediction by ZEFSAII (Michael W. Deem and Ramdas Pophale) SiO2 
 PCOD9196682
Probable space group: C 2/M
;
_chemical_formula_sum "Si O2"
_cell_formula_units_Z 48
_cell_length_a 31.378379
_cell_length_b 7.572754
_cell_length_c 15.090319
_cell_angle_alpha 90.000000
_cell_angle_beta 39.858167
_cell_angle_gamma 90.000000
_cell_volume 2298.083575
_symmetry_space_group_name_H-M "C 2/M"
_symmetry_group_IT_number 12
_symmetry_cell_setting 'monoclinic'
loop_
_space_group_symop_operation_xyz
x,y,z
-x,y,-z
-x,-y,-z
x,-y,z
1/2+x,1/2+y,z
1/2-x,1/2+y,-z
1/2-x,1/2-y,-z
1/2+x,1/2-y,z
loop_
_atom_site_type_symbol
_atom_site_label
_atom_site_fract_x
_atom_site_fract_y
_atom_site_fract_z
Si Si1 0.586922 0.283937 0.150048
Si Si2 0.942616 0.205448 0.326536
Si Si3 0.671139 0.283885 0.842257
Si Si4 0.818743 0.296332 0.639403
Si Si5 0.572472 0.284613 0.846922
Si Si6 0.179644 0.210549 0.158723
O O1 0.587556 0.500000 0.151993
O O2 0.511653 0.221230 0.254882
O O3 0.622059 0.224839 0.184347
O O4 0.631586 0.232149 0.994269
O O5 0.882313 0.213979 0.490980
O O6 0.922651 0.278336 0.262048
O O7 0.957861 0.000000 0.284930
O O8 0.672457 0.500000 0.840847
O O9 0.747090 0.221485 0.725136
O O10 0.629945 0.225317 0.822162
O O11 0.819817 0.500000 0.610336
O O12 0.822786 0.286272 0.739037
O O13 0.575549 0.500000 0.843490
O O14 0.500000 0.235669 0.000000
O O15 0.173535 0.000000 0.177503
O O16 0.250000 0.250000 0.000000
#
# Coordination Sequence:
#
# PCOD9196682 Si02
#       6
#     8   8   8   8   8   8
#     4   9  17  32  56  82 108 140 180 225 273 324
#     4  10  20  35  57  85 112 139 182 233 275 320
#     4   9  16  30  53  81 108 141 181 221 270 324
#     4  11  23  38  54  77 116 154 181 221 277 329
#     4   9  15  27  54  86 108 133 180 233 270 316
#     4  11  21  36  59  85 110 142 185 228 273 325
#
# _framework density 20.886966999999999
#
# number of rings (size 3 to 8) (size 9 to 14) (size 15 to 20)
#    0.000    2.167    3.333    1.000    0.000    1.333 
#    0.000    5.000    0.000    1.500    0.000    0.000 
#    0.000    0.000    0.000    0.000    0.000    0.000 
#
# Total GULP energy -134033.224390 kJ/mol
# GULP energy per Si atom -5584.717683 kJ/mol
# Density = 2.083943 g / cm^3
# Si number density = 20.886967 Si / 1000 Ang^3
#
#
#
# Elastic Constant Matrix: (Units=GPa)
#
#
# Indices 1 2 3 4 5 6 
#
# 1 197.5270 -4.0244 70.4644 0.0018 -16.0653 0.0002
# 2 -4.0244 45.3499 -14.4532 -0.0008 -5.0967 0.0013
# 3 70.4644 -14.4532 112.7928 -0.0005 -10.2662 0.0012
# 4 0.0018 -0.0008 -0.0005 14.3982 0.0000 -2.9338
# 5 -16.0653 -5.0967 -10.2662 0.0000 36.4987 0.0001
# 6 0.0002 0.0013 0.0012 -2.9338 0.0001 9.2931
#
#
#
# Elastic Compliance Matrix: (Units=1/GPa)
#
#
# Indices 1 2 3 4 5 6 
#
# 1 0.006639 -0.000512 -0.004057 -0.000001 0.001709 0.000000
# 2 -0.000512 0.023657 0.003727 0.000001 0.004126 -0.000004
# 3 -0.004057 0.003727 0.012072 0.000001 0.002130 -0.000002
# 4 -0.000001 0.000001 0.000001 0.074228 0.000000 0.023433
# 5 0.001709 0.004126 0.002130 0.000000 0.029326 -0.000001
# 6 0.000000 -0.000004 -0.000002 0.023433 -0.000001 0.115004
#
#
# Mechanical properties :
#
#
# Convention : Reuss Voigt Hill
#
# Bulk Modulus (GPa) = 24.58061 51.07146 37.82604
# Shear Modulus (GPa) = 18.10473 32.28353 25.19413
#
# Velocity S-wave (km/s) = 2.94733 3.93572 3.47683
# Velocity P-wave (km/s) = 4.83491 6.71994 5.85380
#
# Compressibility (1/GPa) = 0.04068247
#
# Stress axis : x y z
#
# Youngs Moduli (GPa) = 150.63520 42.27111 82.83700
#
# Poissons Ratio (x) = 0.02164 0.33609
# Poissons Ratio (y) = 0.07710 -0.30871
# Poissons Ratio (z) = 0.61117 -0.15753
#
# Static dielectric constant tensor:
#      x y z
#    x 1.734180 0.000000 -0.034030 
#    y 0.000000 1.832950 0.000000 
#    z -0.034030 0.000000 1.649210 
# 
# From -- ./inp_files/230343.got.cif
#   From: 2010.05.17/outbox.cif.g08.bks.cpg/sg12_116_cif.got.tgz:230343.got - 2010.06.03 13:09:07.
