data_PCOD9196925
_publ_section_title
;
Structure prediction by ZEFSAII (Michael W. Deem and Ramdas Pophale) SiO2 
 PCOD9196925
Probable space group: C 2/M
;
_chemical_formula_sum "Si O2"
_cell_formula_units_Z 56
_cell_length_a 19.284835
_cell_length_b 8.868287
_cell_length_c 19.924970
_cell_angle_alpha 90.000000
_cell_angle_beta 121.717253
_cell_angle_gamma 90.000000
_cell_volume 2898.716212
_symmetry_space_group_name_H-M "C 2/M"
_symmetry_group_IT_number 12
_symmetry_cell_setting 'monoclinic'
loop_
_space_group_symop_operation_xyz
x,y,z
-x,y,-z
-x,-y,-z
x,-y,z
1/2+x,1/2+y,z
1/2-x,1/2+y,-z
1/2-x,1/2-y,-z
1/2+x,1/2-y,z
loop_
_atom_site_type_symbol
_atom_site_label
_atom_site_fract_x
_atom_site_fract_y
_atom_site_fract_z
Si Si1 0.249423 0.822510 0.817600
Si Si2 0.674674 0.178045 0.500454
Si Si3 0.496352 0.320019 0.576751
Si Si4 0.566891 0.818434 0.089735
Si Si5 0.083026 0.678657 0.743120
Si Si6 0.237180 0.175788 0.317721
Si Si7 0.551487 0.678565 0.228743
O O1 0.340975 0.778816 0.886399
O O2 0.172769 0.735627 0.809060
O O3 0.249527 0.783044 0.738440
O O4 0.238338 0.000000 0.822318
O O5 0.750000 0.250000 0.500000
O O6 0.591801 0.264833 0.443170
O O7 0.697740 0.195047 0.590624
O O8 0.666712 0.000000 0.481736
O O9 0.500000 0.277766 0.500000
O O10 0.504190 0.500000 0.586084
O O11 0.561788 0.243036 0.658456
O O12 0.548542 0.738081 0.150858
O O13 0.565851 0.000000 0.100010
O O14 0.500000 0.780818 0.000000
O O15 0.081093 0.500000 0.739988
O O16 0.013930 0.739574 0.758100
O O17 0.145627 0.203759 0.298665
O O18 0.239328 0.000000 0.296101
O O19 0.536273 0.500000 0.223472
#
# Coordination Sequence:
#
# PCOD9196925 Si02
#       7
#     8   8   8   8   8   8   8
#     4  10  20  35  58  84 110 143 181 222 271 328
#     4  11  22  35  53  77 107 144 187 235 286 336
#     4  11  24  40  57  79 110 148 191 240 291 339
#     4   9  19  38  63  90 119 149 183 224 273 333
#     4  12  24  38  57  81 113 150 190 234 281 336
#     4   9  19  35  54  77 106 141 182 229 277 330
#     4  10  20  36  59  86 116 149 188 232 280 333
#
# _framework density 19.318898000000001
#
# number of rings (size 3 to 8) (size 9 to 14) (size 15 to 20)
#    0.000    1.714    0.000    4.714    0.000    7.143 
#    0.000    0.714    0.000    0.000    0.000    0.000 
#    0.000    0.000    0.000    0.000    0.000    0.000 
#
# Total GULP energy -156484.744489 kJ/mol
# GULP energy per Si atom -5588.740875 kJ/mol
# Density = 1.927493 g / cm^3
# Si number density = 19.318898 Si / 1000 Ang^3
#
#
#
# Elastic Constant Matrix: (Units=GPa)
#
#
# Indices 1 2 3 4 5 6 
#
# 1 103.9657 37.9122 29.4899 0.0000 22.0402 0.0000
# 2 37.9122 63.2351 33.0973 0.0000 12.3152 0.0000
# 3 29.4899 33.0973 79.3459 0.0000 23.6732 0.0000
# 4 0.0000 0.0000 0.0000 23.8359 0.0000 0.2916
# 5 22.0402 12.3152 23.6732 0.0000 26.2174 0.0000
# 6 0.0000 0.0000 0.0000 0.2916 0.0000 31.7795
#
#
#
# Elastic Compliance Matrix: (Units=1/GPa)
#
#
# Indices 1 2 3 4 5 6 
#
# 1 0.013851 -0.006746 0.000267 0.000000 -0.008716 0.000000
# 2 -0.006746 0.023645 -0.007848 0.000000 0.001651 0.000000
# 3 0.000267 -0.007848 0.020182 0.000000 -0.014761 0.000000
# 4 0.000000 0.000000 0.000000 0.041958 0.000000 -0.000385
# 5 -0.008716 0.001651 -0.014761 0.000000 0.058022 0.000000
# 6 0.000000 0.000000 0.000000 -0.000385 0.000000 0.031470
#
#
# Mechanical properties :
#
#
# Convention : Reuss Voigt Hill
#
# Bulk Modulus (GPa) = 34.45725 49.72726 42.09226
# Shear Modulus (GPa) = 21.98212 26.10305 24.04258
#
# Velocity S-wave (km/s) = 3.37687 3.67981 3.53159
# Velocity P-wave (km/s) = 5.75144 6.62199 6.20201
#
# Compressibility (1/GPa) = 0.02902147
#
# Stress axis : x y z
#
# Youngs Moduli (GPa) = 72.19858 42.29252 49.55008
#
# Poissons Ratio (x) = 0.28532 -0.01321
# Poissons Ratio (y) = 0.48707 0.38888
# Poissons Ratio (z) = -0.01925 0.33192
#
# Static dielectric constant tensor:
#      x y z
#    x 1.703700 0.000000 0.016070 
#    y 0.000000 1.645980 0.000000 
#    z 0.016070 0.000000 1.661620 
# 
# From -- ./inp_files/275547.got.cif
#   From: 2010.05.17/outbox.cif.g08.bks.cpg/sg12_138_cif.got.tgz:275547.got - 2010.06.03 13:09:07.
