data_PCOD9196094
_publ_section_title
;
Structure prediction by ZEFSAII (Michael W. Deem and Ramdas Pophale) SiO2 
 PCOD9196094
Probable space group: C 2/M
;
_chemical_formula_sum "Si O2"
_cell_formula_units_Z 56
_cell_length_a 15.521977
_cell_length_b 8.622601
_cell_length_c 25.129109
_cell_angle_alpha 90.000000
_cell_angle_beta 61.365240
_cell_angle_gamma 90.000000
_cell_volume 2951.921166
_symmetry_space_group_name_H-M "C 2/M"
_symmetry_group_IT_number 12
_symmetry_cell_setting 'monoclinic'
loop_
_space_group_symop_operation_xyz
x,y,z
-x,y,-z
-x,-y,-z
x,-y,z
1/2+x,1/2+y,z
1/2-x,1/2+y,-z
1/2-x,1/2-y,-z
1/2+x,1/2-y,z
loop_
_atom_site_type_symbol
_atom_site_label
_atom_site_fract_x
_atom_site_fract_y
_atom_site_fract_z
Si Si1 0.159974 0.684040 0.774513
Si Si2 0.151488 0.187797 0.999514
Si Si3 0.936525 0.689636 0.305887
Si Si4 0.223754 0.680411 0.564645
Si Si5 0.929303 0.186424 0.091324
Si Si6 0.627456 0.183408 0.304320
Si Si7 0.593392 0.818173 0.435507
O O1 0.146833 0.500000 0.781869
O O2 0.102063 0.742609 0.739561
O O3 0.121501 0.758032 0.840038
O O4 0.272950 0.723922 0.730500
O O5 0.132910 0.235181 0.942928
O O6 0.157749 0.000000 0.999433
O O7 0.250000 0.250000 0.000000
O O8 0.044761 0.234942 0.055765
O O9 0.931025 0.500000 0.308297
O O10 0.867196 0.746056 0.374612
O O11 0.047681 0.732410 0.284822
O O12 0.204398 0.500000 0.561771
O O13 0.250000 0.750000 0.500000
O O14 0.317909 0.709928 0.573399
O O15 0.930889 0.000000 0.088871
O O16 0.578542 0.200945 0.377070
O O17 0.649199 0.000000 0.291636
O O18 0.500000 0.785641 0.500000
O O19 0.619932 0.000000 0.436683
#
# Coordination Sequence:
#
# PCOD9196094 Si02
#       7
#     8   8   8   8   8   8   8
#     4  11  22  38  58  84 117 151 194 245 288 331
#     4   9  19  37  62  89 122 156 193 236 280 334
#     4   9  20  38  57  77 109 149 185 231 290 345
#     4  11  21  36  56  79 110 143 184 238 294 352
#     4   9  20  39  59  84 119 161 195 228 282 344
#     4  10  20  37  59  79 107 150 191 229 286 356
#     4  10  20  35  56  81 109 142 186 234 291 358
#
# _framework density 18.970696
#
# number of rings (size 3 to 8) (size 9 to 14) (size 15 to 20)
#    0.000    2.143    1.429    2.571    0.000    4.857 
#    0.000   10.000    0.000    0.000    0.000    0.000 
#    0.000    0.000    0.000    0.000    0.000    0.000 
#
# Total GULP energy -156163.307688 kJ/mol
# GULP energy per Si atom -5577.260989 kJ/mol
# Density = 1.892752 g / cm^3
# Si number density = 18.970696 Si / 1000 Ang^3
#
#
#
# Elastic Constant Matrix: (Units=GPa)
#
#
# Indices 1 2 3 4 5 6 
#
# 1 135.3638 15.4371 52.4479 0.0000 15.9417 0.0000
# 2 15.4371 9.5555 17.4992 0.0000 4.7736 0.0000
# 3 52.4479 17.4992 115.3820 0.0000 12.6681 0.0000
# 4 0.0000 0.0000 0.0000 21.4144 0.0000 -0.4428
# 5 15.9417 4.7736 12.6681 0.0000 19.2224 0.0000
# 6 0.0000 0.0000 0.0000 -0.4428 0.0000 30.6558
#
#
#
# Elastic Compliance Matrix: (Units=1/GPa)
#
#
# Indices 1 2 3 4 5 6 
#
# 1 0.009961 -0.009047 -0.002690 0.000000 -0.004241 0.000000
# 2 -0.009047 0.163371 -0.018363 0.000000 -0.020966 0.000000
# 3 -0.002690 -0.018363 0.012860 0.000000 -0.001684 0.000000
# 4 0.000000 0.000000 0.000000 0.046712 0.000000 0.000675
# 5 -0.004241 -0.020966 -0.001684 0.000000 0.061856 0.000000
# 6 0.000000 0.000000 0.000000 0.000675 0.000000 0.032630
#
#
# Mechanical properties :
#
#
# Convention : Reuss Voigt Hill
#
# Bulk Modulus (GPa) = 7.93709 47.89663 27.91686
# Shear Modulus (GPa) = 11.63910 25.91964 18.77937
#
# Velocity S-wave (km/s) = 2.47964 3.70036 3.14970
# Velocity P-wave (km/s) = 3.52010 6.59995 5.28916
#
# Compressibility (1/GPa) = 0.12599079
#
# Stress axis : x y z
#
# Youngs Moduli (GPa) = 100.39102 6.12106 77.76330
#
# Poissons Ratio (x) = 0.05538 0.20919
# Poissons Ratio (y) = 0.90823 1.42798
# Poissons Ratio (z) = 0.27006 0.11240
#
# Static dielectric constant tensor:
#      x y z
#    x 1.660050 0.000000 0.013420 
#    y 0.000000 1.656670 0.000000 
#    z 0.013420 0.000000 1.660880 
# 
# From -- ./inp_files/308996.got.cif
#   From: 2010.05.17/outbox.cif.g08.bks.cpg/sg12_155_cif.got.tgz:308996.got - 2010.06.03 13:09:07.
