data_PCOD9196975
_publ_section_title
;
Structure prediction by ZEFSAII (Michael W. Deem and Ramdas Pophale) SiO2 
 PCOD9196975
Probable space group: C 2/M
;
_chemical_formula_sum "Si O2"
_cell_formula_units_Z 40
_cell_length_a 17.722464
_cell_length_b 14.168871
_cell_length_c 14.308766
_cell_angle_alpha 90.000000
_cell_angle_beta 143.452543
_cell_angle_gamma 90.000000
_cell_volume 2139.611078
_symmetry_space_group_name_H-M "C 2/M"
_symmetry_group_IT_number 12
_symmetry_cell_setting 'monoclinic'
loop_
_space_group_symop_operation_xyz
x,y,z
-x,y,-z
-x,-y,-z
x,-y,z
1/2+x,1/2+y,z
1/2-x,1/2+y,-z
1/2-x,1/2-y,-z
1/2+x,1/2-y,z
loop_
_atom_site_type_symbol
_atom_site_label
_atom_site_fract_x
_atom_site_fract_y
_atom_site_fract_z
Si Si1 0.799703 0.249420 0.943871
Si Si2 0.640736 0.607947 0.661550
Si Si3 0.347079 0.607314 0.836521
Si Si4 0.285463 0.393562 0.477879
Si Si5 0.590848 0.735753 0.270337
O O1 0.723775 0.329181 0.812384
O O2 0.787799 0.153308 0.870760
O O3 0.750000 0.250000 0.000000
O O4 0.951483 0.263839 0.099066
O O5 0.500000 0.645747 0.500000
O O6 0.626889 0.500000 0.683351
O O7 0.704909 0.604062 0.623936
O O8 0.302991 0.500000 0.775001
O O9 0.333829 0.681734 0.738246
O O10 0.500000 0.602156 0.000000
O O11 0.275470 0.500000 0.503160
O O12 0.406249 0.341645 0.644108
O O13 0.166323 0.326988 0.380347
#
# Coordination Sequence:
#
# PCOD9196975 Si02
#       5
#     8   8   8   8   8
#     4  11  22  36  56  84 117 153 193 239 284 342
#     4  10  21  37  57  83 115 151 189 234 289 344
#     4   9  18  34  56  81 110 146 191 234 281 339
#     4  10  20  35  58  85 113 146 188 237 288 344
#     4  10  20  36  58  85 113 151 190 239 290 341
#
# _framework density 18.694986
#
# number of rings (size 3 to 8) (size 9 to 14) (size 15 to 20)
#    0.000    2.000    2.000    1.800    0.000    2.400 
#    0.000    2.000    0.000    0.600    0.000    0.000 
#    0.000    0.000    0.000    0.000    0.000    0.000 
#
# Total GULP energy -111459.565270 kJ/mol
# GULP energy per Si atom -5572.978264 kJ/mol
# Density = 1.865244 g / cm^3
# Si number density = 18.694986 Si / 1000 Ang^3
#
#
#
# Elastic Constant Matrix: (Units=GPa)
#
#
# Indices 1 2 3 4 5 6 
#
# 1 77.0021 31.5777 18.2745 0.0000 -19.0234 0.0000
# 2 31.5777 128.7046 67.0564 0.0000 3.5052 0.0000
# 3 18.2745 67.0564 121.4511 0.0000 -1.7386 0.0000
# 4 0.0000 0.0000 0.0000 25.1735 0.0000 0.5043
# 5 -19.0234 3.5052 -1.7386 0.0000 28.9279 0.0000
# 6 0.0000 0.0000 0.0000 0.5043 0.0000 16.3205
#
#
#
# Elastic Compliance Matrix: (Units=1/GPa)
#
#
# Indices 1 2 3 4 5 6 
#
# 1 0.018006 -0.004826 0.000133 0.000000 0.012434 0.000000
# 2 -0.004826 0.012283 -0.006128 0.000000 -0.005030 0.000000
# 3 0.000133 -0.006128 0.011619 0.000000 0.001528 0.000000
# 4 0.000000 0.000000 0.000000 0.039749 0.000000 -0.001228
# 5 0.012434 -0.005030 0.001528 0.000000 0.043447 0.000000
# 6 0.000000 0.000000 0.000000 -0.001228 0.000000 0.061311
#
#
# Mechanical properties :
#
#
# Convention : Reuss Voigt Hill
#
# Bulk Modulus (GPa) = 49.34088 62.33055 55.83572
# Shear Modulus (GPa) = 23.27629 28.10099 25.68864
#
# Velocity S-wave (km/s) = 3.53236 3.88123 3.71090
# Velocity P-wave (km/s) = 6.56404 7.31426 6.94928
#
# Compressibility (1/GPa) = 0.02026717
#
# Stress axis : x y z
#
# Youngs Moduli (GPa) = 55.53791 81.41073 86.06603
#
# Poissons Ratio (x) = 0.39286 -0.01145
# Poissons Ratio (y) = 0.26801 0.52740
# Poissons Ratio (z) = -0.00739 0.49888
#
# Static dielectric constant tensor:
#      x y z
#    x 1.678450 0.000000 -0.026240 
#    y 0.000000 1.658140 0.000000 
#    z -0.026240 0.000000 1.654400 
# 
# From -- ./inp_files/142537.got.cif
#   From: 2010.05.17/outbox.cif.g08.bks.cpg/sg12_72_cif.got.tgz:142537.got - 2010.06.03 13:09:07.
