data_PCOD9196348
_publ_section_title
;
Structure prediction by ZEFSAII (Michael W. Deem and Ramdas Pophale) SiO2 
 PCOD9196348
Probable space group: C 2/M
;
_chemical_formula_sum "Si O2"
_cell_formula_units_Z 48
_cell_length_a 8.682430
_cell_length_b 18.013912
_cell_length_c 14.595281
_cell_angle_alpha 90.000000
_cell_angle_beta 81.064219
_cell_angle_gamma 90.000000
_cell_volume 2255.062239
_symmetry_space_group_name_H-M "C 2/M"
_symmetry_group_IT_number 12
_symmetry_cell_setting 'monoclinic'
loop_
_space_group_symop_operation_xyz
x,y,z
-x,y,-z
-x,-y,-z
x,-y,z
1/2+x,1/2+y,z
1/2-x,1/2+y,-z
1/2-x,1/2-y,-z
1/2+x,1/2-y,z
loop_
_atom_site_type_symbol
_atom_site_label
_atom_site_fract_x
_atom_site_fract_y
_atom_site_fract_z
Si Si1 0.457948 0.864763 0.290288
Si Si2 0.055920 0.585017 0.099308
Si Si3 0.980500 0.796977 0.783593
Si Si4 0.725953 0.275732 0.900205
Si Si5 0.799264 0.086780 0.333458
Si Si6 0.681422 0.833111 0.515907
O O1 0.432877 0.902727 0.193522
O O2 0.479306 0.776134 0.278258
O O3 0.625984 0.896930 0.307875
O O4 0.329035 0.869103 0.381743
O O5 0.110844 0.500000 0.097252
O O6 0.185048 0.645891 0.112167
O O7 0.000000 0.599210 0.000000
O O8 0.054809 0.787414 0.877933
O O9 0.066249 0.865829 0.729650
O O10 0.800388 0.784211 0.822921
O O11 0.750000 0.250000 0.000000
O O12 0.780451 0.115934 0.438540
O O13 0.830385 0.000000 0.324367
O O14 0.500000 0.830515 0.500000
O O15 0.750000 0.750000 0.500000
#
# Coordination Sequence:
#
# PCOD9196348 Si02
#       6
#     8   8   8   8   8   8
#     4  10  20  36  60  90 120 161 208 252 303 368
#     4  10  20  35  56  84 119 159 202 257 309 352
#     4  11  20  36  61  89 117 164 199 253 313 363
#     4  11  22  37  59  90 121 157 213 254 301 383
#     4  11  22  38  62  94 126 161 207 260 309 368
#     4  10  21  36  61  94 121 163 204 257 307 372
#
# _framework density 21.285443000000001
#
# number of rings (size 3 to 8) (size 9 to 14) (size 15 to 20)
#    0.000    1.500    5.000    3.000    0.000    3.667 
#    0.000    0.833    0.000    7.500    0.000    0.000 
#    0.000    0.000    0.000    0.000    0.000    0.000 
#
# Total GULP energy -133871.520217 kJ/mol
# GULP energy per Si atom -5577.980009 kJ/mol
# Density = 2.123700 g / cm^3
# Si number density = 21.285443 Si / 1000 Ang^3
#
#
#
# Elastic Constant Matrix: (Units=GPa)
#
#
# Indices 1 2 3 4 5 6 
#
# 1 45.6032 27.7598 4.0731 0.0000 -12.7448 0.0000
# 2 27.7598 146.5130 28.3368 0.0000 -13.3513 0.0000
# 3 4.0731 28.3368 142.1795 0.0000 -25.4940 0.0000
# 4 0.0000 0.0000 0.0000 32.5334 0.0000 -4.5574
# 5 -12.7448 -13.3513 -25.4940 0.0000 22.5498 0.0000
# 6 0.0000 0.0000 0.0000 -4.5574 0.0000 23.8017
#
#
#
# Elastic Compliance Matrix: (Units=1/GPa)
#
#
# Indices 1 2 3 4 5 6 
#
# 1 0.029317 -0.004582 0.003208 0.000000 0.017484 0.000000
# 2 -0.004582 0.008012 -0.001354 0.000000 0.000624 0.000000
# 3 0.003208 -0.001354 0.009272 0.000000 0.011495 0.000000
# 4 0.000000 0.000000 0.000000 0.031585 0.000000 0.006048
# 5 0.017484 0.000624 0.011495 0.000000 0.067593 0.000000
# 6 0.000000 0.000000 0.000000 0.006048 0.000000 0.043172
#
#
# Mechanical properties :
#
#
# Convention : Reuss Voigt Hill
#
# Bulk Modulus (GPa) = 24.30306 50.51502 37.40904
# Shear Modulus (GPa) = 24.02437 34.05203 29.03820
#
# Velocity S-wave (km/s) = 3.36322 4.00406 3.69755
# Velocity P-wave (km/s) = 5.15016 6.72015 5.98684
#
# Compressibility (1/GPa) = 0.04114708
#
# Stress axis : x y z
#
# Youngs Moduli (GPa) = 34.10965 124.81062 107.84692
#
# Poissons Ratio (x) = 0.57188 -0.34602
# Poissons Ratio (y) = 0.15629 0.14600
# Poissons Ratio (z) = -0.10944 0.16896
#
# Static dielectric constant tensor:
#      x y z
#    x 1.963570 0.000000 0.036250 
#    y 0.000000 1.731160 0.000000 
#    z 0.036250 0.000000 1.869030 
# 
# From -- ./inp_files/195935.got.cif
#   From: 2010.05.17/outbox.cif.g08.bks.cpg/sg12_98_cif.got.tgz:195935.got - 2010.06.03 13:09:07.
