data_PCOD9196188
_publ_section_title
;
Structure prediction by ZEFSAII (Michael W. Deem and Ramdas Pophale) SiO2 
 PCOD9196188
Probable space group: C 2/M
;
_chemical_formula_sum "Si O2"
_cell_formula_units_Z 48
_cell_length_a 16.131054
_cell_length_b 13.472950
_cell_length_c 13.009278
_cell_angle_alpha 90.000000
_cell_angle_beta 68.489029
_cell_angle_gamma 90.000000
_cell_volume 2630.411977
_symmetry_space_group_name_H-M "C 2/M"
_symmetry_group_IT_number 12
_symmetry_cell_setting 'monoclinic'
loop_
_space_group_symop_operation_xyz
x,y,z
-x,y,-z
-x,-y,-z
x,-y,z
1/2+x,1/2+y,z
1/2-x,1/2+y,-z
1/2-x,1/2-y,-z
1/2+x,1/2-y,z
loop_
_atom_site_type_symbol
_atom_site_label
_atom_site_fract_x
_atom_site_fract_y
_atom_site_fract_z
Si Si1 0.467877 0.199984 0.897875
Si Si2 0.612739 0.614335 0.157221
Si Si3 0.868266 0.615352 0.298680
Si Si4 0.222693 0.385909 0.076282
Si Si5 0.104954 0.615588 0.470915
Si Si6 0.787748 0.756899 0.730149
O O1 0.459222 0.312758 0.861092
O O2 0.537260 0.141711 0.795218
O O3 0.370210 0.151750 0.929516
O O4 0.500000 0.196487 0.000000
O O5 0.585516 0.500000 0.180262
O O6 0.644707 0.664273 0.248650
O O7 0.698978 0.618294 0.042922
O O8 0.847318 0.500000 0.287693
O O9 0.874261 0.629858 0.418305
O O10 0.794047 0.685114 0.282377
O O11 0.212608 0.500000 0.114065
O O12 0.243027 0.314718 0.162812
O O13 0.123568 0.500000 0.436296
O O14 0.161630 0.688979 0.374995
O O15 0.000000 0.632120 0.500000
#
# Coordination Sequence:
#
# PCOD9196188 Si02
#       6
#     8   8   8   8   8   8
#     4  11  21  35  56  83 112 145 184 225 271 323
#     4  10  21  36  54  78 111 148 183 224 274 324
#     4  11  23  37  56  83 112 142 180 227 275 322
#     4  10  20  35  56  82 112 146 184 226 271 321
#     4  10  21  38  60  84 109 141 181 225 272 320
#     4  11  20  36  58  80 110 145 182 223 269 324
#
# _framework density 18.248090999999999
#
# number of rings (size 3 to 8) (size 9 to 14) (size 15 to 20)
#    0.000    1.500    0.000    8.000    0.000    4.333 
#    0.000    1.667    0.000   11.000    0.000    0.000 
#    0.000    0.000    0.000    0.000    0.000    0.000 
#
# Total GULP energy -134153.289593 kJ/mol
# GULP energy per Si atom -5589.720400 kJ/mol
# Density = 1.820656 g / cm^3
# Si number density = 18.248091 Si / 1000 Ang^3
#
#
#
# Elastic Constant Matrix: (Units=GPa)
#
#
# Indices 1 2 3 4 5 6 
#
# 1 90.6859 52.2488 38.7231 0.0000 17.6974 0.0000
# 2 52.2488 136.7086 45.1265 0.0000 15.9385 0.0000
# 3 38.7231 45.1265 71.7256 0.0000 10.3101 0.0000
# 4 0.0000 0.0000 0.0000 33.6049 0.0000 -2.2021
# 5 17.6974 15.9385 10.3101 0.0000 21.1813 0.0000
# 6 0.0000 0.0000 0.0000 -2.2021 0.0000 23.5335
#
#
#
# Elastic Compliance Matrix: (Units=1/GPa)
#
#
# Indices 1 2 3 4 5 6 
#
# 1 0.017356 -0.003690 -0.005767 0.000000 -0.008917 0.000000
# 2 -0.003690 0.010420 -0.004172 0.000000 -0.002727 0.000000
# 3 -0.005767 -0.004172 0.019931 0.000000 -0.001744 0.000000
# 4 0.000000 0.000000 0.000000 0.029941 0.000000 0.002802
# 5 -0.008917 -0.002727 -0.001744 0.000000 0.057563 0.000000
# 6 0.000000 0.000000 0.000000 0.002802 0.000000 0.042755
#
#
# Mechanical properties :
#
#
# Convention : Reuss Voigt Hill
#
# Bulk Modulus (GPa) = 48.89995 63.47963 56.18979
# Shear Modulus (GPa) = 23.58061 26.53206 25.05634
#
# Velocity S-wave (km/s) = 3.59865 3.81722 3.70955
# Velocity P-wave (km/s) = 6.64248 7.36823 7.01475
#
# Compressibility (1/GPa) = 0.02044992
#
# Stress axis : x y z
#
# Youngs Moduli (GPa) = 57.61808 95.96812 50.17417
#
# Poissons Ratio (x) = 0.35413 0.28933
# Poissons Ratio (y) = 0.21261 0.20931
# Poissons Ratio (z) = 0.33226 0.40035
#
# Static dielectric constant tensor:
#      x y z
#    x 1.601850 0.000000 0.005210 
#    y 0.000000 1.636450 0.000000 
#    z 0.005210 0.000000 1.606020 
# 
# From -- ./inp_files/143572.got.cif
#   From: 2010.05.17/outbox.cif.g08.bks.cpg/sg12_72_cif.got.tgz:143572.got - 2010.06.03 13:09:07.
