data_PCOD9196192
_publ_section_title
;
Structure prediction by ZEFSAII (Michael W. Deem and Ramdas Pophale) SiO2 
 PCOD9196192
Probable space group: C 2/M
;
_chemical_formula_sum "Si O2"
_cell_formula_units_Z 64
_cell_length_a 23.147002
_cell_length_b 16.713262
_cell_length_c 8.571200
_cell_angle_alpha 90.000000
_cell_angle_beta 89.999634
_cell_angle_gamma 90.000000
_cell_volume 3315.870794
_symmetry_space_group_name_H-M "C 2/M"
_symmetry_group_IT_number 12
_symmetry_cell_setting 'monoclinic'
loop_
_space_group_symop_operation_xyz
x,y,z
-x,y,-z
-x,-y,-z
x,-y,z
1/2+x,1/2+y,z
1/2-x,1/2+y,-z
1/2-x,1/2-y,-z
1/2+x,1/2-y,z
loop_
_atom_site_type_symbol
_atom_site_label
_atom_site_fract_x
_atom_site_fract_y
_atom_site_fract_z
Si Si1 0.007852 0.094103 0.823236
Si Si2 0.134751 0.090270 0.683674
Si Si3 0.314880 0.251845 0.186153
Si Si4 0.992151 0.594103 0.823237
Si Si5 0.185117 0.748158 0.186142
Si Si6 0.134750 0.590270 0.316315
Si Si7 0.413024 0.326666 0.609063
Si Si8 0.413021 0.173334 0.390941
O O1 0.968429 0.141079 0.700494
O O2 0.074849 0.099196 0.778907
O O3 0.991111 0.000000 0.817690
O O4 0.000000 0.123492 0.000000
O O5 0.176783 0.158630 0.746795
O O6 0.115310 0.108708 0.506750
O O7 0.156337 0.000000 0.700540
O O8 0.249999 0.223657 0.224005
O O9 0.364481 0.200487 0.268195
O O10 0.321848 0.250004 0.000006
O O11 0.008894 0.500000 0.817695
O O12 0.031574 0.641078 0.700494
O O13 0.925154 0.599193 0.778906
O O14 0.000000 0.623494 0.000000
O O15 0.176780 0.658630 0.253184
O O16 0.135516 0.799514 0.268187
O O17 0.156336 0.500000 0.299448
O O18 0.115313 0.608709 0.493243
O O19 0.426315 0.250000 0.500002
#
# Coordination Sequence:
#
# PCOD9196192 Si02
#       8
#     8   8   8   8   8   8   8   8
#     4  10  20  35  56  82 113 145 179 222 270 322
#     4  10  21  36  57  84 112 144 181 223 273 326
#     4  10  22  40  59  79 107 144 186 230 272 319
#     4  10  20  35  56  82 113 145 179 222 270 322
#     4  10  22  40  59  79 107 144 186 230 272 319
#     4  10  21  36  57  84 112 144 181 223 273 326
#     4  10  21  35  55  81 112 146 181 223 271 324
#     4  10  21  35  55  81 112 146 181 223 271 324
#
# _framework density 19.301113999999998
#
# number of rings (size 3 to 8) (size 9 to 14) (size 15 to 20)
#    0.000    2.000    0.000    3.000    0.000   14.000 
#    0.000    7.500    0.000    5.250    0.000    0.000 
#    0.000    0.000    0.000    0.000    0.000    0.000 
#
# Total GULP energy -178823.571830 kJ/mol
# GULP energy per Si atom -5588.236620 kJ/mol
# Density = 1.925718 g / cm^3
# Si number density = 19.301114 Si / 1000 Ang^3
#
#
#
# Elastic Constant Matrix: (Units=GPa)
#
#
# Indices 1 2 3 4 5 6 
#
# 1 46.4170 -0.9078 11.9335 0.0000 0.0201 0.0000
# 2 -0.9078 25.6314 -1.5853 0.0000 0.0102 0.0000
# 3 11.9335 -1.5853 78.6106 0.0000 0.0336 0.0000
# 4 0.0000 0.0000 0.0000 19.1066 0.0000 -0.0003
# 5 0.0201 0.0102 0.0336 0.0000 -36.4433 0.0000
# 6 0.0000 0.0000 0.0000 -0.0003 0.0000 15.7560
#
#
#
# Elastic Compliance Matrix: (Units=1/GPa)
#
#
# Indices 1 2 3 4 5 6 
#
# 1 0.022428 0.000585 -0.003393 0.000000 0.000009 0.000000
# 2 0.000585 0.039079 0.000699 0.000000 0.000012 0.000000
# 3 -0.003393 0.000699 0.013250 0.000000 0.000011 0.000000
# 4 0.000000 0.000000 0.000000 0.052338 0.000000 0.000001
# 5 0.000009 0.000012 0.000011 0.000000 -0.027440 0.000000
# 6 0.000000 0.000000 0.000000 0.000001 0.000000 0.063468
#
#
# Mechanical properties :
#
#
# Convention : Reuss Voigt Hill
#
# Bulk Modulus (GPa) = 14.17672 18.83776 16.50724
# Shear Modulus (GPa) = 26.19816 9.09841 17.64829
#
# Velocity S-wave (km/s) = 3.68821 2.17351 3.02713
# Velocity P-wave (km/s) = 5.04957 4.00999 4.55950
#
# Compressibility (1/GPa) = 0.07053817
#
# Stress axis : x y z
#
# Youngs Moduli (GPa) = 44.58808 25.58948 75.47130
#
# Poissons Ratio (x) = -0.01496 0.25606
# Poissons Ratio (y) = -0.02606 -0.05278
# Poissons Ratio (z) = 0.15128 -0.01790
#
# Static dielectric constant tensor:
#      x y z
#    x 1.635160 0.000000 0.000000 
#    y 0.000000 1.697420 0.000000 
#    z 0.000000 0.000000 1.663290 
# 
# From -- ./inp_files/87984.got.cif
#   From: 2010.05.17/outbox.cif.g08.bks.cpg/sg12_44_cif.got.tgz:87984.got - 2010.06.03 13:09:07.
