data_PCOD9196167
_publ_section_title
;
Structure prediction by ZEFSAII (Michael W. Deem and Ramdas Pophale) SiO2 
 PCOD9196167
Probable space group: C 2/M
;
_chemical_formula_sum "Si O2"
_cell_formula_units_Z 40
_cell_length_a 18.778861
_cell_length_b 8.779041
_cell_length_c 23.111836
_cell_angle_alpha 90.000000
_cell_angle_beta 144.574346
_cell_angle_gamma 90.000000
_cell_volume 2208.582765
_symmetry_space_group_name_H-M "C 2/M"
_symmetry_group_IT_number 12
_symmetry_cell_setting 'monoclinic'
loop_
_space_group_symop_operation_xyz
x,y,z
-x,y,-z
-x,-y,-z
x,-y,z
1/2+x,1/2+y,z
1/2-x,1/2+y,-z
1/2-x,1/2-y,-z
1/2+x,1/2-y,z
loop_
_atom_site_type_symbol
_atom_site_label
_atom_site_fract_x
_atom_site_fract_y
_atom_site_fract_z
Si Si1 0.948286 0.680638 0.783729
Si Si2 0.675245 0.817195 0.004946
Si Si3 0.623741 0.180775 0.788449
Si Si4 0.523981 0.318158 0.604405
Si Si5 0.681970 0.819085 0.604441
O O1 0.919982 0.500000 0.767558
O O2 0.823979 0.774138 0.697894
O O3 0.031786 0.705603 0.781928
O O4 0.033987 0.718884 0.895905
O O5 0.743360 0.746658 0.105118
O O6 0.687232 0.000000 0.013519
O O7 0.750000 0.750000 0.000000
O O8 0.569460 0.262112 0.696558
O O9 0.632732 0.000000 0.784942
O O10 0.519193 0.500000 0.598364
O O11 0.392211 0.248980 0.499208
O O12 0.617638 0.255154 0.617931
O O13 0.665685 0.000000 0.595284
#
# Coordination Sequence:
#
# PCOD9196167 Si02
#       5
#     8   8   8   8   8
#     4   9  19  35  55  80 110 142 176 216 262 313
#     4   9  17  31  52  78 109 143 177 215 262 314
#     4  10  20  35  56  82 111 140 177 222 264 312
#     4  11  22  38  58  77 105 142 178 217 267 323
#     4  11  22  37  57  79 106 139 178 221 265 316
#
# _framework density 18.111160999999999
#
# number of rings (size 3 to 8) (size 9 to 14) (size 15 to 20)
#    0.000    2.000    0.000    7.200    0.000    5.600 
#    0.000    1.000    0.000    6.000    0.000    0.000 
#    0.000    0.000    0.000    0.000    0.000    0.000 
#
# Total GULP energy -111614.199860 kJ/mol
# GULP energy per Si atom -5580.709993 kJ/mol
# Density = 1.806994 g / cm^3
# Si number density = 18.111161 Si / 1000 Ang^3
#
#
#
# Elastic Constant Matrix: (Units=GPa)
#
#
# Indices 1 2 3 4 5 6 
#
# 1 24.4548 42.9025 56.6088 0.0000 -29.1318 0.0000
# 2 42.9025 145.6677 107.2059 0.0000 -19.3763 0.0000
# 3 56.6088 107.2059 217.1484 0.0000 -86.3951 0.0000
# 4 0.0000 0.0000 0.0000 37.2763 0.0000 -1.7011
# 5 -29.1318 -19.3763 -86.3951 0.0000 265.6572 0.0000
# 6 0.0000 0.0000 0.0000 -1.7011 0.0000 25.0716
#
#
#
# Elastic Compliance Matrix: (Units=1/GPa)
#
#
# Indices 1 2 3 4 5 6 
#
# 1 0.146853 -0.025375 -0.023070 0.000000 0.006750 0.000000
# 2 -0.025375 0.015447 -0.001918 0.000000 -0.002280 0.000000
# 3 -0.023070 -0.001918 0.012065 0.000000 0.001254 0.000000
# 4 0.000000 0.000000 0.000000 0.026910 0.000000 0.001826
# 5 0.006750 -0.002280 0.001254 0.000000 0.004746 0.000000
# 6 0.000000 0.000000 0.000000 0.001826 0.000000 0.040010
#
#
# Mechanical properties :
#
#
# Convention : Reuss Voigt Hill
#
# Bulk Modulus (GPa) = 13.57976 88.96724 51.27350
# Shear Modulus (GPa) = 13.46606 77.63796 45.55201
#
# Velocity S-wave (km/s) = 2.72972 6.55443 5.02055
# Velocity P-wave (km/s) = 4.17725 10.32038 7.87273
#
# Compressibility (1/GPa) = 0.07363902
#
# Stress axis : x y z
#
# Youngs Moduli (GPa) = 6.80951 64.73819 82.88322
#
# Poissons Ratio (x) = 1.64274 1.91212
# Poissons Ratio (y) = 0.17279 0.15897
# Poissons Ratio (z) = 0.15710 0.12417
#
# Static dielectric constant tensor:
#      x y z
#    x 1.583080 0.000000 0.006540 
#    y 0.000000 1.600180 0.000000 
#    z 0.006540 0.000000 1.640220 
# 
# From -- ./inp_files/162502.got.cif
#   From: 2010.05.17/outbox.cif.g08.bks.cpg/sg12_82_cif.got.tgz:162502.got - 2010.06.03 13:09:07.
