data_PCOD9196052
_publ_section_title
;
Structure prediction by ZEFSAII (Michael W. Deem and Ramdas Pophale) SiO2 
 PCOD9196052
Probable space group: C 2/M
;
_chemical_formula_sum "Si O2"
_cell_formula_units_Z 56
_cell_length_a 19.501503
_cell_length_b 8.263935
_cell_length_c 26.638651
_cell_angle_alpha 90.000000
_cell_angle_beta 139.964319
_cell_angle_gamma 90.000000
_cell_volume 2761.574834
_symmetry_space_group_name_H-M "C 2/M"
_symmetry_group_IT_number 12
_symmetry_cell_setting 'monoclinic'
loop_
_space_group_symop_operation_xyz
x,y,z
-x,y,-z
-x,-y,-z
x,-y,z
1/2+x,1/2+y,z
1/2-x,1/2+y,-z
1/2-x,1/2-y,-z
1/2+x,1/2-y,z
loop_
_atom_site_type_symbol
_atom_site_label
_atom_site_fract_x
_atom_site_fract_y
_atom_site_fract_z
Si Si1 0.933164 0.696145 0.235954
Si Si2 0.706526 0.804207 0.746758
Si Si3 0.035800 0.690666 0.573741
Si Si4 0.138627 0.693964 0.915524
Si Si5 0.173077 0.186705 0.500473
Si Si6 0.340734 0.311802 0.666095
Si Si7 0.409610 0.806584 0.813747
O O1 0.944497 0.500000 0.242686
O O2 0.858017 0.744508 0.239786
O O3 0.882152 0.744783 0.153830
O O4 0.051367 0.770005 0.303786
O O5 0.638869 0.744147 0.660490
O O6 0.826917 0.743381 0.810112
O O7 0.707595 0.000000 0.746215
O O8 0.056231 0.500000 0.577083
O O9 0.935001 0.713199 0.553841
O O10 0.000000 0.761905 0.500000
O O11 0.140027 0.500000 0.916186
O O12 0.033086 0.745542 0.887355
O O13 0.250000 0.750000 0.000000
O O14 0.250000 0.250000 0.500000
O O15 0.242912 0.210149 0.589874
O O16 0.146755 0.000000 0.477544
O O17 0.313843 0.500000 0.645522
O O18 0.367125 0.271190 0.738267
O O19 0.408080 0.000000 0.806958
#
# Coordination Sequence:
#
# PCOD9196052 Si02
#       7
#     8   8   8   8   8   8   8
#     4   9  19  36  56  81 113 146 182 226 277 328
#     4  10  20  35  56  80 110 147 183 224 275 329
#     4  10  21  36  54  79 111 145 184 231 281 331
#     4   9  19  36  58  83 110 142 179 222 270 324
#     4  12  24  37  54  77 107 143 186 235 284 330
#     4  11  21  35  56  80 106 141 187 230 274 330
#     4  10  21  37  57  82 112 143 178 221 268 322
#
# _framework density 20.278283999999999
#
# number of rings (size 3 to 8) (size 9 to 14) (size 15 to 20)
#    0.000    1.857    0.000    5.571    0.000    6.571 
#    0.000    0.714    0.000    4.286    0.000    0.000 
#    0.000    0.000    0.000    0.000    0.000    0.000 
#
# Total GULP energy -156445.839740 kJ/mol
# GULP energy per Si atom -5587.351419 kJ/mol
# Density = 2.023213 g / cm^3
# Si number density = 20.278284 Si / 1000 Ang^3
#
#
#
# Elastic Constant Matrix: (Units=GPa)
#
#
# Indices 1 2 3 4 5 6 
#
# 1 111.7119 4.6365 24.4420 0.0000 26.2106 0.0000
# 2 4.6365 18.8666 0.7637 0.0000 -4.5670 -0.0002
# 3 24.4420 0.7637 91.2730 0.0000 25.2726 0.0000
# 4 0.0000 0.0000 0.0000 24.7963 0.0000 5.0165
# 5 26.2106 -4.5670 25.2726 0.0000 27.0821 0.0000
# 6 0.0000 -0.0002 0.0000 5.0165 0.0000 28.3488
#
#
#
# Elastic Compliance Matrix: (Units=1/GPa)
#
#
# Indices 1 2 3 4 5 6 
#
# 1 0.012238 -0.006254 0.000467 0.000000 -0.013335 0.000000
# 2 -0.006254 0.059619 -0.004428 0.000000 0.020239 0.000000
# 3 0.000467 -0.004428 0.015102 0.000000 -0.015292 0.000000
# 4 0.000000 0.000000 0.000000 0.041826 0.000000 -0.007401
# 5 -0.013335 0.020239 -0.015292 0.000000 0.067514 0.000000
# 6 0.000000 0.000000 0.000000 -0.007401 0.000000 0.036585
#
#
# Mechanical properties :
#
#
# Convention : Reuss Voigt Hill
#
# Bulk Modulus (GPa) = 15.03091 31.28174 23.15632
# Shear Modulus (GPa) = 18.14955 28.84609 23.49782
#
# Velocity S-wave (km/s) = 2.99494 3.77571 3.40776
# Velocity P-wave (km/s) = 4.40318 5.87092 5.18920
#
# Compressibility (1/GPa) = 0.06652959
#
# Stress axis : x y z
#
# Youngs Moduli (GPa) = 81.71575 16.77315 66.21503
#
# Poissons Ratio (x) = 0.10490 -0.03095
# Poissons Ratio (y) = 0.51106 0.29320
# Poissons Ratio (z) = -0.03820 0.07427
#
# Static dielectric constant tensor:
#      x y z
#    x 1.751680 0.000000 -0.010680 
#    y 0.000000 1.717040 0.000000 
#    z -0.010680 0.000000 1.719000 
# 
# From -- ./inp_files/363171.got.cif
#   From: 2010.05.17/outbox.cif.g08.bks.cpg/sg12_182_cif.got.tgz:363171.got - 2010.06.03 13:09:07.
