data_PCOD9196974
_publ_section_title
;
Structure prediction by ZEFSAII (Michael W. Deem and Ramdas Pophale) SiO2 
 PCOD9196974
Probable space group: C 2/M
;
_chemical_formula_sum "Si O2"
_cell_formula_units_Z 40
_cell_length_a 18.385229
_cell_length_b 8.914503
_cell_length_c 26.610168
_cell_angle_alpha 90.000000
_cell_angle_beta 29.928259
_cell_angle_gamma 90.000000
_cell_volume 2175.908200
_symmetry_space_group_name_H-M "C 2/M"
_symmetry_group_IT_number 12
_symmetry_cell_setting 'monoclinic'
loop_
_space_group_symop_operation_xyz
x,y,z
-x,y,-z
-x,-y,-z
x,-y,z
1/2+x,1/2+y,z
1/2-x,1/2+y,-z
1/2-x,1/2-y,-z
1/2+x,1/2-y,z
loop_
_atom_site_type_symbol
_atom_site_label
_atom_site_fract_x
_atom_site_fract_y
_atom_site_fract_z
Si Si1 0.684884 0.819925 0.287002
Si Si2 0.334284 0.678777 0.902635
Si Si3 0.829861 0.321075 0.103590
Si Si4 0.099717 0.672425 0.490845
Si Si5 0.151799 0.321680 0.715124
O O1 0.746458 0.765977 0.197298
O O2 0.514675 0.779208 0.397993
O O3 0.778841 0.743939 0.275043
O O4 0.694663 0.000000 0.286599
O O5 0.346942 0.500000 0.902079
O O6 0.243542 0.706572 0.906206
O O7 0.493624 0.750474 0.802783
O O8 0.250000 0.750000 0.000000
O O9 0.822149 0.500000 0.118694
O O10 0.000000 0.278719 0.000000
O O11 0.145615 0.500000 0.471762
O O12 0.238256 0.772945 0.395238
O O13 0.000000 0.673399 0.500000
O O14 0.142484 0.500000 0.724181
#
# Coordination Sequence:
#
# PCOD9196974 Si02
#       5
#     8   8   8   8   8
#     4  10  20  35  58  85 113 146 184 229 278 328
#     4  11  23  39  59  83 113 146 181 227 280 332
#     4  10  22  39  58  82 111 142 180 228 279 332
#     4   8  16  32  53  80 112 144 182 228 276 323
#     4  11  21  34  56  84 114 149 189 228 268 323
#
# _framework density 18.383127999999999
#
# number of rings (size 3 to 8) (size 9 to 14) (size 15 to 20)
#    0.000    2.000    0.000    5.400    0.000    8.000 
#    0.000    1.000    0.000    0.000    0.000    0.000 
#    0.000    0.000    0.000    0.000    0.000    0.000 
#
# Total GULP energy -111689.060022 kJ/mol
# GULP energy per Si atom -5584.453001 kJ/mol
# Density = 1.834129 g / cm^3
# Si number density = 18.383128 Si / 1000 Ang^3
#
#
#
# Elastic Constant Matrix: (Units=GPa)
#
#
# Indices 1 2 3 4 5 6 
#
# 1 72.7147 72.2042 82.8336 0.0000 -2.7538 0.0000
# 2 72.2042 110.9183 98.3495 0.0000 -2.3650 -0.0001
# 3 82.8336 98.3495 200.5851 -0.0002 1.8825 0.0000
# 4 0.0000 0.0000 -0.0002 34.8166 0.0000 8.3388
# 5 -2.7538 -2.3650 1.8825 0.0000 30.9877 0.0000
# 6 0.0000 -0.0001 0.0000 8.3388 0.0000 18.9861
#
#
#
# Elastic Compliance Matrix: (Units=1/GPa)
#
#
# Indices 1 2 3 4 5 6 
#
# 1 0.044490 -0.022274 -0.007476 0.000000 0.002708 0.000000
# 2 -0.022274 0.027191 -0.004137 0.000000 0.000347 0.000000
# 3 -0.007476 -0.004137 0.010116 0.000000 -0.001595 0.000000
# 4 0.000000 0.000000 0.000000 0.032098 0.000000 -0.014098
# 5 0.002708 0.000347 -0.001595 0.000000 0.032635 0.000000
# 6 0.000000 0.000000 0.000000 -0.014098 0.000000 0.058862
#
#
# Mechanical properties :
#
#
# Convention : Reuss Voigt Hill
#
# Bulk Modulus (GPa) = 71.31906 98.99920 85.15913
# Shear Modulus (GPa) = 17.99582 25.68015 21.83799
#
# Velocity S-wave (km/s) = 3.13218 3.74162 3.45038
# Velocity P-wave (km/s) = 7.20839 8.52271 7.89295
#
# Compressibility (1/GPa) = 0.01402150
#
# Stress axis : x y z
#
# Youngs Moduli (GPa) = 22.47702 36.77656 98.85033
#
# Poissons Ratio (x) = 0.81918 0.73905
# Poissons Ratio (y) = 0.50066 0.40895
# Poissons Ratio (z) = 0.16805 0.15215
#
# Static dielectric constant tensor:
#      x y z
#    x 1.609800 0.000000 0.007720 
#    y 0.000000 1.616110 0.000000 
#    z 0.007720 0.000000 1.636560 
# 
# From -- ./inp_files/220608.got.cif
#   From: 2010.05.17/outbox.cif.g08.bks.cpg/sg12_111_cif.got.tgz:220608.got - 2010.06.03 13:09:07.
