data_PCOD9196995
_publ_section_title
;
Structure prediction by ZEFSAII (Michael W. Deem and Ramdas Pophale) SiO2 
 PCOD9196995
Probable space group: C 2/M
;
_chemical_formula_sum "Si O2"
_cell_formula_units_Z 48
_cell_length_a 18.344407
_cell_length_b 8.888101
_cell_length_c 20.753766
_cell_angle_alpha 90.000000
_cell_angle_beta 130.982751
_cell_angle_gamma 90.000000
_cell_volume 2554.483240
_symmetry_space_group_name_H-M "C 2/M"
_symmetry_group_IT_number 12
_symmetry_cell_setting 'monoclinic'
loop_
_space_group_symop_operation_xyz
x,y,z
-x,y,-z
-x,-y,-z
x,-y,z
1/2+x,1/2+y,z
1/2-x,1/2+y,-z
1/2-x,1/2-y,-z
1/2+x,1/2-y,z
loop_
_atom_site_type_symbol
_atom_site_label
_atom_site_fract_x
_atom_site_fract_y
_atom_site_fract_z
Si Si1 0.890352 0.319717 0.739794
Si Si2 0.516429 0.821398 0.585421
Si Si3 0.399518 0.820448 0.085880
Si Si4 0.220259 0.820621 0.742201
Si Si5 0.265601 0.678664 0.904991
Si Si6 0.852215 0.179319 0.579155
O O1 0.892210 0.500000 0.728226
O O2 0.801431 0.287763 0.735701
O O3 0.878048 0.233896 0.665835
O O4 0.991646 0.280185 0.832351
O O5 0.500000 0.795645 0.500000
O O6 0.620656 0.760138 0.666430
O O7 0.434161 0.738957 0.578472
O O8 0.511099 0.000000 0.594705
O O9 0.328516 0.789150 0.105097
O O10 0.395041 0.000000 0.070975
O O11 0.356115 0.734622 0.999567
O O12 0.255829 0.763236 0.832064
O O13 0.205385 0.000000 0.735430
O O14 0.270231 0.500000 0.897246
O O15 0.750000 0.250000 0.500000
O O16 0.846383 0.000000 0.572980
#
# Coordination Sequence:
#
# PCOD9196995 Si02
#       6
#     8   8   8   8   8   8
#     4  10  22  40  61  86 119 158 199 244 294 350
#     4  11  24  42  64  89 119 155 195 241 293 349
#     4   9  19  37  59  82 112 152 196 243 297 354
#     4  11  23  38  59  87 119 156 198 244 294 350
#     4  10  20  35  58  85 115 153 197 247 298 352
#     4  12  25  41  64  91 121 156 195 241 291 347
#
# _framework density 18.790493999999999
#
# number of rings (size 3 to 8) (size 9 to 14) (size 15 to 20)
#    0.000    1.500    0.000    5.000    0.000    8.667 
#    0.000    3.333    0.000    0.000    0.000    0.000 
#    0.000    0.000    0.000    0.000    0.000    0.000 
#
# Total GULP energy -134234.846790 kJ/mol
# GULP energy per Si atom -5593.118616 kJ/mol
# Density = 1.874773 g / cm^3
# Si number density = 18.790494 Si / 1000 Ang^3
#
#
#
# Elastic Constant Matrix: (Units=GPa)
#
#
# Indices 1 2 3 4 5 6 
#
# 1 139.1050 85.0061 93.0830 0.0000 14.9246 0.0000
# 2 85.0061 97.6468 86.0288 0.0000 -5.6578 0.0000
# 3 93.0830 86.0288 142.4210 0.0000 7.1404 0.0000
# 4 0.0000 0.0000 0.0000 36.8471 0.0000 4.3160
# 5 14.9246 -5.6578 7.1404 0.0000 35.7349 0.0000
# 6 0.0000 0.0000 0.0000 4.3160 0.0000 26.7567
#
#
#
# Elastic Compliance Matrix: (Units=1/GPa)
#
#
# Indices 1 2 3 4 5 6 
#
# 1 0.019269 -0.014235 -0.003514 0.000000 -0.009599 0.000000
# 2 -0.014235 0.033842 -0.011823 0.000000 0.013666 0.000000
# 3 -0.003514 -0.011823 0.016647 0.000000 -0.003731 0.000000
# 4 0.000000 0.000000 0.000000 0.027662 0.000000 -0.004462
# 5 -0.009599 0.013666 -0.003731 0.000000 0.034902 0.000000
# 6 0.000000 0.000000 0.000000 -0.004462 0.000000 0.038094
#
#
# Mechanical properties :
#
#
# Convention : Reuss Voigt Hill
#
# Bulk Modulus (GPa) = 94.22366 100.82318 97.52342
# Shear Modulus (GPa) = 21.45027 27.53804 24.49415
#
# Velocity S-wave (km/s) = 3.38235 3.83238 3.61437
# Velocity P-wave (km/s) = 8.09363 8.56480 8.33255
#
# Compressibility (1/GPa) = 0.01061305
#
# Stress axis : x y z
#
# Youngs Moduli (GPa) = 51.89707 29.54942 60.07075
#
# Poissons Ratio (x) = 0.42063 0.21109
# Poissons Ratio (y) = 0.73875 0.71025
# Poissons Ratio (z) = 0.18236 0.34938
#
# Static dielectric constant tensor:
#      x y z
#    x 1.623950 0.000000 0.002410 
#    y 0.000000 1.628070 0.000000 
#    z 0.002410 0.000000 1.613500 
# 
# From -- ./inp_files/274571.got.cif
#   From: 2010.05.17/outbox.cif.g08.bks.cpg/sg12_138_cif.got.tgz:274571.got - 2010.06.03 13:09:07.
