data_PCOD9196342
_publ_section_title
;
Structure prediction by ZEFSAII (Michael W. Deem and Ramdas Pophale) SiO2 
 PCOD9196342
Probable space group: C 2/M
;
_chemical_formula_sum "Si O2"
_cell_formula_units_Z 52
_cell_length_a 13.900008
_cell_length_b 18.469032
_cell_length_c 13.797540
_cell_angle_alpha 90.000000
_cell_angle_beta 45.955260
_cell_angle_gamma 90.000000
_cell_volume 2546.051548
_symmetry_space_group_name_H-M "C 2/M"
_symmetry_group_IT_number 12
_symmetry_cell_setting 'monoclinic'
loop_
_space_group_symop_operation_xyz
x,y,z
-x,y,-z
-x,-y,-z
x,-y,z
1/2+x,1/2+y,z
1/2-x,1/2+y,-z
1/2-x,1/2-y,-z
1/2+x,1/2-y,z
loop_
_atom_site_type_symbol
_atom_site_label
_atom_site_fract_x
_atom_site_fract_y
_atom_site_fract_z
Si Si1 0.787515 0.500000 0.322936
Si Si2 0.788655 0.646547 0.826148
Si Si3 0.288757 0.500000 0.851076
Si Si4 0.235767 0.841193 0.408426
Si Si5 0.900896 0.500000 0.828846
Si Si6 0.453365 0.242125 0.363959
Si Si7 0.144912 0.157055 0.134600
Si Si8 0.350847 0.231472 0.139851
O O1 0.769580 0.500000 0.217812
O O2 0.721719 0.426636 0.409244
O O3 0.941872 0.500000 0.253330
O O4 0.848476 0.567653 0.802854
O O5 0.682730 0.682843 0.826717
O O6 0.919699 0.692474 0.706669
O O7 0.710503 0.659352 0.982826
O O8 0.368197 0.574577 0.817866
O O9 0.172708 0.500000 0.014659
O O10 0.332746 0.812808 0.425692
O O11 0.099307 0.797302 0.518426
O O12 0.315773 0.812960 0.259402
O O13 0.509784 0.295745 0.239669
O O14 0.253554 0.195658 0.127745
O O15 0.500000 0.220825 0.000000
#
# Coordination Sequence:
#
# PCOD9196342 Si02
#       8
#     4   8   4   8   4   8   8   8
#     4  12  21  37  54  91 118 152 185 237 296 346
#     4  10  20  37  59  83 112 154 194 234 285 337
#     4  10  21  33  54  92 121 148 183 236 297 349
#     4  11  23  36  59  85 115 154 192 240 291 336
#     4  10  21  36  61  82 118 153 191 238 287 345
#     4  10  21  39  55  80 115 158 198 230 282 353
#     4  10  20  35  56  84 119 155 187 229 291 348
#     4  11  21  34  57  84 116 148 194 240 281 338
#
# _framework density 20.423781000000002
#
# number of rings (size 3 to 8) (size 9 to 14) (size 15 to 20)
#    0.000    1.538    3.077    3.923    2.154    3.077 
#    0.000    1.154    0.000    6.462    0.000    0.000 
#    0.000    0.000    0.000    0.000    0.000    0.000 
#
# Total GULP energy -144818.938106 kJ/mol
# GULP energy per Si atom -5569.959158 kJ/mol
# Density = 2.037730 g / cm^3
# Si number density = 20.423781 Si / 1000 Ang^3
#
#
#
# Elastic Constant Matrix: (Units=GPa)
#
#
# Indices 1 2 3 4 5 6 
#
# 1 25.1103 24.1173 -1.9012 0.0000 0.3602 0.0000
# 2 24.1173 167.8910 52.7164 0.0000 0.4709 0.0000
# 3 -1.9012 52.7164 88.5797 0.0000 -14.3363 0.0000
# 4 0.0000 0.0000 0.0000 28.6621 0.0000 2.4382
# 5 0.3602 0.4709 -14.3363 0.0000 8.4759 0.0000
# 6 0.0000 0.0000 0.0000 2.4382 0.0000 8.4985
#
#
#
# Elastic Compliance Matrix: (Units=1/GPa)
#
#
# Indices 1 2 3 4 5 6 
#
# 1 0.050170 -0.010238 0.009524 0.000000 0.014545 0.000000
# 2 -0.010238 0.010196 -0.008687 0.000000 -0.014825 0.000000
# 3 0.009524 -0.008687 0.022962 0.000000 0.038916 0.000000
# 4 0.000000 0.000000 0.000000 0.035762 0.000000 -0.010260
# 5 0.014545 -0.014825 0.038916 0.000000 0.184010 0.000000
# 6 0.000000 0.000000 0.000000 -0.010260 0.000000 0.120611
#
#
# Mechanical properties :
#
#
# Convention : Reuss Voigt Hill
#
# Bulk Modulus (GPa) = 15.49773 47.93845 31.71809
# Shear Modulus (GPa) = 10.77535 22.90387 16.83961
#
# Velocity S-wave (km/s) = 2.29942 3.35241 2.87454
# Velocity P-wave (km/s) = 3.82810 6.20546 5.15568
#
# Compressibility (1/GPa) = 0.06452560
#
# Stress axis : x y z
#
# Youngs Moduli (GPa) = 19.93224 98.07568 43.55003
#
# Poissons Ratio (x) = 1.00411 -0.41477
# Poissons Ratio (y) = 0.20407 0.37833
# Poissons Ratio (z) = -0.18983 0.85200
#
# Static dielectric constant tensor:
#      x y z
#    x 1.752180 0.000000 0.009040 
#    y 0.000000 1.777620 0.000000 
#    z 0.009040 0.000000 1.741440 
# 
# From -- ./inp_files/216743.got.cif
#   From: 2010.05.17/outbox.cif.g08.bks.cpg/sg12_109_cif.got.tgz:216743.got - 2010.06.03 13:09:07.
