data_PCOD9196310
_publ_section_title
;
Structure prediction by ZEFSAII (Michael W. Deem and Ramdas Pophale) SiO2 
 PCOD9196310
Probable space group: C 2/M
;
_chemical_formula_sum "Si O2"
_cell_formula_units_Z 50
_cell_length_a 19.748802
_cell_length_b 8.323536
_cell_length_c 23.896306
_cell_angle_alpha 90.000000
_cell_angle_beta 145.314205
_cell_angle_gamma 90.000000
_cell_volume 2235.369970
_symmetry_space_group_name_H-M "C 2/M"
_symmetry_group_IT_number 12
_symmetry_cell_setting 'monoclinic'
loop_
_space_group_symop_operation_xyz
x,y,z
-x,y,-z
-x,-y,-z
x,-y,z
1/2+x,1/2+y,z
1/2-x,1/2+y,-z
1/2-x,1/2-y,-z
1/2+x,1/2-y,z
loop_
_atom_site_type_symbol
_atom_site_label
_atom_site_fract_x
_atom_site_fract_y
_atom_site_fract_z
Si Si1 0.085425 0.806240 0.739649
Si Si2 0.719045 0.188532 0.040255
Si Si3 0.768693 0.181526 0.266392
Si Si4 0.624252 0.312853 0.535926
Si Si5 0.000000 0.500000 0.500000
Si Si6 0.468337 0.684128 0.854422
Si Si7 0.382307 0.810938 0.675337
O O1 0.187185 0.744376 0.851449
O O2 0.134312 0.761470 0.712034
O O3 0.958983 0.743937 0.674601
O O4 0.078923 0.000000 0.737185
O O5 0.737242 0.000000 0.053257
O O6 0.750000 0.250000 0.000000
O O7 0.580433 0.222468 0.955224
O O8 0.823146 0.173936 0.365182
O O9 0.650815 0.286654 0.191134
O O10 0.732869 0.000000 0.225923
O O11 0.577564 0.500000 0.491945
O O12 0.550708 0.147042 0.492352
O O13 0.740841 0.282292 0.577225
O O14 0.502852 0.500000 0.877564
O O15 0.436600 0.731915 0.768791
O O16 0.397696 0.000000 0.693814
#
# Coordination Sequence:
#
# PCOD9196310 Si02
#       7
#     8   8   8   8   2   8   8
#     4  10  21  35  57  82 110 154 202 238 289 350
#     4  11  21  33  50  77 111 151 198 252 295 329
#     4   9  20  39  57  82 115 152 190 240 293 339
#     4   9  21  39  62  94 122 148 188 235 288 351
#     4  12  22  36  72  98 116 150 182 236 292 350
#     4  11  21  33  53  75 111 152 199 249 289 337
#     4  10  20  35  56  84 114 149 192 243 284 335
#
# _framework density 22.367663
#
# number of rings (size 3 to 8) (size 9 to 14) (size 15 to 20)
#    0.000    1.920    1.600    3.600    5.600    1.920 
#    0.000    3.200    0.000    0.960    0.000    0.000 
#    0.000    0.000    0.000    0.000    0.000    0.000 
#
# Total GULP energy -139320.600773 kJ/mol
# GULP energy per Si atom -5572.824031 kJ/mol
# Density = 2.231675 g / cm^3
# Si number density = 22.367663 Si / 1000 Ang^3
#
#
#
# Elastic Constant Matrix: (Units=GPa)
#
#
# Indices 1 2 3 4 5 6 
#
# 1 137.3288 17.5323 27.7746 0.0000 28.7803 0.0000
# 2 17.5323 69.0193 30.3612 0.0001 11.7731 0.0001
# 3 27.7746 30.3612 63.6833 0.0000 5.9798 0.0000
# 4 0.0000 0.0001 0.0000 16.9842 0.0000 14.6634
# 5 28.7803 11.7731 5.9798 0.0000 28.9889 0.0000
# 6 0.0000 0.0001 0.0000 14.6634 0.0000 30.9952
#
#
#
# Elastic Compliance Matrix: (Units=1/GPa)
#
#
# Indices 1 2 3 4 5 6 
#
# 1 0.009919 0.000752 -0.003805 0.000000 -0.009368 0.000000
# 2 0.000752 0.019383 -0.008933 0.000000 -0.006776 0.000000
# 3 -0.003805 -0.008933 0.021339 0.000000 0.003003 0.000000
# 4 0.000000 0.000000 0.000000 0.099531 0.000000 -0.047087
# 5 -0.009368 -0.006776 0.003003 0.000000 0.045929 0.000000
# 6 0.000000 0.000000 0.000000 -0.047087 0.000000 0.054539
#
#
# Mechanical properties :
#
#
# Convention : Reuss Voigt Hill
#
# Bulk Modulus (GPa) = 37.49592 46.81863 42.15727
# Shear Modulus (GPa) = 17.63674 28.35121 22.99398
#
# Velocity S-wave (km/s) = 2.81106 3.56407 3.20972
# Velocity P-wave (km/s) = 5.22837 6.15740 5.71181
#
# Compressibility (1/GPa) = 0.02666957
#
# Stress axis : x y z
#
# Youngs Moduli (GPa) = 100.82161 51.59192 46.86311
#
# Poissons Ratio (x) = -0.03880 0.17830
# Poissons Ratio (y) = -0.07583 0.41861
# Poissons Ratio (z) = 0.38360 0.46085
#
# Static dielectric constant tensor:
#      x y z
#    x 1.832450 0.000000 0.045260 
#    y 0.000000 1.806210 0.000000 
#    z 0.045260 0.000000 1.766730 
# 
# From -- ./inp_files/274259.got.cif
#   From: 2010.05.17/outbox.cif.g08.bks.cpg/sg12_138_cif.got.tgz:274259.got - 2010.06.03 13:09:07.
