data_PCOD9196488
_publ_section_title
;
Structure prediction by ZEFSAII (Michael W. Deem and Ramdas Pophale) SiO2 
 PCOD9196488
Probable space group: C 2/M
;
_chemical_formula_sum "Si O2"
_cell_formula_units_Z 48
_cell_length_a 20.777977
_cell_length_b 7.555700
_cell_length_c 26.727347
_cell_angle_alpha 90.000000
_cell_angle_beta 30.676771
_cell_angle_gamma 90.000000
_cell_volume 2140.766983
_symmetry_space_group_name_H-M "C 2/M"
_symmetry_group_IT_number 12
_symmetry_cell_setting 'monoclinic'
loop_
_space_group_symop_operation_xyz
x,y,z
-x,y,-z
-x,-y,-z
x,-y,z
1/2+x,1/2+y,z
1/2-x,1/2+y,-z
1/2-x,1/2-y,-z
1/2+x,1/2-y,z
loop_
_atom_site_type_symbol
_atom_site_label
_atom_site_fract_x
_atom_site_fract_y
_atom_site_fract_z
Si Si1 0.897553 0.291586 0.722633
Si Si2 0.603938 0.714152 0.390323
Si Si3 0.869569 0.795129 0.067538
Si Si4 0.643774 0.787421 0.611963
Si Si5 0.143285 0.283780 0.725330
Si Si6 0.374531 0.211137 0.948999
O O1 0.890206 0.500000 0.740224
O O2 0.927952 0.273925 0.644021
O O3 0.759627 0.213642 0.825407
O O4 0.010334 0.217285 0.680724
O O5 0.500000 0.772650 0.500000
O O6 0.603112 0.500000 0.390643
O O7 0.743258 0.773148 0.314335
O O8 0.870621 0.000000 0.084193
O O9 0.865020 0.789375 0.010753
O O10 0.000000 0.713959 0.000000
O O11 0.750000 0.750000 0.500000
O O12 0.670084 0.724745 0.650598
O O13 0.635058 0.000000 0.621040
O O14 0.143858 0.500000 0.725275
O O15 0.004334 0.227658 0.835988
O O16 0.383459 0.000000 0.948598
O O17 0.250000 0.250000 0.000000
#
# Coordination Sequence:
#
# PCOD9196488 Si02
#       6
#     8   8   8   8   8   8
#     4  10  21  36  55  80 111 144 174 216 274 325
#     4  10  20  35  57  82 107 139 180 223 265 316
#     4  10  21  38  59  83 112 145 182 226 276 329
#     4  10  20  36  56  77 105 140 178 218 263 314
#     4   9  19  36  56  78 107 142 176 217 269 318
#     4  11  22  37  58  82 111 147 186 227 273 326
#
# _framework density 22.421870999999999
#
# number of rings (size 3 to 8) (size 9 to 14) (size 15 to 20)
#    0.000    2.000    0.000    3.500    0.000    6.000 
#    0.000    5.000    0.000    0.000    0.000    0.000 
#    0.000    0.000    0.000    0.000    0.000    0.000 
#
# Total GULP energy -134176.229532 kJ/mol
# GULP energy per Si atom -5590.676230 kJ/mol
# Density = 2.237084 g / cm^3
# Si number density = 22.421871 Si / 1000 Ang^3
#
#
#
# Elastic Constant Matrix: (Units=GPa)
#
#
# Indices 1 2 3 4 5 6 
#
# 1 69.7143 -15.5851 -27.3831 0.0002 -11.6358 0.0002
# 2 -15.5851 55.9563 -6.1641 -0.0013 -9.6242 0.0027
# 3 -27.3831 -6.1641 65.4401 0.0007 -7.4163 -0.0004
# 4 0.0002 -0.0013 0.0007 16.5399 0.0004 9.7775
# 5 -11.6358 -9.6242 -7.4163 0.0004 45.1341 -0.0005
# 6 0.0002 0.0027 -0.0004 9.7775 -0.0005 11.8712
#
#
#
# Elastic Compliance Matrix: (Units=1/GPa)
#
#
# Indices 1 2 3 4 5 6 
#
# 1 0.022450 0.009154 0.011345 0.000001 0.009604 -0.000003
# 2 0.009154 0.022611 0.006903 0.000007 0.008316 -0.000011
# 3 0.011345 0.006903 0.021579 -0.000001 0.007942 0.000000
# 4 0.000001 0.000007 -0.000001 0.117830 0.000000 -0.097049
# 5 0.009604 0.008316 0.007942 0.000000 0.027710 0.000000
# 6 -0.000003 -0.000011 0.000000 -0.097049 0.000000 0.164170
#
#
# Mechanical properties :
#
#
# Convention : Reuss Voigt Hill
#
# Bulk Modulus (GPa) = 8.23426 10.31623 9.27525
# Shear Modulus (GPa) = 13.81109 30.72524 22.26816
#
# Velocity S-wave (km/s) = 2.48456 3.70581 3.15484
# Velocity P-wave (km/s) = 3.45125 4.78765 4.17329
#
# Compressibility (1/GPa) = 0.12144384
#
# Stress axis : x y z
#
# Youngs Moduli (GPa) = 44.54378 44.22534 46.34211
#
# Poissons Ratio (x) = -0.40485 -0.52574
# Poissons Ratio (y) = -0.40777 -0.31989
# Poissons Ratio (z) = -0.50534 -0.30528
#
# Static dielectric constant tensor:
#      x y z
#    x 1.788630 0.000010 -0.039390 
#    y 0.000010 1.902410 -0.000010 
#    z -0.039390 -0.000010 1.771400 
# 
# From -- ./inp_files/365365.got.cif
#   From: 2010.05.17/outbox.cif.g08.bks.cpg/sg12_183_cif.got.tgz:365365.got - 2010.06.03 13:09:07.
