data_PCOD9196134
_publ_section_title
;
Structure prediction by ZEFSAII (Michael W. Deem and Ramdas Pophale) SiO2 
 PCOD9196134
Probable space group: C 2/M
;
_chemical_formula_sum "Si O2"
_cell_formula_units_Z 56
_cell_length_a 18.395557
_cell_length_b 8.416229
_cell_length_c 19.131937
_cell_angle_alpha 90.000000
_cell_angle_beta 103.947363
_cell_angle_gamma 90.000000
_cell_volume 2874.701989
_symmetry_space_group_name_H-M "C 2/M"
_symmetry_group_IT_number 12
_symmetry_cell_setting 'monoclinic'
loop_
_space_group_symop_operation_xyz
x,y,z
-x,y,-z
-x,-y,-z
x,-y,z
1/2+x,1/2+y,z
1/2-x,1/2+y,-z
1/2-x,1/2-y,-z
1/2+x,1/2-y,z
loop_
_atom_site_type_symbol
_atom_site_label
_atom_site_fract_x
_atom_site_fract_y
_atom_site_fract_z
Si Si1 0.940435 0.692290 0.927400
Si Si2 0.726932 0.809660 0.071003
Si Si3 0.368910 0.693910 0.643232
Si Si4 0.845315 0.690513 0.212277
Si Si5 0.201283 0.692100 0.643339
Si Si6 0.510557 0.309441 0.213263
Si Si7 0.584150 0.307826 0.501058
O O1 0.941044 0.500000 0.925806
O O2 0.856808 0.745270 0.928369
O O3 0.964076 0.753656 0.857175
O O4 0.000000 0.743496 0.000000
O O5 0.786079 0.751819 0.142013
O O6 0.726571 0.000000 0.070018
O O7 0.750000 0.750000 0.000000
O O8 0.368940 0.500000 0.643334
O O9 0.285293 0.745862 0.643959
O O10 0.429508 0.745511 0.714687
O O11 0.391852 0.745689 0.570832
O O12 0.843671 0.500000 0.211069
O O13 0.822601 0.745701 0.284782
O O14 0.928318 0.746766 0.212289
O O15 0.201326 0.500000 0.643204
O O16 0.142643 0.749964 0.572229
O O17 0.508860 0.500000 0.214174
O O18 0.500000 0.254859 0.500000
O O19 0.584423 0.500000 0.501334
#
# Coordination Sequence:
#
# PCOD9196134 Si02
#       7
#     8   8   8   8   8   8   8
#     4  10  22  40  60  85 119 153 185 231 289 341
#     4  11  23  39  62  90 120 155 194 236 284 342
#     4   9  19  36  56  81 113 147 185 233 289 346
#     4  11  23  39  58  82 117 155 193 242 293 339
#     4  10  21  37  57  81 111 149 191 235 284 339
#     4  11  22  38  62  87 113 149 194 239 287 349
#     4  10  20  35  56  81 112 148 185 232 288 342
#
# _framework density 19.480278999999999
#
# number of rings (size 3 to 8) (size 9 to 14) (size 15 to 20)
#    0.000    1.714    0.000    4.286    0.000    6.286 
#    0.000    2.857    0.000    0.000    0.000    0.000 
#    0.000    0.000    0.000    0.000    0.000    0.000 
#
# Total GULP energy -156550.397383 kJ/mol
# GULP energy per Si atom -5591.085621 kJ/mol
# Density = 1.943594 g / cm^3
# Si number density = 19.480279 Si / 1000 Ang^3
#
#
#
# Elastic Constant Matrix: (Units=GPa)
#
#
# Indices 1 2 3 4 5 6 
#
# 1 246.7445 34.7887 150.7079 0.0000 -0.4530 0.0000
# 2 34.7887 19.4243 32.3615 0.0000 -1.2156 0.0000
# 3 150.7079 32.3615 244.2876 0.0000 -0.7391 0.0000
# 4 0.0000 0.0000 0.0000 25.5889 0.0000 -1.9402
# 5 -0.4530 -1.2156 -0.7391 0.0000 47.1078 0.0000
# 6 0.0000 0.0000 0.0000 -1.9402 0.0000 8.7970
#
#
#
# Elastic Compliance Matrix: (Units=1/GPa)
#
#
# Indices 1 2 3 4 5 6 
#
# 1 0.007183 -0.007046 -0.003498 0.000000 -0.000168 0.000000
# 2 -0.007046 0.073091 -0.005330 0.000000 0.001735 0.000000
# 3 -0.003498 -0.005330 0.006958 0.000000 -0.000062 0.000000
# 4 0.000000 0.000000 0.000000 0.039744 0.000000 0.008766
# 5 -0.000168 0.001735 -0.000062 0.000000 0.021270 0.000000
# 6 0.000000 0.000000 0.000000 0.008766 0.000000 0.115608
#
#
# Mechanical properties :
#
#
# Convention : Reuss Voigt Hill
#
# Bulk Modulus (GPa) = 18.02403 105.13027 61.57715
# Shear Modulus (GPa) = 15.91866 35.80529 25.86198
#
# Velocity S-wave (km/s) = 2.86172 4.29187 3.64757
# Velocity P-wave (km/s) = 4.49352 8.86820 7.02982
#
# Compressibility (1/GPa) = 0.05548149
#
# Stress axis : x y z
#
# Youngs Moduli (GPa) = 139.22570 13.68161 143.72779
#
# Poissons Ratio (x) = 0.09641 0.50279
# Poissons Ratio (y) = 0.98103 0.76610
# Poissons Ratio (z) = 0.48704 0.07293
#
# Static dielectric constant tensor:
#      x y z
#    x 1.654610 0.000000 -0.005500 
#    y 0.000000 1.675310 0.000000 
#    z -0.005500 0.000000 1.634300 
# 
# From -- ./inp_files/275632.got.cif
#   From: 2010.05.17/outbox.cif.g08.bks.cpg/sg12_138_cif.got.tgz:275632.got - 2010.06.03 13:09:07.
