data_PCOD9196965
_publ_section_title
;
Structure prediction by ZEFSAII (Michael W. Deem and Ramdas Pophale) SiO2 
 PCOD9196965
Probable space group: C 2/M
;
_chemical_formula_sum "Si O2"
_cell_formula_units_Z 56
_cell_length_a 19.445887
_cell_length_b 8.418643
_cell_length_c 19.278625
_cell_angle_alpha 90.000000
_cell_angle_beta 117.209427
_cell_angle_gamma 90.000000
_cell_volume 2806.818280
_symmetry_space_group_name_H-M "C 2/M"
_symmetry_group_IT_number 12
_symmetry_cell_setting 'monoclinic'
loop_
_space_group_symop_operation_xyz
x,y,z
-x,y,-z
-x,-y,-z
x,-y,z
1/2+x,1/2+y,z
1/2-x,1/2+y,-z
1/2-x,1/2-y,-z
1/2+x,1/2-y,z
loop_
_atom_site_type_symbol
_atom_site_label
_atom_site_fract_x
_atom_site_fract_y
_atom_site_fract_z
Si Si1 0.671993 0.815123 0.497813
Si Si2 0.075969 0.811015 0.573878
Si Si3 0.594325 0.312567 0.332866
Si Si4 0.443296 0.811593 0.189195
Si Si5 0.977830 0.691535 0.913021
Si Si6 0.160081 0.810440 0.747911
Si Si7 0.322874 0.689452 0.768509
O O1 0.750000 0.750000 0.500000
O O2 0.646392 0.722253 0.554287
O O3 0.608350 0.783928 0.409036
O O4 0.679597 0.000000 0.517660
O O5 0.100629 0.749944 0.660713
O O6 0.000000 0.744548 0.500000
O O7 0.064256 0.000000 0.576160
O O8 0.602480 0.500000 0.351897
O O9 0.511150 0.279081 0.261602
O O10 0.655666 0.266344 0.301090
O O11 0.456989 0.771182 0.114809
O O12 0.364272 0.763992 0.190103
O O13 0.455568 0.000000 0.202033
O O14 0.969300 0.500000 0.910881
O O15 0.897476 0.762087 0.848143
O O16 0.000000 0.746558 0.000000
O O17 0.245581 0.767814 0.761729
O O18 0.153032 0.000000 0.749419
O O19 0.313860 0.500000 0.765674
#
# Coordination Sequence:
#
# PCOD9196965 Si02
#       7
#     8   8   8   8   8   8   8
#     4  12  24  36  53  77 106 141 184 234 283 330
#     4  10  22  39  57  78 108 147 189 235 286 335
#     4  10  20  36  56  78 107 142 183 229 276 329
#     4  10  20  35  58  85 112 143 180 221 267 325
#     4   9  19  38  63  89 116 145 178 219 271 332
#     4  11  22  36  56  81 113 151 189 231 279 332
#     4  10  21  36  57  84 113 147 187 231 276 326
#
# _framework density 19.951415000000001
#
# number of rings (size 3 to 8) (size 9 to 14) (size 15 to 20)
#    0.000    1.714    0.000    4.714    0.000    7.429 
#    0.000    0.714    0.000    0.000    0.000    0.000 
#    0.000    0.000    0.000    0.000    0.000    0.000 
#
# Total GULP energy -156468.606041 kJ/mol
# GULP energy per Si atom -5588.164501 kJ/mol
# Density = 1.990601 g / cm^3
# Si number density = 19.951415 Si / 1000 Ang^3
#
#
#
# Elastic Constant Matrix: (Units=GPa)
#
#
# Indices 1 2 3 4 5 6 
#
# 1 101.0017 4.2450 21.3571 0.0000 -22.5264 0.0000
# 2 4.2450 14.8438 11.4958 0.0000 -1.3977 0.0000
# 3 21.3571 11.4958 88.6640 0.0000 -21.9575 0.0000
# 4 0.0000 0.0000 0.0000 21.2598 0.0000 -0.6878
# 5 -22.5264 -1.3977 -21.9575 0.0000 25.1639 0.0000
# 6 0.0000 0.0000 0.0000 -0.6878 0.0000 29.4419
#
#
#
# Elastic Compliance Matrix: (Units=1/GPa)
#
#
# Indices 1 2 3 4 5 6 
#
# 1 0.012465 -0.002580 0.000076 0.000000 0.011082 0.000000
# 2 -0.002580 0.076024 -0.011177 0.000000 -0.007840 0.000000
# 3 0.000076 -0.011177 0.016038 0.000000 0.013442 0.000000
# 4 0.000000 0.000000 0.000000 0.047073 0.000000 0.001100
# 5 0.011082 -0.007840 0.013442 0.000000 0.060953 0.000000
# 6 0.000000 0.000000 0.000000 0.001100 0.000000 0.033991
#
#
# Mechanical properties :
#
#
# Convention : Reuss Voigt Hill
#
# Bulk Modulus (GPa) = 12.95921 30.96723 21.96322
# Shear Modulus (GPa) = 16.68740 26.33390 21.51065
#
# Velocity S-wave (km/s) = 2.89520 3.63699 3.28708
# Velocity P-wave (km/s) = 4.20544 5.76124 5.04369
#
# Compressibility (1/GPa) = 0.07716522
#
# Stress axis : x y z
#
# Youngs Moduli (GPa) = 80.22706 13.15373 62.35110
#
# Poissons Ratio (x) = 0.03394 -0.00477
# Poissons Ratio (y) = 0.20701 0.69689
# Poissons Ratio (z) = -0.00613 0.14702
#
# Static dielectric constant tensor:
#      x y z
#    x 1.734110 0.000000 0.000830 
#    y 0.000000 1.685980 0.000000 
#    z 0.000830 0.000000 1.707080 
# 
# From -- ./inp_files/275052.got.cif
#   From: 2010.05.17/outbox.cif.g08.bks.cpg/sg12_138_cif.got.tgz:275052.got - 2010.06.03 13:09:07.
