data_PCOD9196498
_publ_section_title
;
Structure prediction by ZEFSAII (Michael W. Deem and Ramdas Pophale) SiO2 
 PCOD9196498
Probable space group: C 2/M
;
_chemical_formula_sum "Si O2"
_cell_formula_units_Z 64
_cell_length_a 16.604970
_cell_length_b 7.450551
_cell_length_c 19.744180
_cell_angle_alpha 90.000000
_cell_angle_beta 91.524008
_cell_angle_gamma 90.000000
_cell_volume 2441.810394
_symmetry_space_group_name_H-M "C 2/M"
_symmetry_group_IT_number 12
_symmetry_cell_setting 'monoclinic'
loop_
_space_group_symop_operation_xyz
x,y,z
-x,y,-z
-x,-y,-z
x,-y,z
1/2+x,1/2+y,z
1/2-x,1/2+y,-z
1/2-x,1/2-y,-z
1/2+x,1/2-y,z
loop_
_atom_site_type_symbol
_atom_site_label
_atom_site_fract_x
_atom_site_fract_y
_atom_site_fract_z
Si Si1 0.037476 0.709082 0.142092
Si Si2 0.777779 0.717245 0.099752
Si Si3 0.114911 0.294919 0.017672
Si Si4 0.882109 0.207323 0.223315
Si Si5 0.626046 0.214904 0.527871
Si Si6 0.877724 0.280036 0.727819
Si Si7 0.534537 0.218501 0.398710
Si Si8 0.286794 0.713463 0.342682
O O1 0.056863 0.500000 0.133027
O O2 0.047352 0.784584 0.066577
O O3 0.101195 0.786649 0.197289
O O4 0.953213 0.712205 0.179776
O O5 0.774344 0.500000 0.097031
O O6 0.694863 0.790357 0.067498
O O7 0.801846 0.776378 0.175245
O O8 0.849506 0.783403 0.050938
O O9 0.093302 0.500000 0.998918
O O10 0.858953 0.285371 0.296246
O O11 0.903429 0.000000 0.231270
O O12 0.606504 0.275597 0.451444
O O13 0.548588 0.278592 0.569829
O O14 0.700793 0.261075 0.577118
O O15 0.624536 0.000000 0.525268
O O16 0.876971 0.500000 0.730256
O O17 0.947764 0.225945 0.676908
O O18 0.795871 0.218593 0.690972
O O19 0.533254 0.000000 0.399193
O O20 0.286277 0.500000 0.332358
#
# Coordination Sequence:
#
# PCOD9196498 Si02
#       8
#     8   8   8   8   8   8   8   8
#     4  10  20  36  58  79 101 135 178 218 260 314
#     4  10  20  35  57  82 108 141 178 212 253 312
#     4   9  19  36  57  82 111 139 171 216 263 306
#     4  11  23  37  52  74 107 140 174 222 271 310
#     4   9  17  31  52  76 101 130 166 210 254 299
#     4   9  17  31  52  74  98 133 172 207 252 313
#     4   8  15  29  50  75 101 130 167 208 249 299
#     4  10  21  35  51  73 102 135 169 210 261 311
#
# _framework density 26.210062000000001
#
# number of rings (size 3 to 8) (size 9 to 14) (size 15 to 20)
#    0.000    2.500    0.000    3.000    0.000    6.000 
#    0.000    4.375    0.000    1.500    0.000    0.000 
#    0.000    0.000    0.000    0.000    0.000    0.000 
#
# Total GULP energy -178883.444660 kJ/mol
# GULP energy per Si atom -5590.107646 kJ/mol
# Density = 2.615041 g / cm^3
# Si number density = 26.210062 Si / 1000 Ang^3
#
#
#
# Elastic Constant Matrix: (Units=GPa)
#
#
# Indices 1 2 3 4 5 6 
#
# 1 65.6616 -4.1246 -6.9421 0.0000 9.7678 0.0000
# 2 -4.1246 95.9581 -4.1405 0.0000 -6.5780 0.0000
# 3 -6.9421 -4.1405 124.2399 0.0000 14.1078 0.0000
# 4 0.0000 0.0000 0.0000 6.8832 0.0000 9.4422
# 5 9.7678 -6.5780 14.1078 0.0000 48.0626 0.0000
# 6 0.0000 0.0000 0.0000 9.4422 0.0000 10.3432
#
#
#
# Elastic Compliance Matrix: (Units=1/GPa)
#
#
# Indices 1 2 3 4 5 6 
#
# 1 0.015928 0.000498 0.001310 0.000000 -0.003554 0.000000
# 2 0.000498 0.010540 0.000235 0.000000 0.001273 0.000000
# 3 0.001310 0.000235 0.008438 0.000000 -0.002711 0.000000
# 4 0.000000 0.000000 0.000000 -0.575918 0.000000 0.525745
# 5 -0.003554 0.001273 -0.002711 0.000000 0.022498 0.000000
# 6 0.000000 0.000000 0.000000 0.525745 0.000000 -0.383262
#
#
# Mechanical properties :
#
#
# Convention : Reuss Voigt Hill
#
# Bulk Modulus (GPa) = 25.64747 28.38279 27.01513
# Shear Modulus (GPa) = -5.59996 33.12894 13.76449
#
# Velocity S-wave (km/s) = -1.46329 3.55910 2.29412
# Velocity P-wave (km/s) = 2.63660 5.26708 4.16496
#
# Compressibility (1/GPa) = 0.03899020
#
# Stress axis : x y z
#
# Youngs Moduli (GPa) = 62.78259 94.87702 118.51436
#
# Poissons Ratio (x) = -0.04721 -0.15527
# Poissons Ratio (y) = -0.03124 -0.02780
# Poissons Ratio (z) = -0.08225 -0.02225
#
# Static dielectric constant tensor:
#      x y z
#    x 2.126650 0.000000 -0.013940 
#    y 0.000000 2.080390 0.000000 
#    z -0.013940 0.000000 2.024880 
# 
# From -- ./inp_files/314179.got.cif
#   From: 2010.05.17/outbox.cif.g08.bks.cpg/sg12_158_cif.got.tgz:314179.got - 2010.06.03 13:09:07.
