data_PCOD9196233
_publ_section_title
;
Structure prediction by ZEFSAII (Michael W. Deem and Ramdas Pophale) SiO2 
 PCOD9196233
Probable space group: C 2/M
;
_chemical_formula_sum "Si O2"
_cell_formula_units_Z 32
_cell_length_a 29.640394
_cell_length_b 10.702030
_cell_length_c 16.323739
_cell_angle_alpha 90.000000
_cell_angle_beta 162.441283
_cell_angle_gamma 90.000000
_cell_volume 1562.142466
_symmetry_space_group_name_H-M "C 2/M"
_symmetry_group_IT_number 12
_symmetry_cell_setting 'monoclinic'
loop_
_space_group_symop_operation_xyz
x,y,z
-x,y,-z
-x,-y,-z
x,-y,z
1/2+x,1/2+y,z
1/2-x,1/2+y,-z
1/2-x,1/2-y,-z
1/2+x,1/2-y,z
loop_
_atom_site_type_symbol
_atom_site_label
_atom_site_fract_x
_atom_site_fract_y
_atom_site_fract_z
Si Si1 0.393847 0.643339 0.895586
Si Si2 0.956861 0.641979 0.736894
Si Si3 0.711997 0.864772 0.845144
Si Si4 0.478813 0.782145 0.332695
O O1 0.400331 0.500000 0.940713
O O2 0.453296 0.750562 0.059424
O O3 0.500000 0.647127 0.000000
O O4 0.222111 0.665496 0.571370
O O5 0.985109 0.500000 0.816138
O O6 0.999452 0.650180 0.714972
O O7 0.634476 0.767353 0.649708
O O8 0.629512 0.851621 0.789559
O O9 0.678522 0.000000 0.751831
O O10 0.886342 0.842851 0.155988
#
# Coordination Sequence:
#
# PCOD9196233 Si02
#       4
#     8   8   8   8
#     4  10  23  42  62  86 116 149 187 235 290 347
#     4  11  22  37  60  88 117 149 191 238 284 340
#     4  10  20  37  56  76 114 155 188 231 278 325
#     4  10  20  35  56  83 111 149 193 231 277 330
#
# _framework density 20.484687999999998
#
# number of rings (size 3 to 8) (size 9 to 14) (size 15 to 20)
#    0.000    1.750    0.000    5.250    0.000    4.500 
#    0.000   15.000    0.000    0.000    0.000    0.000 
#    0.000    0.000    0.000    0.000    0.000    0.000 
#
# Total GULP energy -89257.274393 kJ/mol
# GULP energy per Si atom -5578.579650 kJ/mol
# Density = 2.043806 g / cm^3
# Si number density = 20.484688 Si / 1000 Ang^3
#
#
#
# Elastic Constant Matrix: (Units=GPa)
#
#
# Indices 1 2 3 4 5 6 
#
# 1 45.7372 11.9226 -1.0205 0.0000 -4.9746 0.0000
# 2 11.9226 96.5541 43.0897 0.0000 -14.8415 0.0000
# 3 -1.0205 43.0897 70.9254 0.0000 -2.9915 0.0000
# 4 0.0000 0.0000 0.0000 26.5750 0.0000 -6.1336
# 5 -4.9746 -14.8415 -2.9915 0.0000 27.5377 0.0000
# 6 0.0000 0.0000 0.0000 -6.1336 0.0000 17.2432
#
#
#
# Elastic Compliance Matrix: (Units=1/GPa)
#
#
# Indices 1 2 3 4 5 6 
#
# 1 0.023150 -0.003664 0.002664 0.000000 0.002497 0.000000
# 2 -0.003664 0.016159 -0.009574 0.000000 0.007007 0.000000
# 3 0.002664 -0.009574 0.019848 0.000000 -0.002523 0.000000
# 4 0.000000 0.000000 0.000000 0.040995 0.000000 0.014583
# 5 0.002497 0.007007 -0.002523 0.000000 0.040267 0.000000
# 6 0.000000 0.000000 0.000000 0.014583 0.000000 0.063181
#
#
# Mechanical properties :
#
#
# Convention : Reuss Voigt Hill
#
# Bulk Modulus (GPa) = 26.30927 35.68894 30.99910
# Shear Modulus (GPa) = 21.05983 24.88617 22.97300
#
# Velocity S-wave (km/s) = 3.20984 3.48928 3.35247
# Velocity P-wave (km/s) = 5.15836 5.80461 5.49100
#
# Compressibility (1/GPa) = 0.03800941
#
# Stress axis : x y z
#
# Youngs Moduli (GPa) = 43.19631 61.88423 50.38274
#
# Poissons Ratio (x) = 0.22673 -0.13423
# Poissons Ratio (y) = 0.15826 0.48239
# Poissons Ratio (z) = -0.11509 0.59251
#
# Static dielectric constant tensor:
#      x y z
#    x 1.722040 0.000000 0.013640 
#    y 0.000000 1.723120 0.000000 
#    z 0.013640 0.000000 1.731120 
# 
# From -- ./inp_files/193411.got.cif
#   From: 2010.05.17/outbox.cif.g08.bks.cpg/sg12_97_cif.got.tgz:193411.got - 2010.06.03 13:09:07.
