data_PCOD9196323
_publ_section_title
;
Structure prediction by ZEFSAII (Michael W. Deem and Ramdas Pophale) SiO2 
 PCOD9196323
Probable space group: C 2/M
;
_chemical_formula_sum "Si O2"
_cell_formula_units_Z 56
_cell_length_a 22.807213
_cell_length_b 8.892331
_cell_length_c 15.335201
_cell_angle_alpha 90.000000
_cell_angle_beta 67.423923
_cell_angle_gamma 90.000000
_cell_volume 2871.794443
_symmetry_space_group_name_H-M "C 2/M"
_symmetry_group_IT_number 12
_symmetry_cell_setting 'monoclinic'
loop_
_space_group_symop_operation_xyz
x,y,z
-x,y,-z
-x,-y,-z
x,-y,z
1/2+x,1/2+y,z
1/2-x,1/2+y,-z
1/2-x,1/2-y,-z
1/2+x,1/2-y,z
loop_
_atom_site_type_symbol
_atom_site_label
_atom_site_fract_x
_atom_site_fract_y
_atom_site_fract_z
Si Si1 0.573909 0.316844 0.944891
Si Si2 0.241781 0.172083 0.597324
Si Si3 0.404411 0.669945 0.263455
Si Si4 0.448180 0.174982 0.409688
Si Si5 0.288225 0.322648 0.744964
Si Si6 0.905944 0.677660 0.617468
Si Si7 0.792277 0.181028 0.054521
O O1 0.574690 0.500000 0.947589
O O2 0.591318 0.266990 0.836552
O O3 0.632953 0.271630 0.975024
O O4 0.500000 0.270531 0.000000
O O5 0.250000 0.250000 0.500000
O O6 0.168116 0.165293 0.664911
O O7 0.271779 0.270109 0.656810
O O8 0.266029 0.000000 0.581891
O O9 0.429670 0.500000 0.244188
O O10 0.438993 0.753564 0.321424
O O11 0.407047 0.233464 0.515687
O O12 0.521403 0.187919 0.394445
O O13 0.431814 0.000000 0.412734
O O14 0.280785 0.500000 0.761815
O O15 0.361244 0.270257 0.707364
O O16 0.244025 0.232998 0.837190
O O17 0.888608 0.500000 0.629651
O O18 0.791257 0.000000 0.047395
O O19 0.750000 0.250000 0.000000
#
# Coordination Sequence:
#
# PCOD9196323 Si02
#       7
#     8   8   8   8   8   8   8
#     4   9  19  39  65  89 117 157 202 253 317 380
#     4  11  22  37  57  87 123 161 201 245 303 364
#     4  10  20  35  56  84 116 152 194 242 300 365
#     4   9  19  35  56  83 116 159 201 244 305 370
#     4  12  24  38  59  88 119 159 208 253 305 367
#     4   9  19  37  57  80 118 162 202 246 304 369
#     4  11  23  43  67  93 126 162 207 264 324 389
#
# _framework density 19.500003
#
# number of rings (size 3 to 8) (size 9 to 14) (size 15 to 20)
#    0.000    1.857    1.429    3.857    0.000    5.714 
#    0.000    2.857    0.000    3.000    0.000    0.000 
#    0.000    0.000    0.000    0.000    0.000    0.000 
#
# Total GULP energy -156123.754532 kJ/mol
# GULP energy per Si atom -5575.848376 kJ/mol
# Density = 1.945562 g / cm^3
# Si number density = 19.500003 Si / 1000 Ang^3
#
#
#
# Elastic Constant Matrix: (Units=GPa)
#
#
# Indices 1 2 3 4 5 6 
#
# 1 117.8440 36.4664 59.3959 0.0000 6.8919 0.0000
# 2 36.4664 51.3475 17.5407 0.0000 0.3240 0.0000
# 3 59.3959 17.5407 93.7657 0.0000 -2.6644 0.0000
# 4 0.0000 0.0000 0.0000 29.6420 0.0000 7.1935
# 5 6.8919 0.3240 -2.6644 0.0000 29.6214 0.0000
# 6 0.0000 0.0000 0.0000 7.1935 0.0000 27.7518
#
#
#
# Elastic Compliance Matrix: (Units=1/GPa)
#
#
# Indices 1 2 3 4 5 6 
#
# 1 0.015480 -0.008093 -0.008414 0.000000 -0.004270 0.000000
# 2 -0.008093 0.025046 0.000488 0.000000 0.001653 0.000000
# 3 -0.008414 0.000488 0.015999 0.000000 0.003391 0.000000
# 4 0.000000 0.000000 0.000000 0.036001 0.000000 -0.009332
# 5 -0.004270 0.001653 0.003391 0.000000 0.035040 0.000000
# 6 0.000000 0.000000 0.000000 -0.009332 0.000000 0.038453
#
#
# Mechanical properties :
#
#
# Convention : Reuss Voigt Hill
#
# Bulk Modulus (GPa) = 40.83481 54.41813 47.62647
# Shear Modulus (GPa) = 24.24620 27.37330 25.80975
#
# Velocity S-wave (km/s) = 3.53001 3.75074 3.64205
# Velocity P-wave (km/s) = 6.13196 6.83555 6.49329
#
# Compressibility (1/GPa) = 0.02448891
#
# Stress axis : x y z
#
# Youngs Moduli (GPa) = 64.59753 39.92732 62.50211
#
# Poissons Ratio (x) = 0.32313 0.52586
# Poissons Ratio (y) = 0.52279 -0.03052
# Poissons Ratio (z) = 0.54349 -0.01949
#
# Static dielectric constant tensor:
#      x y z
#    x 1.790430 0.000000 -0.027240 
#    y 0.000000 1.688570 0.000000 
#    z -0.027240 0.000000 1.698400 
# 
# From -- ./inp_files/237359.got.cif
#   From: 2010.05.17/outbox.cif.g08.bks.cpg/sg12_119_cif.got.tgz:237359.got - 2010.06.03 13:09:07.
