data_PCOD9196707
_publ_section_title
;
Structure prediction by ZEFSAII (Michael W. Deem and Ramdas Pophale) SiO2 
 PCOD9196707
Probable space group: C 2/M
;
_chemical_formula_sum "Si O2"
_cell_formula_units_Z 64
_cell_length_a 20.653281
_cell_length_b 8.443748
_cell_length_c 24.125021
_cell_angle_alpha 90.000000
_cell_angle_beta 128.600569
_cell_angle_gamma 90.000000
_cell_volume 3287.978231
_symmetry_space_group_name_H-M "C 2/M"
_symmetry_group_IT_number 12
_symmetry_cell_setting 'monoclinic'
loop_
_space_group_symop_operation_xyz
x,y,z
-x,y,-z
-x,-y,-z
x,-y,z
1/2+x,1/2+y,z
1/2-x,1/2+y,-z
1/2-x,1/2-y,-z
1/2+x,1/2-y,z
loop_
_atom_site_type_symbol
_atom_site_label
_atom_site_fract_x
_atom_site_fract_y
_atom_site_fract_z
Si Si1 0.897370 0.190690 0.226607
Si Si2 0.047155 0.685804 0.947515
Si Si3 0.830493 0.810218 0.075179
Si Si4 0.079153 0.311251 0.335455
Si Si5 0.771915 0.192010 0.249598
Si Si6 0.746285 0.806875 0.361623
Si Si7 0.878860 0.185636 0.904694
Si Si8 0.333805 0.689734 0.515479
O O1 0.839375 0.239442 0.143947
O O2 0.854940 0.241792 0.261447
O O3 0.990104 0.252066 0.268611
O O4 0.900647 0.000000 0.228291
O O5 0.027787 0.500000 0.935569
O O6 0.110111 0.720367 0.031870
O O7 0.090333 0.742796 0.914944
O O8 0.964252 0.781335 0.917438
O O9 0.830722 0.000000 0.072856
O O10 0.750000 0.750000 0.000000
O O11 0.081112 0.500000 0.334741
O O12 0.157316 0.254360 0.339569
O O13 0.094786 0.256989 0.407242
O O14 0.762580 0.247199 0.307909
O O15 0.695875 0.252935 0.172254
O O16 0.769546 0.000000 0.248673
O O17 0.818960 0.761913 0.443769
O O18 0.743997 0.000000 0.359804
O O19 0.870784 0.000000 0.912493
O O20 0.337569 0.500000 0.519650
O O21 0.250000 0.750000 0.500000
#
# Coordination Sequence:
#
# PCOD9196707 Si02
#       8
#     8   8   8   8   8   8   8   8
#     4  10  23  39  57  82 115 152 190 237 289 343
#     4  11  22  38  59  82 107 147 194 237 288 344
#     4  11  23  39  58  84 115 150 195 241 292 350
#     4  10  20  35  57  85 115 149 191 238 286 342
#     4  10  20  38  59  81 113 151 193 234 284 350
#     4   8  17  33  57  86 111 144 191 235 277 337
#     4  11  22  37  57  84 115 145 182 239 295 345
#     4   9  16  31  55  84 115 148 187 234 286 338
#
# _framework density 19.464849000000001
#
# number of rings (size 3 to 8) (size 9 to 14) (size 15 to 20)
#    0.000    2.000    0.000    5.625    1.750    2.500 
#    0.000    3.750    0.000    3.750    0.000    0.000 
#    0.000    0.000    0.000    0.000    0.000    0.000 
#
# Total GULP energy -178622.101803 kJ/mol
# GULP energy per Si atom -5581.940681 kJ/mol
# Density = 1.942055 g / cm^3
# Si number density = 19.464849 Si / 1000 Ang^3
#
#
#
# Elastic Constant Matrix: (Units=GPa)
#
#
# Indices 1 2 3 4 5 6 
#
# 1 86.6995 11.3597 43.9114 0.0000 -21.1198 0.0000
# 2 11.3597 25.4504 13.6455 0.0000 -4.3134 0.0000
# 3 43.9114 13.6455 99.4309 0.0000 -7.5984 0.0000
# 4 0.0000 0.0000 0.0000 29.0660 0.0000 5.5404
# 5 -21.1198 -4.3134 -7.5984 0.0000 26.3014 0.0000
# 6 0.0000 0.0000 0.0000 5.5404 0.0000 21.6334
#
#
#
# Elastic Compliance Matrix: (Units=1/GPa)
#
#
# Indices 1 2 3 4 5 6 
#
# 1 0.018305 -0.002430 -0.006808 0.000000 0.012333 0.000000
# 2 -0.002430 0.043497 -0.004602 0.000000 0.003853 0.000000
# 3 -0.006808 -0.004602 0.013518 0.000000 -0.002316 0.000000
# 4 0.000000 0.000000 0.000000 0.036170 0.000000 -0.009263
# 5 0.012333 0.003853 -0.002316 0.000000 0.047887 0.000000
# 6 0.000000 0.000000 0.000000 -0.009263 0.000000 0.048597
#
#
# Mechanical properties :
#
#
# Convention : Reuss Voigt Hill
#
# Bulk Modulus (GPa) = 20.99032 38.82378 29.90705
# Shear Modulus (GPa) = 19.87797 24.91111 22.39454
#
# Velocity S-wave (km/s) = 3.19913 3.58131 3.39560
# Velocity P-wave (km/s) = 4.94500 6.09015 5.54720
#
# Compressibility (1/GPa) = 0.04764100
#
# Stress axis : x y z
#
# Youngs Moduli (GPa) = 54.63002 22.99005 73.97339
#
# Poissons Ratio (x) = 0.05586 0.50361
# Poissons Ratio (y) = 0.13274 0.34041
# Poissons Ratio (z) = 0.37192 0.10580
#
# Static dielectric constant tensor:
#      x y z
#    x 1.674190 0.000000 -0.021160 
#    y 0.000000 1.663710 0.000000 
#    z -0.021160 0.000000 1.694510 
# 
# From -- ./inp_files/346135.got.cif
#   From: 2010.05.17/outbox.cif.g08.bks.cpg/sg12_174_cif.got.tgz:346135.got - 2010.06.03 13:09:07.
