data_PCOD9196049
_publ_section_title
;
Structure prediction by ZEFSAII (Michael W. Deem and Ramdas Pophale) SiO2 
 PCOD9196049
Probable space group: C 2/M
;
_chemical_formula_sum "Si O2"
_cell_formula_units_Z 64
_cell_length_a 30.922093
_cell_length_b 7.545850
_cell_length_c 14.963656
_cell_angle_alpha 90.000000
_cell_angle_beta 49.243319
_cell_angle_gamma 90.000000
_cell_volume 2644.788927
_symmetry_space_group_name_H-M "C 2/M"
_symmetry_group_IT_number 12
_symmetry_cell_setting 'monoclinic'
loop_
_space_group_symop_operation_xyz
x,y,z
-x,y,-z
-x,-y,-z
x,-y,z
1/2+x,1/2+y,z
1/2-x,1/2+y,-z
1/2-x,1/2-y,-z
1/2+x,1/2-y,z
loop_
_atom_site_type_symbol
_atom_site_label
_atom_site_fract_x
_atom_site_fract_y
_atom_site_fract_z
Si Si1 0.101665 0.206680 0.225138
Si Si2 0.408036 0.219459 0.373954
Si Si3 0.163795 0.791612 0.775607
Si Si4 0.287308 0.794598 0.572989
Si Si5 0.811250 0.785154 0.745738
Si Si6 0.541973 0.201923 0.870601
Si Si7 0.313724 0.787862 0.048588
Si Si8 0.517717 0.202143 0.570191
O O1 0.135180 0.274429 0.267861
O O2 0.041083 0.298821 0.294852
O O3 0.089665 0.000000 0.254536
O O4 0.143956 0.223879 0.084738
O O5 0.342799 0.279878 0.448528
O O6 0.449477 0.280591 0.239030
O O7 0.433203 0.281035 0.434494
O O8 0.407714 0.000000 0.374027
O O9 0.223498 0.718162 0.654559
O O10 0.106189 0.700407 0.821853
O O11 0.169145 0.773926 0.875478
O O12 0.159238 0.000000 0.760802
O O13 0.305306 0.785371 0.653458
O O14 0.282045 0.000000 0.554762
O O15 0.752325 0.733495 0.874955
O O16 0.812814 0.000000 0.738442
O O17 0.521119 0.000000 0.885465
O O18 0.500000 0.286153 0.000000
O O19 0.315547 0.000000 0.046123
O O20 0.500000 0.286440 0.500000
O O21 0.535326 0.000000 0.527381
#
# Coordination Sequence:
#
# PCOD9196049 Si02
#       8
#     8   8   8   8   8   8   8   8
#     4  11  22  34  51  79 115 151 189 240 297 346
#     4   9  19  37  59  84 113 148 197 246 283 335
#     4  10  21  37  58  87 117 145 182 237 300 349
#     4   9  18  35  60  84 111 147 188 238 292 344
#     4   9  19  34  52  79 115 151 188 234 287 344
#     4  10  22  39  60  84 113 155 198 237 283 341
#     4  10  20  35  56  80 109 150 195 235 280 343
#     4  10  21  37  58  83 110 149 200 244 285 340
#
# _framework density 24.198528
#
# number of rings (size 3 to 8) (size 9 to 14) (size 15 to 20)
#    0.000    2.250    0.000    2.250    1.750    4.000 
#    0.000    1.875    0.000    0.000    0.000    0.000 
#    0.000    0.000    0.000    0.000    0.000    0.000 
#
# Total GULP energy -178887.544624 kJ/mol
# GULP energy per Si atom -5590.235769 kJ/mol
# Density = 2.414345 g / cm^3
# Si number density = 24.198528 Si / 1000 Ang^3
#
#
#
# Elastic Constant Matrix: (Units=GPa)
#
#
# Indices 1 2 3 4 5 6 
#
# 1 103.1462 -3.7978 26.9979 0.0003 -4.0784 0.0005
# 2 -3.7978 78.7540 3.6022 0.0006 -1.1788 0.0006
# 3 26.9979 3.6022 145.3142 0.0000 -12.3978 0.0001
# 4 0.0003 0.0006 0.0000 2.9880 0.0000 2.5803
# 5 -4.0784 -1.1788 -12.3978 0.0000 32.0698 0.0001
# 6 0.0005 0.0006 0.0001 2.5803 0.0001 6.8018
#
#
#
# Elastic Compliance Matrix: (Units=1/GPa)
#
#
# Indices 1 2 3 4 5 6 
#
# 1 0.010228 0.000587 -0.001863 -0.000001 0.000602 0.000000
# 2 0.000587 0.012750 -0.000392 -0.000002 0.000392 0.000000
# 3 -0.001863 -0.000392 0.007462 0.000000 0.002633 0.000000
# 4 -0.000001 -0.000002 0.000000 0.497712 0.000000 -0.188810
# 5 0.000602 0.000392 0.002633 0.000000 0.032291 0.000000
# 6 0.000000 0.000000 0.000000 -0.188810 0.000000 0.218647
#
#
# Mechanical properties :
#
#
# Convention : Reuss Voigt Hill
#
# Bulk Modulus (GPa) = 36.89391 42.31323 39.60357
# Shear Modulus (GPa) = 6.31743 28.39939 17.35841
#
# Velocity S-wave (km/s) = 1.61751 3.42950 2.68121
# Velocity P-wave (km/s) = 4.33219 5.76245 5.09773
#
# Compressibility (1/GPa) = 0.02710474
#
# Stress axis : x y z
#
# Youngs Moduli (GPa) = 97.76922 78.43204 134.00791
#
# Poissons Ratio (x) = -0.04608 0.24972
# Poissons Ratio (y) = -0.05744 0.05250
# Poissons Ratio (z) = 0.18219 0.03073
#
# Static dielectric constant tensor:
#      x y z
#    x 1.905870 0.000000 0.007070 
#    y 0.000000 1.896950 0.000000 
#    z 0.007070 0.000000 1.953140 
# 
# From -- ./inp_files/249690.got.cif
#   From: 2010.05.17/outbox.cif.g08.bks.cpg/sg12_125_cif.got.tgz:249690.got - 2010.06.03 13:09:07.
