data_PCOD9196158
_publ_section_title
;
Structure prediction by ZEFSAII (Michael W. Deem and Ramdas Pophale) SiO2 
 PCOD9196158
Probable space group: C 2/M
;
_chemical_formula_sum "Si O2"
_cell_formula_units_Z 64
_cell_length_a 14.212001
_cell_length_b 9.250422
_cell_length_c 31.234115
_cell_angle_alpha 90.000000
_cell_angle_beta 50.225406
_cell_angle_gamma 90.000000
_cell_volume 3155.933721
_symmetry_space_group_name_H-M "C 2/M"
_symmetry_group_IT_number 12
_symmetry_cell_setting 'monoclinic'
loop_
_space_group_symop_operation_xyz
x,y,z
-x,y,-z
-x,-y,-z
x,-y,z
1/2+x,1/2+y,z
1/2-x,1/2+y,-z
1/2-x,1/2-y,-z
1/2+x,1/2-y,z
loop_
_atom_site_type_symbol
_atom_site_label
_atom_site_fract_x
_atom_site_fract_y
_atom_site_fract_z
Si Si1 0.373929 0.164782 0.956629
Si Si2 0.617921 0.170943 0.342117
Si Si3 0.139631 0.676294 0.887868
Si Si4 0.374544 0.173595 0.560775
Si Si5 0.635411 0.828476 0.633560
Si Si6 0.374519 0.833680 0.855060
Si Si7 0.257519 0.336195 0.767113
Si Si8 0.515242 0.334327 0.744625
O O1 0.501282 0.218396 0.939975
O O2 0.396518 0.163795 0.899087
O O3 0.356010 0.000000 0.976544
O O4 0.250000 0.250000 0.000000
O O5 0.615625 0.215277 0.392107
O O6 0.483959 0.197495 0.360838
O O7 0.716970 0.246354 0.282751
O O8 0.639443 0.000000 0.334175
O O9 0.150195 0.500000 0.887145
O O10 0.246213 0.751602 0.883757
O O11 0.166720 0.717973 0.830419
O O12 0.500000 0.207963 0.500000
O O13 0.256067 0.257527 0.578478
O O14 0.355759 0.000000 0.563464
O O15 0.607292 0.749619 0.686815
O O16 0.649376 0.000000 0.635465
O O17 0.478840 0.750686 0.798044
O O18 0.366900 0.000000 0.841914
O O19 0.222723 0.500000 0.765875
O O20 0.387401 0.339407 0.754916
O O21 0.552957 0.500000 0.741383
#
# Coordination Sequence:
#
# PCOD9196158 Si02
#       8
#     8   8   8   8   8   8   8   8
#     4  10  23  40  56  77 108 144 186 229 269 318
#     4   9  19  35  54  78 108 139 173 216 266 317
#     4   9  19  37  57  78 107 144 179 214 265 329
#     4  10  22  39  55  74 105 145 186 224 266 322
#     4  10  20  35  56  82 110 138 174 224 272 314
#     4  10  20  35  56  84 113 140 175 225 274 313
#     4   8  15  29  52  80 107 135 170 211 260 319
#     4   9  17  32  55  83 112 142 175 211 262 330
#
# _framework density 20.279259
#
# number of rings (size 3 to 8) (size 9 to 14) (size 15 to 20)
#    0.000    2.625    0.000    1.875    0.000    7.750 
#    0.000    3.750    0.000    0.000    0.000    0.000 
#    0.000    0.000    0.000    0.000    0.000    0.000 
#
# Total GULP energy -178684.115879 kJ/mol
# GULP energy per Si atom -5583.878621 kJ/mol
# Density = 2.023310 g / cm^3
# Si number density = 20.279259 Si / 1000 Ang^3
#
#
#
# Elastic Constant Matrix: (Units=GPa)
#
#
# Indices 1 2 3 4 5 6 
#
# 1 57.1793 19.7022 16.3527 0.0000 -21.7225 0.0000
# 2 19.7022 48.2757 17.0038 0.0000 -15.2461 0.0000
# 3 16.3527 17.0038 48.9454 0.0000 -26.3609 0.0000
# 4 0.0000 0.0000 0.0000 35.7230 0.0000 -3.7071
# 5 -21.7225 -15.2461 -26.3609 0.0000 42.0749 0.0000
# 6 0.0000 0.0000 0.0000 -3.7071 0.0000 15.9470
#
#
#
# Elastic Compliance Matrix: (Units=1/GPa)
#
#
# Indices 1 2 3 4 5 6 
#
# 1 0.023433 -0.006395 -0.000512 0.000000 0.009459 0.000000
# 2 -0.006395 0.026113 -0.005459 0.000000 0.002740 0.000000
# 3 -0.000512 -0.005459 0.032134 0.000000 0.017890 0.000000
# 4 0.000000 0.000000 0.000000 0.028685 0.000000 0.006668
# 5 0.009459 0.002740 0.017890 0.000000 0.040852 0.000000
# 6 0.000000 0.000000 0.000000 0.006668 0.000000 0.064258
#
#
# Mechanical properties :
#
#
# Convention : Reuss Voigt Hill
#
# Bulk Modulus (GPa) = 17.56090 28.94641 23.25366
# Shear Modulus (GPa) = 19.29090 25.50512 22.39801
#
# Velocity S-wave (km/s) = 3.08760 3.55025 3.32697
# Velocity P-wave (km/s) = 4.62486 5.57768 5.12347
#
# Compressibility (1/GPa) = 0.05694469
#
# Stress axis : x y z
#
# Youngs Moduli (GPa) = 42.67544 38.29570 31.11998
#
# Poissons Ratio (x) = 0.24492 0.01595
# Poissons Ratio (y) = 0.27293 0.16989
# Poissons Ratio (z) = 0.02187 0.20907
#
# Static dielectric constant tensor:
#      x y z
#    x 1.764590 0.000000 -0.008650 
#    y 0.000000 1.691700 0.000000 
#    z -0.008650 0.000000 1.707830 
# 
# From -- ./inp_files/375505.got.cif
#   From: 2010.05.17/outbox.cif.g08.bks.cpg/sg12_188_cif.got.tgz:375505.got - 2010.06.03 13:09:07.
