data_PCOD9196787
_publ_section_title
;
Structure prediction by ZEFSAII (Michael W. Deem and Ramdas Pophale) SiO2 
 PCOD9196787
Probable space group: C 2/M
;
_chemical_formula_sum "Si O2"
_cell_formula_units_Z 56
_cell_length_a 27.399362
_cell_length_b 17.782741
_cell_length_c 9.195575
_cell_angle_alpha 90.000000
_cell_angle_beta 39.129992
_cell_angle_gamma 90.000000
_cell_volume 2827.507743
_symmetry_space_group_name_H-M "C 2/M"
_symmetry_group_IT_number 12
_symmetry_cell_setting 'monoclinic'
loop_
_space_group_symop_operation_xyz
x,y,z
-x,y,-z
-x,-y,-z
x,-y,z
1/2+x,1/2+y,z
1/2-x,1/2+y,-z
1/2-x,1/2-y,-z
1/2+x,1/2-y,z
loop_
_atom_site_type_symbol
_atom_site_label
_atom_site_fract_x
_atom_site_fract_y
_atom_site_fract_z
Si Si1 0.831487 0.755739 0.892205
Si Si2 0.609816 0.811376 0.958184
Si Si3 0.170713 0.912716 0.756625
Si Si4 0.658444 0.910708 0.592134
Si Si5 0.588310 0.412546 0.241251
Si Si6 0.433639 0.191698 0.419955
Si Si7 0.916779 0.814690 0.227360
O O1 0.834023 0.724591 0.051539
O O2 0.862896 0.841677 0.812841
O O3 0.890151 0.701151 0.670735
O O4 0.750000 0.750000 0.000000
O O5 0.524558 0.823079 0.221117
O O6 0.637730 0.883427 0.803097
O O7 0.596509 0.750148 0.861901
O O8 0.252031 0.886765 0.636675
O O9 0.150152 0.872209 0.654636
O O10 0.180224 0.000000 0.705480
O O11 0.102983 0.904310 0.033353
O O12 0.605212 0.869060 0.597328
O O13 0.650782 0.000000 0.595160
O O14 0.500000 0.404257 0.500000
O O15 0.611894 0.500000 0.221224
O O16 0.420753 0.272330 0.369812
O O17 0.000000 0.850108 0.000000
#
# Coordination Sequence:
#
# PCOD9196787 Si02
#       7
#     8   8   8   8   8   8   8
#     4  12  24  38  62  94 125 167 204 258 315 374
#     4  10  21  39  60  86 119 156 206 254 301 370
#     4  10  20  35  57  86 120 158 198 250 307 363
#     4  10  22  40  64  90 120 161 207 261 320 375
#     4  10  21  39  63  88 123 171 209 247 306 378
#     4  10  22  37  61  90 118 157 204 255 308 368
#     4   9  19  34  56  83 115 153 194 245 299 360
#
# _framework density 19.805429
#
# number of rings (size 3 to 8) (size 9 to 14) (size 15 to 20)
#    0.000    1.857    1.429    3.429    4.000    2.571 
#    0.000    2.143    0.000    1.714    0.000    0.000 
#    0.000    0.000    0.000    0.000    0.000    0.000 
#
# Total GULP energy -156154.040031 kJ/mol
# GULP energy per Si atom -5576.930001 kJ/mol
# Density = 1.976035 g / cm^3
# Si number density = 19.805429 Si / 1000 Ang^3
#
#
#
# Elastic Constant Matrix: (Units=GPa)
#
#
# Indices 1 2 3 4 5 6 
#
# 1 92.7841 39.2043 14.1296 0.0000 -7.3321 0.0000
# 2 39.2043 88.7223 17.9369 0.0000 -9.3769 0.0000
# 3 14.1296 17.9369 61.7941 0.0000 3.5172 0.0000
# 4 0.0000 0.0000 0.0000 11.9975 0.0000 -26.0368
# 5 -7.3321 -9.3769 3.5172 0.0000 24.8806 0.0000
# 6 0.0000 0.0000 0.0000 -26.0368 0.0000 -8.9481
#
#
#
# Elastic Compliance Matrix: (Units=1/GPa)
#
#
# Indices 1 2 3 4 5 6 
#
# 1 0.013478 -0.005395 -0.001639 0.000000 0.002171 0.000000
# 2 -0.005395 0.014796 -0.003315 0.000000 0.004455 0.000000
# 3 -0.001639 -0.003315 0.017761 0.000000 -0.004243 0.000000
# 4 0.000000 0.000000 0.000000 0.011395 0.000000 -0.033157
# 5 0.002171 0.004455 -0.004243 0.000000 0.043110 0.000000
# 6 0.000000 0.000000 0.000000 -0.033157 0.000000 -0.015278
#
#
# Mechanical properties :
#
#
# Convention : Reuss Voigt Hill
#
# Bulk Modulus (GPa) = 39.46745 42.87134 41.16940
# Shear Modulus (GPa) = 43.70356 17.05465 30.37911
#
# Velocity S-wave (km/s) = 4.70259 2.93765 3.92072
# Velocity P-wave (km/s) = 7.03254 5.76191 6.42870
#
# Compressibility (1/GPa) = 0.02533733
#
# Stress axis : x y z
#
# Youngs Moduli (GPa) = 74.19253 67.58571 56.30198
#
# Poissons Ratio (x) = 0.36462 0.09231
# Poissons Ratio (y) = 0.40027 0.18663
# Poissons Ratio (z) = 0.12164 0.22403
#
# Static dielectric constant tensor:
#      x y z
#    x 1.691330 0.000000 -0.010960 
#    y 0.000000 1.743230 0.000000 
#    z -0.010960 0.000000 1.736240 
# 
# From -- ./inp_files/105975.got.cif
#   From: 2010.05.17/outbox.cif.g08.bks.cpg/sg12_53_cif.got.tgz:105975.got - 2010.06.03 13:09:07.
