data_PCOD9196246
_publ_section_title
;
Structure prediction by ZEFSAII (Michael W. Deem and Ramdas Pophale) SiO2 
 PCOD9196246
Probable space group: C 2/M
;
_chemical_formula_sum "Si O2"
_cell_formula_units_Z 48
_cell_length_a 15.453969
_cell_length_b 9.489798
_cell_length_c 15.635092
_cell_angle_alpha 90.000000
_cell_angle_beta 73.238894
_cell_angle_gamma 90.000000
_cell_volume 2195.549585
_symmetry_space_group_name_H-M "C 2/M"
_symmetry_group_IT_number 12
_symmetry_cell_setting 'monoclinic'
loop_
_space_group_symop_operation_xyz
x,y,z
-x,y,-z
-x,-y,-z
x,-y,z
1/2+x,1/2+y,z
1/2-x,1/2+y,-z
1/2-x,1/2-y,-z
1/2+x,1/2-y,z
loop_
_atom_site_type_symbol
_atom_site_label
_atom_site_fract_x
_atom_site_fract_y
_atom_site_fract_z
Si Si1 0.837184 0.844758 0.467189
Si Si2 0.808725 0.836351 0.222742
Si Si3 0.160925 0.156897 0.335085
Si Si4 0.310923 0.165505 0.915138
Si Si5 0.502223 0.159472 0.604558
Si Si6 0.009650 0.832742 0.099686
O O1 0.750000 0.750000 0.500000
O O2 0.864814 0.860691 0.558350
O O3 0.916561 0.764254 0.397002
O O4 0.818333 0.000000 0.438554
O O5 0.759453 0.726025 0.298796
O O6 0.746047 0.825823 0.156057
O O7 0.912229 0.803647 0.170024
O O8 0.803969 0.000000 0.251951
O O9 0.087440 0.273101 0.329538
O O10 0.156222 0.000000 0.296814
O O11 0.408589 0.240119 0.887127
O O12 0.319748 0.000000 0.934814
O O13 0.250000 0.250000 0.000000
O O14 0.500000 0.151687 0.500000
O O15 0.516305 0.000000 0.629982
O O16 0.029303 0.000000 0.105189
O O17 0.000000 0.808216 0.000000
#
# Coordination Sequence:
#
# PCOD9196246 Si02
#       6
#     8   8   8   8   8   8
#     4  10  20  35  56  83 113 147 188 233 281 338
#     4  10  22  40  60  83 119 160 195 242 299 351
#     4  10  21  37  57  83 114 146 186 235 284 338
#     4  11  22  38  61  89 117 153 199 244 292 351
#     4   9  17  32  56  80 104 140 181 221 271 332
#     4  10  20  39  62  86 118 155 196 243 294 348
#
# _framework density 21.862407999999999
#
# number of rings (size 3 to 8) (size 9 to 14) (size 15 to 20)
#    0.000    2.000    1.667    2.000    0.000    6.333 
#    3.000    0.000    0.000    0.000    0.000    0.000 
#    0.000    0.000    0.000    0.000    0.000    0.000 
#
# Total GULP energy -134022.358692 kJ/mol
# GULP energy per Si atom -5584.264945 kJ/mol
# Density = 2.181265 g / cm^3
# Si number density = 21.862408 Si / 1000 Ang^3
#
#
#
# Elastic Constant Matrix: (Units=GPa)
#
#
# Indices 1 2 3 4 5 6 
#
# 1 112.2185 68.9620 35.9710 0.0000 -34.6909 0.0000
# 2 68.9620 168.7404 43.1164 0.0000 -37.5643 0.0000
# 3 35.9710 43.1164 87.5688 0.0000 -20.4083 0.0000
# 4 0.0000 0.0000 0.0000 20.9541 0.0000 -9.7455
# 5 -34.6909 -37.5643 -20.4083 0.0000 44.5268 0.0000
# 6 0.0000 0.0000 0.0000 -9.7455 0.0000 34.7130
#
#
#
# Elastic Compliance Matrix: (Units=1/GPa)
#
#
# Indices 1 2 3 4 5 6 
#
# 1 0.013979 -0.003596 -0.002396 0.000000 0.006759 0.000000
# 2 -0.003596 0.008709 -0.001961 0.000000 0.003647 0.000000
# 3 -0.002396 -0.001961 0.014050 0.000000 0.002918 0.000000
# 4 0.000000 0.000000 0.000000 0.054890 0.000000 0.015410
# 5 0.006759 0.003647 0.002918 0.000000 0.032138 0.000000
# 6 0.000000 0.000000 0.000000 0.015410 0.000000 0.033134
#
#
# Mechanical properties :
#
#
# Convention : Reuss Voigt Hill
#
# Bulk Modulus (GPa) = 48.00691 73.84736 60.92713
# Shear Modulus (GPa) = 27.81656 34.73735 31.27696
#
# Velocity S-wave (km/s) = 3.57087 3.99043 3.78647
# Velocity P-wave (km/s) = 6.24562 7.42179 6.85896
#
# Compressibility (1/GPa) = 0.02083034
#
# Stress axis : x y z
#
# Youngs Moduli (GPa) = 71.53843 114.82737 71.17678
#
# Poissons Ratio (x) = 0.41291 0.17056
# Poissons Ratio (y) = 0.25725 0.13957
# Poissons Ratio (z) = 0.17143 0.22517
#
# Static dielectric constant tensor:
#      x y z
#    x 1.840100 0.000000 0.073050 
#    y 0.000000 1.795110 0.000000 
#    z 0.073050 0.000000 1.845620 
# 
# From -- ./inp_files/313232.got.cif
#   From: 2010.05.17/outbox.cif.g08.bks.cpg/sg12_157_cif.got.tgz:313232.got - 2010.06.03 13:09:07.
