data_PCOD9196209
_publ_section_title
;
Structure prediction by ZEFSAII (Michael W. Deem and Ramdas Pophale) SiO2 
 PCOD9196209
Probable space group: C 2/M
;
_chemical_formula_sum "Si O2"
_cell_formula_units_Z 58
_cell_length_a 17.892807
_cell_length_b 9.277524
_cell_length_c 15.149536
_cell_angle_alpha 90.000000
_cell_angle_beta 95.105093
_cell_angle_gamma 90.000000
_cell_volume 2504.861355
_symmetry_space_group_name_H-M "C 2/M"
_symmetry_group_IT_number 12
_symmetry_cell_setting 'monoclinic'
loop_
_space_group_symop_operation_xyz
x,y,z
-x,y,-z
-x,-y,-z
x,-y,z
1/2+x,1/2+y,z
1/2-x,1/2+y,-z
1/2-x,1/2-y,-z
1/2+x,1/2-y,z
loop_
_atom_site_type_symbol
_atom_site_label
_atom_site_fract_x
_atom_site_fract_y
_atom_site_fract_z
Si Si1 0.473113 0.670032 0.275560
Si Si2 0.184477 0.671921 0.731362
Si Si3 0.000000 0.000000 0.500000
Si Si4 0.207120 0.827548 0.914463
Si Si5 0.588383 0.836705 0.991344
Si Si6 0.587567 0.161519 0.187535
Si Si7 0.204080 0.340473 0.362002
Si Si8 0.565643 0.766976 0.456456
O O1 0.456908 0.500000 0.271424
O O2 0.399423 0.765058 0.281256
O O3 0.522845 0.723527 0.198603
O O4 0.529651 0.704968 0.362027
O O5 0.184855 0.500000 0.739686
O O6 0.218636 0.748764 0.822313
O O7 0.233202 0.722535 0.652150
O O8 0.065103 0.875304 0.515060
O O9 0.217946 0.000000 0.911471
O O10 0.250000 0.750000 0.000000
O O11 0.121565 0.784720 0.932271
O O12 0.621459 0.823363 0.093942
O O13 0.605613 0.000000 0.960194
O O14 0.500000 0.828230 0.000000
O O15 0.648873 0.166488 0.270778
O O16 0.553367 0.000000 0.188195
O O17 0.238082 0.500000 0.367914
O O18 0.146669 0.324022 0.438153
O O19 0.500000 0.855184 0.500000
#
# Coordination Sequence:
#
# PCOD9196209 Si02
#       8
#     8   8   2   8   8   8   8   8
#     4  11  20  36  60  88 120 154 194 242 291 348
#     4  12  26  40  59  84 119 158 198 242 296 351
#     4   8  16  36  62  96 120 152 196 234 286 344
#     4  12  25  42  62  84 116 155 200 247 296 353
#     4  10  20  35  56  82 114 150 191 241 295 346
#     4   9  19  34  55  81 113 149 189 236 290 346
#     4  10  21  37  58  86 117 151 193 243 291 347
#     4   9  19  37  66  90 122 154 194 235 288 347
#
# _framework density 23.154973999999999
#
# number of rings (size 3 to 8) (size 9 to 14) (size 15 to 20)
#    0.414    1.241    0.690    4.552    0.966    4.414 
#    0.000    0.690    0.000    0.000    0.000    0.000 
#    0.000    0.000    0.000    0.000    0.000    0.000 
#
# Total GULP energy -161573.351328 kJ/mol
# GULP energy per Si atom -5571.494873 kJ/mol
# Density = 2.310227 g / cm^3
# Si number density = 23.154974 Si / 1000 Ang^3
#
#
#
# Elastic Constant Matrix: (Units=GPa)
#
#
# Indices 1 2 3 4 5 6 
#
# 1 76.7684 58.5210 10.4281 0.0000 -27.2322 0.0000
# 2 58.5210 202.0770 29.6692 0.0000 -25.0398 0.0000
# 3 10.4281 29.6692 54.6874 0.0000 -21.3443 0.0000
# 4 0.0000 0.0000 0.0000 48.2156 0.0000 -7.7759
# 5 -27.2322 -25.0398 -21.3443 0.0000 44.0749 0.0000
# 6 0.0000 0.0000 0.0000 -7.7759 0.0000 39.4781
#
#
#
# Elastic Compliance Matrix: (Units=1/GPa)
#
#
# Indices 1 2 3 4 5 6 
#
# 1 0.020408 -0.004979 0.003240 0.000000 0.011349 0.000000
# 2 -0.004979 0.006742 -0.002977 0.000000 -0.000688 0.000000
# 3 0.003240 -0.002977 0.023927 0.000000 0.011897 0.000000
# 4 0.000000 0.000000 0.000000 0.021421 0.000000 0.004219
# 5 0.011349 -0.000688 0.011897 0.000000 0.035072 0.000000
# 6 0.000000 0.000000 0.000000 0.004219 0.000000 0.026162
#
#
# Mechanical properties :
#
#
# Convention : Reuss Voigt Hill
#
# Bulk Modulus (GPa) = 24.01340 58.97439 41.49389
# Shear Modulus (GPa) = 31.83791 42.01469 36.92630
#
# Velocity S-wave (km/s) = 3.71211 4.26432 3.99776
# Velocity P-wave (km/s) = 5.36342 7.05483 6.26645
#
# Compressibility (1/GPa) = 0.04164342
#
# Stress axis : x y z
#
# Youngs Moduli (GPa) = 49.00072 148.31323 41.79455
#
# Poissons Ratio (x) = 0.73851 -0.13539
# Poissons Ratio (y) = 0.24399 0.12442
# Poissons Ratio (z) = -0.15874 0.44151
#
# Static dielectric constant tensor:
#      x y z
#    x 1.877870 0.000000 0.281760 
#    y 0.000000 1.796600 0.000000 
#    z 0.281760 0.000000 1.390500 
# 
# From -- ./inp_files/275471.got.cif
#   From: 2010.05.17/outbox.cif.g08.bks.cpg/sg12_138_cif.got.tgz:275471.got - 2010.06.03 13:09:07.
