data_PCOD9196240
_publ_section_title
;
Structure prediction by ZEFSAII (Michael W. Deem and Ramdas Pophale) SiO2 
 PCOD9196240
Probable space group: C 2/M
;
_chemical_formula_sum "Si O2"
_cell_formula_units_Z 48
_cell_length_a 16.208305
_cell_length_b 7.857392
_cell_length_c 31.080914
_cell_angle_alpha 90.000000
_cell_angle_beta 151.935564
_cell_angle_gamma 90.000000
_cell_volume 1862.243327
_symmetry_space_group_name_H-M "C 2/M"
_symmetry_group_IT_number 12
_symmetry_cell_setting 'monoclinic'
loop_
_space_group_symop_operation_xyz
x,y,z
-x,y,-z
-x,-y,-z
x,-y,z
1/2+x,1/2+y,z
1/2-x,1/2+y,-z
1/2-x,1/2-y,-z
1/2+x,1/2-y,z
loop_
_atom_site_type_symbol
_atom_site_label
_atom_site_fract_x
_atom_site_fract_y
_atom_site_fract_z
Si Si1 0.509935 0.804590 0.615108
Si Si2 0.167638 0.708874 0.550275
Si Si3 0.120537 0.698085 0.229005
Si Si4 0.066153 0.795999 0.939101
Si Si5 0.952966 0.804422 0.272110
Si Si6 0.236997 0.701407 0.891292
O O1 0.370333 0.738549 0.516414
O O2 0.700504 0.795983 0.679871
O O3 0.535937 0.707455 0.671448
O O4 0.471814 0.000000 0.607940
O O5 0.171044 0.500000 0.551984
O O6 0.356227 0.769912 0.653195
O O7 0.000000 0.765049 0.500000
O O8 0.144491 0.500000 0.250544
O O9 0.075747 0.712749 0.157437
O O10 0.947577 0.766338 0.173597
O O11 0.037323 0.000000 0.924630
O O12 0.250000 0.750000 0.000000
O O13 0.104340 0.734839 0.005645
O O14 0.791341 0.721495 0.172580
O O15 0.944077 0.000000 0.255589
O O16 0.240961 0.500000 0.901235
#
# Coordination Sequence:
#
# PCOD9196240 Si02
#       6
#     8   8   8   8   8   8
#     4  11  22  37  57  79 111 150 183 222 275 330
#     4   9  19  36  58  84 109 138 181 227 270 323
#     4  10  20  35  56  83 113 143 184 233 276 326
#     4   9  17  31  53  81 112 145 183 228 275 323
#     4  11  22  36  56  81 112 147 184 226 270 324
#     4   9  19  35  55  81 112 144 181 226 273 324
#
# _framework density 25.775362000000001
#
# number of rings (size 3 to 8) (size 9 to 14) (size 15 to 20)
#    0.000    2.167    0.000    4.500    0.000    5.333 
#    0.000    3.333    0.000   11.000    0.000    0.000 
#    0.000    0.000    0.000    0.000    0.000    0.000 
#
# Total GULP energy -134204.548149 kJ/mol
# GULP energy per Si atom -5591.856173 kJ/mol
# Density = 2.571670 g / cm^3
# Si number density = 25.775362 Si / 1000 Ang^3
#
#
#
# Elastic Constant Matrix: (Units=GPa)
#
#
# Indices 1 2 3 4 5 6 
#
# 1 72.6219 -3.5965 18.0283 -0.0001 -14.9551 0.0001
# 2 -3.5965 64.0547 2.4021 -0.0002 -0.0022 0.0002
# 3 18.0283 2.4021 177.4244 0.0002 -13.9856 0.0001
# 4 -0.0001 -0.0002 0.0002 19.4408 0.0001 -5.8797
# 5 -14.9551 -0.0022 -13.9856 0.0001 50.2667 -0.0001
# 6 0.0001 0.0002 0.0001 -5.8797 -0.0001 23.7437
#
#
#
# Elastic Compliance Matrix: (Units=1/GPa)
#
#
# Indices 1 2 3 4 5 6 
#
# 1 0.014961 0.000885 -0.001208 0.000000 0.004115 0.000000
# 2 0.000885 0.015672 -0.000288 0.000000 0.000184 0.000000
# 3 -0.001208 -0.000288 0.005863 0.000000 0.001272 0.000000
# 4 0.000000 0.000000 0.000000 0.055602 0.000000 0.013769
# 5 0.004115 0.000184 0.001272 0.000000 0.021472 0.000000
# 6 0.000000 0.000000 0.000000 0.013769 0.000000 0.045526
#
#
# Mechanical properties :
#
#
# Convention : Reuss Voigt Hill
#
# Bulk Modulus (GPa) = 28.34765 38.64099 33.49432
# Shear Modulus (GPa) = 29.05699 38.50806 33.78252
#
# Velocity S-wave (km/s) = 3.36120 3.86941 3.62422
# Velocity P-wave (km/s) = 5.10738 5.91499 5.52596
#
# Compressibility (1/GPa) = 0.03527630
#
# Stress axis : x y z
#
# Youngs Moduli (GPa) = 66.84013 63.80743 170.55870
#
# Poissons Ratio (x) = -0.05650 0.20600
# Poissons Ratio (y) = -0.05918 0.04906
# Poissons Ratio (z) = 0.08073 0.01835
#
# Static dielectric constant tensor:
#      x y z
#    x 2.186150 0.000000 -0.017740 
#    y 0.000000 1.885810 0.000000 
#    z -0.017740 0.000000 2.008140 
# 
# From -- ./inp_files/274062.got.cif
#   From: 2010.05.17/outbox.cif.g08.bks.cpg/sg12_138_cif.got.tgz:274062.got - 2010.06.03 13:09:07.
