data_PCOD9196806
_publ_section_title
;
Structure prediction by ZEFSAII (Michael W. Deem and Ramdas Pophale) SiO2 
 PCOD9196806
Probable space group: C 2/M
;
_chemical_formula_sum "Si O2"
_cell_formula_units_Z 56
_cell_length_a 18.774023
_cell_length_b 14.593949
_cell_length_c 9.306970
_cell_angle_alpha 90.000000
_cell_angle_beta 70.824833
_cell_angle_gamma 90.000000
_cell_volume 2408.513577
_symmetry_space_group_name_H-M "C 2/M"
_symmetry_group_IT_number 12
_symmetry_cell_setting 'monoclinic'
loop_
_space_group_symop_operation_xyz
x,y,z
-x,y,-z
-x,-y,-z
x,-y,z
1/2+x,1/2+y,z
1/2-x,1/2+y,-z
1/2-x,1/2-y,-z
1/2+x,1/2-y,z
loop_
_atom_site_type_symbol
_atom_site_label
_atom_site_fract_x
_atom_site_fract_y
_atom_site_fract_z
Si Si1 0.766385 0.848344 0.560594
Si Si2 0.894651 0.396023 0.277702
Si Si3 0.605501 0.890858 0.371924
Si Si4 0.494373 0.242277 0.751257
Si Si5 0.580265 0.606043 0.029341
Si Si6 0.229198 0.102058 0.763241
Si Si7 0.576326 0.603121 0.541458
O O1 0.750000 0.750000 0.500000
O O2 0.692457 0.874125 0.698839
O O3 0.776942 0.903562 0.404792
O O4 0.845143 0.869767 0.586514
O O5 0.911933 0.500000 0.228001
O O6 0.895467 0.387822 0.453335
O O7 0.957692 0.326567 0.180744
O O8 0.546174 0.824059 0.336648
O O9 0.688318 0.855885 0.267318
O O10 0.593520 0.000000 0.344598
O O11 0.432534 0.312456 0.850774
O O12 0.559702 0.311526 0.654538
O O13 0.590268 0.500000 0.076031
O O14 0.500000 0.604488 0.000000
O O15 0.651454 0.633820 0.883852
O O16 0.238131 0.000000 0.815459
O O17 0.500000 0.602003 0.500000
O O18 0.581133 0.500000 0.600715
#
# Coordination Sequence:
#
# PCOD9196806 Si02
#       7
#     8   8   8   8   8   8   8
#     4  11  20  35  60  88 110 149 191 241 284 343
#     4  10  20  35  57  87 117 148 189 239 288 345
#     4   9  19  35  58  86 117 148 186 239 293 344
#     4  12  21  33  56  85 115 148 191 237 288 344
#     4  10  22  39  58  79 107 147 198 246 284 334
#     4   9  19  37  59  82 108 145 195 244 284 330
#     4  11  23  36  51  79 122 159 185 229 295 355
#
# _framework density 23.250855000000001
#
# number of rings (size 3 to 8) (size 9 to 14) (size 15 to 20)
#    0.000    1.714    1.429    5.143    2.000    2.857 
#    0.000    0.000    0.000    1.714    0.000    0.000 
#    0.000    0.000    0.000    0.000    0.000    0.000 
#
# Total GULP energy -156115.723036 kJ/mol
# GULP energy per Si atom -5575.561537 kJ/mol
# Density = 2.319794 g / cm^3
# Si number density = 23.250855 Si / 1000 Ang^3
#
#
#
# Elastic Constant Matrix: (Units=GPa)
#
#
# Indices 1 2 3 4 5 6 
#
# 1 145.8842 40.3422 26.5941 0.0000 -33.3605 0.0000
# 2 40.3422 155.3313 22.5836 0.0000 -7.3894 0.0000
# 3 26.5941 22.5836 46.2416 0.0000 -26.9987 0.0000
# 4 0.0000 0.0000 0.0000 10.6850 0.0000 3.7149
# 5 -33.3605 -7.3894 -26.9987 0.0000 27.7351 0.0000
# 6 0.0000 0.0000 0.0000 3.7149 0.0000 9.6713
#
#
#
# Elastic Compliance Matrix: (Units=1/GPa)
#
#
# Indices 1 2 3 4 5 6 
#
# 1 0.010541 -0.002681 0.005173 0.000000 0.017000 0.000000
# 2 -0.002681 0.007749 -0.006765 0.000000 -0.007746 0.000000
# 3 0.005173 -0.006765 0.056842 0.000000 0.059752 0.000000
# 4 0.000000 0.000000 0.000000 0.108014 0.000000 -0.041490
# 5 0.017000 -0.007746 0.059752 0.000000 0.112605 0.000000
# 6 0.000000 0.000000 0.000000 -0.041490 0.000000 0.119335
#
#
# Mechanical properties :
#
#
# Convention : Reuss Voigt Hill
#
# Bulk Modulus (GPa) = 15.01844 58.49964 36.75904
# Shear Modulus (GPa) = 11.21511 26.81409 19.01460
#
# Velocity S-wave (km/s) = 2.19863 3.39964 2.86283
# Velocity P-wave (km/s) = 3.59425 6.37377 5.17415
#
# Compressibility (1/GPa) = 0.06658481
#
# Stress axis : x y z
#
# Youngs Moduli (GPa) = 94.87132 129.04494 17.59276
#
# Poissons Ratio (x) = 0.34596 -0.09100
# Poissons Ratio (y) = 0.25434 0.11902
# Poissons Ratio (z) = -0.49075 0.87300
#
# Static dielectric constant tensor:
#      x y z
#    x 1.990720 0.000000 -0.004710 
#    y 0.000000 1.961060 0.000000 
#    z -0.004710 0.000000 1.934890 
# 
# From -- ./inp_files/155974.got.cif
#   From: 2010.05.17/outbox.cif.g08.bks.cpg/sg12_78_cif.got.tgz:155974.got - 2010.06.03 13:09:07.
