data_PCOD9196874
_publ_section_title
;
Structure prediction by ZEFSAII (Michael W. Deem and Ramdas Pophale) SiO2 
 PCOD9196874
Probable space group: C 2/M
;
_chemical_formula_sum "Si O2"
_cell_formula_units_Z 52
_cell_length_a 24.916508
_cell_length_b 17.377325
_cell_length_c 12.926241
_cell_angle_alpha 90.000000
_cell_angle_beta 29.039893
_cell_angle_gamma 90.000000
_cell_volume 2716.806110
_symmetry_space_group_name_H-M "C 2/M"
_symmetry_group_IT_number 12
_symmetry_cell_setting 'monoclinic'
loop_
_space_group_symop_operation_xyz
x,y,z
-x,y,-z
-x,-y,-z
x,-y,z
1/2+x,1/2+y,z
1/2-x,1/2+y,-z
1/2-x,1/2-y,-z
1/2+x,1/2-y,z
loop_
_atom_site_type_symbol
_atom_site_label
_atom_site_fract_x
_atom_site_fract_y
_atom_site_fract_z
Si Si1 0.000000 0.202768 0.000000
Si Si2 0.235935 0.412477 0.338223
Si Si3 0.644524 0.590193 0.641933
Si Si4 0.592826 0.195311 0.260631
Si Si5 0.985835 0.591428 0.781437
Si Si6 0.176409 0.680174 0.797941
Si Si7 0.706661 0.295338 0.921670
O O1 0.959484 0.146694 0.161503
O O2 0.895721 0.257300 0.145431
O O3 0.221197 0.500000 0.329135
O O4 0.299036 0.411760 0.339901
O O5 0.299241 0.367661 0.142492
O O6 0.112654 0.379550 0.564953
O O7 0.620479 0.500000 0.654765
O O8 0.733774 0.631282 0.416760
O O9 0.500000 0.210100 0.500000
O O10 0.568116 0.120105 0.234497
O O11 0.702977 0.188844 0.142843
O O12 0.602488 0.263623 0.160478
O O13 0.986428 0.500000 0.789330
O O14 0.915475 0.626121 0.993826
O O15 0.234561 0.726289 0.794312
#
# Coordination Sequence:
#
# PCOD9196874 Si02
#       7
#     4   8   8   8   8   8   8
#     4  12  23  36  63  88 112 158 210 234 275 346
#     4  10  20  36  58  84 118 148 185 234 290 344
#     4  11  24  41  59  86 124 160 194 239 289 346
#     4  10  20  35  58  79 112 145 189 238 284 341
#     4  10  21  36  59  90 116 148 186 234 297 353
#     4  11  23  37  61  85 121 153 195 242 286 340
#     4  10  21  36  54  84 111 149 189 237 289 336
#
# _framework density 19.140122000000002
#
# number of rings (size 3 to 8) (size 9 to 14) (size 15 to 20)
#    0.000    1.538    3.077    2.077    2.154    0.923 
#    0.000    3.077    0.000    0.462    0.000    0.000 
#    0.000    0.000    0.000    0.000    0.000    0.000 
#
# Total GULP energy -144991.972605 kJ/mol
# GULP energy per Si atom -5576.614331 kJ/mol
# Density = 1.909656 g / cm^3
# Si number density = 19.140122 Si / 1000 Ang^3
#
#
#
# Elastic Constant Matrix: (Units=GPa)
#
#
# Indices 1 2 3 4 5 6 
#
# 1 37.5647 6.9509 -1.3951 0.0000 1.5681 0.0000
# 2 6.9509 95.7912 59.7499 0.0000 9.8565 0.0000
# 3 -1.3951 59.7499 106.2913 0.0000 23.0121 0.0000
# 4 0.0000 0.0000 0.0000 40.6793 0.0000 -0.4553
# 5 1.5681 9.8565 23.0121 0.0000 29.2566 0.0000
# 6 0.0000 0.0000 0.0000 -0.4553 0.0000 19.2559
#
#
#
# Elastic Compliance Matrix: (Units=1/GPa)
#
#
# Indices 1 2 3 4 5 6 
#
# 1 0.027492 -0.003546 0.002910 0.000000 -0.002568 0.000000
# 2 -0.003546 0.016635 -0.009914 0.000000 0.002383 0.000000
# 3 0.002910 -0.009914 0.017271 0.000000 -0.010401 0.000000
# 4 0.000000 0.000000 0.000000 0.024589 0.000000 0.000581
# 5 -0.002568 0.002383 -0.010401 0.000000 0.041696 0.000000
# 6 0.000000 0.000000 0.000000 0.000581 0.000000 0.051946
#
#
# Mechanical properties :
#
#
# Convention : Reuss Voigt Hill
#
# Bulk Modulus (GPa) = 24.81447 41.13984 32.97716
# Shear Modulus (GPa) = 23.34696 29.46114 26.40405
#
# Velocity S-wave (km/s) = 3.49634 3.92756 3.71821
# Velocity P-wave (km/s) = 5.41221 6.48910 5.97496
#
# Compressibility (1/GPa) = 0.04029906
#
# Stress axis : x y z
#
# Youngs Moduli (GPa) = 36.37407 60.11376 57.90094
#
# Poissons Ratio (x) = 0.21315 -0.16849
# Poissons Ratio (y) = 0.12898 0.57401
# Poissons Ratio (z) = -0.10585 0.59595
#
# Static dielectric constant tensor:
#      x y z
#    x 1.685350 0.000000 -0.037040 
#    y 0.000000 1.690450 0.000000 
#    z -0.037040 0.000000 1.685760 
# 
# From -- ./inp_files/184313.got.cif
#   From: 2010.05.17/outbox.cif.g08.bks.cpg/sg12_93_cif.got.tgz:184313.got - 2010.06.03 13:09:07.
