data_PCOD9196647
_publ_section_title
;
Structure prediction by ZEFSAII (Michael W. Deem and Ramdas Pophale) SiO2 
 PCOD9196647
Probable space group: C 2/M
;
_chemical_formula_sum "Si O2"
_cell_formula_units_Z 64
_cell_length_a 23.851413
_cell_length_b 9.173073
_cell_length_c 15.477401
_cell_angle_alpha 90.000000
_cell_angle_beta 94.045569
_cell_angle_gamma 90.000000
_cell_volume 3377.874388
_symmetry_space_group_name_H-M "C 2/M"
_symmetry_group_IT_number 12
_symmetry_cell_setting 'monoclinic'
loop_
_space_group_symop_operation_xyz
x,y,z
-x,y,-z
-x,-y,-z
x,-y,z
1/2+x,1/2+y,z
1/2-x,1/2+y,-z
1/2-x,1/2-y,-z
1/2+x,1/2-y,z
loop_
_atom_site_type_symbol
_atom_site_label
_atom_site_fract_x
_atom_site_fract_y
_atom_site_fract_z
Si Si1 0.778478 0.827447 0.631577
Si Si2 0.528853 0.826880 0.763351
Si Si3 0.735639 0.171938 0.202034
Si Si4 0.350371 0.173471 0.956078
Si Si5 0.844259 0.672065 0.157255
Si Si6 0.537065 0.673584 0.089747
Si Si7 0.458655 0.324962 0.415977
Si Si8 0.668593 0.673691 0.544400
O O1 0.795205 0.750319 0.722038
O O2 0.718177 0.761268 0.596861
O O3 0.820920 0.801172 0.556648
O O4 0.773321 0.000000 0.643493
O O5 0.593365 0.803353 0.800464
O O6 0.490013 0.751275 0.830606
O O7 0.522844 0.756503 0.668616
O O8 0.518499 0.000000 0.760235
O O9 0.703917 0.200731 0.108630
O O10 0.798050 0.235367 0.201897
O O11 0.736824 0.000000 0.217224
O O12 0.401719 0.263327 0.922929
O O13 0.363157 0.000000 0.953376
O O14 0.342375 0.210513 0.055580
O O15 0.831180 0.500000 0.164519
O O16 0.538239 0.500000 0.102660
O O17 0.500000 0.704616 0.000000
O O18 0.500000 0.290876 0.500000
O O19 0.460580 0.500000 0.402443
O O20 0.394045 0.286613 0.432735
O O21 0.676606 0.500000 0.560676
#
# Coordination Sequence:
#
# PCOD9196647 Si02
#       8
#     8   8   8   8   8   8   8   8
#     4  10  20  35  57  84 114 149 190 236 290 348
#     4  11  23  39  63  90 118 157 200 245 297 353
#     4  11  23  36  55  85 120 155 194 238 289 346
#     4  10  22  40  59  83 117 157 195 239 294 348
#     4  10  21  38  60  84 115 155 197 240 292 347
#     4  11  23  39  62  90 117 151 199 248 294 348
#     4  10  22  40  60  85 119 154 192 243 299 353
#     4   9  19  37  60  83 109 146 191 239 291 345
#
# _framework density 18.946826999999999
#
# number of rings (size 3 to 8) (size 9 to 14) (size 15 to 20)
#    0.000    1.750    1.250    2.625    0.000    7.250 
#    0.000    1.250    0.000    0.000    0.000    0.000 
#    0.000    0.000    0.000    0.000    0.000    0.000 
#
# Total GULP energy -178836.095682 kJ/mol
# GULP energy per Si atom -5588.627990 kJ/mol
# Density = 1.890370 g / cm^3
# Si number density = 18.946827 Si / 1000 Ang^3
#
#
#
# Elastic Constant Matrix: (Units=GPa)
#
#
# Indices 1 2 3 4 5 6 
#
# 1 37.8835 21.4547 11.8202 0.0000 -21.3835 0.0000
# 2 21.4547 40.1360 47.6955 0.0000 -12.0210 0.0000
# 3 11.8202 47.6955 130.1710 0.0000 -13.5162 0.0000
# 4 0.0000 0.0000 0.0000 14.6017 0.0000 -4.4304
# 5 -21.3835 -12.0210 -13.5162 0.0000 24.6798 0.0000
# 6 0.0000 0.0000 0.0000 -4.4304 0.0000 27.7086
#
#
#
# Elastic Compliance Matrix: (Units=1/GPa)
#
#
# Indices 1 2 3 4 5 6 
#
# 1 0.074324 -0.039864 0.013283 0.000000 0.052255 0.000000
# 2 -0.039864 0.070130 -0.023449 0.000000 -0.013223 0.000000
# 3 0.013283 -0.023449 0.015986 0.000000 0.008843 0.000000
# 4 0.000000 0.000000 0.000000 0.071977 0.000000 0.011509
# 5 0.052255 -0.013223 0.008843 0.000000 0.084196 0.000000
# 6 0.000000 0.000000 0.000000 0.011509 0.000000 0.037930
#
#
# Mechanical properties :
#
#
# Convention : Reuss Voigt Hill
#
# Bulk Modulus (GPa) = 16.56191 41.12569 28.84380
# Shear Modulus (GPa) = 10.53230 21.87937 16.20584
#
# Velocity S-wave (km/s) = 2.36028 3.40189 2.92778
# Velocity P-wave (km/s) = 4.02345 6.09782 5.16583
#
# Compressibility (1/GPa) = 0.06037953
#
# Stress axis : x y z
#
# Youngs Moduli (GPa) = 13.45464 14.25923 62.55431
#
# Poissons Ratio (x) = 0.56843 -0.83093
# Poissons Ratio (y) = 0.53636 1.46685
# Poissons Ratio (z) = -0.17872 0.33437
#
# Static dielectric constant tensor:
#      x y z
#    x 1.626190 0.000000 0.007760 
#    y 0.000000 1.628820 0.000000 
#    z 0.007760 0.000000 1.662520 
# 
# From -- ./inp_files/238776.got.cif
#   From: 2010.05.17/outbox.cif.g08.bks.cpg/sg12_120_cif.got.tgz:238776.got - 2010.06.03 13:09:07.
