data_PCOD9196825
_publ_section_title
;
Structure prediction by ZEFSAII (Michael W. Deem and Ramdas Pophale) SiO2 
 PCOD9196825
Probable space group: C 2/M
;
_chemical_formula_sum "Si O2"
_cell_formula_units_Z 64
_cell_length_a 28.183566
_cell_length_b 13.431222
_cell_length_c 10.267018
_cell_angle_alpha 90.000000
_cell_angle_beta 110.170057
_cell_angle_gamma 90.000000
_cell_volume 3648.129789
_symmetry_space_group_name_H-M "C 2/M"
_symmetry_group_IT_number 12
_symmetry_cell_setting 'monoclinic'
loop_
_space_group_symop_operation_xyz
x,y,z
-x,y,-z
-x,-y,-z
x,-y,z
1/2+x,1/2+y,z
1/2-x,1/2+y,-z
1/2-x,1/2-y,-z
1/2+x,1/2-y,z
loop_
_atom_site_type_symbol
_atom_site_label
_atom_site_fract_x
_atom_site_fract_y
_atom_site_fract_z
Si Si1 0.395043 0.380253 0.140481
Si Si2 0.365678 0.112728 0.584916
Si Si3 0.849652 0.882595 0.376405
Si Si4 0.607858 0.676168 0.304104
Si Si5 0.772596 0.279316 0.379792
Si Si6 0.502828 0.272266 0.851103
Si Si7 0.681932 0.385979 0.153083
Si Si8 0.478690 0.114518 0.613422
O O1 0.400482 0.500000 0.134384
O O2 0.381427 0.356682 0.277309
O O3 0.446100 0.329302 0.138069
O O4 0.348050 0.350605 0.003308
O O5 0.374869 0.206859 0.689808
O O6 0.316909 0.141209 0.453816
O O7 0.417830 0.115237 0.553235
O O8 0.360818 0.000000 0.634056
O O9 0.879301 0.857875 0.537688
O O10 0.799622 0.815761 0.341303
O O11 0.838297 0.000000 0.360990
O O12 0.548468 0.665870 0.224150
O O13 0.640984 0.618291 0.230985
O O14 0.750000 0.250000 0.500000
O O15 0.729257 0.322722 0.247253
O O16 0.497388 0.176916 0.753371
O O17 0.500000 0.245466 0.000000
O O18 0.697889 0.500000 0.147466
O O19 0.500000 0.157890 0.500000
O O20 0.495331 0.000000 0.640196
#
# Coordination Sequence:
#
# PCOD9196825 Si02
#       8
#     8   8   8   8   8   8   8   8
#     4  10  24  40  58  84 118 156 189 232 292 344
#     4   9  18  33  53  84 115 139 184 237 277 328
#     4  10  22  40  59  84 116 147 187 242 291 342
#     4  10  20  35  57  88 111 149 192 233 286 342
#     4  11  21  34  58  87 110 145 197 232 285 337
#     4  11  22  36  59  87 120 154 192 235 282 343
#     4  11  21  38  58  81 116 152 190 235 284 340
#     4   9  20  37  61  87 115 153 192 235 288 340
#
# _framework density 17.543234999999999
#
# number of rings (size 3 to 8) (size 9 to 14) (size 15 to 20)
#    0.000    1.875    3.750    0.750    5.250    2.500 
#    0.000    1.250    0.000    0.750    0.000    0.000 
#    0.000    0.000    0.000    0.000    0.000    0.000 
#
# Total GULP energy -178413.996593 kJ/mol
# GULP energy per Si atom -5575.437394 kJ/mol
# Density = 1.750331 g / cm^3
# Si number density = 17.543235 Si / 1000 Ang^3
#
#
#
# Elastic Constant Matrix: (Units=GPa)
#
#
# Indices 1 2 3 4 5 6 
#
# 1 82.6029 38.7506 48.2752 0.0000 5.7533 0.0000
# 2 38.7506 69.8135 23.4622 0.0000 -0.3583 0.0000
# 3 48.2752 23.4622 113.2020 0.0000 -5.4655 0.0000
# 4 0.0000 0.0000 0.0000 17.5919 0.0000 -1.3980
# 5 5.7533 -0.3583 -5.4655 0.0000 37.1341 0.0000
# 6 0.0000 0.0000 0.0000 -1.3980 0.0000 24.4484
#
#
#
# Elastic Compliance Matrix: (Units=1/GPa)
#
#
# Indices 1 2 3 4 5 6 
#
# 1 0.020978 -0.009232 -0.007246 0.000000 -0.004406 0.000000
# 2 -0.009232 0.019463 -0.000019 0.000000 0.001615 0.000000
# 3 -0.007246 -0.000019 0.012068 0.000000 0.002899 0.000000
# 4 0.000000 0.000000 0.000000 0.057104 0.000000 0.003265
# 5 -0.004406 0.001615 0.002899 0.000000 0.028054 0.000000
# 6 0.000000 0.000000 0.000000 0.003265 0.000000 0.041089
#
#
# Mechanical properties :
#
#
# Convention : Reuss Voigt Hill
#
# Bulk Modulus (GPa) = 51.24013 54.06605 52.65309
# Shear Modulus (GPa) = 22.90915 26.17692 24.54304
#
# Velocity S-wave (km/s) = 3.61760 3.86701 3.74438
# Velocity P-wave (km/s) = 6.83525 7.12910 6.98372
#
# Compressibility (1/GPa) = 0.01951595
#
# Stress axis : x y z
#
# Youngs Moduli (GPa) = 47.66840 51.38027 82.86711
#
# Poissons Ratio (x) = 0.47433 0.60042
# Poissons Ratio (y) = 0.44006 0.00157
# Poissons Ratio (z) = 0.34538 0.00097
#
# Static dielectric constant tensor:
#      x y z
#    x 1.595300 0.000000 0.005900 
#    y 0.000000 1.617950 0.000000 
#    z 0.005900 0.000000 1.586120 
# 
# From -- ./inp_files/104662.got.cif
#   From: 2010.05.17/outbox.cif.g08.bks.cpg/sg12_53_cif.got.tgz:104662.got - 2010.06.03 13:09:07.
