data_PCOD9196566
_publ_section_title
;
Structure prediction by ZEFSAII (Michael W. Deem and Ramdas Pophale) SiO2 
 PCOD9196566
Probable space group: C 2/M
;
_chemical_formula_sum "Si O2"
_cell_formula_units_Z 64
_cell_length_a 17.494054
_cell_length_b 12.513431
_cell_length_c 20.929630
_cell_angle_alpha 90.000000
_cell_angle_beta 49.920023
_cell_angle_gamma 90.000000
_cell_volume 3505.685779
_symmetry_space_group_name_H-M "C 2/M"
_symmetry_group_IT_number 12
_symmetry_cell_setting 'monoclinic'
loop_
_space_group_symop_operation_xyz
x,y,z
-x,y,-z
-x,-y,-z
x,-y,z
1/2+x,1/2+y,z
1/2-x,1/2+y,-z
1/2-x,1/2-y,-z
1/2+x,1/2-y,z
loop_
_atom_site_type_symbol
_atom_site_label
_atom_site_fract_x
_atom_site_fract_y
_atom_site_fract_z
Si Si1 0.050069 0.123019 0.579754
Si Si2 0.107895 0.620271 0.176084
Si Si3 0.953993 0.872431 0.146422
Si Si4 0.747532 0.375977 0.403504
Si Si5 0.141449 0.721232 0.030444
Si Si6 0.070092 0.780277 0.701192
Si Si7 0.171464 0.123901 0.301530
Si Si8 0.705210 0.732655 0.862885
O O1 0.147605 0.166787 0.491974
O O2 0.062995 0.134211 0.648593
O O3 0.940135 0.168458 0.625561
O O4 0.046020 0.000000 0.560358
O O5 0.080812 0.500000 0.208877
O O6 0.105591 0.632096 0.100018
O O7 0.216319 0.650977 0.146206
O O8 0.030046 0.708669 0.242397
O O9 0.917656 0.834054 0.236124
O O10 0.878682 0.827096 0.133412
O O11 0.062469 0.818126 0.078405
O O12 0.959799 0.000000 0.140208
O O13 0.765072 0.500000 0.413952
O O14 0.840658 0.299763 0.364246
O O15 0.727795 0.376237 0.338415
O O16 0.250000 0.750000 0.000000
O O17 0.156132 0.700794 0.947602
O O18 0.231261 0.191562 0.217724
O O19 0.161474 0.000000 0.285342
#
# Coordination Sequence:
#
# PCOD9196566 Si02
#       8
#     8   8   8   8   8   8   8   8
#     4  10  20  35  57  84 111 146 195 240 287 337
#     4  10  21  37  57  80 113 151 188 228 281 342
#     4  11  23  38  61  86 116 151 188 232 277 332
#     4  10  20  35  57  83 112 150 191 237 289 340
#     4   9  22  38  56  83 112 141 183 226 273 328
#     4  11  20  36  55  84 118 149 186 236 285 338
#     4  10  20  36  58  83 113 148 191 239 284 335
#     4  11  20  39  58  85 114 148 190 233 278 337
#
# _framework density 18.256057999999999
#
# number of rings (size 3 to 8) (size 9 to 14) (size 15 to 20)
#    0.000    1.750    2.500    2.250    0.000    5.000 
#    0.000    0.000    0.000    2.250    0.000    1.750 
#    0.000    0.000    0.000    0.000    0.000    0.000 
#
# Total GULP energy -178414.474868 kJ/mol
# GULP energy per Si atom -5575.452340 kJ/mol
# Density = 1.821451 g / cm^3
# Si number density = 18.256058 Si / 1000 Ang^3
#
#
#
# Elastic Constant Matrix: (Units=GPa)
#
#
# Indices 1 2 3 4 5 6 
#
# 1 73.1737 36.0557 3.0392 0.0000 -7.8835 0.0000
# 2 36.0557 47.6198 21.0761 0.0000 -9.8843 0.0000
# 3 3.0392 21.0761 73.3403 0.0000 -6.0658 0.0000
# 4 0.0000 0.0000 0.0000 16.5507 0.0000 2.2192
# 5 -7.8835 -9.8843 -6.0658 0.0000 34.8050 0.0000
# 6 0.0000 0.0000 0.0000 2.2192 0.0000 21.8480
#
#
#
# Elastic Compliance Matrix: (Units=1/GPa)
#
#
# Indices 1 2 3 4 5 6 
#
# 1 0.023121 -0.019469 0.004680 0.000000 0.000524 0.000000
# 2 -0.019469 0.041627 -0.010697 0.000000 0.005547 0.000000
# 3 0.004680 -0.010697 0.016591 0.000000 0.000914 0.000000
# 4 0.000000 0.000000 0.000000 0.061255 0.000000 -0.006222
# 5 0.000524 0.005547 0.000914 0.000000 0.030585 0.000000
# 6 0.000000 0.000000 0.000000 -0.006222 0.000000 0.046403
#
#
# Mechanical properties :
#
#
# Convention : Reuss Voigt Hill
#
# Bulk Modulus (GPa) = 32.93053 34.94176 33.93614
# Shear Modulus (GPa) = 17.81417 23.57160 20.69288
#
# Velocity S-wave (km/s) = 3.12716 3.59718 3.37037
# Velocity P-wave (km/s) = 5.57818 6.03608 5.81164
#
# Compressibility (1/GPa) = 0.03036696
#
# Stress axis : x y z
#
# Youngs Moduli (GPa) = 43.24984 24.02301 60.27479
#
# Poissons Ratio (x) = 0.46771 -0.28209
# Poissons Ratio (y) = 0.84204 0.64475
# Poissons Ratio (z) = -0.20241 0.25697
#
# Static dielectric constant tensor:
#      x y z
#    x 1.627960 0.000000 -0.006140 
#    y 0.000000 1.614220 0.000000 
#    z -0.006140 0.000000 1.647130 
# 
# From -- ./inp_files/276590.got.cif
#   From: 2010.05.17/outbox.cif.g08.bks.cpg/sg12_139_cif.got.tgz:276590.got - 2010.06.03 13:09:07.
