data_PCOD9196164
_publ_section_title
;
Structure prediction by ZEFSAII (Michael W. Deem and Ramdas Pophale) SiO2 
 PCOD9196164
Probable space group: C 2/M
;
_chemical_formula_sum "Si O2"
_cell_formula_units_Z 64
_cell_length_a 19.174481
_cell_length_b 7.887306
_cell_length_c 29.442539
_cell_angle_alpha 90.000000
_cell_angle_beta 136.767896
_cell_angle_gamma 90.000000
_cell_volume 3049.930165
_symmetry_space_group_name_H-M "C 2/M"
_symmetry_group_IT_number 12
_symmetry_cell_setting 'monoclinic'
loop_
_space_group_symop_operation_xyz
x,y,z
-x,y,-z
-x,-y,-z
x,-y,z
1/2+x,1/2+y,z
1/2-x,1/2+y,-z
1/2-x,1/2-y,-z
1/2+x,1/2-y,z
loop_
_atom_site_type_symbol
_atom_site_label
_atom_site_fract_x
_atom_site_fract_y
_atom_site_fract_z
Si Si1 0.623825 0.698477 0.211782
Si Si2 0.910221 0.303857 0.075448
Si Si3 0.187703 0.200157 0.342328
Si Si4 0.394018 0.695151 0.967143
Si Si5 0.173254 0.707986 0.868076
Si Si6 0.341061 0.298571 0.298692
Si Si7 0.981824 0.702802 0.282526
Si Si8 0.596251 0.699690 0.572468
O O1 0.596872 0.500000 0.201267
O O2 0.529093 0.793122 0.145190
O O3 0.647695 0.763706 0.274077
O O4 0.730652 0.718922 0.236540
O O5 0.882751 0.500000 0.053948
O O6 0.894869 0.201284 0.022175
O O7 0.849405 0.240094 0.090871
O O8 0.297431 0.279693 0.403625
O O9 0.097264 0.235078 0.334089
O O10 0.203506 0.000000 0.345392
O O11 0.394070 0.500000 0.950706
O O12 0.500000 0.774200 0.000000
O O13 0.283240 0.768112 0.902448
O O14 0.174426 0.500000 0.869026
O O15 0.082658 0.763265 0.791986
O O16 0.325201 0.500000 0.295124
O O17 0.421738 0.261712 0.298141
O O18 0.381594 0.230594 0.366532
O O19 0.982642 0.500000 0.281783
O O20 0.500000 0.773243 0.500000
O O21 0.576012 0.500000 0.569244
#
# Coordination Sequence:
#
# PCOD9196164 Si02
#       8
#     8   8   8   8   8   8   8   8
#     4  10  20  35  56  82 110 146 189 230 283 344
#     4  11  21  36  57  80 109 143 188 238 286 339
#     4  10  20  35  57  87 118 147 189 239 281 329
#     4  10  22  39  57  78 108 146 189 237 291 350
#     4   9  20  37  56  79 108 148 189 229 282 342
#     4  10  21  36  56  86 120 148 185 235 283 330
#     4  11  21  36  58  83 118 156 192 232 285 344
#     4   9  19  38  63  87 116 156 194 228 277 341
#
# _framework density 20.984088
#
# number of rings (size 3 to 8) (size 9 to 14) (size 15 to 20)
#    0.000    2.000    1.250    2.250    1.750    2.000 
#    0.000    2.500    0.000    0.000    0.000    0.000 
#    0.000    0.000    0.000    0.000    0.000    0.000 
#
# Total GULP energy -178737.025652 kJ/mol
# GULP energy per Si atom -5585.532052 kJ/mol
# Density = 2.093633 g / cm^3
# Si number density = 20.984088 Si / 1000 Ang^3
#
#
#
# Elastic Constant Matrix: (Units=GPa)
#
#
# Indices 1 2 3 4 5 6 
#
# 1 118.2365 -16.9386 23.2278 0.0000 22.1135 0.0000
# 2 -16.9386 32.2132 -7.3882 0.0000 -5.7364 0.0000
# 3 23.2278 -7.3882 76.3938 0.0000 26.9965 0.0000
# 4 0.0000 0.0000 0.0000 9.7990 0.0000 -0.4255
# 5 22.1135 -5.7364 26.9965 0.0000 25.7791 0.0000
# 6 0.0000 0.0000 0.0000 -0.4255 0.0000 19.9410
#
#
#
# Elastic Compliance Matrix: (Units=1/GPa)
#
#
# Indices 1 2 3 4 5 6 
#
# 1 0.010571 0.004111 0.000103 0.000000 -0.008261 0.000000
# 2 0.004111 0.033964 0.000969 0.000000 0.003017 0.000000
# 3 0.000103 0.000969 0.020808 0.000000 -0.021663 0.000000
# 4 0.000000 0.000000 0.000000 0.102146 0.000000 0.002179
# 5 -0.008261 0.003017 -0.021663 0.000000 0.069235 0.000000
# 6 0.000000 0.000000 0.000000 0.002179 0.000000 0.050194
#
#
# Mechanical properties :
#
#
# Convention : Reuss Voigt Hill
#
# Bulk Modulus (GPa) = 13.20854 24.96062 19.08458
# Shear Modulus (GPa) = 16.56780 26.29998 21.43389
#
# Velocity S-wave (km/s) = 2.81293 3.54408 3.19946
# Velocity P-wave (km/s) = 4.10588 5.35427 4.77108
#
# Compressibility (1/GPa) = 0.07570857
#
# Stress axis : x y z
#
# Youngs Moduli (GPa) = 94.59431 29.44261 48.05856
#
# Poissons Ratio (x) = -0.12105 -0.00493
# Poissons Ratio (y) = -0.38890 -0.04655
# Poissons Ratio (z) = -0.00970 -0.02852
#
# Static dielectric constant tensor:
#      x y z
#    x 1.758290 0.000000 0.011160 
#    y 0.000000 1.772170 0.000000 
#    z 0.011160 0.000000 1.760270 
# 
# From -- ./inp_files/378163.got.cif
#   From: 2010.05.17/outbox.cif.g08.bks.cpg/sg12_190_cif.got.tgz:378163.got - 2010.06.03 13:09:07.
