data_PCOD9196238
_publ_section_title
;
Structure prediction by ZEFSAII (Michael W. Deem and Ramdas Pophale) SiO2 
 PCOD9196238
Probable space group: C 2/M
;
_chemical_formula_sum "Si O2"
_cell_formula_units_Z 50
_cell_length_a 17.933035
_cell_length_b 14.152346
_cell_length_c 8.371225
_cell_angle_alpha 90.000000
_cell_angle_beta 78.774256
_cell_angle_gamma 90.000000
_cell_volume 2083.923246
_symmetry_space_group_name_H-M "C 2/M"
_symmetry_group_IT_number 12
_symmetry_cell_setting 'monoclinic'
loop_
_space_group_symop_operation_xyz
x,y,z
-x,y,-z
-x,-y,-z
x,-y,z
1/2+x,1/2+y,z
1/2-x,1/2+y,-z
1/2-x,1/2-y,-z
1/2+x,1/2-y,z
loop_
_atom_site_type_symbol
_atom_site_label
_atom_site_fract_x
_atom_site_fract_y
_atom_site_fract_z
Si Si1 0.068571 0.841313 0.238289
Si Si2 0.696275 0.610276 0.927810
Si Si3 0.843201 0.607005 0.056488
Si Si4 0.637987 0.218750 0.447389
Si Si5 0.500000 0.500000 0.500000
Si Si6 0.749826 0.396401 0.430643
Si Si7 0.581940 0.736672 0.806872
O O1 0.137938 0.876298 0.100542
O O2 0.090541 0.741348 0.310708
O O3 0.992295 0.827063 0.168179
O O4 0.046732 0.917110 0.381477
O O5 0.698024 0.500000 0.885324
O O6 0.779965 0.638774 0.953897
O O7 0.656986 0.672884 0.808390
O O8 0.867753 0.500000 0.009148
O O9 0.797538 0.603248 0.245112
O O10 0.909114 0.681761 0.064453
O O11 0.690893 0.312027 0.437650
O O12 0.692795 0.129526 0.448798
O O13 0.587538 0.220250 0.627704
O O14 0.715539 0.500000 0.466974
#
# Coordination Sequence:
#
# PCOD9196238 Si02
#       7
#     8   8   8   8   2   8   8
#     4  12  23  38  57  83 122 151 186 230 292 347
#     4  11  23  37  59  84 116 152 188 234 288 345
#     4   9  19  39  61  82 109 154 198 235 282 339
#     4  10  20  35  56  83 112 147 189 232 281 342
#     4  12  24  36  58  84 118 160 182 222 288 368
#     4   9  18  33  58  83 110 145 190 237 282 329
#     4  11  23  36  56  87 117 148 190 236 286 342
#
# _framework density 23.993207000000002
#
# number of rings (size 3 to 8) (size 9 to 14) (size 15 to 20)
#    0.000    1.600    4.000    0.960    2.240    1.280 
#    0.000    0.800    0.000    5.760    0.000    0.000 
#    0.000    0.000    0.000    0.000    0.000    0.000 
#
# Total GULP energy -139595.860655 kJ/mol
# GULP energy per Si atom -5583.834426 kJ/mol
# Density = 2.393860 g / cm^3
# Si number density = 23.993207 Si / 1000 Ang^3
#
#
#
# Elastic Constant Matrix: (Units=GPa)
#
#
# Indices 1 2 3 4 5 6 
#
# 1 84.3103 32.8935 13.5010 0.0000 16.1137 0.0000
# 2 32.8935 94.4194 -5.1976 0.0000 22.1154 0.0000
# 3 13.5010 -5.1976 77.4908 0.0000 6.0985 0.0000
# 4 0.0000 0.0000 0.0000 18.1900 0.0000 -3.1086
# 5 16.1137 22.1154 6.0985 0.0000 40.0304 0.0000
# 6 0.0000 0.0000 0.0000 -3.1086 0.0000 21.7887
#
#
#
# Elastic Compliance Matrix: (Units=1/GPa)
#
#
# Indices 1 2 3 4 5 6 
#
# 1 0.014621 -0.004540 -0.002617 0.000000 -0.002978 0.000000
# 2 -0.004540 0.013718 0.002190 0.000000 -0.006085 0.000000
# 3 -0.002617 0.002190 0.013684 0.000000 -0.002241 0.000000
# 4 0.000000 0.000000 0.000000 0.056349 0.000000 0.008039
# 5 -0.002978 -0.006085 -0.002241 0.000000 0.029883 0.000000
# 6 0.000000 0.000000 0.000000 0.008039 0.000000 0.047042
#
#
# Mechanical properties :
#
#
# Convention : Reuss Voigt Hill
#
# Bulk Modulus (GPa) = 31.16379 37.62378 34.39379
# Shear Modulus (GPa) = 25.51949 30.33672 27.92810
#
# Velocity S-wave (km/s) = 3.26485 3.55968 3.41545
# Velocity P-wave (km/s) = 5.21815 5.71053 5.46988
#
# Compressibility (1/GPa) = 0.03208852
#
# Stress axis : x y z
#
# Youngs Moduli (GPa) = 68.39678 72.89429 73.07779
#
# Poissons Ratio (x) = 0.33093 0.19127
# Poissons Ratio (y) = 0.31052 -0.16004
# Poissons Ratio (z) = 0.17902 -0.15964
#
# Static dielectric constant tensor:
#      x y z
#    x 1.932730 0.000000 0.001630 
#    y 0.000000 1.889250 0.000000 
#    z 0.001630 0.000000 2.007220 
# 
# From -- ./inp_files/85917.got.cif
#   From: 2010.05.17/outbox.cif.g08.bks.cpg/sg12_43_cif.got.tgz:85917.got - 2010.06.03 13:09:07.
