data_PCOD9196865
_publ_section_title
;
Structure prediction by ZEFSAII (Michael W. Deem and Ramdas Pophale) SiO2 
 PCOD9196865
Probable space group: C 2/M
;
_chemical_formula_sum "Si O2"
_cell_formula_units_Z 64
_cell_length_a 18.545856
_cell_length_b 14.014519
_cell_length_c 24.991658
_cell_angle_alpha 90.000000
_cell_angle_beta 150.260782
_cell_angle_gamma 90.000000
_cell_volume 3222.169120
_symmetry_space_group_name_H-M "C 2/M"
_symmetry_group_IT_number 12
_symmetry_cell_setting 'monoclinic'
loop_
_space_group_symop_operation_xyz
x,y,z
-x,y,-z
-x,-y,-z
x,-y,z
1/2+x,1/2+y,z
1/2-x,1/2+y,-z
1/2-x,1/2-y,-z
1/2+x,1/2-y,z
loop_
_atom_site_type_symbol
_atom_site_label
_atom_site_fract_x
_atom_site_fract_y
_atom_site_fract_z
Si Si1 0.835594 0.609870 0.372849
Si Si2 0.786765 0.387558 0.654343
Si Si3 0.094615 0.886006 0.306903
Si Si4 0.167402 0.609135 0.123949
Si Si5 0.610178 0.384992 0.440757
Si Si6 0.828912 0.799304 0.317534
Si Si7 0.212905 0.795662 0.900951
Si Si8 0.373793 0.112632 0.102269
O O1 0.810896 0.500000 0.340906
O O2 0.726079 0.632690 0.351013
O O3 0.815844 0.685777 0.312976
O O4 0.000000 0.618228 0.500000
O O5 0.759120 0.500000 0.643558
O O6 0.745871 0.363021 0.566992
O O7 0.682628 0.334429 0.628899
O O8 0.955220 0.371788 0.776685
O O9 0.127073 0.858726 0.389436
O O10 0.949301 0.834611 0.193286
O O11 0.068606 0.000000 0.289812
O O12 0.222102 0.500000 0.155903
O O13 0.197014 0.650438 0.201340
O O14 0.250137 0.675311 0.135238
O O15 0.000000 0.608798 0.000000
O O16 0.587559 0.500000 0.427886
O O17 0.472130 0.334530 0.379206
O O18 0.212395 0.683593 0.913555
O O19 0.323412 0.850698 0.011523
O O20 0.343552 0.000000 0.088370
#
# Coordination Sequence:
#
# PCOD9196865 Si02
#       8
#     8   8   8   8   8   8   8   8
#     4  10  23  43  62  85 120 167 217 254 296 361
#     4  10  20  35  57  90 129 161 191 243 317 377
#     4  10  20  38  64  91 119 156 208 259 299 356
#     4  11  23  39  62  91 123 157 196 249 311 373
#     4  10  20  35  60  94 125 155 195 251 315 368
#     4  12  21  36  59  90 123 160 204 253 309 365
#     4  11  21  38  63  90 117 157 206 252 301 360
#     4  10  22  39  59  86 121 160 203 250 303 360
#
# _framework density 19.862396
#
# number of rings (size 3 to 8) (size 9 to 14) (size 15 to 20)
#    0.000    1.500    1.250    4.875    0.000    4.000 
#    2.250    2.500    0.000    0.750    0.000    0.000 
#    0.000    0.000    0.000    0.000    0.000    0.000 
#
# Total GULP energy -178820.606221 kJ/mol
# GULP energy per Si atom -5588.143944 kJ/mol
# Density = 1.981719 g / cm^3
# Si number density = 19.862396 Si / 1000 Ang^3
#
#
#
# Elastic Constant Matrix: (Units=GPa)
#
#
# Indices 1 2 3 4 5 6 
#
# 1 52.0535 48.5681 17.9354 -0.0002 2.6463 -0.0001
# 2 48.5681 101.5545 26.7108 0.0004 -2.2414 0.0000
# 3 17.9354 26.7108 108.7090 0.0008 -5.8933 0.0000
# 4 -0.0002 0.0004 0.0008 -2.5801 0.0004 -9.2105
# 5 2.6463 -2.2414 -5.8933 0.0004 27.7227 0.0000
# 6 -0.0001 0.0000 0.0000 -9.2105 0.0000 24.1342
#
#
#
# Elastic Compliance Matrix: (Units=1/GPa)
#
#
# Indices 1 2 3 4 5 6 
#
# 1 0.035735 -0.016657 -0.002085 -0.000003 -0.005201 -0.000001
# 2 -0.016657 0.018294 -0.001599 0.000002 0.002729 0.000001
# 3 -0.002085 -0.001599 0.010055 0.000001 0.002207 0.000001
# 4 -0.000003 0.000002 0.000001 -0.164064 0.000003 -0.062613
# 5 -0.005201 0.002729 0.002207 0.000003 0.037258 0.000001
# 6 -0.000001 0.000001 0.000001 -0.062613 0.000001 0.017540
#
#
# Mechanical properties :
#
#
# Convention : Reuss Voigt Hill
#
# Bulk Modulus (GPa) = 42.72928 49.86062 46.29495
# Shear Modulus (GPa) = 1515.18229 21.12887 768.15558
#
# Velocity S-wave (km/s) = 27.64952 3.26508 19.68701
# Velocity P-wave (km/s) = 32.26278 6.27470 23.24068
#
# Compressibility (1/GPa) = 0.02340316
#
# Stress axis : x y z
#
# Youngs Moduli (GPa) = 27.98363 54.66369 99.44909
#
# Poissons Ratio (x) = 0.91051 0.20736
# Poissons Ratio (y) = 0.46611 0.15901
# Poissons Ratio (z) = 0.05835 0.08740
#
# Static dielectric constant tensor:
#      x y z
#    x 1.681480 0.000000 -0.001280 
#    y 0.000000 1.710810 0.000000 
#    z -0.001280 0.000000 1.712270 
# 
# From -- ./inp_files/344057.got.cif
#   From: 2010.05.17/outbox.cif.g08.bks.cpg/sg12_173_cif.got.tgz:344057.got - 2010.06.03 13:09:07.
