data_PCOD9196047
_publ_section_title
;
Structure prediction by ZEFSAII (Michael W. Deem and Ramdas Pophale) SiO2 
 PCOD9196047
Probable space group: C 2/M
;
_chemical_formula_sum "Si O2"
_cell_formula_units_Z 56
_cell_length_a 15.902154
_cell_length_b 7.701200
_cell_length_c 24.315131
_cell_angle_alpha 90.000000
_cell_angle_beta 59.179355
_cell_angle_gamma 90.000000
_cell_volume 2557.234388
_symmetry_space_group_name_H-M "C 2/M"
_symmetry_group_IT_number 12
_symmetry_cell_setting 'monoclinic'
loop_
_space_group_symop_operation_xyz
x,y,z
-x,y,-z
-x,-y,-z
x,-y,z
1/2+x,1/2+y,z
1/2-x,1/2+y,-z
1/2-x,1/2-y,-z
1/2+x,1/2-y,z
loop_
_atom_site_type_symbol
_atom_site_label
_atom_site_fract_x
_atom_site_fract_y
_atom_site_fract_z
Si Si1 0.214153 0.308571 0.071577
Si Si2 0.165405 0.701156 0.796081
Si Si3 0.592047 0.788445 0.931541
Si Si4 0.278266 0.792055 0.340208
Si Si5 0.638676 0.206622 0.205304
Si Si6 0.463224 0.293083 0.342815
Si Si7 0.944551 0.787136 0.573567
O O1 0.173515 0.500000 0.075072
O O2 0.314280 0.299730 0.072676
O O3 0.141872 0.224073 0.141183
O O4 0.250000 0.250000 0.000000
O O5 0.137925 0.500000 0.797558
O O6 0.091876 0.768206 0.867818
O O7 0.176773 0.780504 0.731989
O O8 0.273400 0.711189 0.788184
O O9 0.604780 0.000000 0.928683
O O10 0.500000 0.746158 0.000000
O O11 0.353672 0.757961 0.363653
O O12 0.168268 0.728501 0.386795
O O13 0.270092 0.000000 0.335893
O O14 0.537433 0.231784 0.270533
O O15 0.658541 0.000000 0.196080
O O16 0.469159 0.500000 0.341974
O O17 0.501032 0.228951 0.389151
O O18 0.000000 0.731135 0.500000
O O19 0.944686 0.000000 0.573455
#
# Coordination Sequence:
#
# PCOD9196047 Si02
#       7
#     8   8   8   8   8   8   8
#     4  10  21  35  52  76 107 145 187 234 285 338
#     4   9  17  33  55  77 106 147 191 233 285 345
#     4   9  18  32  51  75 105 143 185 230 280 337
#     4  10  20  36  58  86 117 154 196 238 286 343
#     4  10  20  35  56  80 109 147 191 239 291 343
#     4  11  22  37  59  89 118 151 196 240 287 344
#     4   9  19  38  62  85 117 159 195 234 289 347
#
# _framework density 21.898657
#
# number of rings (size 3 to 8) (size 9 to 14) (size 15 to 20)
#    0.000    2.286    1.429    1.286    0.000    4.286 
#    0.000    2.857    0.000    3.000    0.000    0.000 
#    0.000    0.000    0.000    0.000    0.000    0.000 
#
# Total GULP energy -156182.733488 kJ/mol
# GULP energy per Si atom -5577.954767 kJ/mol
# Density = 2.184881 g / cm^3
# Si number density = 21.898657 Si / 1000 Ang^3
#
#
#
# Elastic Constant Matrix: (Units=GPa)
#
#
# Indices 1 2 3 4 5 6 
#
# 1 107.9248 -8.4252 88.2414 0.0000 8.0777 0.0002
# 2 -8.4252 32.1308 14.7157 0.0000 1.5552 0.0004
# 3 88.2414 14.7157 209.5040 0.0000 10.6725 0.0000
# 4 0.0000 0.0000 0.0000 5.8213 0.0000 0.5527
# 5 8.0777 1.5552 10.6725 0.0000 23.8054 0.0000
# 6 0.0002 0.0004 0.0000 0.5527 0.0000 20.6841
#
#
#
# Elastic Compliance Matrix: (Units=1/GPa)
#
#
# Indices 1 2 3 4 5 6 
#
# 1 0.015821 0.007510 -0.007054 0.000000 -0.002697 0.000000
# 2 0.007510 0.035751 -0.005552 0.000000 -0.002395 -0.000001
# 3 -0.007054 -0.005552 0.008181 0.000000 -0.000911 0.000000
# 4 0.000000 0.000000 0.000000 0.172219 0.000000 -0.004602
# 5 -0.002697 -0.002395 -0.000911 0.000000 0.043487 0.000000
# 6 0.000000 -0.000001 0.000000 -0.004602 0.000000 0.048469
#
#
# Mechanical properties :
#
#
# Convention : Reuss Voigt Hill
#
# Bulk Modulus (GPa) = 20.17764 59.84705 40.01235
# Shear Modulus (GPa) = 14.25961 27.06401 20.66181
#
# Velocity S-wave (km/s) = 2.55456 3.51932 3.07501
# Velocity P-wave (km/s) = 4.23499 6.62590 5.56047
#
# Compressibility (1/GPa) = 0.04955981
#
# Stress axis : x y z
#
# Youngs Moduli (GPa) = 63.20645 27.97146 122.24009
#
# Poissons Ratio (x) = -0.21006 0.86226
# Poissons Ratio (y) = -0.47466 0.67870
# Poissons Ratio (z) = 0.44585 0.15530
#
# Static dielectric constant tensor:
#      x y z
#    x 1.754060 0.000000 0.018870 
#    y 0.000000 1.811080 0.000000 
#    z 0.018870 0.000000 1.846300 
# 
# From -- ./inp_files/338444.got.cif
#   From: 2010.05.17/outbox.cif.g08.bks.cpg/sg12_170_cif.got.tgz:338444.got - 2010.06.03 13:09:07.
