data_PCOD9196733
_publ_section_title
;
Structure prediction by ZEFSAII (Michael W. Deem and Ramdas Pophale) SiO2 
 PCOD9196733
Probable space group: C 2/M
;
_chemical_formula_sum "Si O2"
_cell_formula_units_Z 64
_cell_length_a 29.036476
_cell_length_b 8.990058
_cell_length_c 14.483068
_cell_angle_alpha 90.000000
_cell_angle_beta 119.514917
_cell_angle_gamma 90.000000
_cell_volume 3290.029225
_symmetry_space_group_name_H-M "C 2/M"
_symmetry_group_IT_number 12
_symmetry_cell_setting 'monoclinic'
loop_
_space_group_symop_operation_xyz
x,y,z
-x,y,-z
-x,-y,-z
x,-y,z
1/2+x,1/2+y,z
1/2-x,1/2+y,-z
1/2-x,1/2-y,-z
1/2+x,1/2-y,z
loop_
_atom_site_type_symbol
_atom_site_label
_atom_site_fract_x
_atom_site_fract_y
_atom_site_fract_z
Si Si1 0.793827 0.674798 0.980393
Si Si2 0.982578 0.828189 0.247357
Si Si3 0.844853 0.178527 0.369078
Si Si4 0.047848 0.675776 0.975153
Si Si5 0.243466 0.320200 0.393430
Si Si6 0.365028 0.328909 0.182913
Si Si7 0.338497 0.181074 0.834950
Si Si8 0.456062 0.177962 0.533892
O O1 0.785010 0.500000 0.970193
O O2 0.847619 0.717582 0.086002
O O3 0.750000 0.750000 0.000000
O O4 0.800384 0.726493 0.882049
O O5 0.928061 0.823961 0.252132
O O6 0.024597 0.735883 0.347543
O O7 0.998945 0.000000 0.254846
O O8 0.967881 0.762475 0.133034
O O9 0.793904 0.219712 0.379173
O O10 0.838480 0.211004 0.253797
O O11 0.898761 0.255481 0.454635
O O12 0.851483 0.000000 0.381879
O O13 0.054578 0.500000 0.959251
O O14 0.102289 0.728310 0.078429
O O15 0.000000 0.689186 0.000000
O O16 0.242537 0.500000 0.399772
O O17 0.250000 0.250000 0.500000
O O18 0.189641 0.271823 0.287388
O O19 0.350547 0.500000 0.144380
O O20 0.339553 0.000000 0.834447
O O21 0.500000 0.222559 0.500000
O O22 0.453301 0.000000 0.530752
#
# Coordination Sequence:
#
# PCOD9196733 Si02
#       8
#     8   8   8   8   8   8   8   8
#     4  11  21  34  56  84 117 154 194 241 293 356
#     4  11  22  37  60  87 121 160 198 246 301 358
#     4  10  21  39  61  85 119 161 205 249 303 367
#     4  10  21  39  63  90 121 160 205 247 295 357
#     4  10  22  41  63  85 115 157 204 251 297 351
#     4  10  20  35  57  85 118 155 193 238 295 360
#     4   9  19  38  61  83 114 156 195 237 291 349
#     4  11  23  37  58  88 123 160 203 252 305 367
#
# _framework density 19.452715000000001
#
# number of rings (size 3 to 8) (size 9 to 14) (size 15 to 20)
#    0.000    1.750    2.500    1.875    0.000    5.250 
#    0.000    4.375    0.000    0.000    0.000    0.000 
#    0.000    0.000    0.000    0.000    0.000    0.000 
#
# Total GULP energy -178642.626484 kJ/mol
# GULP energy per Si atom -5582.582078 kJ/mol
# Density = 1.940844 g / cm^3
# Si number density = 19.452715 Si / 1000 Ang^3
#
#
#
# Elastic Constant Matrix: (Units=GPa)
#
#
# Indices 1 2 3 4 5 6 
#
# 1 64.0055 20.0957 40.3891 0.0000 -3.5403 0.0000
# 2 20.0957 21.3639 31.2881 0.0000 -3.9705 0.0000
# 3 40.3891 31.2881 144.6848 0.0000 -4.2051 0.0000
# 4 0.0000 0.0000 0.0000 32.0720 0.0000 -0.3716
# 5 -3.5403 -3.9705 -4.2051 0.0000 31.9225 0.0000
# 6 0.0000 0.0000 0.0000 -0.3716 0.0000 25.2448
#
#
#
# Elastic Compliance Matrix: (Units=1/GPa)
#
#
# Indices 1 2 3 4 5 6 
#
# 1 0.022785 -0.017736 -0.002525 0.000000 -0.000012 0.000000
# 2 -0.017736 0.083721 -0.012958 0.000000 0.006739 0.000000
# 3 -0.002525 -0.012958 0.010403 0.000000 -0.000521 0.000000
# 4 0.000000 0.000000 0.000000 0.031185 0.000000 0.000459
# 5 -0.000012 0.006739 -0.000521 0.000000 0.032094 0.000000
# 6 0.000000 0.000000 0.000000 0.000459 0.000000 0.039619
#
#
# Mechanical properties :
#
#
# Convention : Reuss Voigt Hill
#
# Bulk Modulus (GPa) = 19.81341 45.95556 32.88448
# Shear Modulus (GPa) = 16.49780 27.06660 21.78220
#
# Velocity S-wave (km/s) = 2.91537 3.73420 3.34990
# Velocity P-wave (km/s) = 4.64113 6.50137 5.64836
#
# Compressibility (1/GPa) = 0.05047088
#
# Stress axis : x y z
#
# Youngs Moduli (GPa) = 43.88795 11.94442 96.12155
#
# Poissons Ratio (x) = 0.21185 0.24275
# Poissons Ratio (y) = 0.77842 1.24551
# Poissons Ratio (z) = 0.11083 0.15477
#
# Static dielectric constant tensor:
#      x y z
#    x 1.708600 0.000000 0.023100 
#    y 0.000000 1.662300 0.000000 
#    z 0.023100 0.000000 1.686270 
# 
# From -- ./inp_files/249194.got.cif
#   From: 2010.05.17/outbox.cif.g08.bks.cpg/sg12_125_cif.got.tgz:249194.got - 2010.06.03 13:09:07.
