data_PCOD9196824
_publ_section_title
;
Structure prediction by ZEFSAII (Michael W. Deem and Ramdas Pophale) SiO2 
 PCOD9196824
Probable space group: C 2/M
;
_chemical_formula_sum "Si O2"
_cell_formula_units_Z 40
_cell_length_a 27.791386
_cell_length_b 10.245767
_cell_length_c 16.534136
_cell_angle_alpha 90.000000
_cell_angle_beta 157.057234
_cell_angle_gamma 90.000000
_cell_volume 1835.231043
_symmetry_space_group_name_H-M "C 2/M"
_symmetry_group_IT_number 12
_symmetry_cell_setting 'monoclinic'
loop_
_space_group_symop_operation_xyz
x,y,z
-x,y,-z
-x,-y,-z
x,-y,z
1/2+x,1/2+y,z
1/2-x,1/2+y,-z
1/2-x,1/2-y,-z
1/2+x,1/2-y,z
loop_
_atom_site_type_symbol
_atom_site_label
_atom_site_fract_x
_atom_site_fract_y
_atom_site_fract_z
Si Si1 0.171876 0.158451 0.439372
Si Si2 0.561500 0.289935 0.729209
Si Si3 0.290044 0.306221 0.315979
Si Si4 0.967324 0.640502 0.161014
Si Si5 0.695917 0.138786 0.804691
O O1 0.250000 0.250000 0.500000
O O2 0.227003 0.181490 0.614802
O O3 0.039325 0.233147 0.237977
O O4 0.166972 0.000000 0.416617
O O5 0.429348 0.357873 0.517692
O O6 0.538012 0.164856 0.751151
O O7 0.620400 0.248472 0.735837
O O8 0.668349 0.360386 0.945371
O O9 0.296835 0.168683 0.278907
O O10 0.171019 0.364119 0.087611
O O11 0.027743 0.500000 0.236136
O O12 0.638061 0.000000 0.730739
#
# Coordination Sequence:
#
# PCOD9196824 Si02
#       5
#     8   8   8   8   8
#     4  11  25  46  68  91 121 156 198 251 312 373
#     4   9  20  36  55  88 127 168 209 251 299 354
#     4  10  22  37  60  88 120 160 204 249 303 363
#     4  10  21  39  64  93 124 160 203 248 298 360
#     4  10  20  35  57  87 126 169 214 259 302 355
#
# _framework density 21.795621000000001
#
# number of rings (size 3 to 8) (size 9 to 14) (size 15 to 20)
#    0.000    2.000    0.000    2.400    0.000   14.400 
#    0.000    4.000    0.000   16.800    0.000    0.000 
#    0.000    0.000    0.000    0.000    0.000    0.000 
#
# Total GULP energy -111340.573047 kJ/mol
# GULP energy per Si atom -5567.028652 kJ/mol
# Density = 2.174601 g / cm^3
# Si number density = 21.795621 Si / 1000 Ang^3
#
#
#
# Elastic Constant Matrix: (Units=GPa)
#
#
# Indices 1 2 3 4 5 6 
#
# 1 95.6653 58.5807 24.6692 0.0000 0.0711 0.0000
# 2 58.5807 152.2932 48.7047 0.0000 -4.1028 0.0000
# 3 24.6692 48.7047 143.9675 0.0000 -10.1585 0.0000
# 4 0.0000 0.0000 0.0000 -6.5874 0.0000 2.5982
# 5 0.0711 -4.1028 -10.1585 0.0000 27.7474 0.0000
# 6 0.0000 0.0000 0.0000 2.5982 0.0000 -18.8834
#
#
#
# Elastic Compliance Matrix: (Units=1/GPa)
#
#
# Indices 1 2 3 4 5 6 
#
# 1 0.013755 -0.005093 -0.000708 0.000000 -0.001047 0.000000
# 2 -0.005093 0.009249 -0.002216 0.000000 0.000569 0.000000
# 3 -0.000708 -0.002216 0.008001 0.000000 0.002603 0.000000
# 4 0.000000 0.000000 0.000000 -0.160517 0.000000 -0.022086
# 5 -0.001047 0.000569 0.002603 0.000000 0.037079 0.000000
# 6 0.000000 0.000000 0.000000 -0.022086 0.000000 -0.055995
#
#
# Mechanical properties :
#
#
# Convention : Reuss Voigt Hill
#
# Bulk Modulus (GPa) = 66.79504 72.87057 69.83281
# Shear Modulus (GPa) = -39.24544 17.78675 -10.72935
#
# Velocity S-wave (km/s) = -4.24796 2.85979 -2.22112
# Velocity P-wave (km/s) = 2.57921 6.66414 5.05287
#
# Compressibility (1/GPa) = 0.01497117
#
# Stress axis : x y z
#
# Youngs Moduli (GPa) = 72.70069 108.11542 124.98781
#
# Poissons Ratio (x) = 0.55061 0.08849
# Poissons Ratio (y) = 0.37025 0.27701
# Poissons Ratio (z) = 0.05147 0.23961
#
# Static dielectric constant tensor:
#      x y z
#    x 1.798830 0.000000 0.021680 
#    y 0.000000 1.845590 0.000000 
#    z 0.021680 0.000000 1.821540 
# 
# From -- ./inp_files/296335.got.cif
#   From: 2010.05.17/outbox.cif.g08.bks.cpg/sg12_149_cif.got.tgz:296335.got - 2010.06.03 13:09:07.
