data_PCOD9196699
_publ_section_title
;
Structure prediction by ZEFSAII (Michael W. Deem and Ramdas Pophale) SiO2 
 PCOD9196699
Probable space group: C 2/M
;
_chemical_formula_sum "Si O2"
_cell_formula_units_Z 64
_cell_length_a 23.602991
_cell_length_b 7.656989
_cell_length_c 15.735725
_cell_angle_alpha 90.000000
_cell_angle_beta 86.248962
_cell_angle_gamma 90.000000
_cell_volume 2837.791285
_symmetry_space_group_name_H-M "C 2/M"
_symmetry_group_IT_number 12
_symmetry_cell_setting 'monoclinic'
loop_
_space_group_symop_operation_xyz
x,y,z
-x,y,-z
-x,-y,-z
x,-y,z
1/2+x,1/2+y,z
1/2-x,1/2+y,-z
1/2-x,1/2-y,-z
1/2+x,1/2-y,z
loop_
_atom_site_type_symbol
_atom_site_label
_atom_site_fract_x
_atom_site_fract_y
_atom_site_fract_z
Si Si1 0.002182 0.713283 0.232135
Si Si2 0.836734 0.703526 0.550979
Si Si3 0.287838 0.287963 0.383074
Si Si4 0.538422 0.214406 0.415889
Si Si5 0.593405 0.211198 0.883521
Si Si6 0.924177 0.698370 0.931392
Si Si7 0.700860 0.695994 0.070364
Si Si8 0.213544 0.795467 0.806435
O O1 0.003716 0.500000 0.235868
O O2 0.014640 0.772119 0.326570
O O3 0.047800 0.773339 0.156431
O O4 0.942652 0.765304 0.195011
O O5 0.836416 0.500000 0.575348
O O6 0.776465 0.775264 0.590258
O O7 0.830598 0.719098 0.449925
O O8 0.896486 0.775060 0.577496
O O9 0.288928 0.500000 0.388841
O O10 0.301178 0.233504 0.286373
O O11 0.500000 0.268119 0.500000
O O12 0.538828 0.000000 0.416445
O O13 0.657972 0.269885 0.868658
O O14 0.593731 0.000000 0.886734
O O15 0.567008 0.275241 0.975243
O O16 0.946492 0.500000 0.933563
O O17 0.856238 0.694407 0.927004
O O18 0.683183 0.500000 0.052591
O O19 0.732212 0.705921 0.157580
O O20 0.750000 0.750000 0.000000
O O21 0.227227 0.000000 0.800876
#
# Coordination Sequence:
#
# PCOD9196699 Si02
#       8
#     8   8   8   8   8   8   8   8
#     4   9  19  34  56  83 114 153 193 237 288 339
#     4   9  18  34  57  81 109 144 186 234 281 333
#     4   9  20  36  55  81 111 147 185 226 283 345
#     4   9  18  31  51  83 115 144 186 237 285 334
#     4  10  20  35  57  85 114 148 196 241 283 336
#     4  10  20  36  59  84 115 152 191 239 285 338
#     4  12  24  39  58  84 117 152 189 231 283 340
#     4  11  23  37  57  83 115 153 190 232 286 346
#
# _framework density 22.552748999999999
#
# number of rings (size 3 to 8) (size 9 to 14) (size 15 to 20)
#    0.000    2.125    1.250    1.875    3.500    2.500 
#    0.000    0.625    0.000    2.625    0.000    0.000 
#    0.000    0.000    0.000    0.000    0.000    0.000 
#
# Total GULP energy -178715.110305 kJ/mol
# GULP energy per Si atom -5584.847197 kJ/mol
# Density = 2.250142 g / cm^3
# Si number density = 22.552749 Si / 1000 Ang^3
#
#
#
# Elastic Constant Matrix: (Units=GPa)
#
#
# Indices 1 2 3 4 5 6 
#
# 1 94.5338 -1.8754 39.2075 0.0000 28.7340 0.0000
# 2 -1.8754 51.2598 -2.5623 0.0000 0.1279 0.0000
# 3 39.2075 -2.5623 153.2835 0.0000 19.9673 0.0000
# 4 0.0000 0.0000 0.0000 11.7116 0.0000 3.7540
# 5 28.7340 0.1279 19.9673 0.0000 33.5400 0.0000
# 6 0.0000 0.0000 0.0000 3.7540 0.0000 10.3180
#
#
#
# Elastic Compliance Matrix: (Units=1/GPa)
#
#
# Indices 1 2 3 4 5 6 
#
# 1 0.015057 0.000462 -0.002345 0.000000 -0.011505 0.000000
# 2 0.000462 0.019542 0.000292 0.000000 -0.000645 0.000000
# 3 -0.002345 0.000292 0.007444 0.000000 -0.002424 0.000000
# 4 0.000000 0.000000 0.000000 0.096658 0.000000 -0.035167
# 5 -0.011505 -0.000645 -0.002424 0.000000 0.041117 0.000000
# 6 0.000000 0.000000 0.000000 -0.035167 0.000000 0.109713
#
#
# Mechanical properties :
#
#
# Convention : Reuss Voigt Hill
#
# Bulk Modulus (GPa) = 25.73166 40.95739 33.34452
# Shear Modulus (GPa) = 16.35774 28.73440 22.54607
#
# Velocity S-wave (km/s) = 2.69608 3.57332 3.16524
# Velocity P-wave (km/s) = 4.59632 5.93506 5.30806
#
# Compressibility (1/GPa) = 0.03886264
#
# Stress axis : x y z
#
# Youngs Moduli (GPa) = 66.41429 51.17288 134.33104
#
# Poissons Ratio (x) = -0.02366 0.31499
# Poissons Ratio (y) = -0.03071 -0.03928
# Poissons Ratio (z) = 0.15573 -0.01496
#
# Static dielectric constant tensor:
#      x y z
#    x 1.842050 0.000000 -0.005730 
#    y 0.000000 1.853650 0.000000 
#    z -0.005730 0.000000 1.851110 
# 
# From -- ./inp_files/238593.got.cif
#   From: 2010.05.17/outbox.cif.g08.bks.cpg/sg12_120_cif.got.tgz:238593.got - 2010.06.03 13:09:07.
