data_PCOD9196129
_publ_section_title
;
Structure prediction by ZEFSAII (Michael W. Deem and Ramdas Pophale) SiO2 
 PCOD9196129
Probable space group: C 2/M
;
_chemical_formula_sum "Si O2"
_cell_formula_units_Z 64
_cell_length_a 19.207069
_cell_length_b 8.888080
_cell_length_c 31.641922
_cell_angle_alpha 90.000000
_cell_angle_beta 40.799447
_cell_angle_gamma 90.000000
_cell_volume 3529.554366
_symmetry_space_group_name_H-M "C 2/M"
_symmetry_group_IT_number 12
_symmetry_cell_setting 'monoclinic'
loop_
_space_group_symop_operation_xyz
x,y,z
-x,y,-z
-x,-y,-z
x,-y,z
1/2+x,1/2+y,z
1/2-x,1/2+y,-z
1/2-x,1/2-y,-z
1/2+x,1/2-y,z
loop_
_atom_site_type_symbol
_atom_site_label
_atom_site_fract_x
_atom_site_fract_y
_atom_site_fract_z
Si Si1 0.044116 0.679973 0.697903
Si Si2 0.189488 0.180123 0.189082
Si Si3 0.923189 0.678815 0.923823
Si Si4 0.878273 0.321297 0.562491
Si Si5 0.153202 0.820761 0.814430
Si Si6 0.727480 0.679345 0.074614
Si Si7 0.294759 0.820773 0.299807
Si Si8 0.717317 0.678220 0.559239
O O1 0.034091 0.500000 0.699416
O O2 0.111156 0.714923 0.709781
O O3 0.114567 0.742757 0.626966
O O4 0.929561 0.756618 0.751615
O O5 0.266473 0.253353 0.188062
O O6 0.228076 0.215186 0.123705
O O7 0.189360 0.000000 0.194205
O O8 0.941522 0.500000 0.913943
O O9 0.864468 0.732487 0.908077
O O10 0.034026 0.762910 0.878321
O O11 0.838890 0.712257 0.999958
O O12 0.877401 0.500000 0.572859
O O13 0.814140 0.233988 0.628132
O O14 0.812101 0.300268 0.549708
O O15 0.000000 0.273452 0.500000
O O16 0.184874 0.760805 0.753560
O O17 0.156940 0.000000 0.813429
O O18 0.707677 0.500000 0.078920
O O19 0.293205 0.000000 0.294278
O O20 0.698645 0.500000 0.563414
O O21 0.750000 0.750000 0.500000
#
# Coordination Sequence:
#
# PCOD9196129 Si02
#       8
#     8   8   8   8   8   8   8   8
#     4  10  21  38  59  83 111 145 187 232 280 335
#     4  11  23  39  58  82 113 147 186 231 282 335
#     4  10  20  37  61  87 115 147 187 231 275 330
#     4   9  19  36  57  81 110 146 186 228 276 328
#     4  12  25  39  56  81 115 151 188 231 282 335
#     4   9  20  38  61  87 114 148 187 229 278 332
#     4  10  21  38  60  84 111 146 189 234 278 330
#     4  10  20  35  56  81 111 147 186 231 281 331
#
# _framework density 18.1326
#
# number of rings (size 3 to 8) (size 9 to 14) (size 15 to 20)
#    0.000    1.875    0.000    3.750    0.000    7.250 
#    0.000    6.250    0.000    0.000    0.000    0.000 
#    0.000    0.000    0.000    0.000    0.000    0.000 
#
# Total GULP energy -178823.098475 kJ/mol
# GULP energy per Si atom -5588.221827 kJ/mol
# Density = 1.809133 g / cm^3
# Si number density = 18.132600 Si / 1000 Ang^3
#
#
#
# Elastic Constant Matrix: (Units=GPa)
#
#
# Indices 1 2 3 4 5 6 
#
# 1 123.6254 83.9637 107.7392 0.0000 -1.2653 -0.0001
# 2 83.9637 98.7371 82.0545 -0.0003 1.0148 -0.0006
# 3 107.7392 82.0545 139.0343 0.0000 -0.7396 0.0000
# 4 0.0000 -0.0003 0.0000 36.0073 0.0000 -2.1295
# 5 -1.2653 1.0148 -0.7396 0.0000 34.2160 0.0001
# 6 -0.0001 -0.0006 0.0000 -2.1295 0.0001 32.0532
#
#
#
# Elastic Compliance Matrix: (Units=1/GPa)
#
#
# Indices 1 2 3 4 5 6 
#
# 1 0.031412 -0.012758 -0.016806 0.000000 0.001177 0.000000
# 2 -0.012758 0.025082 -0.004924 0.000000 -0.001322 0.000000
# 3 -0.016806 -0.004924 0.023122 0.000000 0.000024 0.000000
# 4 0.000000 0.000000 0.000000 0.027882 0.000000 0.001852
# 5 0.001177 -0.001322 0.000024 0.000000 0.029309 0.000000
# 6 0.000000 0.000000 0.000000 0.001852 0.000000 0.031321
#
#
# Mechanical properties :
#
#
# Convention : Reuss Voigt Hill
#
# Bulk Modulus (GPa) = 93.97730 100.99018 97.48374
# Shear Modulus (GPa) = 20.77695 26.29793 23.53744
#
# Velocity S-wave (km/s) = 3.38869 3.81243 3.60679
# Velocity P-wave (km/s) = 8.20069 8.67155 8.43940
#
# Compressibility (1/GPa) = 0.01064087
#
# Stress axis : x y z
#
# Youngs Moduli (GPa) = 31.83463 39.86869 43.24924
#
# Poissons Ratio (x) = 0.50864 0.72685
# Poissons Ratio (y) = 0.40614 0.21295
# Poissons Ratio (z) = 0.53502 0.19631
#
# Static dielectric constant tensor:
#      x y z
#    x 1.591090 0.000000 0.001630 
#    y 0.000000 1.603700 0.000000 
#    z 0.001630 0.000000 1.600640 
# 
# From -- ./inp_files/378217.got.cif
#   From: 2010.05.17/outbox.cif.g08.bks.cpg/sg12_190_cif.got.tgz:378217.got - 2010.06.03 13:09:07.
