data_PCOD9196839
_publ_section_title
;
Structure prediction by ZEFSAII (Michael W. Deem and Ramdas Pophale) SiO2 
 PCOD9196839
Probable space group: C 2/M
;
_chemical_formula_sum "Si O2"
_cell_formula_units_Z 40
_cell_length_a 10.799564
_cell_length_b 26.458606
_cell_length_c 6.249398
_cell_angle_alpha 90.000000
_cell_angle_beta 77.999750
_cell_angle_gamma 90.000000
_cell_volume 1746.688082
_symmetry_space_group_name_H-M "C 2/M"
_symmetry_group_IT_number 12
_symmetry_cell_setting 'monoclinic'
loop_
_space_group_symop_operation_xyz
x,y,z
-x,y,-z
-x,-y,-z
x,-y,z
1/2+x,1/2+y,z
1/2-x,1/2+y,-z
1/2-x,1/2-y,-z
1/2+x,1/2-y,z
loop_
_atom_site_type_symbol
_atom_site_label
_atom_site_fract_x
_atom_site_fract_y
_atom_site_fract_z
Si Si1 0.146711 0.188354 0.225429
Si Si2 0.900908 0.296632 0.859543
Si Si3 0.781549 0.637099 0.553622
Si Si4 0.628206 0.056980 0.818702
Si Si5 0.867724 0.087317 0.010652
O O1 0.067717 0.239495 0.226093
O O2 0.195935 0.175504 0.444289
O O3 0.093713 0.136768 0.145215
O O4 0.269630 0.199315 0.036006
O O5 0.877312 0.331343 0.664691
O O6 0.000000 0.314092 0.000000
O O7 0.851511 0.599045 0.368567
O O8 0.693035 0.605536 0.745316
O O9 0.752792 0.061420 0.924214
O O10 0.621711 0.000000 0.732001
O O11 0.500000 0.065271 0.000000
O O12 0.000000 0.059210 0.000000
#
# Coordination Sequence:
#
# PCOD9196839 Si02
#       5
#     8   8   8   8   8
#     4   9  20  36  55  87 127 167 210 257 316 382
#     4  10  20  35  57  88 126 167 215 266 313 374
#     4  10  22  40  65  90 123 170 216 263 323 388
#     4  10  24  45  67  94 128 167 214 271 336 398
#     4  10  22  40  64  95 129 165 212 268 320 383
#
# _framework density 22.900483000000001
#
# number of rings (size 3 to 8) (size 9 to 14) (size 15 to 20)
#    0.000    2.200    0.000    1.200    0.000   14.800 
#    0.000    5.000    0.000    6.600    0.000    0.000 
#    0.000    0.000    0.000    0.000    0.000    0.000 
#
# Total GULP energy -111869.981833 kJ/mol
# GULP energy per Si atom -5593.499092 kJ/mol
# Density = 2.284836 g / cm^3
# Si number density = 22.900483 Si / 1000 Ang^3
#
#
#
# Elastic Constant Matrix: (Units=GPa)
#
#
# Indices 1 2 3 4 5 6 
#
# 1 117.7814 30.5602 37.6675 0.0000 16.6012 0.0000
# 2 30.5602 106.6670 38.5976 0.0000 14.5077 0.0000
# 3 37.6675 38.5976 119.8205 0.0000 23.6549 0.0000
# 4 0.0000 0.0000 0.0000 4.4260 0.0000 -7.6937
# 5 16.6012 14.5077 23.6549 0.0000 41.6754 0.0000
# 6 0.0000 0.0000 0.0000 -7.6937 0.0000 3.6192
#
#
#
# Elastic Compliance Matrix: (Units=1/GPa)
#
#
# Indices 1 2 3 4 5 6 
#
# 1 0.009934 -0.001787 -0.002127 0.000000 -0.002128 0.000000
# 2 -0.001787 0.011080 -0.002688 0.000000 -0.001620 0.000000
# 3 -0.002127 -0.002688 0.010731 0.000000 -0.004308 0.000000
# 4 0.000000 0.000000 0.000000 -0.083828 0.000000 -0.178201
# 5 -0.002128 -0.001620 -0.004308 0.000000 0.027851 0.000000
# 6 0.000000 0.000000 0.000000 -0.178201 0.000000 -0.102515
#
#
# Mechanical properties :
#
#
# Convention : Reuss Voigt Hill
#
# Bulk Modulus (GPa) = 53.93456 61.99105 57.96280
# Shear Modulus (GPa) = -46.57124 25.77370 -10.39877
#
# Velocity S-wave (km/s) = -4.51448 3.35844 -2.13324
# Velocity P-wave (km/s) = 1.88975 6.49364 4.39296
#
# Compressibility (1/GPa) = 0.01854099
#
# Stress axis : x y z
#
# Youngs Moduli (GPa) = 100.66245 90.25480 93.19020
#
# Poissons Ratio (x) = 0.16129 0.19824
# Poissons Ratio (y) = 0.17988 0.25045
# Poissons Ratio (z) = 0.21414 0.24257
#
# Static dielectric constant tensor:
#      x y z
#    x 1.872200 0.000000 0.003280 
#    y 0.000000 1.882830 0.000000 
#    z 0.003280 0.000000 1.823150 
# 
# From -- ./inp_files/7609.got.cif
#   From: 2010.05.17/outbox.cif.g08.bks.cpg/sg12_4_cif.got.tgz:7609.got - 2010.06.03 13:09:07.
