data_PCOD9196235
_publ_section_title
;
Structure prediction by ZEFSAII (Michael W. Deem and Ramdas Pophale) SiO2 
 PCOD9196235
Probable space group: C 2/M
;
_chemical_formula_sum "Si O2"
_cell_formula_units_Z 56
_cell_length_a 22.929861
_cell_length_b 8.532035
_cell_length_c 17.157349
_cell_angle_alpha 90.000000
_cell_angle_beta 119.877527
_cell_angle_gamma 90.000000
_cell_volume 2910.512822
_symmetry_space_group_name_H-M "C 2/M"
_symmetry_group_IT_number 12
_symmetry_cell_setting 'monoclinic'
loop_
_space_group_symop_operation_xyz
x,y,z
-x,y,-z
-x,-y,-z
x,-y,z
1/2+x,1/2+y,z
1/2-x,1/2+y,-z
1/2-x,1/2-y,-z
1/2+x,1/2-y,z
loop_
_atom_site_type_symbol
_atom_site_label
_atom_site_fract_x
_atom_site_fract_y
_atom_site_fract_z
Si Si1 0.841061 0.189530 0.248669
Si Si2 0.812760 0.311501 0.843479
Si Si3 0.850660 0.314008 0.425260
Si Si4 0.201071 0.687699 0.344525
Si Si5 0.559234 0.310883 0.982171
Si Si6 0.454621 0.691263 0.204617
Si Si7 0.411340 0.687184 0.615704
O O1 0.763338 0.238332 0.186222
O O2 0.865220 0.252320 0.348281
O O3 0.889987 0.239750 0.211968
O O4 0.841599 0.000000 0.253109
O O5 0.815792 0.500000 0.851082
O O6 0.823071 0.269928 0.759194
O O7 0.869563 0.239338 0.935246
O O8 0.845276 0.500000 0.420750
O O9 0.778086 0.242866 0.400946
O O10 0.903525 0.260217 0.525225
O O11 0.199063 0.500000 0.351236
O O12 0.153153 0.764490 0.376098
O O13 0.556638 0.500000 0.979200
O O14 0.548646 0.254546 0.886744
O O15 0.500000 0.254558 0.000000
O O16 0.455111 0.500000 0.203530
O O17 0.522280 0.740835 0.293947
O O18 0.413512 0.500000 0.609758
#
# Coordination Sequence:
#
# PCOD9196235 Si02
#       7
#     8   8   8   8   8   8   8
#     4   9  19  39  59  77 106 144 188 227 267 323
#     4   9  19  34  55  80 107 141 178 223 274 320
#     4  11  22  36  55  81 111 142 180 227 279 328
#     4  10  20  36  56  81 113 146 182 224 272 325
#     4  10  20  35  56  83 112 141 178 222 268 322
#     4   9  20  37  57  79 107 147 188 226 267 321
#     4  11  21  35  56  81 109 145 187 226 271 322
#
# _framework density 19.240594000000002
#
# number of rings (size 3 to 8) (size 9 to 14) (size 15 to 20)
#    0.000    2.143    0.000    4.286    0.000    5.429 
#    0.000    6.429    0.000    0.000    0.000    0.000 
#    0.000    0.000    0.000    0.000    0.000    0.000 
#
# Total GULP energy -156407.697061 kJ/mol
# GULP energy per Si atom -5585.989181 kJ/mol
# Density = 1.919680 g / cm^3
# Si number density = 19.240594 Si / 1000 Ang^3
#
#
#
# Elastic Constant Matrix: (Units=GPa)
#
#
# Indices 1 2 3 4 5 6 
#
# 1 87.7581 2.0161 75.3012 0.0000 -26.8489 0.0000
# 2 2.0161 -6.0682 7.0174 0.0000 4.7123 0.0000
# 3 75.3012 7.0174 176.3245 0.0000 2.9465 0.0000
# 4 0.0000 0.0000 0.0000 30.9980 0.0000 2.9204
# 5 -26.8489 4.7123 2.9465 0.0000 18.7780 0.0000
# 6 0.0000 0.0000 0.0000 2.9204 0.0000 15.6806
#
#
#
# Elastic Compliance Matrix: (Units=1/GPa)
#
#
# Indices 1 2 3 4 5 6 
#
# 1 0.055252 0.043724 -0.026542 0.000000 0.072192 0.000000
# 2 0.043724 -0.099180 -0.016229 0.000000 0.089952 0.000000
# 3 -0.026542 -0.016229 0.018266 0.000000 -0.036744 0.000000
# 4 0.000000 0.000000 0.000000 0.032836 0.000000 -0.006115
# 5 0.072192 0.089952 -0.036744 0.000000 0.139667 0.000000
# 6 0.000000 0.000000 0.000000 -0.006115 0.000000 0.064912
#
#
# Mechanical properties :
#
#
# Convention : Reuss Voigt Hill
#
# Bulk Modulus (GPa) = -42.09390 47.40932 2.65771
# Shear Modulus (GPa) = 24.76115 24.66994 24.71555
#
# Velocity S-wave (km/s) = 3.59126 3.58464 3.58795
# Velocity P-wave (km/s) = 2.17461 6.46735 4.30684
#
# Compressibility (1/GPa) = -0.02375641
#
# Stress axis : x y z
#
# Youngs Moduli (GPa) = 18.09892 -10.08265 54.74515
#
# Poissons Ratio (x) = 0.44085 1.45307
# Poissons Ratio (y) = -0.79135 0.88844
# Poissons Ratio (z) = 0.48039 -0.16363
#
# Static dielectric constant tensor:
#      x y z
#    x 1.655260 0.000000 -0.002940 
#    y 0.000000 1.653510 0.000000 
#    z -0.002940 0.000000 1.659650 
# 
# From -- ./inp_files/239046.got.cif
#   From: 2010.05.17/outbox.cif.g08.bks.cpg/sg12_120_cif.got.tgz:239046.got - 2010.06.03 13:09:07.
