data_PCOD9196155
_publ_section_title
;
Structure prediction by ZEFSAII (Michael W. Deem and Ramdas Pophale) SiO2 
 PCOD9196155
Probable space group: C 2/M
;
_chemical_formula_sum "Si O2"
_cell_formula_units_Z 64
_cell_length_a 32.749217
_cell_length_b 8.802804
_cell_length_c 26.426242
_cell_angle_alpha 90.000000
_cell_angle_beta 28.624225
_cell_angle_gamma 90.000000
_cell_volume 3649.639928
_symmetry_space_group_name_H-M "C 2/M"
_symmetry_group_IT_number 12
_symmetry_cell_setting 'monoclinic'
loop_
_space_group_symop_operation_xyz
x,y,z
-x,y,-z
-x,-y,-z
x,-y,z
1/2+x,1/2+y,z
1/2-x,1/2+y,-z
1/2-x,1/2-y,-z
1/2+x,1/2-y,z
loop_
_atom_site_type_symbol
_atom_site_label
_atom_site_fract_x
_atom_site_fract_y
_atom_site_fract_z
Si Si1 0.426352 0.317616 0.041180
Si Si2 0.135230 0.182809 0.478453
Si Si3 0.695040 0.318463 0.209890
Si Si4 0.392111 0.180581 0.971404
Si Si5 0.231066 0.681792 0.278256
Si Si6 0.324832 0.681827 0.451859
Si Si7 0.548825 0.181648 0.298854
Si Si8 0.980397 0.817816 0.777478
O O1 0.431816 0.500000 0.028080
O O2 0.332283 0.283894 0.165472
O O3 0.500000 0.271278 0.000000
O O4 0.432404 0.238840 0.980115
O O5 0.187729 0.246630 0.374424
O O6 0.177994 0.225284 0.485803
O O7 0.040260 0.251244 0.583455
O O8 0.129578 0.000000 0.482329
O O9 0.683130 0.500000 0.224432
O O10 0.691098 0.250665 0.270627
O O11 0.625646 0.242945 0.249335
O O12 0.790912 0.287338 0.085741
O O13 0.432841 0.262766 0.879140
O O14 0.403446 0.000000 0.954509
O O15 0.220766 0.500000 0.289699
O O16 0.319183 0.500000 0.455471
O O17 0.250000 0.750000 0.500000
O O18 0.419325 0.725070 0.329813
O O19 0.556725 0.241910 0.232806
O O20 0.546239 0.000000 0.302220
O O21 0.975324 0.000000 0.777829
#
# Coordination Sequence:
#
# PCOD9196155 Si02
#       8
#     8   8   8   8   8   8   8   8
#     4   9  19  36  56  79 110 146 181 221 271 321
#     4  10  21  38  56  78 110 145 179 218 270 323
#     4  10  21  38  57  79 110 144 177 218 270 322
#     4  10  21  36  56  82 109 141 182 224 266 315
#     4  10  20  35  56  82 109 140 182 226 265 313
#     4   9  20  36  55  79 107 141 179 219 264 316
#     4  11  22  37  58  83 108 137 179 225 267 316
#     4  10  21  38  57  79 110 145 179 218 269 322
#
# _framework density 17.535976000000002
#
# number of rings (size 3 to 8) (size 9 to 14) (size 15 to 20)
#    0.000    2.125    0.000    3.750    0.000    7.250 
#    0.000    6.250    0.000    0.000    0.000    0.000 
#    0.000    0.000    0.000    0.000    0.000    0.000 
#
# Total GULP energy -178687.894564 kJ/mol
# GULP energy per Si atom -5583.996705 kJ/mol
# Density = 1.749606 g / cm^3
# Si number density = 17.535976 Si / 1000 Ang^3
#
#
#
# Elastic Constant Matrix: (Units=GPa)
#
#
# Indices 1 2 3 4 5 6 
#
# 1 185.6455 78.9111 102.1976 0.0009 -5.4928 0.0003
# 2 78.9111 85.1892 65.5404 -0.0147 7.2982 0.0025
# 3 102.1976 65.5404 109.7638 -0.0200 27.6365 0.0041
# 4 0.0009 -0.0147 -0.0200 31.7459 0.0054 3.4064
# 5 -5.4928 7.2982 27.6365 0.0054 29.8670 0.0000
# 6 0.0003 0.0025 0.0041 3.4064 0.0000 37.1123
#
#
#
# Elastic Compliance Matrix: (Units=1/GPa)
#
#
# Indices 1 2 3 4 5 6 
#
# 1 0.021160 -0.002670 -0.025099 -0.000023 0.027768 0.000005
# 2 -0.002670 0.023946 -0.013319 0.000002 0.005982 0.000000
# 3 -0.025099 -0.013319 0.053159 0.000038 -0.050551 -0.000008
# 4 -0.000023 0.000002 0.000038 0.031814 -0.000045 -0.002920
# 5 0.027768 0.005982 -0.050551 -0.000045 0.083902 0.000009
# 6 0.000005 0.000000 -0.000008 -0.002920 0.000009 0.027213
#
#
# Mechanical properties :
#
#
# Convention : Reuss Voigt Hill
#
# Bulk Modulus (GPa) = 62.14587 97.09965 79.62276
# Shear Modulus (GPa) = 15.21000 28.67499 21.94250
#
# Velocity S-wave (km/s) = 2.94829 4.04816 3.54119
# Velocity P-wave (km/s) = 6.86337 8.79443 7.88822
#
# Compressibility (1/GPa) = 0.01609117
#
# Stress axis : x y z
#
# Youngs Moduli (GPa) = 47.25974 41.76128 18.81138
#
# Poissons Ratio (x) = 0.11148 0.47214
# Poissons Ratio (y) = 0.12616 0.25054
# Poissons Ratio (z) = 1.18615 0.55620
#
# Static dielectric constant tensor:
#      x y z
#    x 1.568850 0.000000 -0.005450 
#    y 0.000000 1.585740 0.000010 
#    z -0.005450 0.000010 1.576200 
# 
# From -- ./inp_files/353383.got.cif
#   From: 2010.05.17/outbox.cif.g08.bks.cpg/sg12_177_cif.got.tgz:353383.got - 2010.06.03 13:09:07.
