data_PCOD9197592
_publ_section_title
;
Structure prediction by ZEFSAII (Michael W. Deem and Ramdas Pophale) SiO2 
 PCOD9197592
Probable space group: C 2/M
;
_chemical_formula_sum "Si O2"
_cell_formula_units_Z 56
_cell_length_a 18.925968
_cell_length_b 21.642829
_cell_length_c 8.305298
_cell_angle_alpha 90.000000
_cell_angle_beta 129.162373
_cell_angle_gamma 90.000000
_cell_volume 2637.730355
_symmetry_space_group_name_H-M "C 2/M"
_symmetry_group_IT_number 12
_symmetry_cell_setting 'monoclinic'
loop_
_space_group_symop_operation_xyz
x,y,z
-x,y,-z
-x,-y,-z
x,-y,z
1/2+x,1/2+y,z
1/2-x,1/2+y,-z
1/2-x,1/2-y,-z
1/2+x,1/2-y,z
loop_
_atom_site_type_symbol
_atom_site_label
_atom_site_fract_x
_atom_site_fract_y
_atom_site_fract_z
Si Si1 0.901355 0.072069 0.929163
Si Si2 0.663627 0.930330 0.012446
Si Si3 0.599250 0.300696 0.570229
Si Si4 0.034908 0.570687 0.365315
Si Si5 0.709766 0.341628 0.012569
Si Si6 0.670342 0.815218 0.516022
Si Si7 0.784721 0.886141 0.462768
O O1 0.868929 0.113134 0.032111
O O2 0.826612 0.081925 0.679979
O O3 0.905245 0.000000 0.978569
O O4 0.000000 0.090291 0.000000
O O5 0.716746 0.925937 0.257007
O O6 0.671127 0.000000 0.957012
O O7 0.556165 0.917241 0.870240
O O8 0.713577 0.882495 0.966815
O O9 0.500000 0.304042 0.500000
O O10 0.608621 0.244152 0.459095
O O11 0.632689 0.362167 0.528031
O O12 0.666091 0.295826 0.820624
O O13 0.066481 0.500000 0.381819
O O14 0.110228 0.622556 0.446663
O O15 0.000000 0.574205 0.500000
O O16 0.755632 0.313059 0.235151
O O17 0.726797 0.825750 0.434484
#
# Coordination Sequence:
#
# PCOD9197592 Si02
#       7
#     8   8   8   8   8   8   8
#     4  10  20  36  60  88 121 158 201 246 301 360
#     4  10  20  36  59  89 125 157 193 241 301 361
#     4  11  23  40  62  83 114 156 202 255 298 350
#     4  10  20  35  60  92 123 156 198 250 297 359
#     4  10  21  36  59  86 115 153 203 246 297 351
#     4  11  22  39  61  84 119 155 203 245 302 361
#     4  10  23  39  58  87 125 155 198 248 305 357
#
# _framework density 21.230374000000001
#
# number of rings (size 3 to 8) (size 9 to 14) (size 15 to 20)
#    0.000    1.714    1.429    3.000    0.000    3.429 
#    0.000    1.429    9.429    6.857    0.000    0.000 
#    0.000    0.000    0.000    0.000    0.000    0.000 
#
# Total GULP energy -156425.359237 kJ/mol
# GULP energy per Si atom -5586.619973 kJ/mol
# Density = 2.118205 g / cm^3
# Si number density = 21.230374 Si / 1000 Ang^3
#
#
#
# Elastic Constant Matrix: (Units=GPa)
#
#
# Indices 1 2 3 4 5 6 
#
# 1 81.1101 23.8738 1.8617 0.0000 13.1917 0.0000
# 2 23.8738 50.3379 7.5423 0.0000 15.0507 0.0000
# 3 1.8617 7.5423 57.4948 0.0000 11.4353 0.0000
# 4 0.0000 0.0000 0.0000 15.0179 0.0000 -5.5170
# 5 13.1917 15.0507 11.4353 0.0000 26.7064 0.0000
# 6 0.0000 0.0000 0.0000 -5.5170 0.0000 17.0740
#
#
#
# Elastic Compliance Matrix: (Units=1/GPa)
#
#
# Indices 1 2 3 4 5 6 
#
# 1 0.014750 -0.005824 0.001183 0.000000 -0.004510 0.000000
# 2 -0.005824 0.026204 -0.000966 0.000000 -0.011477 0.000000
# 3 0.001183 -0.000966 0.019117 0.000000 -0.008226 0.000000
# 4 0.000000 0.000000 0.000000 0.075556 0.000000 0.024414
# 5 -0.004510 -0.011477 -0.008226 0.000000 0.049662 0.000000
# 6 0.000000 0.000000 0.000000 0.024414 0.000000 0.066457
#
#
# Mechanical properties :
#
#
# Convention : Reuss Voigt Hill
#
# Bulk Modulus (GPa) = 20.46774 28.38873 24.42823
# Shear Modulus (GPa) = 17.90537 22.13733 20.02135
#
# Velocity S-wave (km/s) = 2.90726 3.23262 3.07425
# Velocity P-wave (km/s) = 4.57507 5.22818 4.91249
#
# Compressibility (1/GPa) = 0.04885738
#
# Stress axis : x y z
#
# Youngs Moduli (GPa) = 67.79873 38.16158 52.30854
#
# Poissons Ratio (x) = 0.22226 -0.06190
# Poissons Ratio (y) = 0.39487 0.05054
# Poissons Ratio (z) = -0.08024 0.03687
#
# Static dielectric constant tensor:
#      x y z
#    x 1.757230 0.000000 0.002110 
#    y 0.000000 1.775290 0.000000 
#    z 0.002110 0.000000 1.770300 
# 
# From -- ./inp_files/79169.got.cif
#   From: 2010.05.17/outbox.cif.g08.bks.cpg/sg12_40_cif.got.tgz:79169.got - 2010.06.03 13:09:07.
