data_PCOD9197761
_publ_section_title
;
Structure prediction by ZEFSAII (Michael W. Deem and Ramdas Pophale) SiO2 
 PCOD9197761
Probable space group: C 2/M
;
_chemical_formula_sum "Si O2"
_cell_formula_units_Z 56
_cell_length_a 8.633385
_cell_length_b 30.816628
_cell_length_c 11.116428
_cell_angle_alpha 90.000000
_cell_angle_beta 63.498202
_cell_angle_gamma 90.000000
_cell_volume 2646.767979
_symmetry_space_group_name_H-M "C 2/M"
_symmetry_group_IT_number 12
_symmetry_cell_setting 'monoclinic'
loop_
_space_group_symop_operation_xyz
x,y,z
-x,y,-z
-x,-y,-z
x,-y,z
1/2+x,1/2+y,z
1/2-x,1/2+y,-z
1/2-x,1/2-y,-z
1/2+x,1/2-y,z
loop_
_atom_site_type_symbol
_atom_site_label
_atom_site_fract_x
_atom_site_fract_y
_atom_site_fract_z
Si Si1 0.318167 0.578812 0.761066
Si Si2 0.175826 0.724682 0.859122
Si Si3 0.000000 0.621097 0.500000
Si Si4 0.839289 0.904346 0.266785
Si Si5 0.318450 0.084961 0.927253
Si Si6 0.941803 0.500000 0.165195
Si Si7 0.030569 0.187479 0.852357
Si Si8 0.388889 0.852814 0.286739
O O1 0.518027 0.569326 0.710775
O O2 0.204192 0.537922 0.767410
O O3 0.275292 0.616494 0.682107
O O4 0.258115 0.595393 0.915600
O O5 0.351212 0.708797 0.865078
O O6 0.145807 0.693149 0.758353
O O7 0.173161 0.774460 0.816477
O O8 0.000000 0.720735 0.000000
O O9 0.154783 0.592404 0.394029
O O10 0.066054 0.648378 0.589699
O O11 0.814734 0.918054 0.136920
O O12 0.900539 0.853819 0.244444
O O13 0.411839 0.038490 0.907362
O O14 0.454690 0.122019 0.837806
O O15 0.000000 0.172230 0.000000
#
# Coordination Sequence:
#
# PCOD9197761 Si02
#       8
#     8   8   4   8   8   4   8   8
#     4  11  19  37  63  97 120 153 194 250 299 370
#     4  11  22  36  63  96 129 157 193 251 312 363
#     4  10  26  42  60  79 116 172 210 256 298 343
#     4  11  24  40  62  85 123 162 212 246 298 359
#     4  10  20  35  63  94 127 157 185 241 309 373
#     4  10  21  36  60  99 136 154 184 233 318 378
#     4  11  23  37  61  98 129 155 197 250 309 366
#     4  10  21  38  62  83 121 161 206 241 301 361
#
# _framework density 21.157879999999999
#
# number of rings (size 3 to 8) (size 9 to 14) (size 15 to 20)
#    0.000    1.429    1.429    6.429    8.000    1.143 
#    0.000    2.143    0.000   50.571    0.000    0.000 
#    0.000    0.000    0.000    0.000    0.000    0.000 
#
# Total GULP energy -155975.903105 kJ/mol
# GULP energy per Si atom -5570.567968 kJ/mol
# Density = 2.110972 g / cm^3
# Si number density = 21.157880 Si / 1000 Ang^3
#
#
#
# Elastic Constant Matrix: (Units=GPa)
#
#
# Indices 1 2 3 4 5 6 
#
# 1 119.2685 9.9394 27.2488 0.0000 1.4269 0.0000
# 2 9.9394 74.8409 16.2438 0.0000 1.7306 0.0000
# 3 27.2488 16.2438 58.6746 0.0000 9.8009 0.0000
# 4 0.0000 0.0000 0.0000 4.3920 0.0000 7.9759
# 5 1.4269 1.7306 9.8009 0.0000 32.1439 0.0000
# 6 0.0000 0.0000 0.0000 7.9759 0.0000 41.6413
#
#
#
# Elastic Compliance Matrix: (Units=1/GPa)
#
#
# Indices 1 2 3 4 5 6 
#
# 1 0.009415 -0.000307 -0.004446 0.000000 0.000954 0.000000
# 2 -0.000307 0.014232 -0.003869 0.000000 0.000427 0.000000
# 3 -0.004446 -0.003869 0.021191 0.000000 -0.006055 0.000000
# 4 0.000000 0.000000 0.000000 0.349129 0.000000 -0.066872
# 5 0.000954 0.000427 -0.006055 0.000000 0.032891 0.000000
# 6 0.000000 0.000000 0.000000 -0.066872 0.000000 0.036823
#
#
# Mechanical properties :
#
#
# Convention : Reuss Voigt Hill
#
# Bulk Modulus (GPa) = 36.24187 39.96087 38.10137
# Shear Modulus (GPa) = 10.20151 28.92558 19.56354
#
# Velocity S-wave (km/s) = 2.19820 3.70148 3.04410
# Velocity P-wave (km/s) = 4.85893 6.09885 5.51385
#
# Compressibility (1/GPa) = 0.02759240
#
# Stress axis : x y z
#
# Youngs Moduli (GPa) = 106.21904 70.26270 47.19059
#
# Poissons Ratio (x) = 0.02159 0.20983
# Poissons Ratio (y) = 0.03264 0.18257
# Poissons Ratio (z) = 0.47230 0.27183
#
# Static dielectric constant tensor:
#      x y z
#    x 1.844440 0.000000 -0.012840 
#    y 0.000000 1.710820 0.000000 
#    z -0.012840 0.000000 1.784660 
# 
# From -- ./inp_files/125650.got.cif
#   From: 2010.05.17/outbox.cif.g08.bks.cpg/sg12_63_cif.got.tgz:125650.got - 2010.06.03 13:09:07.
