data_PCOD9197670
_publ_section_title
;
Structure prediction by ZEFSAII (Michael W. Deem and Ramdas Pophale) SiO2 
 PCOD9197670
Probable space group: C 2/M
;
_chemical_formula_sum "Si O2"
_cell_formula_units_Z 64
_cell_length_a 8.692761
_cell_length_b 21.392877
_cell_length_c 20.292276
_cell_angle_alpha 90.000000
_cell_angle_beta 60.675284
_cell_angle_gamma 90.000000
_cell_volume 3290.057534
_symmetry_space_group_name_H-M "C 2/M"
_symmetry_group_IT_number 12
_symmetry_cell_setting 'monoclinic'
loop_
_space_group_symop_operation_xyz
x,y,z
-x,y,-z
-x,-y,-z
x,-y,z
1/2+x,1/2+y,z
1/2-x,1/2+y,-z
1/2-x,1/2-y,-z
1/2+x,1/2-y,z
loop_
_atom_site_type_symbol
_atom_site_label
_atom_site_fract_x
_atom_site_fract_y
_atom_site_fract_z
Si Si1 0.855396 0.072020 0.975978
Si Si2 0.857707 0.883853 0.837055
Si Si3 0.537127 0.861417 0.100193
Si Si4 0.405771 0.838139 0.768039
Si Si5 0.049207 0.761916 0.820740
Si Si6 0.475833 0.424950 0.671075
Si Si7 0.192468 0.575833 0.483329
Si Si8 0.648859 0.074564 0.643065
O O1 0.922930 0.079017 0.887271
O O2 0.805983 0.000000 0.998835
O O3 0.684850 0.115862 0.019467
O O4 0.000000 0.090274 0.000000
O O5 0.649756 0.894838 0.870396
O O6 0.954484 0.899006 0.748758
O O7 0.894148 0.811546 0.844931
O O8 0.608971 0.874672 0.159179
O O9 0.497374 0.787006 0.111331
O O10 0.226007 0.801694 0.791111
O O11 0.548175 0.784275 0.757824
O O12 0.479650 0.884412 0.697950
O O13 0.487581 0.500000 0.673639
O O14 0.648143 0.401620 0.595977
O O15 0.301601 0.411760 0.664223
O O16 0.194010 0.500000 0.478282
O O17 0.214496 0.590103 0.555868
O O18 0.000000 0.597247 0.500000
O O19 0.610749 0.000000 0.652910
#
# Coordination Sequence:
#
# PCOD9197670 Si02
#       8
#     8   8   8   8   8   8   8   8
#     4  11  26  44  62  90 130 167 203 255 317 375
#     4  12  22  39  65  91 121 164 212 257 310 367
#     4  10  21  41  61  90 118 162 204 258 308 363
#     4  10  20  39  62  93 122 164 204 266 301 373
#     4  10  21  39  61  91 120 162 209 257 307 355
#     4  10  20  36  59  91 129 165 206 251 309 379
#     4   9  19  35  54  88 130 165 206 253 306 370
#     4  10  20  35  61  92 125 165 205 254 318 375
#
# _framework density 19.452546000000002
#
# number of rings (size 3 to 8) (size 9 to 14) (size 15 to 20)
#    0.750    1.000    2.500    1.875    1.750    4.000 
#    0.000    0.625    0.000    0.750    3.250    0.000 
#    0.000    0.000    0.000    0.000    0.000    0.000 
#
# Total GULP energy -178418.081305 kJ/mol
# GULP energy per Si atom -5575.565041 kJ/mol
# Density = 1.940827 g / cm^3
# Si number density = 19.452546 Si / 1000 Ang^3
#
#
#
# Elastic Constant Matrix: (Units=GPa)
#
#
# Indices 1 2 3 4 5 6 
#
# 1 80.9716 25.9049 48.4386 0.0000 7.3149 0.0000
# 2 25.9049 44.4221 28.5278 0.0000 -9.4014 0.0000
# 3 48.4386 28.5278 121.4046 0.0000 7.9321 0.0000
# 4 0.0000 0.0000 0.0000 15.7408 0.0000 -13.7133
# 5 7.3149 -9.4014 7.9321 0.0000 24.6742 0.0000
# 6 0.0000 0.0000 0.0000 -13.7133 0.0000 17.0336
#
#
#
# Elastic Compliance Matrix: (Units=1/GPa)
#
#
# Indices 1 2 3 4 5 6 
#
# 1 0.019015 -0.009640 -0.004814 0.000000 -0.007763 0.000000
# 2 -0.009640 0.035689 -0.005736 0.000000 0.018300 0.000000
# 3 -0.004814 -0.005736 0.011803 0.000000 -0.004553 0.000000
# 4 0.000000 0.000000 0.000000 0.212741 0.000000 0.171273
# 5 -0.007763 0.018300 -0.004553 0.000000 0.051266 0.000000
# 6 0.000000 0.000000 0.000000 0.171273 0.000000 0.196595
#
#
# Mechanical properties :
#
#
# Convention : Reuss Voigt Hill
#
# Bulk Modulus (GPa) = 38.27390 50.28233 44.27811
# Shear Modulus (GPa) = 8.67755 21.08484 14.88120
#
# Velocity S-wave (km/s) = 2.11437 3.29585 2.76886
# Velocity P-wave (km/s) = 5.06744 6.35518 5.74749
#
# Compressibility (1/GPa) = 0.02612746
#
# Stress axis : x y z
#
# Youngs Moduli (GPa) = 52.58883 28.01950 84.72361
#
# Poissons Ratio (x) = 0.27011 0.40790
# Poissons Ratio (y) = 0.50695 0.48596
# Poissons Ratio (z) = 0.25319 0.16071
#
# Static dielectric constant tensor:
#      x y z
#    x 1.720080 0.000000 0.006410 
#    y 0.000000 1.685120 0.000000 
#    z 0.006410 0.000000 1.682890 
# 
# From -- ./inp_files/302324.got.cif
#   From: 2010.05.17/outbox.cif.g08.bks.cpg/sg12_152_cif.got.tgz:302324.got - 2010.06.03 13:09:07.
