data_PCOD9197810
_publ_section_title
;
Structure prediction by ZEFSAII (Michael W. Deem and Ramdas Pophale) SiO2 
 PCOD9197810
Probable space group: C 2/M
;
_chemical_formula_sum "Si O2"
_cell_formula_units_Z 60
_cell_length_a 16.619623
_cell_length_b 29.760568
_cell_length_c 5.307806
_cell_angle_alpha 90.000000
_cell_angle_beta 87.029182
_cell_angle_gamma 90.000000
_cell_volume 2621.762619
_symmetry_space_group_name_H-M "C 2/M"
_symmetry_group_IT_number 12
_symmetry_cell_setting 'monoclinic'
loop_
_space_group_symop_operation_xyz
x,y,z
-x,y,-z
-x,-y,-z
x,-y,z
1/2+x,1/2+y,z
1/2-x,1/2+y,-z
1/2-x,1/2-y,-z
1/2+x,1/2-y,z
loop_
_atom_site_type_symbol
_atom_site_label
_atom_site_fract_x
_atom_site_fract_y
_atom_site_fract_z
Si Si1 0.839147 0.786725 0.767862
Si Si2 0.022853 0.644789 0.751162
Si Si3 0.355525 0.451889 0.005896
Si Si4 0.633425 0.810307 0.068640
Si Si5 0.758333 0.351943 0.526192
Si Si6 0.000000 0.193599 0.500000
Si Si7 0.901614 0.140714 0.151645
Si Si8 0.751826 0.549686 0.474585
O O1 0.835608 0.740018 0.917677
O O2 0.761320 0.806951 0.636852
O O3 0.916944 0.780807 0.571259
O O4 0.862214 0.825037 0.962206
O O5 0.000000 0.621246 0.500000
O O6 0.954257 0.684142 0.779893
O O7 0.107809 0.667999 0.802769
O O8 0.000000 0.615955 0.000000
O O9 0.397182 0.500000 0.026641
O O10 0.313386 0.450306 0.740721
O O11 0.408690 0.408227 0.035249
O O12 0.288091 0.450241 0.239913
O O13 0.693407 0.839219 0.229218
O O14 0.665397 0.363123 0.615899
O O15 0.792195 0.400894 0.433500
O O16 0.020874 0.162148 0.732461
O O17 0.793281 0.500000 0.445098
#
# Coordination Sequence:
#
# PCOD9197810 Si02
#       8
#     8   8   8   8   8   4   8   8
#     4  11  21  35  52  76 105 151 186 230 275 317
#     4   8  20  37  54  76 103 147 185 218 260 315
#     4   9  17  33  55  77 105 140 179 224 273 327
#     4   9  22  33  56  80 111 144 185 224 269 326
#     4  10  20  36  51  86 113 137 176 235 279 325
#     4  10  24  34  53  68 108 144 201 228 260 328
#     4  10  21  34  52  77 105 145 186 228 282 318
#     4   9  17  32  55  79 108 141 173 216 273 334
#
# _framework density 22.885366000000001
#
# number of rings (size 3 to 8) (size 9 to 14) (size 15 to 20)
#    0.800    1.600    1.333    0.800    4.667    2.667 
#    0.000    0.333    0.000    2.400    0.000    1.867 
#    0.000    1.067    0.000    0.000    0.000    0.267 
#
# Total GULP energy -167029.136977 kJ/mol
# GULP energy per Si atom -5567.637899 kJ/mol
# Density = 2.283328 g / cm^3
# Si number density = 22.885366 Si / 1000 Ang^3
#
#
#
# Elastic Constant Matrix: (Units=GPa)
#
#
# Indices 1 2 3 4 5 6 
#
# 1 80.8443 14.3078 10.4489 0.0000 18.0209 0.0000
# 2 14.3078 141.8410 18.5792 0.0000 6.0594 0.0000
# 3 10.4489 18.5792 124.0300 0.0000 26.3261 0.0000
# 4 0.0000 0.0000 0.0000 15.5390 0.0000 -17.4650
# 5 18.0209 6.0594 26.3261 0.0000 32.8805 0.0000
# 6 0.0000 0.0000 0.0000 -17.4650 0.0000 -11.6786
#
#
#
# Elastic Compliance Matrix: (Units=1/GPa)
#
#
# Indices 1 2 3 4 5 6 
#
# 1 0.014315 -0.001187 0.000712 0.000000 -0.008196 0.000000
# 2 -0.001187 0.007298 -0.001019 0.000000 0.000122 0.000000
# 3 0.000712 -0.001019 0.009877 0.000000 -0.008110 0.000000
# 4 0.000000 0.000000 0.000000 0.024005 0.000000 -0.035899
# 5 -0.008196 0.000122 -0.008110 0.000000 0.041376 0.000000
# 6 0.000000 0.000000 0.000000 -0.035899 0.000000 -0.031940
#
#
# Mechanical properties :
#
#
# Convention : Reuss Voigt Hill
#
# Bulk Modulus (GPa) = 35.08696 48.15412 41.62054
# Shear Modulus (GPa) = 64.58297 27.57348 46.07823
#
# Velocity S-wave (km/s) = 5.31803 3.47486 4.49200
# Velocity P-wave (km/s) = 7.28516 6.09809 6.71789
#
# Compressibility (1/GPa) = 0.02850062
#
# Stress axis : x y z
#
# Youngs Moduli (GPa) = 69.85866 137.02057 101.24871
#
# Poissons Ratio (x) = 0.16265 -0.07205
# Poissons Ratio (y) = 0.08292 0.10318
# Poissons Ratio (z) = -0.04971 0.13963
#
# Static dielectric constant tensor:
#      x y z
#    x 1.941740 0.000000 -0.143300 
#    y 0.000000 1.861290 0.000000 
#    z -0.143300 0.000000 2.004720 
# 
# From -- ./inp_files/18139.got.cif
#   From: 2010.05.17/outbox.cif.g08.bks.cpg/sg12_10_cif.got.tgz:18139.got - 2010.06.03 13:09:07.
