data_PCOD9197296
_publ_section_title
;
Structure prediction by ZEFSAII (Michael W. Deem and Ramdas Pophale) SiO2 
 PCOD9197296
Probable space group: C 2/M
;
_chemical_formula_sum "Si O2"
_cell_formula_units_Z 64
_cell_length_a 8.577884
_cell_length_b 21.411428
_cell_length_c 19.382239
_cell_angle_alpha 90.000000
_cell_angle_beta 119.837397
_cell_angle_gamma 90.000000
_cell_volume 3087.945582
_symmetry_space_group_name_H-M "C 2/M"
_symmetry_group_IT_number 12
_symmetry_cell_setting 'monoclinic'
loop_
_space_group_symop_operation_xyz
x,y,z
-x,y,-z
-x,-y,-z
x,-y,z
1/2+x,1/2+y,z
1/2-x,1/2+y,-z
1/2-x,1/2-y,-z
1/2+x,1/2-y,z
loop_
_atom_site_type_symbol
_atom_site_label
_atom_site_fract_x
_atom_site_fract_y
_atom_site_fract_z
Si Si1 0.062453 0.925267 0.193308
Si Si2 0.770983 0.158504 0.648395
Si Si3 0.794214 0.574655 0.954437
Si Si4 0.100916 0.660994 0.225039
Si Si5 0.804200 0.572964 0.110072
Si Si6 0.795321 0.927825 0.375699
Si Si7 0.769182 0.927638 0.525973
Si Si8 0.089763 0.250290 0.710887
O O1 0.150603 0.887561 0.275251
O O2 0.178105 0.916104 0.148603
O O3 0.061994 0.000000 0.207878
O O4 0.858281 0.903311 0.132340
O O5 0.933672 0.201871 0.658082
O O6 0.698503 0.117032 0.570039
O O7 0.639832 0.207070 0.656792
O O8 0.806229 0.500000 0.944673
O O9 0.719882 0.582829 0.016018
O O10 0.000000 0.598423 0.000000
O O11 0.977444 0.617017 0.152189
O O12 0.973105 0.703736 0.243505
O O13 0.210996 0.616078 0.300380
O O14 0.241993 0.709810 0.225623
O O15 0.858656 0.500000 0.124692
O O16 0.729359 0.910008 0.438046
O O17 0.011925 0.925425 0.421107
O O18 0.743139 0.000000 0.352616
O O19 0.717179 0.000000 0.524928
#
# Coordination Sequence:
#
# PCOD9197296 Si02
#       8
#     8   8   8   8   8   8   8   8
#     4  10  20  35  59  86 115 146 179 228 288 342
#     4  11  20  40  56  82 108 153 191 234 276 331
#     4   9  19  33  53  88 121 142 176 226 281 337
#     4  11  20  40  56  82 108 153 191 234 276 331
#     4  10  20  35  59  86 115 146 179 228 288 342
#     4   9  18  34  58  87 116 144 180 232 288 339
#     4   9  18  34  58  87 116 144 180 232 288 339
#     4  10  24  36  57  77 112 148 200 236 270 313
#
# _framework density 20.725753999999998
#
# number of rings (size 3 to 8) (size 9 to 14) (size 15 to 20)
#    0.000    2.125    2.500    1.875    1.750    1.500 
#    0.000    4.375    0.000    6.000    0.000    0.000 
#    0.000    0.000    0.000    0.000    0.000    0.000 
#
# Total GULP energy -178725.185623 kJ/mol
# GULP energy per Si atom -5585.162051 kJ/mol
# Density = 2.067858 g / cm^3
# Si number density = 20.725754 Si / 1000 Ang^3
#
#
#
# Elastic Constant Matrix: (Units=GPa)
#
#
# Indices 1 2 3 4 5 6 
#
# 1 63.5398 15.5985 5.1952 0.0000 -0.1194 0.0000
# 2 15.5985 52.8229 17.2584 0.0000 -1.1641 0.0000
# 3 5.1952 17.2584 49.7086 0.0000 -0.5822 0.0000
# 4 0.0000 0.0000 0.0000 16.8847 0.0000 -7.4138
# 5 -0.1194 -1.1641 -0.5822 0.0000 16.7311 0.0000
# 6 0.0000 0.0000 0.0000 -7.4138 0.0000 27.8153
#
#
#
# Elastic Compliance Matrix: (Units=1/GPa)
#
#
# Indices 1 2 3 4 5 6 
#
# 1 0.016969 -0.005003 -0.000039 0.000000 -0.000228 0.000000
# 2 -0.005003 0.022854 -0.007397 0.000000 0.001297 0.000000
# 3 -0.000039 -0.007397 0.022693 0.000000 0.000275 0.000000
# 4 0.000000 0.000000 0.000000 0.067075 0.000000 0.017878
# 5 -0.000228 0.001297 0.000275 0.000000 0.059867 0.000000
# 6 0.000000 0.000000 0.000000 0.017878 0.000000 0.040716
#
#
# Mechanical properties :
#
#
# Convention : Reuss Voigt Hill
#
# Bulk Modulus (GPa) = 26.56902 26.90839 26.73870
# Shear Modulus (GPa) = 18.68477 20.82085 19.75281
#
# Velocity S-wave (km/s) = 3.00580 3.17296 3.09051
# Velocity P-wave (km/s) = 4.98935 5.14148 5.06599
#
# Compressibility (1/GPa) = 0.03763782
#
# Stress axis : x y z
#
# Youngs Moduli (GPa) = 58.93038 43.75639 44.06726
#
# Poissons Ratio (x) = 0.21892 0.00172
# Poissons Ratio (y) = 0.29484 0.32595
# Poissons Ratio (z) = 0.00230 0.32365
#
# Static dielectric constant tensor:
#      x y z
#    x 1.806250 0.000000 0.008690 
#    y 0.000000 1.721350 0.000000 
#    z 0.008690 0.000000 1.730140 
# 
# From -- ./inp_files/258102.got.cif
#   From: 2010.05.17/outbox.cif.g08.bks.cpg/sg12_130_cif.got.tgz:258102.got - 2010.06.03 13:09:07.
