data_PCOD9197846
_publ_section_title
;
Structure prediction by ZEFSAII (Michael W. Deem and Ramdas Pophale) SiO2 
 PCOD9197846
Probable space group: C 2/M
;
_chemical_formula_sum "Si O2"
_cell_formula_units_Z 36
_cell_length_a 10.552989
_cell_length_b 28.605524
_cell_length_c 5.923203
_cell_angle_alpha 90.000000
_cell_angle_beta 99.609195
_cell_angle_gamma 90.000000
_cell_volume 1762.971881
_symmetry_space_group_name_H-M "C 2/M"
_symmetry_group_IT_number 12
_symmetry_cell_setting 'monoclinic'
loop_
_space_group_symop_operation_xyz
x,y,z
-x,y,-z
-x,-y,-z
x,-y,z
1/2+x,1/2+y,z
1/2-x,1/2+y,-z
1/2-x,1/2-y,-z
1/2+x,1/2-y,z
loop_
_atom_site_type_symbol
_atom_site_label
_atom_site_fract_x
_atom_site_fract_y
_atom_site_fract_z
Si Si1 0.141093 0.645420 0.527678
Si Si2 0.818302 0.821884 0.953983
Si Si3 0.872241 0.102257 0.308455
Si Si4 0.428711 0.500000 0.226677
Si Si5 0.379670 0.771555 0.804323
O O1 0.206118 0.651674 0.788091
O O2 0.245054 0.618517 0.405470
O O3 0.118945 0.697541 0.418509
O O4 0.000000 0.623268 0.500000
O O5 0.881709 0.784862 0.798847
O O6 0.892359 0.860933 0.113714
O O7 0.752676 0.788830 0.121743
O O8 0.000000 0.104094 0.500000
O O9 0.856539 0.049566 0.214129
O O10 0.500000 0.500000 0.500000
O O11 0.500000 0.500000 0.000000
O O12 0.500000 0.784620 0.000000
#
# Coordination Sequence:
#
# PCOD9197846 Si02
#       5
#     8   8   8   4   8
#     4  11  22  40  63  90 134 180 219 266 338 396
#     4  10  22  37  59  86 130 171 223 273 321 404
#     4  10  25  42  67 101 125 170 222 281 346 406
#     4  10  24  46  75 103 141 169 217 289 361 408
#     4  10  20  36  53  87 126 177 222 266 326 389
#
# _framework density 20.420062999999999
#
# number of rings (size 3 to 8) (size 9 to 14) (size 15 to 20)
#    0.000    1.778    2.222    0.667    9.333    0.000 
#    0.000    0.556    0.000    1.333    0.000    0.000 
#    0.000    0.000    0.000    0.000    0.000    0.000 
#
# Total GULP energy -100329.542194 kJ/mol
# GULP energy per Si atom -5573.863455 kJ/mol
# Density = 2.037359 g / cm^3
# Si number density = 20.420063 Si / 1000 Ang^3
#
#
#
# Elastic Constant Matrix: (Units=GPa)
#
#
# Indices 1 2 3 4 5 6 
#
# 1 121.4547 53.0597 29.4554 0.0000 -12.3450 0.0000
# 2 53.0597 162.4194 34.9989 0.0000 -0.9383 0.0000
# 3 29.4554 34.9989 79.6373 0.0000 10.6640 0.0000
# 4 0.0000 0.0000 0.0000 20.5134 0.0000 1.4667
# 5 -12.3450 -0.9383 10.6640 0.0000 34.8161 0.0000
# 6 0.0000 0.0000 0.0000 1.4667 0.0000 20.9234
#
#
#
# Elastic Compliance Matrix: (Units=1/GPa)
#
#
# Indices 1 2 3 4 5 6 
#
# 1 0.010747 -0.002749 -0.003407 0.000000 0.004780 0.000000
# 2 -0.002749 0.007548 -0.002291 0.000000 -0.000070 0.000000
# 3 -0.003407 -0.002291 0.015635 0.000000 -0.006059 0.000000
# 4 0.000000 0.000000 0.000000 0.048994 0.000000 -0.003435
# 5 0.004780 -0.000070 -0.006059 0.000000 0.032271 0.000000
# 6 0.000000 0.000000 0.000000 -0.003435 0.000000 0.048034
#
#
# Mechanical properties :
#
#
# Convention : Reuss Voigt Hill
#
# Bulk Modulus (GPa) = 58.69891 66.50439 62.60165
# Shear Modulus (GPa) = 26.91036 31.65040 29.28038
#
# Velocity S-wave (km/s) = 3.63414 3.94123 3.79080
# Velocity P-wave (km/s) = 6.81303 7.30410 7.06284
#
# Compressibility (1/GPa) = 0.01703609
#
# Stress axis : x y z
#
# Youngs Moduli (GPa) = 93.05341 132.48066 63.95813
#
# Poissons Ratio (x) = 0.36419 0.21789
# Poissons Ratio (y) = 0.25580 0.14654
# Poissons Ratio (z) = 0.31701 0.30354
#
# Static dielectric constant tensor:
#      x y z
#    x 1.819830 0.000000 -0.011700 
#    y 0.000000 1.715890 0.000000 
#    z -0.011700 0.000000 1.758120 
# 
# From -- ./inp_files/7387.got.cif
#   From: 2010.05.17/outbox.cif.g08.bks.cpg/sg12_4_cif.got.tgz:7387.got - 2010.06.03 13:09:07.
