data_PCOD9197624
_publ_section_title
;
Structure prediction by ZEFSAII (Michael W. Deem and Ramdas Pophale) SiO2 
 PCOD9197624
Probable space group: C 2/M
;
_chemical_formula_sum "Si O2"
_cell_formula_units_Z 64
_cell_length_a 15.474145
_cell_length_b 27.302100
_cell_length_c 9.526335
_cell_angle_alpha 90.000000
_cell_angle_beta 63.302479
_cell_angle_gamma 90.000000
_cell_volume 3595.589093
_symmetry_space_group_name_H-M "C 2/M"
_symmetry_group_IT_number 12
_symmetry_cell_setting 'monoclinic'
loop_
_space_group_symop_operation_xyz
x,y,z
-x,y,-z
-x,-y,-z
x,-y,z
1/2+x,1/2+y,z
1/2-x,1/2+y,-z
1/2-x,1/2-y,-z
1/2+x,1/2-y,z
loop_
_atom_site_type_symbol
_atom_site_label
_atom_site_fract_x
_atom_site_fract_y
_atom_site_fract_z
Si Si1 0.555085 0.162633 0.833705
Si Si2 0.287531 0.363797 0.248831
Si Si3 0.078850 0.680573 0.328681
Si Si4 0.405487 0.441177 0.657078
Si Si5 0.647275 0.727500 0.420762
Si Si6 0.601084 0.557754 0.009696
Si Si7 0.634151 0.265364 0.747075
Si Si8 0.266785 0.374673 0.599689
O O1 0.473356 0.169276 0.776976
O O2 0.587822 0.218026 0.851353
O O3 0.653832 0.136867 0.710780
O O4 0.500000 0.136686 0.000000
O O5 0.181574 0.345779 0.276553
O O6 0.323646 0.408517 0.128704
O O7 0.363531 0.318181 0.182168
O O8 0.281870 0.375428 0.420151
O O9 0.095440 0.738527 0.345621
O O10 0.000000 0.663806 0.500000
O O11 0.500000 0.424270 0.500000
O O12 0.405526 0.500000 0.653615
O O13 0.310970 0.420901 0.646954
O O14 0.409255 0.427011 0.819042
O O15 0.600732 0.732066 0.609391
O O16 0.752629 0.752436 0.350252
O O17 0.670116 0.670712 0.383519
O O18 0.627815 0.500000 0.987539
O O19 0.500000 0.562437 0.000000
#
# Coordination Sequence:
#
# PCOD9197624 Si02
#       8
#     8   8   8   8   8   8   8   8
#     4  11  22  34  51  80 122 160 193 231 273 329
#     4  10  20  35  61  85 111 148 194 240 279 331
#     4  11  18  34  55  81 114 161 198 224 271 331
#     4  10  22  41  63  86 113 144 180 227 291 353
#     4   8  15  30  52  71 103 146 190 227 263 314
#     4  10  22  41  63  87 112 140 180 235 293 341
#     4   8  15  32  48  72 107 145 185 229 269 310
#     4  10  20  37  57  85 114 149 193 234 284 337
#
# _framework density 17.799586999999999
#
# number of rings (size 3 to 8) (size 9 to 14) (size 15 to 20)
#    0.000    2.250    2.500    2.250    1.750    2.500 
#    4.500    1.875    0.000    1.500    0.000    0.000 
#    0.000    0.000    0.000    0.000    0.000    0.000 
#
# Total GULP energy -178201.721105 kJ/mol
# GULP energy per Si atom -5568.803785 kJ/mol
# Density = 1.775907 g / cm^3
# Si number density = 17.799587 Si / 1000 Ang^3
#
#
#
# Elastic Constant Matrix: (Units=GPa)
#
#
# Indices 1 2 3 4 5 6 
#
# 1 117.8831 31.9640 52.5376 0.0000 11.6057 0.0000
# 2 31.9640 49.4576 43.4812 0.0000 -2.8733 0.0000
# 3 52.5376 43.4812 104.5131 0.0000 -2.1447 0.0000
# 4 0.0000 0.0000 0.0000 -4.1264 0.0000 -14.1607
# 5 11.6057 -2.8733 -2.1447 0.0000 23.3688 0.0000
# 6 0.0000 0.0000 0.0000 -14.1607 0.0000 12.8222
#
#
#
# Elastic Compliance Matrix: (Units=1/GPa)
#
#
# Indices 1 2 3 4 5 6 
#
# 1 0.012412 -0.004449 -0.004535 0.000000 -0.007127 0.000000
# 2 -0.004449 0.033646 -0.011653 0.000000 0.005277 0.000000
# 3 -0.004535 -0.011653 0.016744 0.000000 0.002356 0.000000
# 4 0.000000 0.000000 0.000000 -0.050594 0.000000 -0.055875
# 5 -0.007127 0.005277 0.002356 0.000000 0.047197 0.000000
# 6 0.000000 0.000000 0.000000 -0.055875 0.000000 0.016282
#
#
# Mechanical properties :
#
#
# Convention : Reuss Voigt Hill
#
# Bulk Modulus (GPa) = 46.45002 58.64661 52.54831
# Shear Modulus (GPa) = 40.27765 16.00433 28.14099
#
# Velocity S-wave (km/s) = 4.76209 3.00182 3.98048
# Velocity P-wave (km/s) = 7.50929 6.71077 7.12123
#
# Compressibility (1/GPa) = 0.02152852
#
# Stress axis : x y z
#
# Youngs Moduli (GPa) = 80.56682 29.72079 59.72206
#
# Poissons Ratio (x) = 0.13223 0.27082
# Poissons Ratio (y) = 0.35846 0.69596
# Poissons Ratio (z) = 0.36534 0.34635
#
# Static dielectric constant tensor:
#      x y z
#    x 1.467250 0.000000 -0.191860 
#    y 0.000000 1.638280 0.000000 
#    z -0.191860 0.000000 1.367540 
# 
# From -- ./inp_files/66927.got.cif
#   From: 2010.05.17/outbox.cif.g08.bks.cpg/sg12_34_cif.got.tgz:66927.got - 2010.06.03 13:09:07.
