data_PCOD9197067
_publ_section_title
;
Structure prediction by ZEFSAII (Michael W. Deem and Ramdas Pophale) SiO2 
 PCOD9197067
Probable space group: C 2/M
;
_chemical_formula_sum "Si O2"
_cell_formula_units_Z 48
_cell_length_a 14.226493
_cell_length_b 14.754104
_cell_length_c 12.290798
_cell_angle_alpha 90.000000
_cell_angle_beta 65.846158
_cell_angle_gamma 90.000000
_cell_volume 2353.964338
_symmetry_space_group_name_H-M "C 2/M"
_symmetry_group_IT_number 12
_symmetry_cell_setting 'monoclinic'
loop_
_space_group_symop_operation_xyz
x,y,z
-x,y,-z
-x,-y,-z
x,-y,z
1/2+x,1/2+y,z
1/2-x,1/2+y,-z
1/2-x,1/2-y,-z
1/2+x,1/2-y,z
loop_
_atom_site_type_symbol
_atom_site_label
_atom_site_fract_x
_atom_site_fract_y
_atom_site_fract_z
Si Si1 0.984152 0.845674 0.883272
Si Si2 0.282360 0.401082 0.031191
Si Si3 0.552672 0.867947 0.086422
Si Si4 0.379919 0.893475 0.544177
Si Si5 0.356890 0.899604 0.300409
Si Si6 0.797142 0.794712 0.241490
O O1 0.956634 0.740067 0.903210
O O2 0.095595 0.845621 0.773600
O O3 0.876938 0.891637 0.901829
O O4 0.000000 0.880083 0.000000
O O5 0.291647 0.500000 0.081221
O O6 0.170006 0.395893 0.033961
O O7 0.287801 0.321899 0.119139
O O8 0.479489 0.901566 0.217406
O O9 0.500000 0.897701 0.000000
O O10 0.500000 0.867089 0.500000
O O11 0.346479 0.884906 0.434103
O O12 0.302374 0.834019 0.652100
O O13 0.372106 0.000000 0.578588
O O14 0.312694 0.812206 0.257368
O O15 0.315781 0.000000 0.290791
#
# Coordination Sequence:
#
# PCOD9197067 Si02
#       6
#     8   8   8   8   8   8
#     4   8  18  33  51  77 111 148 184 222 268 327
#     4  11  21  33  55  86 117 148 186 233 279 333
#     4  10  20  37  57  80 112 148 186 231 283 333
#     4  10  20  35  58  87 114 144 187 234 280 332
#     4  10  21  36  55  81 111 145 190 236 277 329
#     4  10  20  36  56  81 116 153 185 227 284 333
#
# _framework density 20.391133
#
# number of rings (size 3 to 8) (size 9 to 14) (size 15 to 20)
#    0.000    2.167    0.000    4.000    0.000    6.333 
#    0.000    0.000    0.000    0.500    0.000   14.000 
#    0.000    0.000    0.000    0.000    0.000    0.000 
#
# Total GULP energy -133815.652289 kJ/mol
# GULP energy per Si atom -5575.652179 kJ/mol
# Density = 2.034472 g / cm^3
# Si number density = 20.391133 Si / 1000 Ang^3
#
#
#
# Elastic Constant Matrix: (Units=GPa)
#
#
# Indices 1 2 3 4 5 6 
#
# 1 116.9941 57.5298 36.4750 0.0000 -36.2342 0.0000
# 2 57.5298 112.4985 30.4198 0.0000 -11.7079 0.0000
# 3 36.4750 30.4198 74.7141 0.0000 -31.5144 0.0000
# 4 0.0000 0.0000 0.0000 52.3651 0.0000 -32.8838
# 5 -36.2342 -11.7079 -31.5144 0.0000 38.6596 0.0000
# 6 0.0000 0.0000 0.0000 -32.8838 0.0000 47.8748
#
#
#
# Elastic Compliance Matrix: (Units=1/GPa)
#
#
# Indices 1 2 3 4 5 6 
#
# 1 0.015860 -0.006911 0.000698 0.000000 0.013341 0.000000
# 2 -0.006911 0.013005 -0.004560 0.000000 -0.006256 0.000000
# 3 0.000698 -0.004560 0.022241 0.000000 0.017404 0.000000
# 4 0.000000 0.000000 0.000000 0.033582 0.000000 0.023066
# 5 0.013341 -0.006256 0.017404 0.000000 0.050664 0.000000
# 6 0.000000 0.000000 0.000000 0.023066 0.000000 0.036731
#
#
# Mechanical properties :
#
#
# Convention : Reuss Voigt Hill
#
# Bulk Modulus (GPa) = 33.82820 61.45068 47.63944
# Shear Modulus (GPa) = 24.57230 39.76536 32.16883
#
# Velocity S-wave (km/s) = 3.47515 4.42082 3.97620
# Velocity P-wave (km/s) = 5.72083 7.50064 6.67036
#
# Compressibility (1/GPa) = 0.02956114
#
# Stress axis : x y z
#
# Youngs Moduli (GPa) = 63.05196 76.89313 44.96212
#
# Poissons Ratio (x) = 0.53140 -0.03140
# Poissons Ratio (y) = 0.43575 0.20502
# Poissons Ratio (z) = -0.04404 0.35062
#
# Static dielectric constant tensor:
#      x y z
#    x 1.785440 0.000000 -0.004780 
#    y 0.000000 1.744310 0.000000 
#    z -0.004780 0.000000 1.741410 
# 
# From -- ./inp_files/143543.got.cif
#   From: 2010.05.17/outbox.cif.g08.bks.cpg/sg12_72_cif.got.tgz:143543.got - 2010.06.03 13:09:07.
