data_PCOD9197625
_publ_section_title
;
Structure prediction by ZEFSAII (Michael W. Deem and Ramdas Pophale) SiO2 
 PCOD9197625
Probable space group: C 2/M
;
_chemical_formula_sum "Si O2"
_cell_formula_units_Z 64
_cell_length_a 11.189804
_cell_length_b 16.079041
_cell_length_c 25.219520
_cell_angle_alpha 90.000000
_cell_angle_beta 139.340619
_cell_angle_gamma 90.000000
_cell_volume 2956.476067
_symmetry_space_group_name_H-M "C 2/M"
_symmetry_group_IT_number 12
_symmetry_cell_setting 'monoclinic'
loop_
_space_group_symop_operation_xyz
x,y,z
-x,y,-z
-x,-y,-z
x,-y,z
1/2+x,1/2+y,z
1/2-x,1/2+y,-z
1/2-x,1/2-y,-z
1/2+x,1/2-y,z
loop_
_atom_site_type_symbol
_atom_site_label
_atom_site_fract_x
_atom_site_fract_y
_atom_site_fract_z
Si Si1 0.996258 0.403414 0.631995
Si Si2 0.261186 0.197127 0.368007
Si Si3 0.303494 0.652249 0.318279
Si Si4 0.501053 0.094006 0.145987
Si Si5 0.809616 0.590833 0.904003
Si Si6 0.793199 0.906536 0.550012
Si Si7 0.883506 0.269553 0.249516
Si Si8 0.783757 0.772701 0.915733
O O1 0.026041 0.500000 0.651614
O O2 0.138600 0.367779 0.636372
O O3 0.021876 0.349489 0.692738
O O4 0.798824 0.391763 0.537733
O O5 0.329003 0.290192 0.378513
O O6 0.276380 0.162947 0.432473
O O7 0.044314 0.207997 0.283461
O O8 0.487716 0.599582 0.375915
O O9 0.295502 0.722302 0.269269
O O10 0.123013 0.602142 0.240766
O O11 0.632056 0.103414 0.138108
O O12 0.344793 0.164651 0.094679
O O13 0.425427 0.000000 0.117306
O O14 0.715392 0.500000 0.876782
O O15 0.724256 0.675237 0.898901
O O16 0.000000 0.584471 0.000000
O O17 0.737466 0.000000 0.548109
O O18 0.751475 0.293211 0.157838
O O19 0.000000 0.778842 0.000000
#
# Coordination Sequence:
#
# PCOD9197625 Si02
#       8
#     8   8   8   8   8   8   8   8
#     4  10  22  39  59  87 125 160 197 251 311 365
#     4  10  20  35  61  85 117 154 202 245 299 363
#     4  10  20  37  60  86 119 157 206 248 293 362
#     4  11  22  39  64  90 123 165 207 254 311 371
#     4   9  20  40  65  92 121 155 198 251 311 369
#     4  10  21  37  59  89 120 157 203 251 303 361
#     4  10  21  39  60  87 120 159 200 251 305 364
#     4  11  23  40  67  94 123 161 208 260 311 370
#
# _framework density 21.647394999999999
#
# number of rings (size 3 to 8) (size 9 to 14) (size 15 to 20)
#    0.000    1.875    2.500    1.125    0.000    9.250 
#    0.000    0.625    0.000    3.750    0.000    0.000 
#    0.000    0.000    0.000    0.000    0.000    0.000 
#
# Total GULP energy -178476.845610 kJ/mol
# GULP energy per Si atom -5577.401425 kJ/mol
# Density = 2.159812 g / cm^3
# Si number density = 21.647395 Si / 1000 Ang^3
#
#
#
# Elastic Constant Matrix: (Units=GPa)
#
#
# Indices 1 2 3 4 5 6 
#
# 1 32.5299 26.8107 4.8002 0.0000 4.8339 0.0000
# 2 26.8107 129.9346 27.6170 0.0000 -0.5808 0.0000
# 3 4.8002 27.6170 108.2059 0.0000 -8.9752 0.0000
# 4 0.0000 0.0000 0.0000 29.8130 0.0000 1.3897
# 5 4.8339 -0.5808 -8.9752 0.0000 25.7770 0.0000
# 6 0.0000 0.0000 0.0000 1.3897 0.0000 14.5577
#
#
#
# Elastic Compliance Matrix: (Units=1/GPa)
#
#
# Indices 1 2 3 4 5 6 
#
# 1 0.038404 -0.007892 -0.000311 0.000000 -0.007488 0.000000
# 2 -0.007892 0.009767 -0.002061 0.000000 0.000982 0.000000
# 3 -0.000311 -0.002061 0.010073 0.000000 0.003519 0.000000
# 4 0.000000 0.000000 0.000000 0.033692 0.000000 -0.003216
# 5 -0.007488 0.000982 0.003519 0.000000 0.041446 0.000000
# 6 0.000000 0.000000 0.000000 -0.003216 0.000000 0.068999
#
#
# Mechanical properties :
#
#
# Convention : Reuss Voigt Hill
#
# Bulk Modulus (GPa) = 26.51317 43.23626 34.87472
# Shear Modulus (GPa) = 21.23315 28.12571 24.67943
#
# Velocity S-wave (km/s) = 3.13527 3.60844 3.38015
# Velocity P-wave (km/s) = 5.03795 6.11371 5.60171
#
# Compressibility (1/GPa) = 0.03771710
#
# Stress axis : x y z
#
# Youngs Moduli (GPa) = 26.03925 102.38514 99.27135
#
# Poissons Ratio (x) = 0.80799 0.03083
# Poissons Ratio (y) = 0.20549 0.20462
# Poissons Ratio (z) = 0.00809 0.21104
#
# Static dielectric constant tensor:
#      x y z
#    x 1.843260 0.000000 -0.001900 
#    y 0.000000 1.819560 0.000000 
#    z -0.001900 0.000000 1.797530 
# 
# From -- ./inp_files/358463.got.cif
#   From: 2010.05.17/outbox.cif.g08.bks.cpg/sg12_180_cif.got.tgz:358463.got - 2010.06.03 13:09:07.
