data_PCOD9197129
_publ_section_title
;
Structure prediction by ZEFSAII (Michael W. Deem and Ramdas Pophale) SiO2 
 PCOD9197129
Probable space group: C 2/M
;
_chemical_formula_sum "Si O2"
_cell_formula_units_Z 58
_cell_length_a 28.612019
_cell_length_b 7.831859
_cell_length_c 26.390863
_cell_angle_alpha 90.000000
_cell_angle_beta 26.330617
_cell_angle_gamma 90.000000
_cell_volume 2623.069016
_symmetry_space_group_name_H-M "C 2/M"
_symmetry_group_IT_number 12
_symmetry_cell_setting 'monoclinic'
loop_
_space_group_symop_operation_xyz
x,y,z
-x,y,-z
-x,-y,-z
x,-y,z
1/2+x,1/2+y,z
1/2-x,1/2+y,-z
1/2-x,1/2-y,-z
1/2+x,1/2-y,z
loop_
_atom_site_type_symbol
_atom_site_label
_atom_site_fract_x
_atom_site_fract_y
_atom_site_fract_z
Si Si1 0.933121 0.301258 0.965652
Si Si2 0.169918 0.303610 0.754742
Si Si3 0.498651 0.298782 0.797162
Si Si4 0.500000 0.500000 0.500000
Si Si5 0.041635 0.704964 0.649397
Si Si6 0.982977 0.294807 0.590876
Si Si7 0.767814 0.801746 0.409099
Si Si8 0.753081 0.805421 0.213963
O O1 0.927174 0.500000 0.985509
O O2 0.049354 0.236381 0.869011
O O3 0.928749 0.282348 0.909173
O O4 0.840487 0.210484 0.085569
O O5 0.166512 0.500000 0.741375
O O6 0.238414 0.207828 0.646020
O O7 0.211249 0.295454 0.771290
O O8 0.500191 0.500000 0.806467
O O9 0.474249 0.270797 0.762081
O O10 0.618094 0.227050 0.688269
O O11 0.539843 0.654339 0.500831
O O12 0.045337 0.500000 0.650254
O O13 0.161824 0.775040 0.535102
O O14 0.001340 0.740386 0.632216
O O15 0.003827 0.500000 0.561144
O O16 0.860269 0.256734 0.697632
O O17 0.770574 0.000000 0.421277
O O18 0.745523 0.000000 0.238570
#
# Coordination Sequence:
#
# PCOD9197129 Si02
#       8
#     8   8   8   2   8   8   8   8
#     4  10  21  38  59  85 117 154 198 246 301 360
#     4  10  21  34  55  87 119 153 198 244 293 366
#     4  10  20  35  58  88 117 148 198 245 295 364
#     4  12  26  44  72  86 126 172 202 248 310 350
#     4  10  21  39  59  81 120 158 196 249 300 351
#     4  10  26  44  63  95 125 160 210 251 294 362
#     4   9  19  34  55  84 117 156 192 237 298 358
#     4  11  23  39  59  84 120 156 196 252 300 353
#
# _framework density 22.111505000000001
#
# number of rings (size 3 to 8) (size 9 to 14) (size 15 to 20)
#    0.000    1.931    0.000    2.690    4.828    4.414 
#    0.000    0.690    0.000    0.000    0.000    0.000 
#    0.000    0.000    0.000    0.000    0.000    0.000 
#
# Total GULP energy -161751.473279 kJ/mol
# GULP energy per Si atom -5577.637010 kJ/mol
# Density = 2.206118 g / cm^3
# Si number density = 22.111505 Si / 1000 Ang^3
#
#
#
# Elastic Constant Matrix: (Units=GPa)
#
#
# Indices 1 2 3 4 5 6 
#
# 1 90.4585 23.2107 23.0340 -0.0341 29.7520 0.0202
# 2 23.2107 41.6329 0.5586 -0.0058 -1.6497 0.0176
# 3 23.0340 0.5586 77.4955 -0.0151 14.2628 0.0277
# 4 -0.0341 -0.0058 -0.0151 6.2823 0.0091 13.1602
# 5 29.7520 -1.6497 14.2628 0.0091 28.5437 -0.0141
# 6 0.0202 0.0176 0.0277 13.1602 -0.0141 29.2244
#
#
#
# Elastic Compliance Matrix: (Units=1/GPa)
#
#
# Indices 1 2 3 4 5 6 
#
# 1 0.022877 -0.013650 -0.002385 0.003084 -0.023444 -0.001406
# 2 -0.013650 0.032235 0.000950 -0.001016 0.015617 0.000454
# 3 -0.002385 0.000950 0.014470 0.001073 -0.004689 -0.000498
# 4 0.003084 -0.001016 0.001073 2.809555 -0.005331 -1.265193
# 5 -0.023444 0.015617 -0.004689 -0.005331 0.062719 0.002442
# 6 -0.001406 0.000454 -0.000498 -1.265193 0.002442 0.603957
#
#
# Mechanical properties :
#
#
# Convention : Reuss Voigt Hill
#
# Bulk Modulus (GPa) = 25.37333 33.68817 29.53075
# Shear Modulus (GPa) = 1.39310 23.66230 12.52770
#
# Velocity S-wave (km/s) = 0.79461 3.27484 2.38285
# Velocity P-wave (km/s) = 3.51311 5.43766 4.57767
#
# Compressibility (1/GPa) = 0.03941146
#
# Stress axis : x y z
#
# Youngs Moduli (GPa) = 43.71221 31.02208 69.11034
#
# Poissons Ratio (x) = 0.42345 0.16486
# Poissons Ratio (y) = 0.59667 -0.06568
# Poissons Ratio (z) = 0.10427 -0.02948
#
# Static dielectric constant tensor:
#      x y z
#    x 1.844520 -0.000010 -0.014280 
#    y -0.000010 1.823940 0.000050 
#    z -0.014280 0.000050 1.835500 
# 
# From -- ./inp_files/351429.got.cif
#   From: 2010.05.17/outbox.cif.g08.bks.cpg/sg12_176_cif.got.tgz:351429.got - 2010.06.03 13:09:07.
