data_PCOD9197540
_publ_section_title
;
Structure prediction by ZEFSAII (Michael W. Deem and Ramdas Pophale) SiO2 
 PCOD9197540
Probable space group: C 2/M
;
_chemical_formula_sum "Si O2"
_cell_formula_units_Z 56
_cell_length_a 32.388296
_cell_length_b 8.418926
_cell_length_c 12.250544
_cell_angle_alpha 90.000000
_cell_angle_beta 58.001264
_cell_angle_gamma 90.000000
_cell_volume 2832.869943
_symmetry_space_group_name_H-M "C 2/M"
_symmetry_group_IT_number 12
_symmetry_cell_setting 'monoclinic'
loop_
_space_group_symop_operation_xyz
x,y,z
-x,y,-z
-x,-y,-z
x,-y,z
1/2+x,1/2+y,z
1/2-x,1/2+y,-z
1/2-x,1/2-y,-z
1/2+x,1/2-y,z
loop_
_atom_site_type_symbol
_atom_site_label
_atom_site_fract_x
_atom_site_fract_y
_atom_site_fract_z
Si Si1 0.395042 0.810454 0.879383
Si Si2 0.826961 0.308328 0.405030
Si Si3 0.260614 0.309108 0.317326
Si Si4 0.516151 0.193858 0.099229
Si Si5 0.573730 0.807916 0.623376
Si Si6 0.715115 0.310084 0.954076
Si Si7 0.056532 0.810351 0.410555
O O1 0.431520 0.755033 0.925582
O O2 0.419254 0.767237 0.729204
O O3 0.391573 0.000000 0.892568
O O4 0.340940 0.741339 0.958647
O O5 0.825826 0.500000 0.402036
O O6 0.786824 0.253438 0.549937
O O7 0.808176 0.242912 0.317085
O O8 0.880351 0.260246 0.367368
O O9 0.258585 0.500000 0.318891
O O10 0.263719 0.249632 0.190524
O O11 0.475502 0.241681 0.245486
O O12 0.516617 0.000000 0.095753
O O13 0.500000 0.245780 0.000000
O O14 0.579161 0.739793 0.494585
O O15 0.573156 0.000000 0.615948
O O16 0.716499 0.500000 0.952016
O O17 0.750000 0.250000 0.000000
O O18 0.000000 0.761602 0.500000
O O19 0.058967 0.000000 0.394566
#
# Coordination Sequence:
#
# PCOD9197540 Si02
#       7
#     8   8   8   8   8   8   8
#     4  11  23  40  65  90 119 160 204 252 306 360
#     4   9  19  35  60  89 114 148 196 247 296 350
#     4   9  20  39  58  82 119 155 192 244 299 357
#     4   9  19  35  57  89 123 155 198 247 297 359
#     4  10  20  35  60  89 117 152 198 249 296 352
#     4  11  25  43  62  88 122 160 206 253 305 363
#     4  11  23  39  59  85 122 157 196 247 296 353
#
# _framework density 19.767938000000001
#
# number of rings (size 3 to 8) (size 9 to 14) (size 15 to 20)
#    0.000    2.000    1.429    1.286    4.000    2.286 
#    0.000    0.000    0.000    2.143    0.000    0.000 
#    0.000    0.000    0.000    0.000    0.000    0.000 
#
# Total GULP energy -156354.907863 kJ/mol
# GULP energy per Si atom -5584.103852 kJ/mol
# Density = 1.972295 g / cm^3
# Si number density = 19.767938 Si / 1000 Ang^3
#
#
#
# Elastic Constant Matrix: (Units=GPa)
#
#
# Indices 1 2 3 4 5 6 
#
# 1 159.5636 16.9403 57.2082 0.0000 13.5195 0.0000
# 2 16.9403 14.1241 12.4546 0.0000 -0.1993 0.0000
# 3 57.2082 12.4546 85.8945 0.0000 27.3080 0.0000
# 4 0.0000 0.0000 0.0000 12.6627 0.0000 0.6854
# 5 13.5195 -0.1993 27.3080 0.0000 34.6693 0.0000
# 6 0.0000 0.0000 0.0000 0.6854 0.0000 25.6036
#
#
#
# Elastic Compliance Matrix: (Units=1/GPa)
#
#
# Indices 1 2 3 4 5 6 
#
# 1 0.008675 -0.005880 -0.005122 0.000000 0.000617 0.000000
# 2 -0.005880 0.089803 -0.013338 0.000000 0.013315 0.000000
# 3 -0.005122 -0.013338 0.021848 0.000000 -0.015288 0.000000
# 4 0.000000 0.000000 0.000000 0.079087 0.000000 -0.002117
# 5 0.000617 0.013315 -0.015288 0.000000 0.040722 0.000000
# 6 0.000000 0.000000 0.000000 -0.002117 0.000000 0.039114
#
#
# Mechanical properties :
#
#
# Convention : Reuss Voigt Hill
#
# Bulk Modulus (GPa) = 13.95749 48.08760 31.02255
# Shear Modulus (GPa) = 14.21218 26.11907 20.16562
#
# Velocity S-wave (km/s) = 2.68424 3.63889 3.19739
# Velocity P-wave (km/s) = 4.08446 6.48338 5.41835
#
# Compressibility (1/GPa) = 0.07164612
#
# Stress axis : x y z
#
# Youngs Moduli (GPa) = 115.26948 11.13549 45.77076
#
# Poissons Ratio (x) = 0.06548 0.23442
# Poissons Ratio (y) = 0.67779 0.61051
# Poissons Ratio (z) = 0.59038 0.14853
#
# Static dielectric constant tensor:
#      x y z
#    x 1.694650 0.000000 0.007400 
#    y 0.000000 1.680930 0.000000 
#    z 0.007400 0.000000 1.690360 
# 
# From -- ./inp_files/180792.got.cif
#   From: 2010.05.17/outbox.cif.g08.bks.cpg/sg12_91_cif.got.tgz:180792.got - 2010.06.03 13:09:07.
