data_PCOD9197795
_publ_section_title
;
Structure prediction by ZEFSAII (Michael W. Deem and Ramdas Pophale) SiO2 
 PCOD9197795
Probable space group: C 2/M
;
_chemical_formula_sum "Si O2"
_cell_formula_units_Z 36
_cell_length_a 27.427894
_cell_length_b 9.143769
_cell_length_c 9.490355
_cell_angle_alpha 90.000000
_cell_angle_beta 39.006406
_cell_angle_gamma 90.000000
_cell_volume 1498.069375
_symmetry_space_group_name_H-M "C 2/M"
_symmetry_group_IT_number 12
_symmetry_cell_setting 'monoclinic'
loop_
_space_group_symop_operation_xyz
x,y,z
-x,y,-z
-x,-y,-z
x,-y,z
1/2+x,1/2+y,z
1/2-x,1/2+y,-z
1/2-x,1/2-y,-z
1/2+x,1/2-y,z
loop_
_atom_site_type_symbol
_atom_site_label
_atom_site_fract_x
_atom_site_fract_y
_atom_site_fract_z
Si Si1 0.559541 0.162031 0.694718
Si Si2 0.716679 0.185481 0.957773
Si Si3 0.688444 0.665811 0.541827
Si Si4 0.055009 0.170143 0.239108
Si Si5 0.681983 0.000000 0.232101
O O1 0.609282 0.243936 0.701903
O O2 0.492454 0.259147 0.781583
O O3 0.622232 0.125970 0.430357
O O4 0.532684 0.000000 0.794522
O O5 0.773886 0.160137 0.698593
O O6 0.751338 0.357586 0.944791
O O7 0.680864 0.000000 0.059786
O O8 0.634976 0.249230 0.088159
O O9 0.676469 0.500000 0.618959
O O10 0.750000 0.750000 0.500000
O O11 0.000000 0.182197 0.500000
O O12 0.069733 0.000000 0.179746
#
# Coordination Sequence:
#
# PCOD9197795 Si02
#       5
#     8   8   8   8   4
#     4  10  21  40  63  91 130 163 204 256 315 367
#     4  12  23  39  65  96 127 167 211 260 313 373
#     4  12  26  43  66  92 128 168 213 259 314 373
#     4  11  22  35  59  95 132 166 204 256 314 373
#     4  10  20  35  66  94 129 159 209 256 317 365
#
# _framework density 24.030927999999999
#
# number of rings (size 3 to 8) (size 9 to 14) (size 15 to 20)
#    0.667    0.222    5.556    1.333    3.111    4.889 
#    0.000    1.111    0.000    5.333    0.000    0.000 
#    0.000    0.000    0.000    0.000    0.000    0.000 
#
# Total GULP energy -100256.896614 kJ/mol
# GULP energy per Si atom -5569.827590 kJ/mol
# Density = 2.397623 g / cm^3
# Si number density = 24.030928 Si / 1000 Ang^3
#
#
#
# Elastic Constant Matrix: (Units=GPa)
#
#
# Indices 1 2 3 4 5 6 
#
# 1 169.5468 94.5347 17.5241 0.0000 -40.5166 0.0000
# 2 94.5347 230.6059 5.9294 0.0000 -30.5365 0.0000
# 3 17.5241 5.9294 55.8478 0.0000 11.0977 0.0000
# 4 0.0000 0.0000 0.0000 22.7310 0.0000 -17.0370
# 5 -40.5166 -30.5365 11.0977 0.0000 52.1140 0.0000
# 6 0.0000 0.0000 0.0000 -17.0370 0.0000 34.7646
#
#
#
# Elastic Compliance Matrix: (Units=1/GPa)
#
#
# Indices 1 2 3 4 5 6 
#
# 1 0.009497 -0.002929 -0.003963 0.000000 0.006511 0.000000
# 2 -0.002929 0.005669 0.000114 0.000000 0.001020 0.000000
# 3 -0.003963 0.000114 0.020608 0.000000 -0.007402 0.000000
# 4 0.000000 0.000000 0.000000 0.069533 0.000000 0.034076
# 5 0.006511 0.001020 -0.007402 0.000000 0.026425 0.000000
# 6 0.000000 0.000000 0.000000 0.034076 0.000000 0.045464
#
#
# Mechanical properties :
#
#
# Convention : Reuss Voigt Hill
#
# Bulk Modulus (GPa) = 45.00588 76.88634 60.94611
# Shear Modulus (GPa) = 25.23253 44.45608 34.84431
#
# Velocity S-wave (km/s) = 3.24389 4.30577 3.81199
# Velocity P-wave (km/s) = 5.72708 7.53550 6.69265
#
# Compressibility (1/GPa) = 0.02221932
#
# Stress axis : x y z
#
# Youngs Moduli (GPa) = 105.29948 176.38830 48.52476
#
# Poissons Ratio (x) = 0.51665 0.19229
# Poissons Ratio (y) = 0.30843 -0.00555
# Poissons Ratio (z) = 0.41727 -0.02018
#
# Static dielectric constant tensor:
#      x y z
#    x 1.847610 0.000000 0.076480 
#    y 0.000000 2.155200 0.000000 
#    z 0.076480 0.000000 1.900500 
# 
# From -- ./inp_files/185638.got.cif
#   From: 2010.05.17/outbox.cif.g08.bks.cpg/sg12_93_cif.got.tgz:185638.got - 2010.06.03 13:09:07.
