data_PCOD9197827
_publ_section_title
;
Structure prediction by ZEFSAII (Michael W. Deem and Ramdas Pophale) SiO2 
 PCOD9197827
Probable space group: C 2/M
;
_chemical_formula_sum "Si O2"
_cell_formula_units_Z 56
_cell_length_a 12.058831
_cell_length_b 24.802056
_cell_length_c 11.890516
_cell_angle_alpha 90.000000
_cell_angle_beta 128.479391
_cell_angle_gamma 90.000000
_cell_volume 2783.954777
_symmetry_space_group_name_H-M "C 2/M"
_symmetry_group_IT_number 12
_symmetry_cell_setting 'monoclinic'
loop_
_space_group_symop_operation_xyz
x,y,z
-x,y,-z
-x,-y,-z
x,-y,z
1/2+x,1/2+y,z
1/2-x,1/2+y,-z
1/2-x,1/2-y,-z
1/2+x,1/2-y,z
loop_
_atom_site_type_symbol
_atom_site_label
_atom_site_fract_x
_atom_site_fract_y
_atom_site_fract_z
Si Si1 0.844996 0.941018 0.957143
Si Si2 0.796138 0.846620 0.547035
Si Si3 0.396133 0.338493 0.142471
Si Si4 0.999923 0.730676 0.122860
Si Si5 0.016339 0.305792 0.652616
Si Si6 0.311428 0.704490 0.317440
Si Si7 0.852114 0.587404 0.373626
O O1 0.845224 0.890367 0.041710
O O2 0.824850 0.000000 0.999277
O O3 0.738481 0.936838 0.784299
O O4 0.000000 0.939362 0.000000
O O5 0.653545 0.809937 0.469955
O O6 0.832768 0.834626 0.438724
O O7 0.734326 0.901412 0.565560
O O8 0.941651 0.840696 0.707910
O O9 0.407615 0.285173 0.071094
O O10 0.304190 0.328943 0.196451
O O11 0.167799 0.738111 0.248780
O O12 0.952148 0.693469 0.194775
O O13 0.000000 0.706692 0.000000
O O14 0.072835 0.249260 0.642937
O O15 0.097810 0.354892 0.647315
O O16 0.000000 0.560186 0.500000
#
# Coordination Sequence:
#
# PCOD9197827 Si02
#       7
#     8   8   8   8   8   8   8
#     4  11  24  42  64  88 114 149 197 252 304 340
#     4  10  20  36  52  81 116 154 195 234 280 337
#     4  11  22  35  60  82 120 156 195 238 292 343
#     4  10  22  33  48  82 123 162 194 233 280 348
#     4   9  21  34  53  82 120 158 196 230 281 346
#     4  10  22  34  54  85 119 162 199 233 279 350
#     4  10  21  38  63  86 115 152 191 241 290 349
#
# _framework density 20.115269000000001
#
# number of rings (size 3 to 8) (size 9 to 14) (size 15 to 20)
#    0.000    1.857    1.429    1.714    4.000   16.286 
#    0.000    0.000    0.000    2.571    0.000   12.000 
#    0.000    0.000    0.000    0.000    0.000    0.000 
#
# Total GULP energy -155972.374955 kJ/mol
# GULP energy per Si atom -5570.441963 kJ/mol
# Density = 2.006949 g / cm^3
# Si number density = 20.115269 Si / 1000 Ang^3
#
#
#
# Elastic Constant Matrix: (Units=GPa)
#
#
# Indices 1 2 3 4 5 6 
#
# 1 87.9021 33.0698 35.5888 0.0000 -15.8221 0.0000
# 2 33.0698 92.2237 43.2607 0.0000 -10.8751 0.0000
# 3 35.5888 43.2607 118.1125 0.0000 -11.2040 0.0000
# 4 0.0000 0.0000 0.0000 -29.1426 0.0000 -28.4823
# 5 -15.8221 -10.8751 -11.2040 0.0000 48.4435 0.0000
# 6 0.0000 0.0000 0.0000 -28.4823 0.0000 -5.3523
#
#
#
# Elastic Compliance Matrix: (Units=1/GPa)
#
#
# Indices 1 2 3 4 5 6 
#
# 1 0.014391 -0.003484 -0.002749 0.000000 0.003282 0.000000
# 2 -0.003484 0.014104 -0.004012 0.000000 0.001101 0.000000
# 3 -0.002749 -0.004012 0.010831 0.000000 0.000707 0.000000
# 4 0.000000 0.000000 0.000000 0.008168 0.000000 -0.043467
# 5 0.003282 0.001101 0.000707 0.000000 0.022125 0.000000
# 6 0.000000 0.000000 0.000000 -0.043467 0.000000 0.044475
#
#
# Mechanical properties :
#
#
# Convention : Reuss Voigt Hill
#
# Bulk Modulus (GPa) = 53.08618 58.00854 55.54736
# Shear Modulus (GPa) = 35.49592 15.21097 25.35345
#
# Velocity S-wave (km/s) = 4.20530 2.75288 3.55407
# Velocity P-wave (km/s) = 7.07303 6.24541 6.67206
#
# Compressibility (1/GPa) = 0.01883729
#
# Stress axis : x y z
#
# Youngs Moduli (GPa) = 69.48975 70.90163 92.32639
#
# Poissons Ratio (x) = 0.24701 0.25378
# Poissons Ratio (y) = 0.24209 0.37039
# Poissons Ratio (z) = 0.19101 0.28444
#
# Static dielectric constant tensor:
#      x y z
#    x 1.745070 0.000000 0.018520 
#    y 0.000000 1.726900 0.000000 
#    z 0.018520 0.000000 1.826750 
# 
# From -- ./inp_files/137009.got.cif
#   From: 2010.05.17/outbox.cif.g08.bks.cpg/sg12_69_cif.got.tgz:137009.got - 2010.06.03 13:09:07.
