data_PCOD9197991
_publ_section_title
;
Structure prediction by ZEFSAII (Michael W. Deem and Ramdas Pophale) SiO2 
 PCOD9197991
Probable space group: C 2/M
;
_chemical_formula_sum "Si O2"
_cell_formula_units_Z 48
_cell_length_a 13.007086
_cell_length_b 14.839752
_cell_length_c 30.974448
_cell_angle_alpha 90.000000
_cell_angle_beta 26.675204
_cell_angle_gamma 90.000000
_cell_volume 2684.053161
_symmetry_space_group_name_H-M "C 2/M"
_symmetry_group_IT_number 12
_symmetry_cell_setting 'monoclinic'
loop_
_space_group_symop_operation_xyz
x,y,z
-x,y,-z
-x,-y,-z
x,-y,z
1/2+x,1/2+y,z
1/2-x,1/2+y,-z
1/2-x,1/2-y,-z
1/2+x,1/2-y,z
loop_
_atom_site_type_symbol
_atom_site_label
_atom_site_fract_x
_atom_site_fract_y
_atom_site_fract_z
Si Si1 0.104622 0.000000 0.163227
Si Si2 0.843874 0.500000 0.405015
Si Si3 0.261838 0.859534 0.725179
Si Si4 0.718362 0.837122 0.041711
Si Si5 0.948166 0.500000 0.952677
Si Si6 0.895858 0.325386 0.246191
Si Si7 0.329130 0.500000 0.630386
Si Si8 0.790197 0.108901 0.155413
O O1 0.934085 0.084257 0.226033
O O2 0.289838 0.000000 0.131138
O O3 0.267235 0.000000 0.059964
O O4 0.598833 0.500000 0.519675
O O5 0.790009 0.500000 0.373243
O O6 0.999607 0.414446 0.360807
O O7 0.260318 0.762255 0.703414
O O8 0.181159 0.862929 0.805451
O O9 0.605180 0.912916 0.054878
O O10 0.556530 0.827487 0.143594
O O11 0.750000 0.750000 0.000000
O O12 0.973721 0.869947 0.957284
O O13 0.746157 0.413041 0.313725
O O14 0.083960 0.331658 0.213881
O O15 0.750945 0.000000 0.167406
#
# Coordination Sequence:
#
# PCOD9197991 Si02
#       8
#     4   4   8   8   4   8   4   8
#     4  10  20  36  55  81 112 166 218 239 287 365
#     4  10  22  46  71  85 120 154 206 269 323 375
#     4  11  20  40  63  87 120 162 204 255 307 369
#     4  12  23  37  54  88 130 168 198 249 299 355
#     4  11  21  34  52  78 120 164 208 247 287 351
#     4  12  24  36  62  93 124 159 209 249 307 366
#     4  11  23  42  68  98 114 154 210 265 317 369
#     4  12  21  41  59  87 126 172 212 246 295 366
#
# _framework density 17.883402
#
# number of rings (size 3 to 8) (size 9 to 14) (size 15 to 20)
#    0.000    0.667    8.333    1.000    2.333    1.333 
#    0.000    0.000    0.000    0.000    0.000    3.500 
#    0.000    0.000    0.000    0.000    0.000    0.000 
#
# Total GULP energy -133841.054303 kJ/mol
# GULP energy per Si atom -5576.710596 kJ/mol
# Density = 1.784270 g / cm^3
# Si number density = 17.883402 Si / 1000 Ang^3
#
#
#
# Elastic Constant Matrix: (Units=GPa)
#
#
# Indices 1 2 3 4 5 6 
#
# 1 73.1772 65.1328 27.4250 0.0030 -19.7634 -0.0014
# 2 65.1328 149.4125 46.9825 -0.0022 -9.4347 -0.0063
# 3 27.4250 46.9825 119.8973 0.0236 -18.5843 -0.0223
# 4 0.0030 -0.0022 0.0236 17.6781 -0.0100 5.8656
# 5 -19.7634 -9.4347 -18.5843 -0.0100 32.4915 -0.0021
# 6 -0.0014 -0.0063 -0.0223 5.8656 -0.0021 33.6166
#
#
#
# Elastic Compliance Matrix: (Units=1/GPa)
#
#
# Indices 1 2 3 4 5 6 
#
# 1 0.026955 -0.010971 0.000199 0.000001 0.013323 0.000000
# 2 -0.010971 0.012108 -0.002990 0.000005 -0.004868 -0.000001
# 3 0.000199 -0.002990 0.010260 -0.000014 0.005121 0.000009
# 4 0.000001 0.000005 -0.000014 0.060043 0.000012 -0.010477
# 5 0.013323 -0.004868 0.005121 0.000012 0.040397 0.000003
# 6 0.000000 -0.000001 0.000009 -0.010477 0.000003 0.031575
#
#
# Mechanical properties :
#
#
# Convention : Reuss Voigt Hill
#
# Bulk Modulus (GPa) = 45.87401 69.06308 57.46854
# Shear Modulus (GPa) = 23.13424 30.28703 26.71064
#
# Velocity S-wave (km/s) = 3.60059 4.11978 3.86890
# Velocity P-wave (km/s) = 6.55691 7.83151 7.22238
#
# Compressibility (1/GPa) = 0.02179884
#
# Stress axis : x y z
#
# Youngs Moduli (GPa) = 37.09943 82.58776 97.46273
#
# Poissons Ratio (x) = 0.90611 -0.01938
# Poissons Ratio (y) = 0.40703 0.29138
# Poissons Ratio (z) = -0.00738 0.24691
#
# Static dielectric constant tensor:
#      x y z
#    x 1.619310 0.000010 -0.007310 
#    y 0.000010 1.625940 0.000010 
#    z -0.007310 0.000010 1.615780 
# 
# From -- ./inp_files/374067.got.cif
#   From: 2010.05.17/outbox.cif.g08.bks.cpg/sg12_188_cif.got.tgz:374067.got - 2010.06.03 13:09:07.
