data_PCOD9197608
_publ_section_title
;
Structure prediction by ZEFSAII (Michael W. Deem and Ramdas Pophale) SiO2 
 PCOD9197608
Probable space group: C 2/M
;
_chemical_formula_sum "Si O2"
_cell_formula_units_Z 40
_cell_length_a 9.866012
_cell_length_b 19.565099
_cell_length_c 9.207290
_cell_angle_alpha 90.000000
_cell_angle_beta 101.721727
_cell_angle_gamma 90.000000
_cell_volume 1740.214950
_symmetry_space_group_name_H-M "C 2/M"
_symmetry_group_IT_number 12
_symmetry_cell_setting 'monoclinic'
loop_
_space_group_symop_operation_xyz
x,y,z
-x,y,-z
-x,-y,-z
x,-y,z
1/2+x,1/2+y,z
1/2-x,1/2+y,-z
1/2-x,1/2-y,-z
1/2+x,1/2-y,z
loop_
_atom_site_type_symbol
_atom_site_label
_atom_site_fract_x
_atom_site_fract_y
_atom_site_fract_z
Si Si1 0.515587 0.685366 0.332919
Si Si2 0.870667 0.577875 0.155196
Si Si3 0.582244 0.165288 0.359442
Si Si4 0.342259 0.317732 0.035080
Si Si5 0.779420 0.924641 0.576229
O O1 0.500000 0.686248 0.500000
O O2 0.597407 0.755668 0.316466
O O3 0.376728 0.681254 0.212633
O O4 0.597842 0.616464 0.322632
O O5 0.892044 0.500000 0.104974
O O6 0.827131 0.569673 0.314453
O O7 0.003736 0.626482 0.210526
O O8 0.750590 0.619590 0.045002
O O9 0.500000 0.169073 0.500000
O O10 0.713395 0.121185 0.436172
O O11 0.500000 0.315352 0.000000
O O12 0.250000 0.250000 0.000000
O O13 0.816426 0.000000 0.532413
#
# Coordination Sequence:
#
# PCOD9197608 Si02
#       5
#     8   8   8   8   8
#     4  11  23  39  63  91 131 173 217 263 327 392
#     4  10  20  37  63  93 126 169 218 270 326 388
#     4   9  18  34  58  90 123 160 213 264 317 384
#     4  12  25  44  68  99 132 173 221 274 324 389
#     4  10  20  35  60  93 127 166 214 270 325 388
#
# _framework density 22.985666999999999
#
# number of rings (size 3 to 8) (size 9 to 14) (size 15 to 20)
#    0.000    1.600    4.000    1.200    0.000    5.600 
#    0.000    0.000    0.000    0.600    0.000    0.000 
#    0.000    0.000    0.000    0.000    0.000    0.000 
#
# Total GULP energy -111543.520298 kJ/mol
# GULP energy per Si atom -5577.176015 kJ/mol
# Density = 2.293335 g / cm^3
# Si number density = 22.985667 Si / 1000 Ang^3
#
#
#
# Elastic Constant Matrix: (Units=GPa)
#
#
# Indices 1 2 3 4 5 6 
#
# 1 46.4703 12.0161 22.8754 0.0000 5.0533 0.0000
# 2 12.0161 82.9222 12.9285 0.0000 -3.1703 0.0000
# 3 22.8754 12.9285 134.6545 0.0000 20.7232 0.0000
# 4 0.0000 0.0000 0.0000 7.5866 0.0000 -11.5837
# 5 5.0533 -3.1703 20.7232 0.0000 32.7050 0.0000
# 6 0.0000 0.0000 0.0000 -11.5837 0.0000 -4.2452
#
#
#
# Elastic Compliance Matrix: (Units=1/GPa)
#
#
# Indices 1 2 3 4 5 6 
#
# 1 0.024245 -0.003028 -0.003553 0.000000 -0.001788 0.000000
# 2 -0.003028 0.012758 -0.001078 0.000000 0.002388 0.000000
# 3 -0.003553 -0.001078 0.008937 0.000000 -0.005218 0.000000
# 4 0.000000 0.000000 0.000000 0.025514 0.000000 -0.069618
# 5 -0.001788 0.002388 -0.005218 0.000000 0.034391 0.000000
# 6 0.000000 0.000000 0.000000 -0.069618 0.000000 -0.045596
#
#
# Mechanical properties :
#
#
# Convention : Reuss Voigt Hill
#
# Bulk Modulus (GPa) = 32.65603 39.96525 36.31064
# Shear Modulus (GPa) = 58.29338 21.62440 39.95889
#
# Velocity S-wave (km/s) = 5.04141 3.07054 4.17397
# Velocity P-wave (km/s) = 6.93727 5.47683 6.24986
#
# Compressibility (1/GPa) = 0.03062222
#
# Stress axis : x y z
#
# Youngs Moduli (GPa) = 41.24481 78.38463 111.89991
#
# Poissons Ratio (x) = 0.23733 0.39757
# Poissons Ratio (y) = 0.12488 0.12062
# Poissons Ratio (z) = 0.14654 0.08450
#
# Static dielectric constant tensor:
#      x y z
#    x 2.028240 0.000000 -0.078390 
#    y 0.000000 1.883880 0.000000 
#    z -0.078390 0.000000 1.849210 
# 
# From -- ./inp_files/130850.got.cif
#   From: 2010.05.17/outbox.cif.g08.bks.cpg/sg12_66_cif.got.tgz:130850.got - 2010.06.03 13:09:07.
