data_PCOD9197974
_publ_section_title
;
Structure prediction by ZEFSAII (Michael W. Deem and Ramdas Pophale) SiO2 
 PCOD9197974
Probable space group: C 2/M
;
_chemical_formula_sum "Si O2"
_cell_formula_units_Z 64
_cell_length_a 36.061881
_cell_length_b 7.507813
_cell_length_c 15.818389
_cell_angle_alpha 90.000000
_cell_angle_beta 42.936021
_cell_angle_gamma 90.000000
_cell_volume 2917.338169
_symmetry_space_group_name_H-M "C 2/M"
_symmetry_group_IT_number 12
_symmetry_cell_setting 'monoclinic'
loop_
_space_group_symop_operation_xyz
x,y,z
-x,y,-z
-x,-y,-z
x,-y,z
1/2+x,1/2+y,z
1/2-x,1/2+y,-z
1/2-x,1/2-y,-z
1/2+x,1/2-y,z
loop_
_atom_site_type_symbol
_atom_site_label
_atom_site_fract_x
_atom_site_fract_y
_atom_site_fract_z
Si Si1 0.512452 0.285441 0.113190
Si Si2 0.792783 0.211587 0.003485
Si Si3 0.291300 0.713255 0.355526
Si Si4 0.597129 0.791678 0.270398
Si Si5 0.761288 0.718382 0.731549
Si Si6 0.913476 0.217509 0.165204
Si Si7 0.498403 0.209815 0.327652
Si Si8 0.381313 0.782001 0.576372
O O1 0.512442 0.500000 0.112559
O O2 0.454707 0.225015 0.170245
O O3 0.519283 0.228518 0.197590
O O4 0.558940 0.228831 0.969684
O O5 0.851791 0.279720 0.877658
O O6 0.797653 0.000000 0.002298
O O7 0.750000 0.250000 0.000000
O O8 0.769564 0.277226 0.131706
O O9 0.295882 0.500000 0.339681
O O10 0.250000 0.750000 0.500000
O O11 0.267857 0.778923 0.305297
O O12 0.351868 0.780777 0.274356
O O13 0.542806 0.714102 0.318683
O O14 0.614363 0.721353 0.333251
O O15 0.586072 0.000000 0.303713
O O16 0.760860 0.500000 0.732670
O O17 0.824273 0.775742 0.631650
O O18 0.913545 0.000000 0.166804
O O19 0.436930 0.279272 0.439100
O O20 0.494360 0.000000 0.352974
O O21 0.379418 0.000000 0.577782
#
# Coordination Sequence:
#
# PCOD9197974 Si02
#       8
#     8   8   8   8   8   8   8   8
#     4   9  18  35  57  77 100 140 181 222 270 325
#     4  11  21  36  59  86 112 147 188 229 274 326
#     4  10  21  37  57  82 109 141 181 226 273 330
#     4  10  20  36  55  79 112 146 183 225 270 323
#     4   9  19  34  56  81 106 142 187 222 265 334
#     4   8  17  35  56  75 103 140 179 215 266 332
#     4  10  21  33  54  83 108 139 181 230 274 315
#     4   9  17  34  55  75 105 146 184 215 260 330
#
# _framework density 21.937805999999998
#
# number of rings (size 3 to 8) (size 9 to 14) (size 15 to 20)
#    0.000    2.500    1.250    1.500    3.500    2.000 
#    0.000    3.750    0.000    1.500    0.000    0.000 
#    0.000    0.000    0.000    0.000    0.000    0.000 
#
# Total GULP energy -178736.464707 kJ/mol
# GULP energy per Si atom -5585.514522 kJ/mol
# Density = 2.188787 g / cm^3
# Si number density = 21.937806 Si / 1000 Ang^3
#
#
#
# Elastic Constant Matrix: (Units=GPa)
#
#
# Indices 1 2 3 4 5 6 
#
# 1 84.9329 -1.5796 33.7655 0.0002 -8.0911 -0.0004
# 2 -1.5796 55.6489 -9.9167 0.0007 -1.5733 -0.0035
# 3 33.7655 -9.9167 76.4456 0.0000 -11.2760 0.0002
# 4 0.0002 0.0007 0.0000 20.5194 -0.0001 3.7050
# 5 -8.0911 -1.5733 -11.2760 -0.0001 36.0356 -0.0002
# 6 -0.0004 -0.0035 0.0002 3.7050 -0.0002 5.9243
#
#
#
# Elastic Compliance Matrix: (Units=1/GPa)
#
#
# Indices 1 2 3 4 5 6 
#
# 1 0.014364 -0.000671 -0.006248 0.000000 0.001241 0.000001
# 2 -0.000671 0.018518 0.002931 -0.000003 0.001575 0.000013
# 3 -0.006248 0.002931 0.016809 0.000000 0.003985 0.000001
# 4 0.000000 -0.000003 0.000000 0.054938 0.000000 -0.034358
# 5 0.001241 0.001575 0.003985 0.000000 0.029345 0.000002
# 6 0.000001 0.000013 0.000001 -0.034358 0.000002 0.190285
#
#
# Mechanical properties :
#
#
# Convention : Reuss Voigt Hill
#
# Bulk Modulus (GPa) = 23.97301 29.06286 26.51794
# Shear Modulus (GPa) = 14.44504 25.47972 19.96238
#
# Velocity S-wave (km/s) = 2.56882 3.41171 3.01982
# Velocity P-wave (km/s) = 4.44408 5.36621 4.92677
#
# Compressibility (1/GPa) = 0.04171357
#
# Stress axis : x y z
#
# Youngs Moduli (GPa) = 69.61951 54.00280 59.49195
#
# Poissons Ratio (x) = 0.03622 0.37173
# Poissons Ratio (y) = 0.04669 -0.17435
# Poissons Ratio (z) = 0.43501 -0.15826
#
# Static dielectric constant tensor:
#      x y z
#    x 1.774520 0.000000 -0.015400 
#    y 0.000000 1.856410 0.000000 
#    z -0.015400 0.000000 1.766730 
# 
# From -- ./inp_files/249891.got.cif
#   From: 2010.05.17/outbox.cif.g08.bks.cpg/sg12_125_cif.got.tgz:249891.got - 2010.06.03 13:09:07.
