data_PCOD9197824
_publ_section_title
;
Structure prediction by ZEFSAII (Michael W. Deem and Ramdas Pophale) SiO2 
 PCOD9197824
Probable space group: C 2/M
;
_chemical_formula_sum "Si O2"
_cell_formula_units_Z 56
_cell_length_a 15.280208
_cell_length_b 17.178446
_cell_length_c 11.702890
_cell_angle_alpha 90.000000
_cell_angle_beta 69.059352
_cell_angle_gamma 90.000000
_cell_volume 2868.999195
_symmetry_space_group_name_H-M "C 2/M"
_symmetry_group_IT_number 12
_symmetry_cell_setting 'monoclinic'
loop_
_space_group_symop_operation_xyz
x,y,z
-x,y,-z
-x,-y,-z
x,-y,z
1/2+x,1/2+y,z
1/2-x,1/2+y,-z
1/2-x,1/2-y,-z
1/2+x,1/2-y,z
loop_
_atom_site_type_symbol
_atom_site_label
_atom_site_fract_x
_atom_site_fract_y
_atom_site_fract_z
Si Si1 0.241744 0.357837 0.330525
Si Si2 0.121577 0.915082 0.327365
Si Si3 0.387348 0.195813 0.402758
Si Si4 0.786999 0.303585 0.209937
Si Si5 0.398287 0.089215 0.989895
Si Si6 0.087130 0.880324 0.607926
Si Si7 0.560825 0.912414 0.293702
O O1 0.190628 0.318865 0.464358
O O2 0.273615 0.289208 0.228906
O O3 0.332835 0.400942 0.337917
O O4 0.158602 0.406612 0.314399
O O5 0.186308 0.844454 0.260132
O O6 0.112399 0.908782 0.469082
O O7 0.018136 0.908478 0.322566
O O8 0.162186 0.000000 0.280756
O O9 0.343186 0.174759 0.300152
O O10 0.413357 0.286443 0.393131
O O11 0.481177 0.145763 0.374931
O O12 0.839653 0.343413 0.079628
O O13 0.360047 0.000000 0.019737
O O14 0.500000 0.088734 0.000000
O O15 0.414478 0.105224 0.849142
O O16 0.522839 0.000000 0.318616
#
# Coordination Sequence:
#
# PCOD9197824 Si02
#       7
#     8   8   8   8   8   8   8
#     4  11  22  38  58  84 123 157 188 236 295 362
#     4  11  21  33  55  85 112 151 197 235 281 336
#     4  11  20  37  60  84 119 154 187 236 301 355
#     4  11  20  38  63  88 113 153 200 241 294 342
#     4  10  21  40  61  86 120 151 195 253 290 335
#     4  10  20  36  52  80 116 154 188 232 285 342
#     4  11  25  39  58  88 119 160 197 235 300 356
#
# _framework density 19.519000999999999
#
# number of rings (size 3 to 8) (size 9 to 14) (size 15 to 20)
#    0.000    1.286    4.286    3.429    2.000    3.429 
#    0.000    0.000    0.000    0.000    0.000    3.000 
#    0.000    0.000    0.000    0.000    0.000    0.000 
#
# Total GULP energy -156362.620624 kJ/mol
# GULP energy per Si atom -5584.379308 kJ/mol
# Density = 1.947458 g / cm^3
# Si number density = 19.519001 Si / 1000 Ang^3
#
#
#
# Elastic Constant Matrix: (Units=GPa)
#
#
# Indices 1 2 3 4 5 6 
#
# 1 108.8890 16.5483 10.7256 0.0000 3.4033 0.0000
# 2 16.5483 67.5385 24.4601 0.0000 -5.3069 0.0000
# 3 10.7256 24.4601 43.1017 0.0000 -1.4215 0.0000
# 4 0.0000 0.0000 0.0000 9.8313 0.0000 20.7279
# 5 3.4033 -5.3069 -1.4215 0.0000 25.5544 0.0000
# 6 0.0000 0.0000 0.0000 20.7279 0.0000 -25.6782
#
#
#
# Elastic Compliance Matrix: (Units=1/GPa)
#
#
# Indices 1 2 3 4 5 6 
#
# 1 0.009678 -0.002037 -0.001311 0.000000 -0.001785 0.000000
# 2 -0.002037 0.019345 -0.010349 0.000000 0.003713 0.000000
# 3 -0.001311 -0.010349 0.029389 0.000000 -0.000340 0.000000
# 4 0.000000 0.000000 0.000000 0.037646 0.000000 0.030389
# 5 -0.001785 0.003713 -0.000340 0.000000 0.040122 0.000000
# 6 0.000000 0.000000 0.000000 0.030389 0.000000 -0.014413
#
#
# Mechanical properties :
#
#
# Convention : Reuss Voigt Hill
#
# Bulk Modulus (GPa) = 32.23912 35.88858 34.06385
# Shear Modulus (GPa) = 31.34778 13.12785 22.23781
#
# Velocity S-wave (km/s) = 4.01186 2.59620 3.37900
# Velocity P-wave (km/s) = 6.16544 5.23578 5.71953
#
# Compressibility (1/GPa) = 0.03101821
#
# Stress axis : x y z
#
# Youngs Moduli (GPa) = 103.32560 51.69242 34.02614
#
# Poissons Ratio (x) = 0.10528 0.04462
# Poissons Ratio (y) = 0.21044 0.35214
# Poissons Ratio (z) = 0.13551 0.53497
#
# Static dielectric constant tensor:
#      x y z
#    x 1.696210 0.000000 0.016010 
#    y 0.000000 1.683940 0.000000 
#    z 0.016010 0.000000 1.666770 
# 
# From -- ./inp_files/145470.got.cif
#   From: 2010.05.17/outbox.cif.g08.bks.cpg/sg12_73_cif.got.tgz:145470.got - 2010.06.03 13:09:07.
