data_PCOD9197636
_publ_section_title
;
Structure prediction by ZEFSAII (Michael W. Deem and Ramdas Pophale) SiO2 
 PCOD9197636
Probable space group: C 2/M
;
_chemical_formula_sum "Si O2"
_cell_formula_units_Z 56
_cell_length_a 20.080563
_cell_length_b 14.665263
_cell_length_c 15.919013
_cell_angle_alpha 90.000000
_cell_angle_beta 143.586284
_cell_angle_gamma 90.000000
_cell_volume 2782.814276
_symmetry_space_group_name_H-M "C 2/M"
_symmetry_group_IT_number 12
_symmetry_cell_setting 'monoclinic'
loop_
_space_group_symop_operation_xyz
x,y,z
-x,y,-z
-x,-y,-z
x,-y,z
1/2+x,1/2+y,z
1/2-x,1/2+y,-z
1/2-x,1/2-y,-z
1/2+x,1/2-y,z
loop_
_atom_site_type_symbol
_atom_site_label
_atom_site_fract_x
_atom_site_fract_y
_atom_site_fract_z
Si Si1 0.628436 0.396259 0.624130
Si Si2 0.871110 0.105317 0.892078
Si Si3 0.153768 0.838252 0.466539
Si Si4 0.220784 0.721851 0.100883
Si Si5 0.264526 0.862226 0.413400
Si Si6 0.489904 0.898826 0.395579
Si Si7 0.919141 0.257945 0.189930
O O1 0.500000 0.358987 0.500000
O O2 0.628777 0.500000 0.657620
O O3 0.647398 0.395764 0.544015
O O4 0.724235 0.337455 0.768276
O O5 0.809287 0.178495 0.889831
O O6 0.809128 0.110788 0.740095
O O7 0.867927 0.000000 0.920135
O O8 0.000000 0.129431 0.000000
O O9 0.212308 0.888669 0.449123
O O10 0.221242 0.747127 0.562830
O O11 0.032582 0.800455 0.312508
O O12 0.314342 0.703971 0.122901
O O13 0.107965 0.705665 0.930730
O O14 0.386621 0.900660 0.518137
O O15 0.500000 0.859533 0.500000
O O16 0.424380 0.838183 0.263686
O O17 0.441920 0.000000 0.356010
#
# Coordination Sequence:
#
# PCOD9197636 Si02
#       7
#     8   8   8   8   8   8   8
#     4  11  23  40  65  92 123 166 212 258 306 369
#     4  11  23  38  60  90 125 161 200 254 318 378
#     4  10  20  38  61  90 119 158 206 257 305 364
#     4  11  22  41  61  88 122 164 208 252 311 376
#     4  10  20  35  61  88 119 159 198 248 310 367
#     4  10  21  36  59  91 121 152 201 256 306 372
#     4  10  22  36  62  87 118 164 202 252 316 362
#
# _framework density 20.123514
#
# number of rings (size 3 to 8) (size 9 to 14) (size 15 to 20)
#    0.000    1.571    2.857    2.143    2.000    3.429 
#    0.000    2.857    0.000    0.857    0.000    0.000 
#    0.000    0.000    0.000    0.000    0.000    0.000 
#
# Total GULP energy -155997.975693 kJ/mol
# GULP energy per Si atom -5571.356275 kJ/mol
# Density = 2.007771 g / cm^3
# Si number density = 20.123514 Si / 1000 Ang^3
#
#
#
# Elastic Constant Matrix: (Units=GPa)
#
#
# Indices 1 2 3 4 5 6 
#
# 1 100.6040 12.0421 20.5951 0.0000 -11.7479 0.0000
# 2 12.0421 84.0905 24.1859 0.0000 -4.7400 0.0000
# 3 20.5951 24.1859 121.9382 0.0000 -15.3877 0.0000
# 4 0.0000 0.0000 0.0000 9.7658 0.0000 -4.0455
# 5 -11.7479 -4.7400 -15.3877 0.0000 35.7124 0.0000
# 6 0.0000 0.0000 0.0000 -4.0455 0.0000 26.8017
#
#
#
# Elastic Compliance Matrix: (Units=1/GPa)
#
#
# Indices 1 2 3 4 5 6 
#
# 1 0.010645 -0.001008 -0.001240 0.000000 0.002834 0.000000
# 2 -0.001008 0.012720 -0.002307 0.000000 0.000363 0.000000
# 3 -0.001240 -0.002307 0.009283 0.000000 0.003285 0.000000
# 4 0.000000 0.000000 0.000000 0.109227 0.000000 0.016487
# 5 0.002834 0.000363 0.003285 0.000000 0.030397 0.000000
# 6 0.000000 0.000000 0.000000 0.016487 0.000000 0.039800
#
#
# Mechanical properties :
#
#
# Convention : Reuss Voigt Hill
#
# Bulk Modulus (GPa) = 42.48556 46.69765 44.59161
# Shear Modulus (GPa) = 21.83127 31.10996 26.47061
#
# Velocity S-wave (km/s) = 3.29730 3.93612 3.63079
# Velocity P-wave (km/s) = 5.97114 6.62671 6.30745
#
# Compressibility (1/GPa) = 0.02353741
#
# Stress axis : x y z
#
# Youngs Moduli (GPa) = 93.93679 78.61470 107.72879
#
# Poissons Ratio (x) = 0.07924 0.13364
# Poissons Ratio (y) = 0.09468 0.24853
# Poissons Ratio (z) = 0.11653 0.18136
#
# Static dielectric constant tensor:
#      x y z
#    x 1.784110 0.000000 0.063430 
#    y 0.000000 1.766960 0.000000 
#    z 0.063430 0.000000 1.792430 
# 
# From -- ./inp_files/233747.got.cif
#   From: 2010.05.17/outbox.cif.g08.bks.cpg/sg12_117_cif.got.tgz:233747.got - 2010.06.03 13:09:07.
