data_PCOD9197659
_publ_section_title
;
Structure prediction by ZEFSAII (Michael W. Deem and Ramdas Pophale) SiO2 
 PCOD9197659
Probable space group: C 2/M
;
_chemical_formula_sum "Si O2"
_cell_formula_units_Z 56
_cell_length_a 28.490168
_cell_length_b 11.869664
_cell_length_c 8.399279
_cell_angle_alpha 90.000000
_cell_angle_beta 106.914956
_cell_angle_gamma 90.000000
_cell_volume 2717.492265
_symmetry_space_group_name_H-M "C 2/M"
_symmetry_group_IT_number 12
_symmetry_cell_setting 'monoclinic'
loop_
_space_group_symop_operation_xyz
x,y,z
-x,y,-z
-x,-y,-z
x,-y,z
1/2+x,1/2+y,z
1/2-x,1/2+y,-z
1/2-x,1/2-y,-z
1/2+x,1/2-y,z
loop_
_atom_site_type_symbol
_atom_site_label
_atom_site_fract_x
_atom_site_fract_y
_atom_site_fract_z
Si Si1 0.766955 0.874081 0.578083
Si Si2 0.142398 0.380624 0.016451
Si Si3 0.952739 0.328644 0.254705
Si Si4 0.266203 0.872134 0.088586
Si Si5 0.870608 0.200040 0.745818
Si Si6 0.433784 0.873830 0.603905
Si Si7 0.455163 0.626981 0.056699
O O1 0.750000 0.750000 0.500000
O O2 0.748486 0.873844 0.742418
O O3 0.826288 0.868778 0.627674
O O4 0.751892 0.000000 0.497858
O O5 0.153351 0.500000 0.103736
O O6 0.085703 0.376490 0.910351
O O7 0.175798 0.371073 0.892989
O O8 0.154203 0.284066 0.151340
O O9 0.936031 0.358269 0.415442
O O10 0.948934 0.196629 0.211101
O O11 0.008958 0.364860 0.288887
O O12 0.249528 0.000000 0.010619
O O13 0.250000 0.750000 0.000000
O O14 0.901364 0.277953 0.654949
O O15 0.908693 0.132269 0.893793
O O16 0.415952 0.000000 0.623837
O O17 0.467889 0.500000 0.108390
O O18 0.500000 0.678412 0.000000
#
# Coordination Sequence:
#
# PCOD9197659 Si02
#       7
#     8   8   8   8   8   8   8
#     4  11  26  45  67  93 128 168 211 266 322 381
#     4  10  20  35  61  91 122 158 203 255 310 373
#     4  10  21  38  57  87 122 163 207 252 306 372
#     4  10  21  41  64  92 121 158 202 256 315 370
#     4  11  22  39  63  91 124 159 209 253 311 372
#     4  11  22  37  59  89 128 166 199 250 311 372
#     4  10  20  39  62  85 117 160 207 256 306 366
#
# _framework density 20.607233000000001
#
# number of rings (size 3 to 8) (size 9 to 14) (size 15 to 20)
#    0.000    1.571    2.857    2.571    2.000    1.714 
#    0.000    5.000    0.000    0.000    0.000    0.000 
#    0.000    0.000    0.000    0.000    0.000    0.000 
#
# Total GULP energy -155937.104647 kJ/mol
# GULP energy per Si atom -5569.182309 kJ/mol
# Density = 2.056033 g / cm^3
# Si number density = 20.607233 Si / 1000 Ang^3
#
#
#
# Elastic Constant Matrix: (Units=GPa)
#
#
# Indices 1 2 3 4 5 6 
#
# 1 78.0264 17.4556 6.9747 0.0000 -7.6613 0.0000
# 2 17.4556 148.6461 35.3836 0.0000 -3.0687 0.0000
# 3 6.9747 35.3836 32.8373 0.0000 1.0912 0.0000
# 4 0.0000 0.0000 0.0000 95.4937 0.0000 6.4436
# 5 -7.6613 -3.0687 1.0912 0.0000 32.0430 0.0000
# 6 0.0000 0.0000 0.0000 6.4436 0.0000 23.0465
#
#
#
# Elastic Compliance Matrix: (Units=1/GPa)
#
#
# Indices 1 2 3 4 5 6 
#
# 1 0.013536 -0.001095 -0.001801 0.000000 0.003193 0.000000
# 2 -0.001095 0.009183 -0.009694 0.000000 0.000948 0.000000
# 3 -0.001801 -0.009694 0.041374 0.000000 -0.002768 0.000000
# 4 0.000000 0.000000 0.000000 0.010673 0.000000 -0.002984
# 5 0.003193 0.000948 -0.002768 0.000000 0.032157 0.000000
# 6 0.000000 0.000000 0.000000 -0.002984 0.000000 0.044225
#
#
# Mechanical properties :
#
#
# Convention : Reuss Voigt Hill
#
# Bulk Modulus (GPa) = 25.69924 42.12640 33.91282
# Shear Modulus (GPa) = 26.41332 43.42968 34.92150
#
# Velocity S-wave (km/s) = 3.58404 4.59573 4.12105
# Velocity P-wave (km/s) = 5.44290 6.97480 6.25592
#
# Compressibility (1/GPa) = 0.03891166
#
# Stress axis : x y z
#
# Youngs Moduli (GPa) = 73.87912 108.89567 24.16996
#
# Poissons Ratio (x) = 0.11922 0.04354
# Poissons Ratio (y) = 0.08088 0.23431
# Poissons Ratio (z) = 0.13309 1.05565
#
# Static dielectric constant tensor:
#      x y z
#    x 1.762950 0.000000 -0.000680 
#    y 0.000000 1.805550 0.000000 
#    z -0.000680 0.000000 1.732100 
# 
# From -- ./inp_files/109847.got.cif
#   From: 2010.05.17/outbox.cif.g08.bks.cpg/sg12_55_cif.got.tgz:109847.got - 2010.06.03 13:09:07.
