data_PCOD9197417
_publ_section_title
;
Structure prediction by ZEFSAII (Michael W. Deem and Ramdas Pophale) SiO2 
 PCOD9197417
Probable space group: C 2/M
;
_chemical_formula_sum "Si O2"
_cell_formula_units_Z 56
_cell_length_a 24.444880
_cell_length_b 7.656868
_cell_length_c 16.074858
_cell_angle_alpha 90.000000
_cell_angle_beta 54.767619
_cell_angle_gamma 90.000000
_cell_volume 2457.604781
_symmetry_space_group_name_H-M "C 2/M"
_symmetry_group_IT_number 12
_symmetry_cell_setting 'monoclinic'
loop_
_space_group_symop_operation_xyz
x,y,z
-x,y,-z
-x,-y,-z
x,-y,z
1/2+x,1/2+y,z
1/2-x,1/2+y,-z
1/2-x,1/2-y,-z
1/2+x,1/2-y,z
loop_
_atom_site_type_symbol
_atom_site_label
_atom_site_fract_x
_atom_site_fract_y
_atom_site_fract_z
Si Si1 0.796269 0.209912 0.380988
Si Si2 0.571461 0.797915 0.966724
Si Si3 0.216156 0.200504 0.787661
Si Si4 0.572346 0.287098 0.647321
Si Si5 0.837664 0.203833 0.773457
Si Si6 0.576148 0.287364 0.456864
Si Si7 0.426629 0.712179 0.843322
O O1 0.750000 0.250000 0.500000
O O2 0.770196 0.279886 0.315633
O O3 0.870900 0.272327 0.338328
O O4 0.799449 0.000000 0.369238
O O5 0.637029 0.710215 0.871371
O O6 0.573600 0.000000 0.938519
O O7 0.500000 0.723676 0.000000
O O8 0.576543 0.785146 0.061534
O O9 0.259256 0.283671 0.823467
O O10 0.237097 0.000000 0.769691
O O11 0.573585 0.500000 0.645324
O O12 0.589855 0.226835 0.538645
O O13 0.497520 0.238473 0.739219
O O14 0.875181 0.276764 0.658691
O O15 0.867668 0.273331 0.833098
O O16 0.856116 0.000000 0.759307
O O17 0.500000 0.243039 0.500000
O O18 0.580207 0.500000 0.455421
O O19 0.424880 0.500000 0.852991
#
# Coordination Sequence:
#
# PCOD9197417 Si02
#       7
#     8   8   8   8   8   8   8
#     4  10  21  36  56  84 116 152 193 236 287 345
#     4  11  25  44  65  88 114 148 193 245 301 356
#     4  11  24  41  61  86 119 158 198 242 293 351
#     4   9  16  29  52  82 114 147 188 238 284 335
#     4  10  20  35  59  90 122 157 198 243 293 349
#     4   9  14  25  49  84 119 150 189 233 278 336
#     4  10  20  36  61  90 117 150 196 244 293 350
#
# _framework density 22.786415999999999
#
# number of rings (size 3 to 8) (size 9 to 14) (size 15 to 20)
#    0.000    2.000    1.429    2.571    0.000    5.714 
#    0.000    0.714    0.000    1.286    0.000    0.000 
#    0.000    0.000    0.000    0.000    0.000    0.000 
#
# Total GULP energy -156482.273786 kJ/mol
# GULP energy per Si atom -5588.652635 kJ/mol
# Density = 2.273455 g / cm^3
# Si number density = 22.786416 Si / 1000 Ang^3
#
#
#
# Elastic Constant Matrix: (Units=GPa)
#
#
# Indices 1 2 3 4 5 6 
#
# 1 145.1255 -2.1405 34.4368 0.0000 14.7051 0.0000
# 2 -2.1405 43.9284 -6.0769 -0.0002 0.7831 0.0000
# 3 34.4368 -6.0769 80.6918 -0.0002 14.9243 0.0000
# 4 0.0000 -0.0002 -0.0002 14.5466 0.0001 2.1223
# 5 14.7051 0.7831 14.9243 0.0001 38.8964 0.0000
# 6 0.0000 0.0000 0.0000 2.1223 0.0000 7.5362
#
#
#
# Elastic Compliance Matrix: (Units=1/GPa)
#
#
# Indices 1 2 3 4 5 6 
#
# 1 0.007782 -0.000002 -0.002989 0.000000 -0.001795 0.000000
# 2 -0.000002 0.023057 0.001962 0.000000 -0.001216 0.000000
# 3 -0.002989 0.001962 0.014655 0.000000 -0.004532 0.000000
# 4 0.000000 0.000000 0.000000 0.071690 0.000000 -0.020189
# 5 -0.001795 -0.001216 -0.004532 0.000000 0.028151 0.000000
# 6 0.000000 0.000000 0.000000 -0.020189 0.000000 0.138379
#
#
# Mechanical properties :
#
#
# Convention : Reuss Voigt Hill
#
# Bulk Modulus (GPa) = 23.02266 35.79828 29.41047
# Shear Modulus (GPa) = 16.65274 28.43092 22.54183
#
# Velocity S-wave (km/s) = 2.70630 3.53613 3.14867
# Velocity P-wave (km/s) = 4.45993 5.69357 5.11409
#
# Compressibility (1/GPa) = 0.04343546
#
# Stress axis : x y z
#
# Youngs Moduli (GPa) = 128.50602 43.37005 68.23800
#
# Poissons Ratio (x) = 0.00010 0.20398
# Poissons Ratio (y) = 0.00030 -0.13391
# Poissons Ratio (z) = 0.38413 -0.08511
#
# Static dielectric constant tensor:
#      x y z
#    x 1.859520 0.000000 0.015320 
#    y 0.000000 1.756730 0.000000 
#    z 0.015320 0.000000 1.827640 
# 
# From -- ./inp_files/238422.got.cif
#   From: 2010.05.17/outbox.cif.g08.bks.cpg/sg12_120_cif.got.tgz:238422.got - 2010.06.03 13:09:07.
