data_PCOD9197188
_publ_section_title
;
Structure prediction by ZEFSAII (Michael W. Deem and Ramdas Pophale) SiO2 
 PCOD9197188
Probable space group: C 2/M
;
_chemical_formula_sum "Si O2"
_cell_formula_units_Z 48
_cell_length_a 21.573961
_cell_length_b 11.607975
_cell_length_c 15.581113
_cell_angle_alpha 90.000000
_cell_angle_beta 32.008775
_cell_angle_gamma 90.000000
_cell_volume 2068.240146
_symmetry_space_group_name_H-M "C 2/M"
_symmetry_group_IT_number 12
_symmetry_cell_setting 'monoclinic'
loop_
_space_group_symop_operation_xyz
x,y,z
-x,y,-z
-x,-y,-z
x,-y,z
1/2+x,1/2+y,z
1/2-x,1/2+y,-z
1/2-x,1/2-y,-z
1/2+x,1/2-y,z
loop_
_atom_site_type_symbol
_atom_site_label
_atom_site_fract_x
_atom_site_fract_y
_atom_site_fract_z
Si Si1 0.968659 0.788441 0.441180
Si Si2 0.080290 0.872540 0.991322
Si Si3 0.724049 0.173274 0.789662
Si Si4 0.784448 0.129424 0.909909
Si Si5 0.327738 0.124885 0.494051
Si Si6 0.109892 0.298891 0.756711
O O1 0.847591 0.856527 0.600700
O O2 0.931338 0.684446 0.424391
O O3 0.000000 0.747827 0.500000
O O4 0.077037 0.856275 0.273870
O O5 0.006734 0.774164 0.125840
O O6 0.088155 0.000000 0.019507
O O7 0.203617 0.811808 0.827365
O O8 0.000000 0.881446 0.000000
O O9 0.724210 0.127688 0.886011
O O10 0.626750 0.146294 0.831526
O O11 0.763425 0.000000 0.972995
O O12 0.750000 0.250000 0.000000
O O13 0.214265 0.205071 0.630938
O O14 0.366529 0.119693 0.349969
O O15 0.297257 0.000000 0.563812
#
# Coordination Sequence:
#
# PCOD9197188 Si02
#       6
#     8   8   8   8   8   8
#     4   9  21  42  64  90 125 167 217 268 317 383
#     4   9  17  32  57  88 127 170 212 257 315 386
#     4   9  20  39  64  93 127 165 217 272 321 384
#     4  11  26  47  69  97 130 170 219 275 334 396
#     4  10  20  35  58  89 130 171 216 270 326 385
#     4   9  19  36  57  92 130 168 216 265 326 389
#
# _framework density 23.208138000000002
#
# number of rings (size 3 to 8) (size 9 to 14) (size 15 to 20)
#    0.000    2.500    0.000    0.500    2.333    9.333 
#    0.000   11.667    0.000    3.000    0.000    0.000 
#    0.000    0.000    0.000    0.000    0.000    0.000 
#
# Total GULP energy -133691.759287 kJ/mol
# GULP energy per Si atom -5570.489970 kJ/mol
# Density = 2.315532 g / cm^3
# Si number density = 23.208138 Si / 1000 Ang^3
#
#
#
# Elastic Constant Matrix: (Units=GPa)
#
#
# Indices 1 2 3 4 5 6 
#
# 1 93.6465 35.6144 19.1511 0.0000 9.0621 0.0000
# 2 35.6144 154.4939 38.3064 0.0000 0.6649 0.0000
# 3 19.1511 38.3064 99.7377 0.0000 -10.3986 0.0000
# 4 0.0000 0.0000 0.0000 8.2821 0.0000 0.9710
# 5 9.0621 0.6649 -10.3986 0.0000 33.7198 0.0000
# 6 0.0000 0.0000 0.0000 0.9710 0.0000 10.2508
#
#
#
# Elastic Compliance Matrix: (Units=1/GPa)
#
#
# Indices 1 2 3 4 5 6 
#
# 1 0.012330 -0.002365 -0.001860 0.000000 -0.003840 0.000000
# 2 -0.002365 0.007642 -0.002511 0.000000 -0.000290 0.000000
# 3 -0.001860 -0.002511 0.011784 0.000000 0.004183 0.000000
# 4 0.000000 0.000000 0.000000 0.122099 0.000000 -0.011565
# 5 -0.003840 -0.000290 0.004183 0.000000 0.031984 0.000000
# 6 0.000000 0.000000 0.000000 -0.011565 0.000000 0.098649
#
#
# Mechanical properties :
#
#
# Convention : Reuss Voigt Hill
#
# Bulk Modulus (GPa) = 54.69115 59.33579 57.01347
# Shear Modulus (GPa) = 16.44450 27.43761 21.94106
#
# Velocity S-wave (km/s) = 2.66478 3.44210 3.07808
# Velocity P-wave (km/s) = 5.75193 6.43582 6.10346
#
# Compressibility (1/GPa) = 0.01828449
#
# Stress axis : x y z
#
# Youngs Moduli (GPa) = 81.10497 130.86057 84.86097
#
# Poissons Ratio (x) = 0.30944 0.15782
# Poissons Ratio (y) = 0.19178 0.21309
# Poissons Ratio (z) = 0.15083 0.32860
#
# Static dielectric constant tensor:
#      x y z
#    x 1.902070 0.000000 0.025340 
#    y 0.000000 1.874580 0.000000 
#    z 0.025340 0.000000 1.967530 
# 
# From -- ./inp_files/289325.got.cif
#   From: 2010.05.17/outbox.cif.g08.bks.cpg/sg12_145_cif.got.tgz:289325.got - 2010.06.03 13:09:07.
