data_PCOD9197654
_publ_section_title
;
Structure prediction by ZEFSAII (Michael W. Deem and Ramdas Pophale) SiO2 
 PCOD9197654
Probable space group: C 2/M
;
_chemical_formula_sum "Si O2"
_cell_formula_units_Z 56
_cell_length_a 22.304251
_cell_length_b 11.343611
_cell_length_c 11.796750
_cell_angle_alpha 90.000000
_cell_angle_beta 71.596535
_cell_angle_gamma 90.000000
_cell_volume 2832.057549
_symmetry_space_group_name_H-M "C 2/M"
_symmetry_group_IT_number 12
_symmetry_cell_setting 'monoclinic'
loop_
_space_group_symop_operation_xyz
x,y,z
-x,y,-z
-x,-y,-z
x,-y,z
1/2+x,1/2+y,z
1/2-x,1/2+y,-z
1/2-x,1/2-y,-z
1/2+x,1/2-y,z
loop_
_atom_site_type_symbol
_atom_site_label
_atom_site_fract_x
_atom_site_fract_y
_atom_site_fract_z
Si Si1 0.575838 0.365890 0.941498
Si Si2 0.237540 0.629353 0.354643
Si Si3 0.480835 0.362400 0.380057
Si Si4 0.858846 0.369028 0.191164
Si Si5 0.844793 0.756190 0.422022
Si Si6 0.394434 0.636880 0.814009
Si Si7 0.258445 0.269310 0.861741
O O1 0.590649 0.500000 0.888313
O O2 0.600050 0.248510 0.863011
O O3 0.500000 0.361305 0.000000
O O4 0.604710 0.357307 0.050451
O O5 0.211243 0.500000 0.382697
O O6 0.189821 0.720845 0.441565
O O7 0.302366 0.645114 0.385540
O O8 0.250289 0.657955 0.215908
O O9 0.500000 0.357507 0.500000
O O10 0.471358 0.500000 0.354189
O O11 0.415900 0.295565 0.398623
O O12 0.539731 0.313292 0.272672
O O13 0.886502 0.500000 0.155790
O O14 0.842160 0.350873 0.333293
O O15 0.794880 0.357093 0.154981
O O16 0.394348 0.500000 0.780323
O O17 0.330675 0.691310 0.804704
O O18 0.250000 0.250000 0.000000
#
# Coordination Sequence:
#
# PCOD9197654 Si02
#       7
#     8   8   8   8   8   8   8
#     4  10  21  38  60  86 117 158 208 256 307 369
#     4  10  22  38  62  89 119 162 207 253 306 373
#     4  10  20  35  61  91 119 156 201 259 317 369
#     4  11  23  38  61  90 125 165 205 255 318 376
#     4  10  21  39  60  89 125 158 202 255 312 376
#     4  10  20  36  57  84 118 153 198 253 309 367
#     4  11  22  39  59  88 122 162 204 258 312 372
#
# _framework density 19.773609
#
# number of rings (size 3 to 8) (size 9 to 14) (size 15 to 20)
#    0.000    1.714    1.429    3.000    0.000    5.429 
#    0.000    4.286    0.000    9.429    0.000    0.000 
#    0.000    0.000    0.000    0.000    0.000    0.000 
#
# Total GULP energy -156220.876561 kJ/mol
# GULP energy per Si atom -5579.317020 kJ/mol
# Density = 1.972860 g / cm^3
# Si number density = 19.773609 Si / 1000 Ang^3
#
#
#
# Elastic Constant Matrix: (Units=GPa)
#
#
# Indices 1 2 3 4 5 6 
#
# 1 115.7797 28.8088 26.7160 0.0000 -4.2401 0.0000
# 2 28.8088 89.9511 27.9829 0.0000 -2.4328 0.0000
# 3 26.7160 27.9829 98.9422 0.0000 5.7117 0.0000
# 4 0.0000 0.0000 0.0000 12.6487 0.0000 -8.9020
# 5 -4.2401 -2.4328 5.7117 0.0000 33.8337 0.0000
# 6 0.0000 0.0000 0.0000 -8.9020 0.0000 6.5661
#
#
#
# Elastic Compliance Matrix: (Units=1/GPa)
#
#
# Indices 1 2 3 4 5 6 
#
# 1 0.009767 -0.002462 -0.002021 0.000000 0.001388 0.000000
# 2 -0.002462 0.012883 -0.003044 0.000000 0.001132 0.000000
# 3 -0.002021 -0.003044 0.011654 0.000000 -0.002440 0.000000
# 4 0.000000 0.000000 0.000000 1.724640 0.000000 2.338191
# 5 0.001388 0.001132 -0.002440 0.000000 0.030224 0.000000
# 6 0.000000 0.000000 0.000000 2.338191 0.000000 3.322315
#
#
# Mechanical properties :
#
#
# Convention : Reuss Voigt Hill
#
# Bulk Modulus (GPa) = 51.94730 52.40982 52.17856
# Shear Modulus (GPa) = 0.97410 25.35403 13.16407
#
# Velocity S-wave (km/s) = 0.70263 3.58469 2.58299
# Velocity P-wave (km/s) = 5.19484 6.61028 5.94483
#
# Compressibility (1/GPa) = 0.01925028
#
# Stress axis : x y z
#
# Youngs Moduli (GPa) = 102.38716 77.62021 85.80402
#
# Poissons Ratio (x) = 0.19108 0.17342
# Poissons Ratio (y) = 0.25205 0.26121
# Poissons Ratio (z) = 0.20694 0.23630
#
# Static dielectric constant tensor:
#      x y z
#    x 1.691380 0.000000 -0.023490 
#    y 0.000000 1.694850 0.000000 
#    z -0.023490 0.000000 1.742220 
# 
# From -- ./inp_files/165629.got.cif
#   From: 2010.05.17/outbox.cif.g08.bks.cpg/sg12_83_cif.got.tgz:165629.got - 2010.06.03 13:09:07.
