data_PCOD9197238
_publ_section_title
;
Structure prediction by ZEFSAII (Michael W. Deem and Ramdas Pophale) SiO2 
 PCOD9197238
Probable space group: C 2/M
;
_chemical_formula_sum "Si O2"
_cell_formula_units_Z 64
_cell_length_a 11.949941
_cell_length_b 24.756787
_cell_length_c 13.243585
_cell_angle_alpha 90.000000
_cell_angle_beta 109.885703
_cell_angle_gamma 90.000000
_cell_volume 3684.391491
_symmetry_space_group_name_H-M "C 2/M"
_symmetry_group_IT_number 12
_symmetry_cell_setting 'monoclinic'
loop_
_space_group_symop_operation_xyz
x,y,z
-x,y,-z
-x,-y,-z
x,-y,z
1/2+x,1/2+y,z
1/2-x,1/2+y,-z
1/2-x,1/2-y,-z
1/2+x,1/2-y,z
loop_
_atom_site_type_symbol
_atom_site_label
_atom_site_fract_x
_atom_site_fract_y
_atom_site_fract_z
Si Si1 0.066517 0.845200 0.121196
Si Si2 0.463384 0.560950 0.730135
Si Si3 0.126973 0.358876 0.095341
Si Si4 0.729578 0.563851 0.719719
Si Si5 0.781247 0.693378 0.063053
Si Si6 0.126829 0.895104 0.490265
Si Si7 0.969298 0.731881 0.795557
Si Si8 0.608827 0.267016 0.450832
O O1 0.065092 0.893283 0.198650
O O2 0.193857 0.825528 0.122582
O O3 0.010394 0.790731 0.149523
O O4 0.000000 0.862188 0.000000
O O5 0.456195 0.500000 0.766650
O O6 0.598645 0.569889 0.731016
O O7 0.371239 0.569489 0.609682
O O8 0.174309 0.406351 0.180744
O O9 0.118882 0.304532 0.162372
O O10 0.214875 0.348209 0.028915
O O11 0.000000 0.367241 0.000000
O O12 0.751832 0.500000 0.715887
O O13 0.720847 0.591812 0.606696
O O14 0.908625 0.699965 0.154062
O O15 0.750000 0.750000 0.000000
O O16 0.117671 0.832293 0.457267
O O17 0.000000 0.909959 0.500000
O O18 0.931992 0.742834 0.669411
O O19 0.500000 0.253910 0.500000
O O20 0.750000 0.250000 0.500000
#
# Coordination Sequence:
#
# PCOD9197238 Si02
#       8
#     8   8   8   8   8   8   8   8
#     4  12  21  34  56  82 113 153 192 230 292 345
#     4  10  21  35  53  81 115 147 187 236 289 350
#     4  10  21  38  54  82 114 145 195 238 284 338
#     4  10  20  35  59  82 108 150 192 241 290 340
#     4  11  21  34  55  81 113 151 190 234 281 356
#     4   9  18  34  55  81 112 148 190 234 289 351
#     4  11  22  36  57  84 115 151 189 238 289 352
#     4  11  24  37  56  89 121 158 192 241 300 357
#
# _framework density 17.370574999999999
#
# number of rings (size 3 to 8) (size 9 to 14) (size 15 to 20)
#    0.000    1.500    3.750    2.250    1.750    2.000 
#    0.000    0.625    0.000    0.750    0.000    0.000 
#    0.000   11.500    0.000    0.000    0.000    0.000 
#
# Total GULP energy -178246.710946 kJ/mol
# GULP energy per Si atom -5570.209717 kJ/mol
# Density = 1.733104 g / cm^3
# Si number density = 17.370575 Si / 1000 Ang^3
#
#
#
# Elastic Constant Matrix: (Units=GPa)
#
#
# Indices 1 2 3 4 5 6 
#
# 1 51.2130 25.1921 23.7778 0.0000 -5.3231 0.0000
# 2 25.1921 86.8439 51.9123 0.0000 -6.5680 0.0000
# 3 23.7778 51.9123 131.4894 0.0000 8.4749 0.0000
# 4 0.0000 0.0000 0.0000 20.4838 0.0000 1.1594
# 5 -5.3231 -6.5680 8.4749 0.0000 17.5441 0.0000
# 6 0.0000 0.0000 0.0000 1.1594 0.0000 17.7045
#
#
#
# Elastic Compliance Matrix: (Units=1/GPa)
#
#
# Indices 1 2 3 4 5 6 
#
# 1 0.023897 -0.004658 -0.002928 0.000000 0.006921 0.000000
# 2 -0.004658 0.017419 -0.006568 0.000000 0.008281 0.000000
# 3 -0.002928 -0.006568 0.011295 0.000000 -0.008804 0.000000
# 4 0.000000 0.000000 0.000000 0.049001 0.000000 -0.003209
# 5 0.006921 0.008281 -0.008804 0.000000 0.066452 0.000000
# 6 0.000000 0.000000 0.000000 -0.003209 0.000000 0.056693
#
#
# Mechanical properties :
#
#
# Convention : Reuss Voigt Hill
#
# Bulk Modulus (GPa) = 41.15039 52.36786 46.75913
# Shear Modulus (GPa) = 19.14487 22.39075 20.76781
#
# Velocity S-wave (km/s) = 3.32346 3.59417 3.46146
# Velocity P-wave (km/s) = 6.20228 6.88745 6.55382
#
# Compressibility (1/GPa) = 0.02430110
#
# Stress axis : x y z
#
# Youngs Moduli (GPa) = 41.84676 57.40942 88.53187
#
# Poissons Ratio (x) = 0.26742 0.25926
# Poissons Ratio (y) = 0.19493 0.58151
# Poissons Ratio (z) = 0.12254 0.37708
#
# Static dielectric constant tensor:
#      x y z
#    x 1.590420 0.000000 0.039170 
#    y 0.000000 1.573290 0.000000 
#    z 0.039170 0.000000 1.567420 
# 
# From -- ./inp_files/135982.got.cif
#   From: 2010.05.17/outbox.cif.g08.bks.cpg/sg12_68_cif.got.tgz:135982.got - 2010.06.03 13:09:07.
