data_PCOD9197603
_publ_section_title
;
Structure prediction by ZEFSAII (Michael W. Deem and Ramdas Pophale) SiO2 
 PCOD9197603
Probable space group: C 2/M
;
_chemical_formula_sum "Si O2"
_cell_formula_units_Z 64
_cell_length_a 8.452550
_cell_length_b 21.850404
_cell_length_c 16.368752
_cell_angle_alpha 90.000000
_cell_angle_beta 98.096329
_cell_angle_gamma 90.000000
_cell_volume 2993.038618
_symmetry_space_group_name_H-M "C 2/M"
_symmetry_group_IT_number 12
_symmetry_cell_setting 'monoclinic'
loop_
_space_group_symop_operation_xyz
x,y,z
-x,y,-z
-x,-y,-z
x,-y,z
1/2+x,1/2+y,z
1/2-x,1/2+y,-z
1/2-x,1/2-y,-z
1/2+x,1/2-y,z
loop_
_atom_site_type_symbol
_atom_site_label
_atom_site_fract_x
_atom_site_fract_y
_atom_site_fract_z
Si Si1 0.253637 0.260475 0.195577
Si Si2 0.050332 0.155826 0.244830
Si Si3 0.246858 0.571905 0.639073
Si Si4 0.943259 0.072752 0.087925
Si Si5 0.585317 0.930059 0.120753
Si Si6 0.452888 0.810359 0.086627
Si Si7 0.412886 0.072408 0.686113
Si Si8 0.673512 0.427364 0.535979
O O1 0.191920 0.205340 0.246561
O O2 0.390026 0.304019 0.240954
O O3 0.314090 0.228472 0.116406
O O4 0.100091 0.298650 0.158433
O O5 0.099921 0.109124 0.318763
O O6 0.030021 0.115895 0.160399
O O7 0.272368 0.500000 0.659321
O O8 0.226002 0.577174 0.540380
O O9 0.088974 0.594944 0.674457
O O10 0.753145 0.083077 0.087717
O O11 0.972409 0.000000 0.105913
O O12 0.000000 0.086361 0.000000
O O13 0.444423 0.883706 0.086568
O O14 0.617202 0.924140 0.220086
O O15 0.538769 0.000000 0.101346
O O16 0.500000 0.789874 0.000000
O O17 0.273321 0.098819 0.618908
O O18 0.420215 0.000000 0.666355
O O19 0.500000 0.401343 0.500000
O O20 0.646589 0.500000 0.551575
#
# Coordination Sequence:
#
# PCOD9197603 Si02
#       8
#     8   8   8   8   8   8   8   8
#     4  10  24  39  56  82 110 149 200 250 299 334
#     4  11  22  40  61  84 115 153 199 252 291 354
#     4  10  20  35  60  93 123 157 192 235 299 359
#     4  10  22  38  58  85 121 157 192 241 303 361
#     4  10  21  37  58  86 117 157 193 234 297 356
#     4  11  22  38  58  81 108 147 192 249 294 344
#     4   9  18  34  54  83 127 161 191 232 284 355
#     4   9  18  30  52  89 129 161 190 230 284 352
#
# _framework density 21.382950000000001
#
# number of rings (size 3 to 8) (size 9 to 14) (size 15 to 20)
#    0.000    2.000    1.250    1.875    3.500    3.750 
#    0.000    0.625    0.000    0.000    0.000   21.875 
#    0.000    0.000    0.000    0.000    0.000    0.000 
#
# Total GULP energy -178715.816304 kJ/mol
# GULP energy per Si atom -5584.869259 kJ/mol
# Density = 2.133428 g / cm^3
# Si number density = 21.382950 Si / 1000 Ang^3
#
#
#
# Elastic Constant Matrix: (Units=GPa)
#
#
# Indices 1 2 3 4 5 6 
#
# 1 58.5511 23.5416 23.7711 0.0000 2.4002 0.0000
# 2 23.5416 72.0201 15.8423 0.0000 9.2315 0.0000
# 3 23.7711 15.8423 60.0391 0.0000 13.8762 0.0000
# 4 0.0000 0.0000 0.0000 11.0250 0.0000 -0.2784
# 5 2.4002 9.2315 13.8762 0.0000 29.2054 0.0000
# 6 0.0000 0.0000 0.0000 -0.2784 0.0000 5.9129
#
#
#
# Elastic Compliance Matrix: (Units=1/GPa)
#
#
# Indices 1 2 3 4 5 6 
#
# 1 0.022755 -0.006122 -0.008323 0.000000 0.004020 0.000000
# 2 -0.006122 0.016652 -0.000977 0.000000 -0.004296 0.000000
# 3 -0.008323 -0.000977 0.022444 0.000000 -0.009671 0.000000
# 4 0.000000 0.000000 0.000000 0.090811 0.000000 0.004276
# 5 0.004020 -0.004296 -0.009671 0.000000 0.039863 0.000000
# 6 0.000000 0.000000 0.000000 0.004276 0.000000 0.169322
#
#
# Mechanical properties :
#
#
# Convention : Reuss Voigt Hill
#
# Bulk Modulus (GPa) = 32.25135 35.21337 33.73236
# Shear Modulus (GPa) = 12.40612 17.72567 15.06590
#
# Velocity S-wave (km/s) = 2.41132 2.88230 2.65726
# Velocity P-wave (km/s) = 4.78206 5.25172 5.02238
#
# Compressibility (1/GPa) = 0.03100645
#
# Stress axis : x y z
#
# Youngs Moduli (GPa) = 43.94650 60.05335 44.55541
#
# Poissons Ratio (x) = 0.36768 0.37083
# Poissons Ratio (y) = 0.26906 0.04352
# Poissons Ratio (z) = 0.36576 0.05866
#
# Static dielectric constant tensor:
#      x y z
#    x 1.810140 0.000000 -0.013580 
#    y 0.000000 1.821800 0.000000 
#    z -0.013580 0.000000 1.754620 
# 
# From -- ./inp_files/258101.got.cif
#   From: 2010.05.17/outbox.cif.g08.bks.cpg/sg12_130_cif.got.tgz:258101.got - 2010.06.03 13:09:07.
