data_PCOD9197120
_publ_section_title
;
Structure prediction by ZEFSAII (Michael W. Deem and Ramdas Pophale) SiO2 
 PCOD9197120
Probable space group: C 2/M
;
_chemical_formula_sum "Si O2"
_cell_formula_units_Z 48
_cell_length_a 22.479350
_cell_length_b 7.710064
_cell_length_c 12.695173
_cell_angle_alpha 90.000000
_cell_angle_beta 109.477643
_cell_angle_gamma 90.000000
_cell_volume 2074.373140
_symmetry_space_group_name_H-M "C 2/M"
_symmetry_group_IT_number 12
_symmetry_cell_setting 'monoclinic'
loop_
_space_group_symop_operation_xyz
x,y,z
-x,y,-z
-x,-y,-z
x,-y,z
1/2+x,1/2+y,z
1/2-x,1/2+y,-z
1/2-x,1/2-y,-z
1/2+x,1/2-y,z
loop_
_atom_site_type_symbol
_atom_site_label
_atom_site_fract_x
_atom_site_fract_y
_atom_site_fract_z
Si Si1 0.094601 0.698809 0.031302
Si Si2 0.628352 0.791690 0.834738
Si Si3 0.573517 0.293663 0.251191
Si Si4 0.521317 0.709047 0.627259
Si Si5 0.714717 0.292798 0.372484
Si Si6 0.760960 0.789201 0.842421
O O1 0.074886 0.500000 0.013821
O O2 0.063970 0.768197 0.120351
O O3 0.170699 0.713070 0.091051
O O4 0.089016 0.780371 0.911565
O O5 0.591553 0.754163 0.705783
O O6 0.700440 0.728111 0.872040
O O7 0.631581 0.000000 0.848627
O O8 0.574621 0.500000 0.267171
O O9 0.523600 0.222648 0.305303
O O10 0.643251 0.223595 0.321062
O O11 0.500000 0.772905 0.500000
O O12 0.517134 0.500000 0.622246
O O13 0.709502 0.500000 0.364858
O O14 0.750000 0.250000 0.500000
O O15 0.750442 0.241731 0.286763
O O16 0.765984 0.000000 0.853833
#
# Coordination Sequence:
#
# PCOD9197120 Si02
#       6
#     8   8   8   8   8   8
#     4  10  20  35  58  88 115 143 186 234 277 329
#     4  10  22  38  57  84 117 150 185 229 282 333
#     4   9  20  39  57  77 112 149 182 230 283 331
#     4  10  23  41  60  82 109 147 194 236 275 327
#     4   9  18  31  51  77 105 140 179 221 271 325
#     4   9  19  36  55  80 116 151 181 223 282 338
#
# _framework density 23.139520999999998
#
# number of rings (size 3 to 8) (size 9 to 14) (size 15 to 20)
#    0.000    2.500    0.000    2.000    2.333    6.333 
#    0.000    3.333    0.000    0.000    0.000    0.000 
#    0.000    0.000    0.000    0.000    0.000    0.000 
#
# Total GULP energy -133993.470950 kJ/mol
# GULP energy per Si atom -5583.061290 kJ/mol
# Density = 2.308685 g / cm^3
# Si number density = 23.139521 Si / 1000 Ang^3
#
#
#
# Elastic Constant Matrix: (Units=GPa)
#
#
# Indices 1 2 3 4 5 6 
#
# 1 105.8296 4.0431 28.1215 0.0000 -18.8026 0.0000
# 2 4.0431 37.1566 -9.2268 0.0000 -6.4719 0.0000
# 3 28.1215 -9.2268 132.5560 0.0000 -6.9559 0.0000
# 4 0.0000 0.0000 0.0000 23.1130 0.0000 -3.1231
# 5 -18.8026 -6.4719 -6.9559 0.0000 29.9610 0.0000
# 6 0.0000 0.0000 0.0000 -3.1231 0.0000 9.5112
#
#
#
# Elastic Compliance Matrix: (Units=1/GPa)
#
#
# Indices 1 2 3 4 5 6 
#
# 1 0.011159 -0.000617 -0.002075 0.000000 0.006388 0.000000
# 2 -0.000617 0.028704 0.002464 0.000000 0.006385 0.000000
# 3 -0.002075 0.002464 0.008215 0.000000 0.001137 0.000000
# 4 0.000000 0.000000 0.000000 0.045274 0.000000 0.014866
# 5 0.006388 0.006385 0.001137 0.000000 0.039029 0.000000
# 6 0.000000 0.000000 0.000000 0.014866 0.000000 0.110021
#
#
# Mechanical properties :
#
#
# Convention : Reuss Voigt Hill
#
# Bulk Modulus (GPa) = 20.99837 35.71308 28.35573
# Shear Modulus (GPa) = 19.32490 29.35732 24.34111
#
# Velocity S-wave (km/s) = 2.89303 3.56576 3.24686
# Velocity P-wave (km/s) = 4.50043 5.69387 5.13196
#
# Compressibility (1/GPa) = 0.04762275
#
# Stress axis : x y z
#
# Youngs Moduli (GPa) = 89.61299 34.83801 121.72259
#
# Poissons Ratio (x) = 0.02149 0.25259
# Poissons Ratio (y) = 0.05528 -0.29992
# Poissons Ratio (z) = 0.18596 -0.08584
#
# Static dielectric constant tensor:
#      x y z
#    x 1.896650 0.000000 -0.014240 
#    y 0.000000 1.862190 0.000000 
#    z -0.014240 0.000000 1.892210 
# 
# From -- ./inp_files/173064.got.cif
#   From: 2010.05.17/outbox.cif.g08.bks.cpg/sg12_87_cif.got.tgz:173064.got - 2010.06.03 13:09:07.
