data_PCOD9197082
_publ_section_title
;
Structure prediction by ZEFSAII (Michael W. Deem and Ramdas Pophale) SiO2 
 PCOD9197082
Probable space group: C 2/M
;
_chemical_formula_sum "Si O2"
_cell_formula_units_Z 48
_cell_length_a 24.866718
_cell_length_b 14.989224
_cell_length_c 18.833048
_cell_angle_alpha 90.000000
_cell_angle_beta 161.109284
_cell_angle_gamma 90.000000
_cell_volume 2272.725276
_symmetry_space_group_name_H-M "C 2/M"
_symmetry_group_IT_number 12
_symmetry_cell_setting 'monoclinic'
loop_
_space_group_symop_operation_xyz
x,y,z
-x,y,-z
-x,-y,-z
x,-y,z
1/2+x,1/2+y,z
1/2-x,1/2+y,-z
1/2-x,1/2-y,-z
1/2+x,1/2-y,z
loop_
_atom_site_type_symbol
_atom_site_label
_atom_site_fract_x
_atom_site_fract_y
_atom_site_fract_z
Si Si1 0.174094 0.847626 0.417088
Si Si2 0.649338 0.398516 0.909696
Si Si3 0.167034 0.141482 0.248399
Si Si4 0.500647 0.142420 0.419239
Si Si5 0.667129 0.860286 0.246157
Si Si6 0.996346 0.142356 0.576139
O O1 0.250000 0.750000 0.500000
O O2 0.164250 0.888446 0.326713
O O3 0.294537 0.891069 0.626091
O O4 0.992359 0.841123 0.227055
O O5 0.600455 0.500000 0.863743
O O6 0.635591 0.383629 0.807820
O O7 0.831972 0.382765 0.168161
O O8 0.333952 0.113751 0.415975
O O9 0.164816 0.250986 0.244972
O O10 0.000000 0.112563 0.000000
O O11 0.500000 0.110336 0.500000
O O12 0.503422 0.250133 0.425357
O O13 0.824320 0.887548 0.396063
O O14 0.500000 0.890032 0.000000
O O15 0.000000 0.110195 0.500000
#
# Coordination Sequence:
#
# PCOD9197082 Si02
#       6
#     8   8   8   8   8   8
#     4   9  18  33  54  77 103 144 192 234 276 333
#     4  11  23  38  56  83 122 156 185 237 303 351
#     4   9  16  29  51  78 105 136 183 237 280 323
#     4  10  20  35  58  87 116 151 198 243 285 339
#     4   8  15  27  47  77 104 129 171 232 287 319
#     4   9  19  34  56  83 111 149 196 239 276 334
#
# _framework density 21.120018999999999
#
# number of rings (size 3 to 8) (size 9 to 14) (size 15 to 20)
#    0.000    2.667    0.000    2.500    0.000    6.000 
#    0.000    0.833    0.000   10.000    0.000    0.000 
#    0.000    0.000    0.000    0.000    0.000    0.000 
#
# Total GULP energy -133940.158374 kJ/mol
# GULP energy per Si atom -5580.839932 kJ/mol
# Density = 2.107195 g / cm^3
# Si number density = 21.120019 Si / 1000 Ang^3
#
#
#
# Elastic Constant Matrix: (Units=GPa)
#
#
# Indices 1 2 3 4 5 6 
#
# 1 195.2626 10.2538 116.9324 0.0002 -42.5873 -0.0001
# 2 10.2538 61.3135 7.6885 0.0008 3.3345 0.0002
# 3 116.9324 7.6885 216.9686 0.0006 -36.5876 0.0002
# 4 0.0002 0.0008 0.0006 42.2043 0.0004 -32.6803
# 5 -42.5873 3.3345 -36.5876 0.0004 36.9688 0.0001
# 6 -0.0001 0.0002 0.0002 -32.6803 0.0001 12.6411
#
#
#
# Elastic Compliance Matrix: (Units=1/GPa)
#
#
# Indices 1 2 3 4 5 6 
#
# 1 0.008791 -0.001391 -0.003553 0.000000 0.006737 0.000000
# 2 -0.001391 0.016792 -0.000445 0.000000 -0.003558 0.000001
# 3 -0.003553 -0.000445 0.007029 0.000000 0.002904 0.000000
# 4 0.000000 0.000000 0.000000 -0.023651 0.000001 -0.061143
# 5 0.006737 -0.003558 0.002904 0.000001 0.038006 0.000001
# 6 0.000000 0.000001 0.000000 -0.061143 0.000001 -0.078962
#
#
# Mechanical properties :
#
#
# Convention : Reuss Voigt Hill
#
# Bulk Modulus (GPa) = 45.80011 82.58824 64.19418
# Shear Modulus (GPa) = -358.69058 40.94086 -158.87486
#
# Velocity S-wave (km/s) = -13.04619 4.40760 -8.68263
# Velocity P-wave (km/s) = 14.32497 8.06794 8.36998
#
# Compressibility (1/GPa) = 0.02183401
#
# Stress axis : x y z
#
# Youngs Moduli (GPa) = 113.75191 59.55367 142.26597
#
# Poissons Ratio (x) = 0.08284 0.50540
# Poissons Ratio (y) = 0.15824 0.06335
# Poissons Ratio (z) = 0.40411 0.02652
#
# Static dielectric constant tensor:
#      x y z
#    x 1.760890 0.000000 -0.029410 
#    y 0.000000 1.777210 0.000000 
#    z -0.029410 0.000000 1.731690 
# 
# From -- ./inp_files/290569.got.cif
#   From: 2010.05.17/outbox.cif.g08.bks.cpg/sg12_146_cif.got.tgz:290569.got - 2010.06.03 13:09:07.
