data_PCOD9197600
_publ_section_title
;
Structure prediction by ZEFSAII (Michael W. Deem and Ramdas Pophale) SiO2 
 PCOD9197600
Probable space group: C 2/M
;
_chemical_formula_sum "Si O2"
_cell_formula_units_Z 50
_cell_length_a 16.324259
_cell_length_b 15.030474
_cell_length_c 10.457843
_cell_angle_alpha 90.000000
_cell_angle_beta 112.060579
_cell_angle_gamma 90.000000
_cell_volume 2378.090226
_symmetry_space_group_name_H-M "C 2/M"
_symmetry_group_IT_number 12
_symmetry_cell_setting 'monoclinic'
loop_
_space_group_symop_operation_xyz
x,y,z
-x,y,-z
-x,-y,-z
x,-y,z
1/2+x,1/2+y,z
1/2-x,1/2+y,-z
1/2-x,1/2-y,-z
1/2+x,1/2-y,z
loop_
_atom_site_type_symbol
_atom_site_label
_atom_site_fract_x
_atom_site_fract_y
_atom_site_fract_z
Si Si1 0.410287 0.647219 0.812928
Si Si2 0.076504 0.642695 0.140496
Si Si3 0.222123 0.104286 0.724503
Si Si4 0.500000 0.500000 0.000000
Si Si5 0.743100 0.106887 0.550743
Si Si6 0.467979 0.341390 0.343867
Si Si7 0.049081 0.645175 0.410735
O O1 0.426545 0.749658 0.855359
O O2 0.314897 0.638669 0.693086
O O3 0.479861 0.615626 0.743693
O O4 0.425371 0.578910 0.934967
O O5 0.178339 0.620465 0.166991
O O6 0.056657 0.606583 0.272212
O O7 0.000000 0.612167 0.000000
O O8 0.225034 0.126038 0.574781
O O9 0.137137 0.153107 0.732103
O O10 0.203135 0.000000 0.726288
O O11 0.650205 0.155513 0.512939
O O12 0.730140 0.000000 0.552873
O O13 0.500000 0.379781 0.500000
O O14 0.500699 0.239479 0.364884
O O15 0.000000 0.598874 0.500000
#
# Coordination Sequence:
#
# PCOD9197600 Si02
#       7
#     8   8   8   2   8   8   8
#     4  11  22  37  61  84 124 162 202 243 298 363
#     4  10  22  41  62  87 121 165 202 244 307 371
#     4  10  22  37  62  95 119 150 201 255 310 359
#     4  12  24  40  54  88 120 168 204 238 294 360
#     4  10  20  36  60  89 117 159 202 251 296 357
#     4  10  20  35  60  93 120 146 190 259 308 347
#     4   9  21  37  60  89 118 153 204 250 298 351
#
# _framework density 21.025275000000001
#
# number of rings (size 3 to 8) (size 9 to 14) (size 15 to 20)
#    0.000    1.920    3.200    0.000    5.600    2.880 
#    0.000    4.800    0.000    0.000    0.000    0.000 
#    0.000    0.000    0.000    0.000    0.000    0.000 
#
# Total GULP energy -139317.211933 kJ/mol
# GULP energy per Si atom -5572.688477 kJ/mol
# Density = 2.097742 g / cm^3
# Si number density = 21.025275 Si / 1000 Ang^3
#
#
#
# Elastic Constant Matrix: (Units=GPa)
#
#
# Indices 1 2 3 4 5 6 
#
# 1 144.4755 22.3855 48.0652 0.0000 34.7064 0.0000
# 2 22.3855 82.3124 7.0823 0.0000 7.3777 0.0000
# 3 48.0652 7.0823 119.0525 0.0000 46.3352 0.0000
# 4 0.0000 0.0000 0.0000 2.8819 0.0000 -0.1750
# 5 34.7064 7.3777 46.3352 0.0000 37.5897 0.0000
# 6 0.0000 0.0000 0.0000 -0.1750 0.0000 -1.1187
#
#
#
# Elastic Compliance Matrix: (Units=1/GPa)
#
#
# Indices 1 2 3 4 5 6 
#
# 1 0.009182 -0.001789 -0.000841 0.000000 -0.007089 0.000000
# 2 -0.001789 0.012725 0.000566 0.000000 -0.001543 0.000000
# 3 -0.000841 0.000566 0.016236 0.000000 -0.019347 0.000000
# 4 0.000000 0.000000 0.000000 0.343726 0.000000 -0.053776
# 5 -0.007089 -0.001543 -0.019347 0.000000 0.057299 0.000000
# 6 0.000000 0.000000 0.000000 -0.053776 0.000000 -0.885455
#
#
# Mechanical properties :
#
#
# Convention : Reuss Voigt Hill
#
# Bulk Modulus (GPa) = 29.40060 55.65627 42.52844
# Shear Modulus (GPa) = -11.60576 25.75774 7.07599
#
# Velocity S-wave (km/s) = -2.35200 3.50392 1.83651
# Velocity P-wave (km/s) = 2.57642 6.54970 4.97677
#
# Compressibility (1/GPa) = 0.03401291
#
# Stress axis : x y z
#
# Youngs Moduli (GPa) = 108.91206 78.58514 61.59325
#
# Poissons Ratio (x) = 0.14061 0.05183
# Poissons Ratio (y) = 0.19487 -0.03486
# Poissons Ratio (z) = 0.09164 -0.04448
#
# Static dielectric constant tensor:
#      x y z
#    x 1.780230 0.000000 -0.048880 
#    y 0.000000 1.776360 0.000000 
#    z -0.048880 0.000000 1.812910 
# 
# From -- ./inp_files/145725.got.cif
#   From: 2010.05.17/outbox.cif.g08.bks.cpg/sg12_73_cif.got.tgz:145725.got - 2010.06.03 13:09:07.
