data_PCOD9197373
_publ_section_title
;
Structure prediction by ZEFSAII (Michael W. Deem and Ramdas Pophale) SiO2 
 PCOD9197373
Probable space group: C 2/M
;
_chemical_formula_sum "Si O2"
_cell_formula_units_Z 56
_cell_length_a 14.171859
_cell_length_b 13.566018
_cell_length_c 26.239296
_cell_angle_alpha 90.000000
_cell_angle_beta 146.755000
_cell_angle_gamma 90.000000
_cell_volume 2765.581504
_symmetry_space_group_name_H-M "C 2/M"
_symmetry_group_IT_number 12
_symmetry_cell_setting 'monoclinic'
loop_
_space_group_symop_operation_xyz
x,y,z
-x,y,-z
-x,-y,-z
x,-y,z
1/2+x,1/2+y,z
1/2-x,1/2+y,-z
1/2-x,1/2-y,-z
1/2+x,1/2-y,z
loop_
_atom_site_type_symbol
_atom_site_label
_atom_site_fract_x
_atom_site_fract_y
_atom_site_fract_z
Si Si1 0.106940 0.287923 0.263364
Si Si2 0.398598 0.386774 0.876059
Si Si3 0.852377 0.384765 0.532172
Si Si4 0.595220 0.616623 0.327306
Si Si5 0.758374 0.386932 0.080742
Si Si6 0.640808 0.740153 0.704258
Si Si7 0.678256 0.616867 0.557044
O O1 0.109644 0.173232 0.280385
O O2 0.258459 0.318412 0.293854
O O3 0.155766 0.340585 0.338731
O O4 0.925623 0.319661 0.158685
O O5 0.385896 0.500000 0.851574
O O6 0.320780 0.386810 0.898067
O O7 0.286231 0.309760 0.794564
O O8 0.600069 0.359527 0.972444
O O9 0.903666 0.500000 0.558899
O O10 0.768342 0.367995 0.439155
O O11 0.705548 0.368242 0.509169
O O12 0.004249 0.312681 0.616039
O O13 0.567126 0.500000 0.310096
O O14 0.447067 0.670069 0.293676
O O15 0.808793 0.500000 0.091996
O O16 0.500000 0.656788 0.500000
O O17 0.679047 0.500000 0.566027
#
# Coordination Sequence:
#
# PCOD9197373 Si02
#       7
#     8   8   8   8   8   8   8
#     4  12  24  35  61  86 119 164 201 243 290 373
#     4   9  18  36  65  92 114 141 188 253 308 352
#     4  10  21  39  61  82 115 155 200 251 300 347
#     4  11  25  42  56  83 128 169 201 247 298 356
#     4   9  18  37  64  92 115 141 187 252 312 352
#     4  12  23  37  62  87 117 161 205 244 297 364
#     4  10  20  35  59  89 115 144 194 256 304 347
#
# _framework density 20.248906000000002
#
# number of rings (size 3 to 8) (size 9 to 14) (size 15 to 20)
#    0.000    1.571    2.857    3.000    2.000    6.286 
#    0.000    1.429    0.000    1.714    0.000    0.000 
#    0.000    0.000    0.000    0.000    0.000    0.000 
#
# Total GULP energy -156445.678162 kJ/mol
# GULP energy per Si atom -5587.345649 kJ/mol
# Density = 2.020282 g / cm^3
# Si number density = 20.248906 Si / 1000 Ang^3
#
#
#
# Elastic Constant Matrix: (Units=GPa)
#
#
# Indices 1 2 3 4 5 6 
#
# 1 37.8659 0.0972 -2.0581 0.0000 14.6098 0.0000
# 2 0.0972 67.2365 54.6929 0.0000 3.5924 0.0000
# 3 -2.0581 54.6929 98.4034 -0.0002 12.5304 0.0000
# 4 0.0000 0.0000 -0.0002 36.3336 0.0000 -1.0900
# 5 14.6098 3.5924 12.5304 0.0000 22.8562 0.0000
# 6 0.0000 0.0000 0.0000 -1.0900 0.0000 14.1234
#
#
#
# Elastic Compliance Matrix: (Units=1/GPa)
#
#
# Indices 1 2 3 4 5 6 
#
# 1 0.036951 -0.003664 0.006175 0.000000 -0.026428 0.000000
# 2 -0.003664 0.027909 -0.016479 0.000000 0.006990 0.000000
# 3 0.006175 -0.016479 0.021096 0.000000 -0.012922 0.000000
# 4 0.000000 0.000000 0.000000 0.027587 0.000000 0.002129
# 5 -0.026428 0.006990 -0.012922 0.000000 0.066631 0.000000
# 6 0.000000 0.000000 0.000000 0.002129 0.000000 0.070969
#
#
# Mechanical properties :
#
#
# Convention : Reuss Voigt Hill
#
# Bulk Modulus (GPa) = 17.23555 34.32998 25.78277
# Shear Modulus (GPa) = 16.75505 24.71424 20.73464
#
# Velocity S-wave (km/s) = 2.87967 3.49739 3.20345
# Velocity P-wave (km/s) = 4.42572 5.77059 5.14231
#
# Compressibility (1/GPa) = 0.05801960
#
# Stress axis : x y z
#
# Youngs Moduli (GPa) = 27.06296 35.83055 47.40293
#
# Poissons Ratio (x) = 0.13129 -0.29270
# Poissons Ratio (y) = 0.09916 0.78114
# Poissons Ratio (z) = -0.16710 0.59044
#
# Static dielectric constant tensor:
#      x y z
#    x 1.743390 0.000000 0.002800 
#    y 0.000000 1.727300 0.000000 
#    z 0.002800 0.000000 1.712970 
# 
# From -- ./inp_files/246528.got.cif
#   From: 2010.05.17/outbox.cif.g08.bks.cpg/sg12_124_cif.got.tgz:246528.got - 2010.06.03 13:09:07.
