data_PCOD9197737
_publ_section_title
;
Structure prediction by ZEFSAII (Michael W. Deem and Ramdas Pophale) SiO2 
 PCOD9197737
Probable space group: C 2/M
;
_chemical_formula_sum "Si O2"
_cell_formula_units_Z 36
_cell_length_a 10.032610
_cell_length_b 24.576257
_cell_length_c 6.928015
_cell_angle_alpha 90.000000
_cell_angle_beta 73.966224
_cell_angle_gamma 90.000000
_cell_volume 1641.748518
_symmetry_space_group_name_H-M "C 2/M"
_symmetry_group_IT_number 12
_symmetry_cell_setting 'monoclinic'
loop_
_space_group_symop_operation_xyz
x,y,z
-x,y,-z
-x,-y,-z
x,-y,z
1/2+x,1/2+y,z
1/2-x,1/2+y,-z
1/2-x,1/2-y,-z
1/2+x,1/2-y,z
loop_
_atom_site_type_symbol
_atom_site_label
_atom_site_fract_x
_atom_site_fract_y
_atom_site_fract_z
Si Si1 0.514451 0.440099 0.263070
Si Si2 0.500000 0.655236 0.000000
Si Si3 0.362960 0.703372 0.420458
Si Si4 0.778031 0.407545 0.576197
Si Si5 0.511085 0.937869 0.214511
O O1 0.500000 0.433480 0.500000
O O2 0.574258 0.500000 0.197892
O O3 0.571160 0.387847 0.124068
O O4 0.350819 0.438748 0.279352
O O5 0.589298 0.693190 0.821687
O O6 0.500000 0.709698 0.500000
O O7 0.250000 0.750000 0.500000
O O8 0.282415 0.647091 0.490718
O O9 0.861642 0.437950 0.376388
O O10 0.889319 0.399614 0.701128
O O11 0.564603 0.000000 0.203380
O O12 0.500000 0.920967 0.000000
#
# Coordination Sequence:
#
# PCOD9197737 Si02
#       5
#     8   4   8   8   8
#     4  10  20  35  62  98 137 176 215 269 345 426
#     4  10  21  42  66  96 134 176 225 282 346 414
#     4  11  27  48  72  98 133 176 239 302 359 414
#     4  10  20  38  60  89 132 171 218 278 331 396
#     4  10  21  36  60  96 136 181 223 262 330 418
#
# _framework density 21.92784
#
# number of rings (size 3 to 8) (size 9 to 14) (size 15 to 20)
#    0.000    1.778    0.000    5.667    3.111    8.000 
#    2.000    4.444    0.000    0.000    0.000    0.000 
#    0.000    0.000    0.000    0.000    0.000    0.000 
#
# Total GULP energy -100326.293835 kJ/mol
# GULP energy per Si atom -5573.682991 kJ/mol
# Density = 2.187793 g / cm^3
# Si number density = 21.927840 Si / 1000 Ang^3
#
#
#
# Elastic Constant Matrix: (Units=GPa)
#
#
# Indices 1 2 3 4 5 6 
#
# 1 99.4290 52.5728 44.0289 0.0000 6.5764 0.0000
# 2 52.5728 132.3673 38.2476 0.0000 8.2151 0.0000
# 3 44.0289 38.2476 168.2709 0.0000 2.3947 0.0000
# 4 0.0000 0.0000 0.0000 41.0237 0.0000 -2.0120
# 5 6.5764 8.2151 2.3947 0.0000 21.2058 0.0000
# 6 0.0000 0.0000 0.0000 -2.0120 0.0000 40.6217
#
#
#
# Elastic Compliance Matrix: (Units=1/GPa)
#
#
# Indices 1 2 3 4 5 6 
#
# 1 0.013750 -0.004596 -0.002522 0.000000 -0.002199 0.000000
# 2 -0.004596 0.009808 -0.000995 0.000000 -0.002262 0.000000
# 3 -0.002522 -0.000995 0.006823 0.000000 0.000397 0.000000
# 4 0.000000 0.000000 0.000000 0.024436 0.000000 0.001210
# 5 -0.002199 -0.002262 0.000397 0.000000 0.048670 0.000000
# 6 0.000000 0.000000 0.000000 0.001210 0.000000 0.024677
#
#
# Mechanical properties :
#
#
# Convention : Reuss Voigt Hill
#
# Bulk Modulus (GPa) = 70.64068 74.41841 72.52955
# Shear Modulus (GPa) = 33.53306 38.25143 35.89224
#
# Velocity S-wave (km/s) = 3.91480 4.18116 4.05017
# Velocity P-wave (km/s) = 7.26080 7.57106 7.41755
#
# Compressibility (1/GPa) = 0.01415615
#
# Stress axis : x y z
#
# Youngs Moduli (GPa) = 72.72961 101.95907 146.56220
#
# Poissons Ratio (x) = 0.46859 0.36959
# Poissons Ratio (y) = 0.33425 0.14577
# Poissons Ratio (z) = 0.18340 0.10141
#
# Static dielectric constant tensor:
#      x y z
#    x 1.861240 0.000000 0.019560 
#    y 0.000000 1.836190 0.000000 
#    z 0.019560 0.000000 1.868500 
# 
# From -- ./inp_files/7411.got.cif
#   From: 2010.05.17/outbox.cif.g08.bks.cpg/sg12_4_cif.got.tgz:7411.got - 2010.06.03 13:09:07.
