data_PCOD9197988
_publ_section_title
;
Structure prediction by ZEFSAII (Michael W. Deem and Ramdas Pophale) SiO2 
 PCOD9197988
Probable space group: C 2/M
;
_chemical_formula_sum "Si O2"
_cell_formula_units_Z 50
_cell_length_a 28.123127
_cell_length_b 12.609835
_cell_length_c 7.801284
_cell_angle_alpha 90.000000
_cell_angle_beta 122.362952
_cell_angle_gamma 90.000000
_cell_volume 2336.836565
_symmetry_space_group_name_H-M "C 2/M"
_symmetry_group_IT_number 12
_symmetry_cell_setting 'monoclinic'
loop_
_space_group_symop_operation_xyz
x,y,z
-x,y,-z
-x,-y,-z
x,-y,z
1/2+x,1/2+y,z
1/2-x,1/2+y,-z
1/2-x,1/2-y,-z
1/2+x,1/2-y,z
loop_
_atom_site_type_symbol
_atom_site_label
_atom_site_fract_x
_atom_site_fract_y
_atom_site_fract_z
Si Si1 0.564929 0.380090 0.187762
Si Si2 0.429697 0.119095 0.235767
Si Si3 0.540263 0.176514 0.322908
Si Si4 0.228929 0.784372 0.718355
Si Si5 0.812641 0.380646 0.122619
Si Si6 0.816446 0.876739 0.720374
Si Si7 0.000000 0.500000 0.000000
O O1 0.573896 0.500000 0.272472
O O2 0.569458 0.285519 0.331981
O O3 0.615744 0.363790 0.149786
O O4 0.500000 0.375183 0.000000
O O5 0.473642 0.196093 0.233217
O O6 0.438998 0.125781 0.458506
O O7 0.363949 0.133677 0.088385
O O8 0.445904 0.000000 0.201236
O O9 0.539805 0.093564 0.167460
O O10 0.184988 0.706388 0.725122
O O11 0.204008 0.847919 0.511661
O O12 0.279705 0.704872 0.760565
O O13 0.255110 0.862042 0.909925
O O14 0.816893 0.500000 0.197629
O O15 0.803719 0.000000 0.736325
#
# Coordination Sequence:
#
# PCOD9197988 Si02
#       7
#     8   8   8   8   8   8   2
#     4  10  22  37  57  83 117 156 192 240 290 340
#     4  10  20  36  55  80 120 154 180 236 302 341
#     4  11  20  36  56  83 117 149 195 231 287 351
#     4  10  21  37  60  86 110 149 197 234 299 342
#     4  10  21  36  57  82 114 148 190 236 286 354
#     4  10  21  39  61  84 118 152 192 247 294 339
#     4  12  20  30  58  84 108 150 196 234 284 350
#
# _framework density 21.396447999999999
#
# number of rings (size 3 to 8) (size 9 to 14) (size 15 to 20)
#    0.000    1.760    2.400    2.400    2.240    0.000 
#    0.000    1.600    5.280    1.920    0.000    0.000 
#    0.000    0.000    0.000    0.000    0.000    0.000 
#
# Total GULP energy -139229.143306 kJ/mol
# GULP energy per Si atom -5569.165732 kJ/mol
# Density = 2.134775 g / cm^3
# Si number density = 21.396448 Si / 1000 Ang^3
#
#
#
# Elastic Constant Matrix: (Units=GPa)
#
#
# Indices 1 2 3 4 5 6 
#
# 1 75.9435 24.0126 -13.8113 0.0000 22.1542 0.0000
# 2 24.0126 100.2737 8.5731 0.0000 6.8864 0.0000
# 3 -13.8113 8.5731 40.9521 0.0000 6.2864 0.0000
# 4 0.0000 0.0000 0.0000 13.1568 0.0000 -4.8404
# 5 22.1542 6.8864 6.2864 0.0000 25.7530 0.0000
# 6 0.0000 0.0000 0.0000 -4.8404 0.0000 34.2228
#
#
#
# Elastic Compliance Matrix: (Units=1/GPa)
#
#
# Indices 1 2 3 4 5 6 
#
# 1 0.023374 -0.005156 0.012298 0.000000 -0.021731 0.000000
# 2 -0.005156 0.011423 -0.004511 0.000000 0.002483 0.000000
# 3 0.012298 -0.004511 0.032155 0.000000 -0.017222 0.000000
# 4 0.000000 0.000000 0.000000 0.080179 0.000000 0.011340
# 5 -0.021731 0.002483 -0.017222 0.000000 0.061065 0.000000
# 6 0.000000 0.000000 0.000000 0.011340 0.000000 0.030824
#
#
# Mechanical properties :
#
#
# Convention : Reuss Voigt Hill
#
# Bulk Modulus (GPa) = 13.84808 28.30204 21.07506
# Shear Modulus (GPa) = 19.39269 27.85283 23.62276
#
# Velocity S-wave (km/s) = 3.01383 3.61189 3.32633
# Velocity P-wave (km/s) = 4.31244 5.53629 4.96224
#
# Compressibility (1/GPa) = 0.07221219
#
# Stress axis : x y z
#
# Youngs Moduli (GPa) = 42.78248 87.54468 31.09974
#
# Poissons Ratio (x) = 0.45142 -0.38247
# Poissons Ratio (y) = 0.22061 0.14030
# Poissons Ratio (z) = -0.52615 0.39495
#
# Static dielectric constant tensor:
#      x y z
#    x 1.992240 0.000000 -0.055390 
#    y 0.000000 1.743420 0.000000 
#    z -0.055390 0.000000 1.823630 
# 
# From -- ./inp_files/110153.got.cif
#   From: 2010.05.17/outbox.cif.g08.bks.cpg/sg12_56_cif.got.tgz:110153.got - 2010.06.03 13:09:07.
