data_PCOD9197169
_publ_section_title
;
Structure prediction by ZEFSAII (Michael W. Deem and Ramdas Pophale) SiO2 
 PCOD9197169
Probable space group: C 2/M
;
_chemical_formula_sum "Si O2"
_cell_formula_units_Z 58
_cell_length_a 9.821715
_cell_length_b 19.381897
_cell_length_c 20.009945
_cell_angle_alpha 90.000000
_cell_angle_beta 61.322881
_cell_angle_gamma 90.000000
_cell_volume 3341.922546
_symmetry_space_group_name_H-M "C 2/M"
_symmetry_group_IT_number 12
_symmetry_cell_setting 'monoclinic'
loop_
_space_group_symop_operation_xyz
x,y,z
-x,y,-z
-x,-y,-z
x,-y,z
1/2+x,1/2+y,z
1/2-x,1/2+y,-z
1/2-x,1/2-y,-z
1/2+x,1/2-y,z
loop_
_atom_site_type_symbol
_atom_site_label
_atom_site_fract_x
_atom_site_fract_y
_atom_site_fract_z
Si Si1 0.474972 0.715961 0.332798
Si Si2 0.831330 0.237534 0.051712
Si Si3 0.000000 0.500000 0.000000
Si Si4 0.369979 0.120167 0.122551
Si Si5 0.939728 0.327239 0.797264
Si Si6 0.808151 0.419576 0.711156
Si Si7 0.962091 0.921151 0.752215
Si Si8 0.877651 0.307723 0.588174
O O1 0.497433 0.761319 0.259671
O O2 0.531345 0.638607 0.304643
O O3 0.294439 0.712714 0.394100
O O4 0.569050 0.752653 0.368913
O O5 0.862896 0.310209 0.080769
O O6 0.712324 0.195682 0.125711
O O7 0.750000 0.250000 0.000000
O O8 0.000000 0.203921 0.000000
O O9 0.029599 0.561161 0.936346
O O10 0.438229 0.142557 0.178419
O O11 0.195226 0.091361 0.170277
O O12 0.888651 0.383226 0.754722
O O13 0.843916 0.500000 0.700073
O O14 0.620585 0.411397 0.757211
O O15 0.862342 0.379594 0.631942
O O16 0.964247 0.000000 0.726468
O O17 0.000000 0.310977 0.500000
#
# Coordination Sequence:
#
# PCOD9197169 Si02
#       8
#     8   8   2   8   8   8   8   8
#     4  10  20  35  60  84 115 146 193 229 279 338
#     4  12  24  38  55  83 112 146 191 243 294 337
#     4  12  24  40  52  82 116 148 188 230 312 344
#     4  12  23  38  59  79 111 152 190 238 290 348
#     4  11  23  38  60  83 112 151 196 245 284 334
#     4   9  22  39  58  86 114 150 194 233 284 340
#     4  10  20  36  59  81 108 150 190 237 278 334
#     4  10  20  35  58  89 119 149 180 231 282 337
#
# _framework density 17.355278999999999
#
# number of rings (size 3 to 8) (size 9 to 14) (size 15 to 20)
#    0.000    1.379    4.138    1.241    6.759    0.276 
#    0.000    0.000    0.000    1.655    0.000    0.000 
#    0.000    0.000    0.000    0.000    0.000    0.000 
#
# Total GULP energy -161591.457729 kJ/mol
# GULP energy per Si atom -5572.119232 kJ/mol
# Density = 1.731578 g / cm^3
# Si number density = 17.355279 Si / 1000 Ang^3
#
#
#
# Elastic Constant Matrix: (Units=GPa)
#
#
# Indices 1 2 3 4 5 6 
#
# 1 51.9874 18.3066 15.2757 0.0000 -1.5338 0.0000
# 2 18.3066 97.8156 9.9653 0.0000 5.3238 0.0000
# 3 15.2757 9.9653 62.2955 0.0000 -10.2207 0.0000
# 4 0.0000 0.0000 0.0000 5.7868 0.0000 -3.3644
# 5 -1.5338 5.3238 -10.2207 0.0000 29.8002 0.0000
# 6 0.0000 0.0000 0.0000 -3.3644 0.0000 19.0095
#
#
#
# Elastic Compliance Matrix: (Units=1/GPa)
#
#
# Indices 1 2 3 4 5 6 
#
# 1 0.021918 -0.003623 -0.004772 0.000000 0.000139 0.000000
# 2 -0.003623 0.011181 -0.001333 0.000000 -0.002641 0.000000
# 3 -0.004772 -0.001333 0.018474 0.000000 0.006329 0.000000
# 4 0.000000 0.000000 0.000000 0.192628 0.000000 0.034092
# 5 0.000139 -0.002641 0.006329 0.000000 0.036206 0.000000
# 6 0.000000 0.000000 0.000000 0.034092 0.000000 0.058639
#
#
# Mechanical properties :
#
#
# Convention : Reuss Voigt Hill
#
# Bulk Modulus (GPa) = 31.13792 33.24373 32.19082
# Shear Modulus (GPa) = 13.54244 22.15603 17.84923
#
# Velocity S-wave (km/s) = 2.79643 3.57685 3.21044
# Velocity P-wave (km/s) = 5.32983 6.02120 5.68604
#
# Compressibility (1/GPa) = 0.03211519
#
# Stress axis : x y z
#
# Youngs Moduli (GPa) = 45.62534 89.43699 54.12893
#
# Poissons Ratio (x) = 0.32406 0.25831
# Poissons Ratio (y) = 0.16532 0.07218
# Poissons Ratio (z) = 0.21773 0.11926
#
# Static dielectric constant tensor:
#      x y z
#    x 1.589720 0.000000 -0.021700 
#    y 0.000000 1.577950 0.000000 
#    z -0.021700 0.000000 1.579290 
# 
# From -- ./inp_files/257114.got.cif
#   From: 2010.05.17/outbox.cif.g08.bks.cpg/sg12_129_cif.got.tgz:257114.got - 2010.06.03 13:09:07.
