data_PCOD9197093
_publ_section_title
;
Structure prediction by ZEFSAII (Michael W. Deem and Ramdas Pophale) SiO2 
 PCOD9197093
Probable space group: C 2/M
;
_chemical_formula_sum "Si O2"
_cell_formula_units_Z 40
_cell_length_a 28.223039
_cell_length_b 8.889878
_cell_length_c 19.196585
_cell_angle_alpha 90.000000
_cell_angle_beta 153.383527
_cell_angle_gamma 90.000000
_cell_volume 2157.829960
_symmetry_space_group_name_H-M "C 2/M"
_symmetry_group_IT_number 12
_symmetry_cell_setting 'monoclinic'
loop_
_space_group_symop_operation_xyz
x,y,z
-x,y,-z
-x,-y,-z
x,-y,z
1/2+x,1/2+y,z
1/2-x,1/2+y,-z
1/2-x,1/2-y,-z
1/2+x,1/2-y,z
loop_
_atom_site_type_symbol
_atom_site_label
_atom_site_fract_x
_atom_site_fract_y
_atom_site_fract_z
Si Si1 0.377452 0.679449 0.356571
Si Si2 0.672087 0.819794 0.339652
Si Si3 0.180603 0.320881 0.571816
Si Si4 0.776331 0.821142 0.959916
Si Si5 0.998381 0.678487 0.216150
O O1 0.500000 0.709292 0.500000
O O2 0.361056 0.500000 0.334564
O O3 0.348263 0.745442 0.393417
O O4 0.304669 0.755739 0.202935
O O5 0.750000 0.750000 0.500000
O O6 0.713030 0.748422 0.322024
O O7 0.556074 0.787891 0.218361
O O8 0.684689 0.000000 0.354456
O O9 0.191843 0.500000 0.593921
O O10 0.084852 0.293811 0.390842
O O11 0.767322 0.000000 0.951992
O O12 0.750000 0.750000 0.000000
O O13 0.894163 0.772791 0.092765
O O14 0.973506 0.500000 0.185011
#
# Coordination Sequence:
#
# PCOD9197093 Si02
#       5
#     8   8   8   8   8
#     4  11  24  41  61  84 111 146 188 233 282 337
#     4   9  17  31  54  83 115 151 189 231 276 326
#     4  10  20  35  58  87 118 151 187 231 280 331
#     4  12  25  40  60  84 113 148 186 232 282 335
#     4   9  19  36  58  85 117 151 188 231 278 328
#
# _framework density 18.537140999999998
#
# number of rings (size 3 to 8) (size 9 to 14) (size 15 to 20)
#    0.000    1.800    0.000    6.000    0.000    9.600 
#    0.000    1.000    0.000    6.000    0.000    0.000 
#    0.000    0.000    0.000    0.000    0.000    0.000 
#
# Total GULP energy -111705.877781 kJ/mol
# GULP energy per Si atom -5585.293889 kJ/mol
# Density = 1.849495 g / cm^3
# Si number density = 18.537141 Si / 1000 Ang^3
#
#
#
# Elastic Constant Matrix: (Units=GPa)
#
#
# Indices 1 2 3 4 5 6 
#
# 1 203.4179 108.5056 76.9028 0.0000 16.5476 0.0000
# 2 108.5056 128.5671 81.2128 0.0000 16.5009 0.0000
# 3 76.9028 81.2128 86.9940 0.0000 13.1296 0.0000
# 4 0.0000 0.0000 0.0000 27.1590 0.0000 0.3523
# 5 16.5476 16.5009 13.1296 0.0000 26.6940 0.0000
# 6 0.0000 0.0000 0.0000 0.3523 0.0000 38.6234
#
#
#
# Elastic Compliance Matrix: (Units=1/GPa)
#
#
# Indices 1 2 3 4 5 6 
#
# 1 0.009114 -0.006283 -0.002079 0.000000 -0.000743 0.000000
# 2 -0.006283 0.023554 -0.016014 0.000000 -0.002789 0.000000
# 3 -0.002079 -0.016014 0.028726 0.000000 -0.002942 0.000000
# 4 0.000000 0.000000 0.000000 0.036825 0.000000 -0.000336
# 5 -0.000743 -0.002789 -0.002942 0.000000 0.041093 0.000000
# 6 0.000000 0.000000 0.000000 -0.000336 0.000000 0.025894
#
#
# Mechanical properties :
#
#
# Convention : Reuss Voigt Hill
#
# Bulk Modulus (GPa) = 79.09618 105.80238 92.44928
# Shear Modulus (GPa) = 22.91774 28.65247 25.78510
#
# Velocity S-wave (km/s) = 3.51994 3.93578 3.73365
# Velocity P-wave (km/s) = 7.69946 8.82347 8.28056
#
# Compressibility (1/GPa) = 0.01264283
#
# Stress axis : x y z
#
# Youngs Moduli (GPa) = 109.72220 42.45527 34.81150
#
# Poissons Ratio (x) = 0.26676 0.07237
# Poissons Ratio (y) = 0.68941 0.55746
# Poissons Ratio (z) = 0.22810 0.67986
#
# Static dielectric constant tensor:
#      x y z
#    x 1.623530 0.000000 0.026240 
#    y 0.000000 1.612500 0.000000 
#    z 0.026240 0.000000 1.612600 
# 
# From -- ./inp_files/249505.got.cif
#   From: 2010.05.17/outbox.cif.g08.bks.cpg/sg12_125_cif.got.tgz:249505.got - 2010.06.03 13:09:07.
