data_PCOD9197454
_publ_section_title
;
Structure prediction by ZEFSAII (Michael W. Deem and Ramdas Pophale) SiO2 
 PCOD9197454
Probable space group: C 2/M
;
_chemical_formula_sum "Si O2"
_cell_formula_units_Z 56
_cell_length_a 8.559928
_cell_length_b 14.973369
_cell_length_c 26.146957
_cell_angle_alpha 90.000000
_cell_angle_beta 121.125657
_cell_angle_gamma 90.000000
_cell_volume 2868.815815
_symmetry_space_group_name_H-M "C 2/M"
_symmetry_group_IT_number 12
_symmetry_cell_setting 'monoclinic'
loop_
_space_group_symop_operation_xyz
x,y,z
-x,y,-z
-x,-y,-z
x,-y,z
1/2+x,1/2+y,z
1/2-x,1/2+y,-z
1/2-x,1/2-y,-z
1/2+x,1/2-y,z
loop_
_atom_site_type_symbol
_atom_site_label
_atom_site_fract_x
_atom_site_fract_y
_atom_site_fract_z
Si Si1 0.073397 0.900141 0.219753
Si Si2 0.949776 0.000000 0.430845
Si Si3 0.319616 0.850098 0.658706
Si Si4 0.921323 0.605236 0.203999
Si Si5 0.443250 0.703445 0.043352
Si Si6 0.173304 0.777535 0.870884
Si Si7 0.672264 0.000000 0.565029
Si Si8 0.176625 0.348747 0.648391
O O1 0.239572 0.879016 0.208266
O O2 0.166731 0.891974 0.290142
O O3 0.903902 0.833354 0.188916
O O4 0.011390 0.000000 0.198881
O O5 0.000000 0.000000 0.500000
O O6 0.829104 0.916689 0.390319
O O7 0.140622 0.000000 0.434005
O O8 0.406293 0.876608 0.729054
O O9 0.234239 0.752236 0.647651
O O10 0.491272 0.850833 0.649521
O O11 0.922734 0.500000 0.189323
O O12 0.900489 0.676776 0.153984
O O13 0.612859 0.769566 0.082493
O O14 0.409759 0.667960 0.094619
O O15 0.500000 0.654167 0.000000
O O16 0.250000 0.750000 0.000000
O O17 0.500000 0.000000 0.500000
O O18 0.660168 0.088697 0.597057
#
# Coordination Sequence:
#
# PCOD9197454 Si02
#       8
#     8   4   8   8   8   8   4   8
#     4  10  20  35  59  92 129 161 201 260 322 374
#     4  12  26  46  68  94 128 176 222 262 316 387
#     4  11  22  40  64  95 133 171 210 268 326 381
#     4  10  20  35  59  92 128 161 204 257 320 378
#     4   9  20  36  60  86 121 167 210 250 305 367
#     4  11  18  36  62  90 118 165 211 252 312 377
#     4  12  26  46  68  94 128 176 222 260 318 390
#     4  11  22  40  64  95 133 172 210 266 329 380
#
# _framework density 19.520249
#
# number of rings (size 3 to 8) (size 9 to 14) (size 15 to 20)
#    0.000    1.429    4.286    2.143    0.000    0.571 
#    2.571    3.571    0.000   17.143    0.000    0.000 
#    0.000    0.000    0.000    0.000    0.000    0.000 
#
# Total GULP energy -155977.179358 kJ/mol
# GULP energy per Si atom -5570.613549 kJ/mol
# Density = 1.947582 g / cm^3
# Si number density = 19.520249 Si / 1000 Ang^3
#
#
#
# Elastic Constant Matrix: (Units=GPa)
#
#
# Indices 1 2 3 4 5 6 
#
# 1 80.1340 23.5810 43.7809 0.0000 13.7327 0.0000
# 2 23.5810 109.1852 37.5766 0.0000 12.4532 0.0000
# 3 43.7809 37.5766 125.3882 0.0000 21.7263 0.0000
# 4 0.0000 0.0000 0.0000 -742.8953 0.0000 14.9535
# 5 13.7327 12.4532 21.7263 0.0000 39.6964 0.0000
# 6 0.0000 0.0000 0.0000 14.9535 0.0000 25.1902
#
#
#
# Elastic Compliance Matrix: (Units=1/GPa)
#
#
# Indices 1 2 3 4 5 6 
#
# 1 0.015904 -0.001549 -0.004662 0.000000 -0.002464 0.000000
# 2 -0.001549 0.010466 -0.002342 0.000000 -0.001466 0.000000
# 3 -0.004662 -0.002342 0.010935 0.000000 -0.003638 0.000000
# 4 0.000000 0.000000 0.000000 -0.001330 0.000000 0.000790
# 5 -0.002464 -0.001466 -0.003638 0.000000 0.028494 0.000000
# 6 0.000000 0.000000 0.000000 0.000790 0.000000 0.039229
#
#
# Mechanical properties :
#
#
# Convention : Reuss Voigt Hill
#
# Bulk Modulus (GPa) = 49.50487 58.28716 53.89602
# Shear Modulus (GPa) = 39.20385 -121.61714 -41.20664
#
# Velocity S-wave (km/s) = 4.48634 -7.90179 -4.59951
# Velocity P-wave (km/s) = 7.22857 7.30249 0.73288
#
# Compressibility (1/GPa) = 0.02020003
#
# Stress axis : x y z
#
# Youngs Moduli (GPa) = 62.87578 95.54336 91.44947
#
# Poissons Ratio (x) = 0.14804 0.42632
# Poissons Ratio (y) = 0.09742 0.21414
# Poissons Ratio (z) = 0.29312 0.22373
#
# Static dielectric constant tensor:
#      x y z
#    x 1.711600 0.000000 -0.038280 
#    y 0.000000 1.645170 0.000000 
#    z -0.038280 0.000000 1.714520 
# 
# From -- ./inp_files/356208.got.cif
#   From: 2010.05.17/outbox.cif.g08.bks.cpg/sg12_179_cif.got.tgz:356208.got - 2010.06.03 13:09:07.
