data_PCOD9197840
_publ_section_title
;
Structure prediction by ZEFSAII (Michael W. Deem and Ramdas Pophale) SiO2 
 PCOD9197840
Probable space group: C 2/M
;
_chemical_formula_sum "Si O2"
_cell_formula_units_Z 64
_cell_length_a 14.762698
_cell_length_b 27.488562
_cell_length_c 9.178626
_cell_angle_alpha 90.000000
_cell_angle_beta 92.942193
_cell_angle_gamma 90.000000
_cell_volume 3719.825601
_symmetry_space_group_name_H-M "C 2/M"
_symmetry_group_IT_number 12
_symmetry_cell_setting 'monoclinic'
loop_
_space_group_symop_operation_xyz
x,y,z
-x,y,-z
-x,-y,-z
x,-y,z
1/2+x,1/2+y,z
1/2-x,1/2+y,-z
1/2-x,1/2-y,-z
1/2+x,1/2-y,z
loop_
_atom_site_type_symbol
_atom_site_label
_atom_site_fract_x
_atom_site_fract_y
_atom_site_fract_z
Si Si1 0.602864 0.401012 0.943932
Si Si2 0.395344 0.201280 0.525899
Si Si3 0.827910 0.247566 0.799872
Si Si4 0.592962 0.305127 0.593358
Si Si5 0.856955 0.204790 0.093651
Si Si6 0.525591 0.555082 0.657592
Si Si7 0.226260 0.848787 0.390972
Si Si8 0.825592 0.946682 0.777067
O O1 0.654634 0.350204 0.960392
O O2 0.589947 0.417762 0.776394
O O3 0.500000 0.395406 0.000000
O O4 0.658613 0.437777 0.049881
O O5 0.500000 0.190921 0.500000
O O6 0.377443 0.216202 0.692080
O O7 0.369940 0.251569 0.442015
O O8 0.327057 0.161685 0.457149
O O9 0.734067 0.272449 0.844821
O O10 0.806165 0.196311 0.715797
O O11 0.881523 0.235706 0.953454
O O12 0.500000 0.310060 0.500000
O O13 0.576091 0.303062 0.764275
O O14 0.662815 0.343266 0.529662
O O15 0.500000 0.577700 0.500000
O O16 0.560330 0.500000 0.634678
O O17 0.428442 0.551811 0.726685
O O18 0.217128 0.899850 0.306515
O O19 0.783986 0.000000 0.745567
#
# Coordination Sequence:
#
# PCOD9197840 Si02
#       8
#     8   8   8   8   8   8   8   8
#     4  10  21  31  48  72 106 145 179 213 260 316
#     4  10  20  37  55  77 107 143 176 215 269 325
#     4  10  20  36  53  79 109 144 175 221 266 312
#     4  10  21  31  53  80 110 146 176 209 260 319
#     4  11  20  32  52  78 113 144 180 217 258 313
#     4   9  19  33  48  70 101 135 179 227 263 301
#     4  11  19  37  53  75 105 140 178 218 267 316
#     4  10  21  35  50  70  98 140 181 220 265 319
#
# _framework density 17.205107999999999
#
# number of rings (size 3 to 8) (size 9 to 14) (size 15 to 20)
#    0.000    1.875    3.750    1.125    5.250    2.500 
#    0.000    0.000    0.000    0.375    0.000    0.000 
#    0.000    1.000    0.000    0.000    0.000    0.000 
#
# Total GULP energy -178307.634718 kJ/mol
# GULP energy per Si atom -5572.113585 kJ/mol
# Density = 1.716595 g / cm^3
# Si number density = 17.205108 Si / 1000 Ang^3
#
#
#
# Elastic Constant Matrix: (Units=GPa)
#
#
# Indices 1 2 3 4 5 6 
#
# 1 55.9733 31.8430 41.4370 0.0000 5.5019 0.0000
# 2 31.8430 102.4806 32.7446 0.0000 11.4072 0.0000
# 3 41.4370 32.7446 137.5803 0.0000 12.5755 0.0000
# 4 0.0000 0.0000 0.0000 -2.6355 0.0000 -10.8241
# 5 5.5019 11.4072 12.5755 0.0000 19.3987 0.0000
# 6 0.0000 0.0000 0.0000 -10.8241 0.0000 7.7950
#
#
#
# Elastic Compliance Matrix: (Units=1/GPa)
#
#
# Indices 1 2 3 4 5 6 
#
# 1 0.026050 -0.006079 -0.006432 0.000000 0.000356 0.000000
# 2 -0.006079 0.012431 -0.000656 0.000000 -0.005160 0.000000
# 3 -0.006432 -0.000656 0.009737 0.000000 -0.004102 0.000000
# 4 0.000000 0.000000 0.000000 -0.056607 0.000000 -0.078604
# 5 0.000356 -0.005160 -0.004102 0.000000 0.057143 0.000000
# 6 0.000000 0.000000 0.000000 -0.078604 0.000000 0.019139
#
#
# Mechanical properties :
#
#
# Convention : Reuss Voigt Hill
#
# Bulk Modulus (GPa) = 45.69418 56.45371 51.07395
# Shear Modulus (GPa) = 49.25096 17.57894 33.41495
#
# Velocity S-wave (km/s) = 5.35611 3.19992 4.41177
# Velocity P-wave (km/s) = 8.05399 6.82173 7.46334
#
# Compressibility (1/GPa) = 0.02188462
#
# Stress axis : x y z
#
# Youngs Moduli (GPa) = 38.38715 80.44509 102.70451
#
# Poissons Ratio (x) = 0.48902 0.66056
# Poissons Ratio (y) = 0.23335 0.06737
# Poissons Ratio (z) = 0.24689 0.05277
#
# Static dielectric constant tensor:
#      x y z
#    x 1.584860 0.000000 -0.005880 
#    y 0.000000 1.624880 0.000000 
#    z -0.005880 0.000000 1.664180 
# 
# From -- ./inp_files/66989.got.cif
#   From: 2010.05.17/outbox.cif.g08.bks.cpg/sg12_34_cif.got.tgz:66989.got - 2010.06.03 13:09:07.
