data_PCOD9197634
_publ_section_title
;
Structure prediction by ZEFSAII (Michael W. Deem and Ramdas Pophale) SiO2 
 PCOD9197634
Probable space group: C 2/M
;
_chemical_formula_sum "Si O2"
_cell_formula_units_Z 44
_cell_length_a 27.780092
_cell_length_b 10.730180
_cell_length_c 22.729096
_cell_angle_alpha 90.000000
_cell_angle_beta 162.069700
_cell_angle_gamma 90.000000
_cell_volume 2085.815298
_symmetry_space_group_name_H-M "C 2/M"
_symmetry_group_IT_number 12
_symmetry_cell_setting 'monoclinic'
loop_
_space_group_symop_operation_xyz
x,y,z
-x,y,-z
-x,-y,-z
x,-y,z
1/2+x,1/2+y,z
1/2-x,1/2+y,-z
1/2-x,1/2-y,-z
1/2+x,1/2-y,z
loop_
_atom_site_type_symbol
_atom_site_label
_atom_site_fract_x
_atom_site_fract_y
_atom_site_fract_z
Si Si1 0.159675 0.500000 0.362669
Si Si2 0.523267 0.500000 0.330136
Si Si3 0.571541 0.762761 0.198741
Si Si4 0.106121 0.772678 0.493317
Si Si5 0.613612 0.865794 0.688426
Si Si6 0.538983 0.500000 0.215894
Si Si7 0.768516 0.355380 0.803500
O O1 0.286147 0.500000 0.455978
O O2 0.074537 0.368498 0.253753
O O3 0.273062 0.500000 0.550128
O O4 0.496534 0.374904 0.334647
O O5 0.465128 0.500000 0.195678
O O6 0.744487 0.743600 0.373421
O O7 0.513045 0.629010 0.152641
O O8 0.451388 0.820700 0.012062
O O9 0.176876 0.827989 0.636532
O O10 0.998099 0.657886 0.386107
O O11 0.500000 0.875040 0.500000
O O12 0.707824 0.740209 0.782914
O O13 0.697011 0.000000 0.789839
O O14 0.748546 0.500000 0.795705
#
# Coordination Sequence:
#
# PCOD9197634 Si02
#       7
#     4   4   8   8   8   4   8
#     4   8  18  35  53  79 113 142 195 236 277 333
#     4   8  18  33  58  86 112 143 197 246 275 329
#     4  11  21  36  58  91 116 153 192 247 294 343
#     4  10  20  35  61  88 116 154 198 241 286 345
#     4   9  21  38  55  82 124 160 190 233 294 362
#     4  10  22  36  57  86 120 155 195 240 299 344
#     4  11  22  36  58  89 124 154 192 237 299 355
#
# _framework density 21.094868999999999
#
# number of rings (size 3 to 8) (size 9 to 14) (size 15 to 20)
#    0.545    1.636    1.818    1.091    3.818    1.818 
#    0.000    0.909    0.000    1.091    4.727    0.000 
#    0.000    0.000    0.000    0.000    0.000    0.000 
#
# Total GULP energy -122525.222653 kJ/mol
# GULP energy per Si atom -5569.328302 kJ/mol
# Density = 2.104686 g / cm^3
# Si number density = 21.094869 Si / 1000 Ang^3
#
#
#
# Elastic Constant Matrix: (Units=GPa)
#
#
# Indices 1 2 3 4 5 6 
#
# 1 58.1287 47.4856 11.2903 -0.0011 1.7491 -0.0006
# 2 47.4856 193.3386 27.2509 -0.0028 -0.4743 -0.0026
# 3 11.2903 27.2509 31.3601 -0.0018 -3.4839 -0.0024
# 4 -0.0011 -0.0028 -0.0018 33.9698 -0.0011 2.8818
# 5 1.7491 -0.4743 -3.4839 -0.0011 18.2114 -0.0007
# 6 -0.0006 -0.0026 -0.0024 2.8818 -0.0007 17.1583
#
#
#
# Elastic Compliance Matrix: (Units=1/GPa)
#
#
# Indices 1 2 3 4 5 6 
#
# 1 0.022044 -0.004850 -0.004058 0.000000 -0.003020 -0.000001
# 2 -0.004850 0.006974 -0.004334 0.000000 -0.000182 0.000000
# 3 -0.004058 -0.004334 0.037952 0.000001 0.007537 0.000005
# 4 0.000000 0.000000 0.000001 0.029863 0.000002 -0.005016
# 5 -0.003020 -0.000182 0.007537 0.000002 0.056638 0.000003
# 6 -0.000001 0.000000 0.000005 -0.005016 0.000003 0.059123
#
#
# Mechanical properties :
#
#
# Convention : Reuss Voigt Hill
#
# Bulk Modulus (GPa) = 24.69937 50.54237 37.62087
# Shear Modulus (GPa) = 19.79626 26.98793 23.39210
#
# Velocity S-wave (km/s) = 3.06672 3.58069 3.33363
# Velocity P-wave (km/s) = 4.92685 6.41145 5.71754
#
# Compressibility (1/GPa) = 0.04048686
#
# Stress axis : x y z
#
# Youngs Moduli (GPa) = 45.36407 143.39271 26.34902
#
# Poissons Ratio (x) = 0.69541 0.10691
# Poissons Ratio (y) = 0.22000 0.11420
# Poissons Ratio (z) = 0.18407 0.62150
#
# Static dielectric constant tensor:
#      x y z
#    x 1.758750 0.000000 0.032350 
#    y 0.000000 1.785390 0.000000 
#    z 0.032350 0.000000 1.805210 
# 
# From -- ./inp_files/353654.got.cif
#   From: 2010.05.17/outbox.cif.g08.bks.cpg/sg12_177_cif.got.tgz:353654.got - 2010.06.03 13:09:07.
