data_PCOD9197800
_publ_section_title
;
Structure prediction by ZEFSAII (Michael W. Deem and Ramdas Pophale) SiO2 
 PCOD9197800
Probable space group: C 2/M
;
_chemical_formula_sum "Si O2"
_cell_formula_units_Z 52
_cell_length_a 21.735097
_cell_length_b 25.979487
_cell_length_c 15.487746
_cell_angle_alpha 90.000000
_cell_angle_beta 159.566831
_cell_angle_gamma 90.000000
_cell_volume 3053.151601
_symmetry_space_group_name_H-M "C 2/M"
_symmetry_group_IT_number 12
_symmetry_cell_setting 'monoclinic'
loop_
_space_group_symop_operation_xyz
x,y,z
-x,y,-z
-x,-y,-z
x,-y,z
1/2+x,1/2+y,z
1/2-x,1/2+y,-z
1/2-x,1/2-y,-z
1/2+x,1/2-y,z
loop_
_atom_site_type_symbol
_atom_site_label
_atom_site_fract_x
_atom_site_fract_y
_atom_site_fract_z
Si Si1 0.714128 0.558026 0.189575
Si Si2 0.537952 0.805256 0.718758
Si Si3 0.012727 0.754790 0.915584
Si Si4 0.335417 0.713105 0.229761
Si Si5 0.294178 0.440345 0.619153
Si Si6 0.273308 0.172643 0.518286
Si Si7 0.000000 0.371636 0.500000
O O1 0.766077 0.500000 0.237966
O O2 0.755988 0.566621 0.345955
O O3 0.825113 0.595324 0.277734
O O4 0.506395 0.562609 0.900753
O O5 0.579582 0.749985 0.731528
O O6 0.365301 0.809416 0.549820
O O7 0.515670 0.839480 0.606559
O O8 0.698413 0.820671 0.993942
O O9 0.919129 0.801052 0.739221
O O10 0.892751 0.703345 0.744176
O O11 0.000000 0.767562 0.000000
O O12 0.203929 0.743345 0.124009
O O13 0.500000 0.690904 0.500000
O O14 0.247166 0.500000 0.532031
O O15 0.228702 0.389485 0.482166
#
# Coordination Sequence:
#
# PCOD9197800 Si02
#       7
#     8   8   8   8   8   8   4
#     4   9  19  31  47  71 101 131 159 197 245 300
#     4  10  21  31  49  74  95 138 169 199 256 292
#     4  10  22  33  53  75 100 134 169 213 254 290
#     4  10  20  36  47  66 105 133 173 206 241 304
#     4   9  18  33  50  71  99 135 167 198 250 306
#     4  10  20  36  51  75 103 131 173 207 249 306
#     4  12  19  30  48  76 102 128 166 206 237 304
#
# _framework density 17.031582
#
# number of rings (size 3 to 8) (size 9 to 14) (size 15 to 20)
#    0.000    2.154    2.308    2.077    4.308    1.231 
#    0.000    0.000    0.000    0.462    0.000    0.000 
#    0.000    5.538    0.000    0.000    0.000    0.000 
#
# Total GULP energy -144754.472438 kJ/mol
# GULP energy per Si atom -5567.479709 kJ/mol
# Density = 1.699282 g / cm^3
# Si number density = 17.031582 Si / 1000 Ang^3
#
#
#
# Elastic Constant Matrix: (Units=GPa)
#
#
# Indices 1 2 3 4 5 6 
#
# 1 38.3942 -13.4243 10.0970 0.0000 5.4055 0.0000
# 2 -13.4243 62.2875 6.2108 0.0000 1.4582 0.0000
# 3 10.0970 6.2108 63.5691 0.0000 -3.9433 0.0000
# 4 0.0000 0.0000 0.0000 30.4194 0.0000 -28.6426
# 5 5.4055 1.4582 -3.9433 0.0000 23.5724 0.0000
# 6 0.0000 0.0000 0.0000 -28.6426 0.0000 75.4709
#
#
#
# Elastic Compliance Matrix: (Units=1/GPa)
#
#
# Indices 1 2 3 4 5 6 
#
# 1 0.031616 0.007649 -0.006314 0.000000 -0.008779 0.000000
# 2 0.007649 0.018101 -0.003195 0.000000 -0.003408 0.000000
# 3 -0.006314 -0.003195 0.017328 0.000000 0.004544 0.000000
# 4 0.000000 0.000000 0.000000 0.051154 0.000000 0.019414
# 5 -0.008779 -0.003408 0.004544 0.000000 0.045407 0.000000
# 6 0.000000 0.000000 0.000000 0.019414 0.000000 0.020618
#
#
# Mechanical properties :
#
#
# Convention : Reuss Voigt Hill
#
# Bulk Modulus (GPa) = 15.79114 18.89088 17.34101
# Shear Modulus (GPa) = 23.91752 36.65038 30.28395
#
# Velocity S-wave (km/s) = 3.75147 4.64390 4.22133
# Velocity P-wave (km/s) = 5.29684 6.31428 5.82781
#
# Compressibility (1/GPa) = 0.06332666
#
# Stress axis : x y z
#
# Youngs Moduli (GPa) = 31.62909 55.24416 57.71088
#
# Poissons Ratio (x) = -0.42257 0.36437
# Poissons Ratio (y) = -0.24193 0.18438
# Poissons Ratio (z) = 0.19970 0.17650
#
# Static dielectric constant tensor:
#      x y z
#    x 1.589660 0.000000 0.033020 
#    y 0.000000 1.597000 0.000000 
#    z 0.033020 0.000000 1.711450 
# 
# From -- ./inp_files/64824.got.cif
#   From: 2010.05.17/outbox.cif.g08.bks.cpg/sg12_33_cif.got.tgz:64824.got - 2010.06.03 13:09:07.
