data_PCOD9197263
_publ_section_title
;
Structure prediction by ZEFSAII (Michael W. Deem and Ramdas Pophale) SiO2 
 PCOD9197263
Probable space group: C 2/M
;
_chemical_formula_sum "Si O2"
_cell_formula_units_Z 64
_cell_length_a 10.951067
_cell_length_b 24.000718
_cell_length_c 11.478925
_cell_angle_alpha 90.000000
_cell_angle_beta 90.370249
_cell_angle_gamma 90.000000
_cell_volume 3016.982706
_symmetry_space_group_name_H-M "C 2/M"
_symmetry_group_IT_number 12
_symmetry_cell_setting 'monoclinic'
loop_
_space_group_symop_operation_xyz
x,y,z
-x,y,-z
-x,-y,-z
x,-y,z
1/2+x,1/2+y,z
1/2-x,1/2+y,-z
1/2-x,1/2-y,-z
1/2+x,1/2-y,z
loop_
_atom_site_type_symbol
_atom_site_label
_atom_site_fract_x
_atom_site_fract_y
_atom_site_fract_z
Si Si1 0.914490 0.722568 0.101846
Si Si2 0.787424 0.064533 0.562382
Si Si3 0.575581 0.064246 0.761602
Si Si4 0.398264 0.120277 0.594162
Si Si5 0.175752 0.835539 0.843383
Si Si6 0.436488 0.642444 0.718117
Si Si7 0.743547 0.625459 0.076955
Si Si8 0.890885 0.272343 0.707794
O O1 0.896608 0.787953 0.085930
O O2 0.791451 0.688468 0.095092
O O3 0.981352 0.716576 0.225309
O O4 0.000000 0.700621 0.000000
O O5 0.681201 0.067321 0.662114
O O6 0.724310 0.090190 0.447475
O O7 0.894912 0.102486 0.613983
O O8 0.820275 0.000000 0.547045
O O9 0.457569 0.097853 0.714591
O O10 0.643834 0.088979 0.874414
O O11 0.542669 0.000000 0.776724
O O12 0.500000 0.105497 0.500000
O O13 0.384952 0.187080 0.597202
O O14 0.285214 0.800017 0.786834
O O15 0.080177 0.856007 0.746471
O O16 0.215707 0.880050 0.940211
O O17 0.370425 0.620324 0.836207
O O18 0.388330 0.705785 0.692668
#
# Coordination Sequence:
#
# PCOD9197263 Si02
#       8
#     8   8   8   8   8   8   8   8
#     4  11  19  31  53  81 114 154 179 216 261 326
#     4   9  19  37  59  79 102 141 194 241 275 319
#     4   9  18  33  57  85 111 139 184 240 283 320
#     4  10  20  35  59  85 108 138 181 235 296 340
#     4  11  21  33  52  80 119 155 184 212 264 334
#     4  10  22  35  54  84 116 148 187 224 269 328
#     4  11  18  33  54  83 118 148 182 221 263 327
#     4  11  21  34  54  84 119 143 176 227 286 334
#
# _framework density 21.213246000000002
#
# number of rings (size 3 to 8) (size 9 to 14) (size 15 to 20)
#    0.000    1.750    3.750    2.625    0.000    2.000 
#    0.000    1.250    0.000    9.375    0.000    0.000 
#    0.000    0.000    0.000    0.000    0.000    0.000 
#
# Total GULP energy -178507.959148 kJ/mol
# GULP energy per Si atom -5578.373723 kJ/mol
# Density = 2.116496 g / cm^3
# Si number density = 21.213246 Si / 1000 Ang^3
#
#
#
# Elastic Constant Matrix: (Units=GPa)
#
#
# Indices 1 2 3 4 5 6 
#
# 1 54.1236 17.5897 42.3740 0.0000 25.6076 0.0000
# 2 17.5897 104.5418 59.9983 0.0000 32.2198 0.0000
# 3 42.3740 59.9983 62.0374 0.0000 35.2360 0.0000
# 4 0.0000 0.0000 0.0000 20.9457 0.0000 4.8625
# 5 25.6076 32.2198 35.2360 0.0000 29.7391 0.0000
# 6 0.0000 0.0000 0.0000 4.8625 0.0000 21.2283
#
#
#
# Elastic Compliance Matrix: (Units=1/GPa)
#
#
# Indices 1 2 3 4 5 6 
#
# 1 0.074741 0.037398 -0.084555 0.000000 -0.004690 0.000000
# 2 0.037398 0.040376 -0.065611 0.000000 0.001792 0.000000
# 3 -0.084555 -0.065611 0.170013 0.000000 -0.057545 0.000000
# 4 0.000000 0.000000 0.000000 0.050424 0.000000 -0.011550
# 5 -0.004690 0.001792 -0.057545 0.000000 0.103905 0.000000
# 6 0.000000 0.000000 0.000000 -0.011550 0.000000 0.049753
#
#
# Mechanical properties :
#
#
# Convention : Reuss Voigt Hill
#
# Bulk Modulus (GPa) = 16.78054 51.18076 33.98065
# Shear Modulus (GPa) = 6.80631 21.09867 13.95249
#
# Velocity S-wave (km/s) = 1.79318 3.15715 2.56740
# Velocity P-wave (km/s) = 3.49498 6.12122 4.98418
#
# Compressibility (1/GPa) = 0.05959284
#
# Stress axis : x y z
#
# Youngs Moduli (GPa) = 13.37957 24.76714 5.88191
#
# Poissons Ratio (x) = -0.92624 0.49735
# Poissons Ratio (y) = -0.50037 0.38592
# Poissons Ratio (z) = 1.13132 1.62499
#
# Static dielectric constant tensor:
#      x y z
#    x 1.802830 0.000000 -0.014530 
#    y 0.000000 1.765370 0.000000 
#    z -0.014530 0.000000 1.805060 
# 
# From -- ./inp_files/135991.got.cif
#   From: 2010.05.17/outbox.cif.g08.bks.cpg/sg12_68_cif.got.tgz:135991.got - 2010.06.03 13:09:07.
