data_PCOD9197700
_publ_section_title
;
Structure prediction by ZEFSAII (Michael W. Deem and Ramdas Pophale) SiO2 
 PCOD9197700
Probable space group: C 2/M
;
_chemical_formula_sum "Si O2"
_cell_formula_units_Z 48
_cell_length_a 14.923361
_cell_length_b 17.671651
_cell_length_c 14.568313
_cell_angle_alpha 90.000000
_cell_angle_beta 136.772523
_cell_angle_gamma 90.000000
_cell_volume 2631.346581
_symmetry_space_group_name_H-M "C 2/M"
_symmetry_group_IT_number 12
_symmetry_cell_setting 'monoclinic'
loop_
_space_group_symop_operation_xyz
x,y,z
-x,y,-z
-x,-y,-z
x,-y,z
1/2+x,1/2+y,z
1/2-x,1/2+y,-z
1/2-x,1/2-y,-z
1/2+x,1/2-y,z
loop_
_atom_site_type_symbol
_atom_site_label
_atom_site_fract_x
_atom_site_fract_y
_atom_site_fract_z
Si Si1 0.648804 0.409956 0.587672
Si Si2 0.800637 0.833619 0.566471
Si Si3 0.843951 0.588714 0.372450
Si Si4 0.735956 0.695685 0.136240
Si Si5 0.944103 0.772185 0.163289
Si Si6 0.102278 0.327879 0.148047
O O1 0.500000 0.382646 0.500000
O O2 0.648485 0.500000 0.597000
O O3 0.687900 0.384937 0.514555
O O4 0.767796 0.375450 0.735717
O O5 0.750000 0.750000 0.500000
O O6 0.714566 0.868761 0.582928
O O7 0.944834 0.824851 0.714469
O O8 0.809058 0.500000 0.347110
O O9 0.790773 0.628025 0.239476
O O10 0.000000 0.595333 0.500000
O O11 0.853994 0.742104 0.177935
O O12 0.654714 0.750170 0.142625
O O13 0.640579 0.684444 0.977448
O O14 0.017118 0.699773 0.171478
O O15 0.000000 0.363836 0.000000
#
# Coordination Sequence:
#
# PCOD9197700 Si02
#       6
#     8   8   8   8   8   8
#     4  11  24  40  58  86 124 158 193 244 302 356
#     4  12  21  37  63  88 113 155 203 246 290 347
#     4  11  24  39  57  86 126 162 195 240 302 368
#     4  10  20  38  60  87 119 150 197 248 293 349
#     4  10  20  35  62  89 112 148 201 248 290 343
#     4  10  20  38  62  88 115 150 201 251 294 353
#
# _framework density 18.241610999999999
#
# number of rings (size 3 to 8) (size 9 to 14) (size 15 to 20)
#    0.000    1.333    3.333    2.500    0.000    1.667 
#    0.000    2.500    0.000    6.000    0.000    0.000 
#    0.000    0.000    0.000    0.000    0.000    0.000 
#
# Total GULP energy -133896.199735 kJ/mol
# GULP energy per Si atom -5579.008322 kJ/mol
# Density = 1.820009 g / cm^3
# Si number density = 18.241611 Si / 1000 Ang^3
#
#
#
# Elastic Constant Matrix: (Units=GPa)
#
#
# Indices 1 2 3 4 5 6 
#
# 1 88.1612 20.6269 32.2605 0.0001 4.2242 0.0000
# 2 20.6269 71.4785 59.4889 0.0000 -3.4844 0.0000
# 3 32.2605 59.4889 129.4151 0.0001 9.3113 0.0000
# 4 0.0001 0.0000 0.0001 19.5832 0.0001 5.4741
# 5 4.2242 -3.4844 9.3113 0.0001 29.7664 0.0000
# 6 0.0000 0.0000 0.0000 5.4741 0.0000 23.8079
#
#
#
# Elastic Compliance Matrix: (Units=1/GPa)
#
#
# Indices 1 2 3 4 5 6 
#
# 1 0.012650 -0.001896 -0.002186 0.000000 -0.001333 0.000000
# 2 -0.001896 0.024059 -0.011058 0.000000 0.006544 0.000000
# 3 -0.002186 -0.011058 0.013735 0.000000 -0.005281 0.000000
# 4 0.000000 0.000000 0.000000 0.054572 0.000000 -0.012548
# 5 -0.001333 0.006544 -0.005281 0.000000 0.036202 0.000000
# 6 0.000000 0.000000 0.000000 -0.012548 0.000000 0.044888
#
#
# Mechanical properties :
#
#
# Convention : Reuss Voigt Hill
#
# Bulk Modulus (GPa) = 49.59133 57.08969 53.34051
# Shear Modulus (GPa) = 22.41072 26.41005 24.41039
#
# Velocity S-wave (km/s) = 3.50887 3.80911 3.66207
# Velocity P-wave (km/s) = 6.60765 7.12111 6.86918
#
# Compressibility (1/GPa) = 0.02016481
#
# Stress axis : x y z
#
# Youngs Moduli (GPa) = 79.04962 41.56386 72.80773
#
# Poissons Ratio (x) = 0.07882 0.15914
# Poissons Ratio (y) = 0.14991 0.80508
# Poissons Ratio (z) = 0.17278 0.45960
#
# Static dielectric constant tensor:
#      x y z
#    x 1.639250 0.000000 -0.006850 
#    y 0.000000 1.594910 0.000000 
#    z -0.006850 0.000000 1.666010 
# 
# From -- ./inp_files/216487.got.cif
#   From: 2010.05.17/outbox.cif.g08.bks.cpg/sg12_109_cif.got.tgz:216487.got - 2010.06.03 13:09:07.
