data_PCOD9197676
_publ_section_title
;
Structure prediction by ZEFSAII (Michael W. Deem and Ramdas Pophale) SiO2 
 PCOD9197676
Probable space group: C 2/M
;
_chemical_formula_sum "Si O2"
_cell_formula_units_Z 40
_cell_length_a 34.445231
_cell_length_b 12.813390
_cell_length_c 9.814925
_cell_angle_alpha 90.000000
_cell_angle_beta 22.874992
_cell_angle_gamma 90.000000
_cell_volume 1683.910773
_symmetry_space_group_name_H-M "C 2/M"
_symmetry_group_IT_number 12
_symmetry_cell_setting 'monoclinic'
loop_
_space_group_symop_operation_xyz
x,y,z
-x,y,-z
-x,-y,-z
x,-y,z
1/2+x,1/2+y,z
1/2-x,1/2+y,-z
1/2-x,1/2-y,-z
1/2+x,1/2-y,z
loop_
_atom_site_type_symbol
_atom_site_label
_atom_site_fract_x
_atom_site_fract_y
_atom_site_fract_z
Si Si1 0.904919 0.115373 0.208689
Si Si2 0.253322 0.794806 0.779996
Si Si3 0.363483 0.881648 0.677906
Si Si4 0.434463 0.110562 0.851552
Si Si5 0.097897 0.163390 0.088188
O O1 0.830867 0.210743 0.471750
O O2 0.863470 0.000000 0.377393
O O3 0.927327 0.114780 0.975242
O O4 0.000000 0.130017 0.000000
O O5 0.311399 0.863553 0.702570
O O6 0.174055 0.717044 0.111964
O O7 0.193962 0.866902 0.865770
O O8 0.483637 0.877137 0.294216
O O9 0.340176 0.000000 0.803130
O O10 0.500000 0.106320 0.500000
O O11 0.374753 0.215502 0.032369
O O12 0.380744 0.000000 0.037900
O O13 0.000000 0.156615 0.500000
#
# Coordination Sequence:
#
# PCOD9197676 Si02
#       5
#     8   8   8   8   8
#     4  11  26  44  63  89 127 172 211 251 307 375
#     4  11  22  39  63  90 125 168 204 259 310 367
#     4  10  20  35  61  93 123 159 206 254 309 369
#     4   9  16  31  56  87 115 147 196 250 303 359
#     4  11  22  41  65  94 124 161 208 262 312 364
#
# _framework density 23.754227
#
# number of rings (size 3 to 8) (size 9 to 14) (size 15 to 20)
#    0.000    1.600    4.000    2.400    2.800    2.000 
#    0.000    1.000    0.000    3.600    0.000    0.000 
#    0.000    0.000    0.000    0.000    0.000    0.000 
#
# Total GULP energy -111698.020220 kJ/mol
# GULP energy per Si atom -5584.901011 kJ/mol
# Density = 2.370016 g / cm^3
# Si number density = 23.754227 Si / 1000 Ang^3
#
#
#
# Elastic Constant Matrix: (Units=GPa)
#
#
# Indices 1 2 3 4 5 6 
#
# 1 197.4892 16.0930 33.0644 0.0000 -30.2009 0.0000
# 2 16.0930 76.5228 -1.4958 0.0000 -5.7029 0.0000
# 3 33.0644 -1.4958 41.8450 0.0000 -5.9192 0.0000
# 4 0.0000 0.0000 0.0000 8.8066 0.0000 3.4364
# 5 -30.2009 -5.7029 -5.9192 0.0000 24.7900 0.0000
# 6 0.0000 0.0000 0.0000 3.4364 0.0000 20.6444
#
#
#
# Elastic Compliance Matrix: (Units=1/GPa)
#
#
# Indices 1 2 3 4 5 6 
#
# 1 0.007015 -0.001026 -0.004558 0.000000 0.007221 0.000000
# 2 -0.001026 0.013482 0.001609 0.000000 0.002236 0.000000
# 3 -0.004558 0.001609 0.027761 0.000000 0.001446 0.000000
# 4 0.000000 0.000000 0.000000 0.121439 0.000000 -0.020214
# 5 0.007221 0.002236 0.001446 0.000000 0.049996 0.000000
# 6 0.000000 0.000000 0.000000 -0.020214 0.000000 0.051804
#
#
# Mechanical properties :
#
#
# Convention : Reuss Voigt Hill
#
# Bulk Modulus (GPa) = 24.80916 45.68667 35.24792
# Shear Modulus (GPa) = 17.07168 28.72789 22.89979
#
# Velocity S-wave (km/s) = 2.68373 3.48139 3.10825
# Velocity P-wave (km/s) = 4.47995 5.95272 5.26806
#
# Compressibility (1/GPa) = 0.04030769
#
# Stress axis : x y z
#
# Youngs Moduli (GPa) = 142.55979 74.17375 36.02143
#
# Poissons Ratio (x) = 0.07611 0.16418
# Poissons Ratio (y) = 0.14628 -0.05796
# Poissons Ratio (z) = 0.64977 -0.11934
#
# Static dielectric constant tensor:
#      x y z
#    x 1.944720 0.000000 0.046070 
#    y 0.000000 1.889020 0.000000 
#    z 0.046070 0.000000 1.916650 
# 
# From -- ./inp_files/72827.got.cif
#   From: 2010.05.17/outbox.cif.g08.bks.cpg/sg12_37_cif.got.tgz:72827.got - 2010.06.03 13:09:07.
