data_PCOD9197511
_publ_section_title
;
Structure prediction by ZEFSAII (Michael W. Deem and Ramdas Pophale) SiO2 
 PCOD9197511
Probable space group: C 2/M
;
_chemical_formula_sum "Si O2"
_cell_formula_units_Z 40
_cell_length_a 29.065918
_cell_length_b 14.157317
_cell_length_c 9.350010
_cell_angle_alpha 90.000000
_cell_angle_beta 146.843323
_cell_angle_gamma 90.000000
_cell_volume 2104.307058
_symmetry_space_group_name_H-M "C 2/M"
_symmetry_group_IT_number 12
_symmetry_cell_setting 'monoclinic'
loop_
_space_group_symop_operation_xyz
x,y,z
-x,y,-z
-x,-y,-z
x,-y,z
1/2+x,1/2+y,z
1/2-x,1/2+y,-z
1/2-x,1/2-y,-z
1/2+x,1/2-y,z
loop_
_atom_site_type_symbol
_atom_site_label
_atom_site_fract_x
_atom_site_fract_y
_atom_site_fract_z
Si Si1 0.296324 0.890848 0.228219
Si Si2 0.607124 0.602899 0.680447
Si Si3 0.753997 0.772207 0.342766
Si Si4 0.419579 0.609476 0.711680
Si Si5 0.404233 0.192896 0.253840
O O1 0.276110 0.823031 0.309615
O O2 0.362885 0.843482 0.294340
O O3 0.317812 0.000000 0.319829
O O4 0.207419 0.893365 0.913293
O O5 0.590946 0.500000 0.704037
O O6 0.564150 0.611551 0.415462
O O7 0.587956 0.693480 0.723074
O O8 0.750000 0.750000 0.500000
O O9 0.833422 0.839164 0.522455
O O10 0.667631 0.819410 0.055476
O O11 0.411513 0.500000 0.733985
O O12 0.500000 0.652293 0.000000
O O13 0.500000 0.154508 0.500000
#
# Coordination Sequence:
#
# PCOD9197511 Si02
#       5
#     8   8   8   8   8
#     4  10  20  40  62  82 115 158 204 245 287 347
#     4   9  17  35  60  83 112 151 193 243 293 345
#     4  11  23  38  60  89 122 156 194 246 305 355
#     4  10  20  35  60  87 115 150 188 238 302 355
#     4  11  22  37  59  89 119 160 203 241 293 353
#
# _framework density 19.008633
#
# number of rings (size 3 to 8) (size 9 to 14) (size 15 to 20)
#    0.000    1.800    4.000    1.200    2.800    1.600 
#    0.000    0.000    0.000    4.200    0.000    0.000 
#    0.000    0.000    0.000    0.000    0.000    0.000 
#
# Total GULP energy -111431.720321 kJ/mol
# GULP energy per Si atom -5571.586016 kJ/mol
# Density = 1.896537 g / cm^3
# Si number density = 19.008633 Si / 1000 Ang^3
#
#
#
# Elastic Constant Matrix: (Units=GPa)
#
#
# Indices 1 2 3 4 5 6 
#
# 1 84.1956 13.2674 51.5784 0.0000 2.7579 0.0000
# 2 13.2674 62.0734 31.9353 0.0000 2.4771 0.0000
# 3 51.5784 31.9353 139.0386 0.0000 12.2416 0.0000
# 4 0.0000 0.0000 0.0000 20.3501 0.0000 -3.8774
# 5 2.7579 2.4771 12.2416 0.0000 38.5467 0.0000
# 6 0.0000 0.0000 0.0000 -3.8774 0.0000 2.4565
#
#
#
# Elastic Compliance Matrix: (Units=1/GPa)
#
#
# Indices 1 2 3 4 5 6 
#
# 1 0.015399 -0.000395 -0.005686 0.000000 0.000729 0.000000
# 2 -0.000395 0.018280 -0.004065 0.000000 0.000144 0.000000
# 3 -0.005686 -0.004065 0.010469 0.000000 -0.002657 0.000000
# 4 0.000000 0.000000 0.000000 0.070276 0.000000 0.110928
# 5 0.000729 0.000144 -0.002657 0.000000 0.026725 0.000000
# 6 0.000000 0.000000 0.000000 0.110928 0.000000 0.582188
#
#
# Mechanical properties :
#
#
# Convention : Reuss Voigt Hill
#
# Bulk Modulus (GPa) = 41.91808 53.20776 47.56292
# Shear Modulus (GPa) = 6.65266 24.83908 15.74587
#
# Velocity S-wave (km/s) = 1.87281 3.61879 2.88124
# Velocity P-wave (km/s) = 5.17461 6.74633 6.01205
#
# Compressibility (1/GPa) = 0.02385606
#
# Stress axis : x y z
#
# Youngs Moduli (GPa) = 64.94096 54.70491 95.52000
#
# Poissons Ratio (x) = 0.02162 0.54311
# Poissons Ratio (y) = 0.02566 0.38827
# Poissons Ratio (z) = 0.36924 0.22236
#
# Static dielectric constant tensor:
#      x y z
#    x 1.669580 0.000000 0.011670 
#    y 0.000000 1.690370 0.000000 
#    z 0.011670 0.000000 1.699210 
# 
# From -- ./inp_files/71221.got.cif
#   From: 2010.05.17/outbox.cif.g08.bks.cpg/sg12_36_cif.got.tgz:71221.got - 2010.06.03 13:09:07.
