data_PCOD9197723
_publ_section_title
;
Structure prediction by ZEFSAII (Michael W. Deem and Ramdas Pophale) SiO2 
 PCOD9197723
Probable space group: C 2/M
;
_chemical_formula_sum "Si O2"
_cell_formula_units_Z 48
_cell_length_a 14.133145
_cell_length_b 19.554298
_cell_length_c 12.893763
_cell_angle_alpha 90.000000
_cell_angle_beta 137.313505
_cell_angle_gamma 90.000000
_cell_volume 2415.915425
_symmetry_space_group_name_H-M "C 2/M"
_symmetry_group_IT_number 12
_symmetry_cell_setting 'monoclinic'
loop_
_space_group_symop_operation_xyz
x,y,z
-x,y,-z
-x,-y,-z
x,-y,z
1/2+x,1/2+y,z
1/2-x,1/2+y,-z
1/2-x,1/2-y,-z
1/2+x,1/2-y,z
loop_
_atom_site_type_symbol
_atom_site_label
_atom_site_fract_x
_atom_site_fract_y
_atom_site_fract_z
Si Si1 0.298721 0.323417 0.582163
Si Si2 0.680531 0.151515 0.914797
Si Si3 0.362753 0.421586 0.458364
Si Si4 0.334853 0.080377 0.881870
Si Si5 0.463809 0.078576 0.592201
Si Si6 0.539021 0.724889 0.915603
O O1 0.250000 0.250000 0.500000
O O2 0.381391 0.367337 0.563499
O O3 0.164621 0.370170 0.495940
O O4 0.402361 0.311921 0.761136
O O5 0.591052 0.103738 0.766919
O O6 0.582443 0.214721 0.871526
O O7 0.713591 0.116001 0.051760
O O8 0.822291 0.177688 0.975231
O O9 0.500000 0.423890 0.500000
O O10 0.334283 0.500000 0.470205
O O11 0.239611 0.396044 0.283290
O O12 0.301335 0.000000 0.863636
O O13 0.500000 0.087539 0.000000
O O14 0.500000 0.080432 0.500000
O O15 0.430013 0.000000 0.592857
O O16 0.500000 0.748948 0.000000
#
# Coordination Sequence:
#
# PCOD9197723 Si02
#       6
#     8   8   8   8   8   8
#     4  12  24  41  63  96 130 172 212 263 322 385
#     4  11  22  41  65  91 127 171 211 267 321 389
#     4  10  22  40  62  91 125 161 205 260 317 377
#     4  10  20  35  62  94 122 156 203 258 318 378
#     4  11  24  44  68  95 129 172 221 267 316 383
#     4  11  25  42  61  92 132 167 214 266 324 385
#
# _framework density 19.868245999999999
#
# number of rings (size 3 to 8) (size 9 to 14) (size 15 to 20)
#    0.000    1.167    1.667    4.500    2.333    2.000 
#    0.000    2.500    0.000    6.000    0.000    0.000 
#    0.000    0.000    0.000    0.000    0.000    0.000 
#
# Total GULP energy -134133.199779 kJ/mol
# GULP energy per Si atom -5588.883324 kJ/mol
# Density = 1.982302 g / cm^3
# Si number density = 19.868246 Si / 1000 Ang^3
#
#
#
# Elastic Constant Matrix: (Units=GPa)
#
#
# Indices 1 2 3 4 5 6 
#
# 1 71.1277 31.2662 -2.6759 0.0000 0.8961 0.0000
# 2 31.2662 113.1693 32.7453 0.0000 -1.4560 0.0000
# 3 -2.6759 32.7453 88.8340 0.0000 1.6406 0.0000
# 4 0.0000 0.0000 0.0000 32.7348 0.0000 0.2838
# 5 0.8961 -1.4560 1.6406 0.0000 30.7257 0.0000
# 6 0.0000 0.0000 0.0000 0.2838 0.0000 34.7564
#
#
#
# Elastic Compliance Matrix: (Units=1/GPa)
#
#
# Indices 1 2 3 4 5 6 
#
# 1 0.016482 -0.005276 0.002457 0.000000 -0.000862 0.000000
# 2 -0.005276 0.011593 -0.004450 0.000000 0.000941 0.000000
# 3 0.002457 -0.004450 0.012989 0.000000 -0.000976 0.000000
# 4 0.000000 0.000000 0.000000 0.030551 0.000000 -0.000249
# 5 -0.000862 0.000941 -0.000976 0.000000 0.032668 0.000000
# 6 0.000000 0.000000 0.000000 -0.000249 0.000000 0.028774
#
#
# Mechanical properties :
#
#
# Convention : Reuss Voigt Hill
#
# Bulk Modulus (GPa) = 37.69651 43.97801 40.83726
# Shear Modulus (GPa) = 31.96202 33.76306 32.86254
#
# Velocity S-wave (km/s) = 4.01521 4.12679 4.07138
# Velocity P-wave (km/s) = 6.36477 6.70000 6.53454
#
# Compressibility (1/GPa) = 0.02652766
#
# Stress axis : x y z
#
# Youngs Moduli (GPa) = 60.67402 86.25547 76.98679
#
# Poissons Ratio (x) = 0.45504 -0.18916
# Poissons Ratio (y) = 0.32009 0.34257
# Poissons Ratio (z) = -0.14908 0.38382
#
# Static dielectric constant tensor:
#      x y z
#    x 1.676130 0.000000 -0.011190 
#    y 0.000000 1.707940 0.000000 
#    z -0.011190 0.000000 1.658790 
# 
# From -- ./inp_files/148019.got.cif
#   From: 2010.05.17/outbox.cif.g08.bks.cpg/sg12_75_cif.got.tgz:148019.got - 2010.06.03 13:09:07.
