data_PCOD9197160
_publ_section_title
;
Structure prediction by ZEFSAII (Michael W. Deem and Ramdas Pophale) SiO2 
 PCOD9197160
Probable space group: C 2/M
;
_chemical_formula_sum "Si O2"
_cell_formula_units_Z 56
_cell_length_a 27.750278
_cell_length_b 8.196207
_cell_length_c 18.197391
_cell_angle_alpha 90.000000
_cell_angle_beta 140.778775
_cell_angle_gamma 90.000000
_cell_volume 2617.120891
_symmetry_space_group_name_H-M "C 2/M"
_symmetry_group_IT_number 12
_symmetry_cell_setting 'monoclinic'
loop_
_space_group_symop_operation_xyz
x,y,z
-x,y,-z
-x,-y,-z
x,-y,z
1/2+x,1/2+y,z
1/2-x,1/2+y,-z
1/2-x,1/2-y,-z
1/2+x,1/2-y,z
loop_
_atom_site_type_symbol
_atom_site_label
_atom_site_fract_x
_atom_site_fract_y
_atom_site_fract_z
Si Si1 0.791412 0.688666 0.623742
Si Si2 0.844142 0.312283 0.445695
Si Si3 0.255911 0.195826 0.923332
Si Si4 0.389467 0.698167 0.338385
Si Si5 0.502236 0.308347 0.347236
Si Si6 0.457565 0.198828 0.874411
Si Si7 0.923420 0.303165 0.111870
O O1 0.806845 0.500000 0.627448
O O2 0.750000 0.750000 0.500000
O O3 0.727198 0.710377 0.610403
O O4 0.872293 0.757828 0.750215
O O5 0.822106 0.500000 0.421781
O O6 0.874765 0.260882 0.402282
O O7 0.920258 0.282343 0.583265
O O8 0.184103 0.256730 0.793570
O O9 0.252091 0.000000 0.916682
O O10 0.250000 0.250000 0.000000
O O11 0.337882 0.244232 0.988358
O O12 0.392259 0.500000 0.344234
O O13 0.462446 0.748415 0.376088
O O14 0.519467 0.500000 0.375055
O O15 0.442755 0.279691 0.211914
O O16 0.514457 0.240271 0.875244
O O17 0.452830 0.000000 0.874838
O O18 0.500000 0.253930 0.000000
O O19 0.925247 0.500000 0.124000
#
# Coordination Sequence:
#
# PCOD9197160 Si02
#       7
#     8   8   8   8   8   8   8
#     4  11  23  42  69  95 127 165 210 263 317 379
#     4  12  26  41  61  89 122 159 207 257 310 369
#     4  10  20  35  58  88 124 162 201 244 297 367
#     4  10  22  39  59  88 124 161 203 248 306 372
#     4  11  22  39  62  88 122 162 203 250 308 375
#     4   9  20  38  63  93 121 157 207 259 309 364
#     4  10  20  35  61  92 122 158 202 250 300 365
#
# _framework density 21.397559000000001
#
# number of rings (size 3 to 8) (size 9 to 14) (size 15 to 20)
#    0.000    1.571    1.429    3.429    2.000    4.571 
#    0.000    0.714    0.000    2.143    0.000    0.000 
#    0.000    0.000    0.000    0.000    0.000    0.000 
#
# Total GULP energy -156345.286308 kJ/mol
# GULP energy per Si atom -5583.760225 kJ/mol
# Density = 2.134886 g / cm^3
# Si number density = 21.397559 Si / 1000 Ang^3
#
#
#
# Elastic Constant Matrix: (Units=GPa)
#
#
# Indices 1 2 3 4 5 6 
#
# 1 104.3169 0.4385 54.3647 0.0000 15.7913 0.0000
# 2 0.4385 12.0390 7.8309 0.0000 0.5421 0.0000
# 3 54.3647 7.8309 136.1742 0.0000 19.3316 0.0000
# 4 0.0000 0.0000 0.0000 20.3512 0.0000 -6.0961
# 5 15.7913 0.5421 19.3316 0.0000 43.2174 0.0000
# 6 0.0000 0.0000 0.0000 -6.0961 0.0000 22.3133
#
#
#
# Elastic Compliance Matrix: (Units=1/GPa)
#
#
# Indices 1 2 3 4 5 6 
#
# 1 0.012433 0.002764 -0.004776 0.000000 -0.002441 0.000000
# 2 0.002764 0.086966 -0.006200 0.000000 0.000673 0.000000
# 3 -0.004776 -0.006200 0.009982 0.000000 -0.002642 0.000000
# 4 0.000000 0.000000 0.000000 0.053517 0.000000 0.014621
# 5 -0.002441 0.000673 -0.002642 0.000000 0.025204 0.000000
# 6 0.000000 0.000000 0.000000 0.014621 0.000000 0.048811
#
#
# Mechanical properties :
#
#
# Convention : Reuss Voigt Hill
#
# Bulk Modulus (GPa) = 10.75778 41.97760 26.36769
# Shear Modulus (GPa) = 17.58566 29.83611 23.71089
#
# Velocity S-wave (km/s) = 2.86991 3.73818 3.33244
# Velocity P-wave (km/s) = 4.00254 6.18809 5.21118
#
# Compressibility (1/GPa) = 0.09295602
#
# Stress axis : x y z
#
# Youngs Moduli (GPa) = 80.43029 11.49880 100.18162
#
# Poissons Ratio (x) = -0.03178 0.47847
# Poissons Ratio (y) = -0.22228 0.62112
# Poissons Ratio (z) = 0.38414 0.07129
#
# Static dielectric constant tensor:
#      x y z
#    x 1.737370 0.000000 -0.005830 
#    y 0.000000 1.750210 0.000000 
#    z -0.005830 0.000000 1.788520 
# 
# From -- ./inp_files/292548.got.cif
#   From: 2010.05.17/outbox.cif.g08.bks.cpg/sg12_147_cif.got.tgz:292548.got - 2010.06.03 13:09:07.
