data_PCOD9197475
_publ_section_title
;
Structure prediction by ZEFSAII (Michael W. Deem and Ramdas Pophale) SiO2 
 PCOD9197475
Probable space group: C 2/M
;
_chemical_formula_sum "Si O2"
_cell_formula_units_Z 64
_cell_length_a 16.571024
_cell_length_b 16.492915
_cell_length_c 15.675894
_cell_angle_alpha 90.000000
_cell_angle_beta 137.281478
_cell_angle_gamma 90.000000
_cell_volume 2906.451889
_symmetry_space_group_name_H-M "C 2/M"
_symmetry_group_IT_number 12
_symmetry_cell_setting 'monoclinic'
loop_
_space_group_symop_operation_xyz
x,y,z
-x,y,-z
-x,-y,-z
x,-y,z
1/2+x,1/2+y,z
1/2-x,1/2+y,-z
1/2-x,1/2-y,-z
1/2+x,1/2-y,z
loop_
_atom_site_type_symbol
_atom_site_label
_atom_site_fract_x
_atom_site_fract_y
_atom_site_fract_z
Si Si1 0.814746 0.661851 0.732107
Si Si2 0.988631 0.165248 0.731266
Si Si3 0.951107 0.090465 0.044272
Si Si4 0.310151 0.128876 0.199220
Si Si5 0.232876 0.404256 0.491441
Si Si6 0.266310 0.676384 0.146968
Si Si7 0.635666 0.817128 0.580171
Si Si8 0.942123 0.337013 0.151008
O O1 0.796037 0.610995 0.630487
O O2 0.778956 0.638583 0.800155
O O3 0.734737 0.744484 0.656837
O O4 0.957774 0.658656 0.843213
O O5 0.007348 0.133435 0.840205
O O6 0.104207 0.138521 0.769035
O O7 0.003920 0.260719 0.754698
O O8 0.863651 0.135143 0.601948
O O9 0.002232 0.000000 0.086659
O O10 0.811148 0.088009 0.923619
O O11 0.000000 0.136209 0.000000
O O12 0.284259 0.226240 0.171022
O O13 0.336639 0.120920 0.320015
O O14 0.408838 0.105573 0.205264
O O15 0.235306 0.500000 0.510733
O O16 0.151915 0.360293 0.501088
O O17 0.180120 0.669144 0.998074
O O18 0.500000 0.788343 0.500000
#
# Coordination Sequence:
#
# PCOD9197475 Si02
#       8
#     8   8   8   8   8   8   8   8
#     4  11  25  40  69  98 129 175 228 277 332 387
#     4  11  21  39  64  94 133 169 215 272 337 395
#     4  11  22  35  56  90 133 173 211 256 326 409
#     4  10  20  35  59  96 128 163 206 270 337 396
#     4  12  27  46  65  95 139 185 226 272 332 403
#     4  10  21  37  66  97 127 162 214 282 333 382
#     4  11  24  41  69  99 132 170 226 283 337 396
#     4  11  19  39  67  99 131 158 217 283 341 388
#
# _framework density 22.019976
#
# number of rings (size 3 to 8) (size 9 to 14) (size 15 to 20)
#    0.000    1.125    3.750    3.375    7.000    1.750 
#    0.000    3.750    0.000    0.750    0.000    0.000 
#    0.000    0.000    0.000    0.000    0.000    0.000 
#
# Total GULP energy -178300.566215 kJ/mol
# GULP energy per Si atom -5571.892694 kJ/mol
# Density = 2.196986 g / cm^3
# Si number density = 22.019976 Si / 1000 Ang^3
#
#
#
# Elastic Constant Matrix: (Units=GPa)
#
#
# Indices 1 2 3 4 5 6 
#
# 1 155.7154 5.7860 23.1660 0.0000 -6.4170 0.0000
# 2 5.7860 26.2569 6.6478 0.0000 -8.2246 0.0000
# 3 23.1660 6.6478 75.2093 0.0000 -11.1096 0.0000
# 4 0.0000 0.0000 0.0000 34.6295 0.0000 45.1442
# 5 -6.4170 -8.2246 -11.1096 0.0000 40.6725 0.0000
# 6 0.0000 0.0000 0.0000 45.1442 0.0000 -51.2626
#
#
#
# Elastic Compliance Matrix: (Units=1/GPa)
#
#
# Indices 1 2 3 4 5 6 
#
# 1 0.006760 -0.000884 -0.001952 0.000000 0.000355 0.000000
# 2 -0.000884 0.041225 -0.002252 0.000000 0.007582 0.000000
# 3 -0.001952 -0.002252 0.014572 0.000000 0.003217 0.000000
# 4 0.000000 0.000000 0.000000 0.013443 0.000000 0.011839
# 5 0.000355 0.007582 0.003217 0.000000 0.027054 0.000000
# 6 0.000000 0.000000 0.000000 0.011839 0.000000 -0.009081
#
#
# Mechanical properties :
#
#
# Convention : Reuss Voigt Hill
#
# Bulk Modulus (GPa) = 19.09079 36.48681 27.78880
# Shear Modulus (GPa) = 41.11558 19.57999 30.34778
#
# Velocity S-wave (km/s) = 4.32579 2.98517 3.71643
# Velocity P-wave (km/s) = 5.79988 5.33737 5.57342
#
# Compressibility (1/GPa) = 0.05238127
#
# Stress axis : x y z
#
# Youngs Moduli (GPa) = 147.93356 24.25710 68.62679
#
# Poissons Ratio (x) = 0.02145 0.13393
# Poissons Ratio (y) = 0.13083 0.15452
# Poissons Ratio (z) = 0.28871 0.05462
#
# Static dielectric constant tensor:
#      x y z
#    x 1.760320 0.000000 -0.098580 
#    y 0.000000 1.831520 0.000000 
#    z -0.098580 0.000000 1.708660 
# 
# From -- ./inp_files/216853.got.cif
#   From: 2010.05.17/outbox.cif.g08.bks.cpg/sg12_109_cif.got.tgz:216853.got - 2010.06.03 13:09:07.
