data_PCOD9197822
_publ_section_title
;
Structure prediction by ZEFSAII (Michael W. Deem and Ramdas Pophale) SiO2 
 PCOD9197822
Probable space group: C 2/M
;
_chemical_formula_sum "Si O2"
_cell_formula_units_Z 44
_cell_length_a 8.129615
_cell_length_b 15.363068
_cell_length_c 14.713329
_cell_angle_alpha 90.000000
_cell_angle_beta 88.945072
_cell_angle_gamma 90.000000
_cell_volume 1837.321938
_symmetry_space_group_name_H-M "C 2/M"
_symmetry_group_IT_number 12
_symmetry_cell_setting 'monoclinic'
loop_
_space_group_symop_operation_xyz
x,y,z
-x,y,-z
-x,-y,-z
x,-y,z
1/2+x,1/2+y,z
1/2-x,1/2+y,-z
1/2-x,1/2-y,-z
1/2+x,1/2-y,z
loop_
_atom_site_type_symbol
_atom_site_label
_atom_site_fract_x
_atom_site_fract_y
_atom_site_fract_z
Si Si1 0.000000 0.626721 0.500000
Si Si2 0.088912 0.364917 0.697677
Si Si3 0.584610 0.678381 0.090401
Si Si4 0.165682 0.101376 0.550275
Si Si5 0.981144 0.163422 0.714037
Si Si6 0.464420 0.871181 0.099152
O O1 0.030835 0.592250 0.603745
O O2 0.182770 0.660981 0.479830
O O3 0.289551 0.359605 0.695672
O O4 0.026838 0.403089 0.795573
O O5 0.019771 0.265428 0.696103
O O6 0.493708 0.644947 0.180399
O O7 0.571417 0.782905 0.095200
O O8 0.772981 0.653554 0.094218
O O9 0.500000 0.647550 0.000000
O O10 0.000000 0.126449 0.500000
O O11 0.111233 0.110744 0.653967
O O12 0.206237 0.000000 0.528134
O O13 0.500000 0.913347 0.000000
#
# Coordination Sequence:
#
# PCOD9197822 Si02
#       6
#     4   8   8   8   8   8
#     4  12  23  38  60  82 113 138 184 220 278 334
#     4  10  21  32  53  84 112 148 173 223 275 327
#     4   9  16  26  46  71 102 140 174 213 258 315
#     4  11  24  41  59  77 105 143 186 229 266 318
#     4  10  20  36  52  80 114 142 182 220 273 319
#     4   9  16  27  43  69 109 140 176 209 253 318
#
# _framework density 23.947897000000001
#
# number of rings (size 3 to 8) (size 9 to 14) (size 15 to 20)
#    0.000    2.000    1.818    3.545    1.273    5.818 
#    0.000    0.000    0.000    0.545    0.000    0.000 
#    0.000    7.273    0.000    0.000    0.000    0.000 
#
# Total GULP energy -122575.793396 kJ/mol
# GULP energy per Si atom -5571.626973 kJ/mol
# Density = 2.389339 g / cm^3
# Si number density = 23.947897 Si / 1000 Ang^3
#
#
#
# Elastic Constant Matrix: (Units=GPa)
#
#
# Indices 1 2 3 4 5 6 
#
# 1 111.5872 34.8221 63.2435 0.0000 -9.1578 0.0000
# 2 34.8221 48.9456 27.7270 0.0000 -2.0559 0.0000
# 3 63.2435 27.7270 259.4696 0.0000 -3.5619 0.0000
# 4 0.0000 0.0000 0.0000 8.5848 0.0000 -13.3175
# 5 -9.1578 -2.0559 -3.5619 0.0000 54.4351 0.0000
# 6 0.0000 0.0000 0.0000 -13.3175 0.0000 -11.6644
#
#
#
# Elastic Compliance Matrix: (Units=1/GPa)
#
#
# Indices 1 2 3 4 5 6 
#
# 1 0.012809 -0.007755 -0.002270 0.000000 0.001713 0.000000
# 2 -0.007755 0.026467 -0.000943 0.000000 -0.000367 0.000000
# 3 -0.002270 -0.000943 0.004506 0.000000 -0.000123 0.000000
# 4 0.000000 0.000000 0.000000 0.042035 0.000000 -0.047992
# 5 0.001713 -0.000367 -0.000123 0.000000 0.018637 0.000000
# 6 0.000000 0.000000 0.000000 -0.047992 0.000000 -0.030937
#
#
# Mechanical properties :
#
#
# Convention : Reuss Voigt Hill
#
# Bulk Modulus (GPa) = 45.77428 74.62083 60.19755
# Shear Modulus (GPa) = 48.66919 29.88510 39.27714
#
# Velocity S-wave (km/s) = 4.51299 3.53643 4.05422
# Velocity P-wave (km/s) = 6.80527 6.92115 6.86346
#
# Compressibility (1/GPa) = 0.02184633
#
# Stress axis : x y z
#
# Youngs Moduli (GPa) = 78.07224 37.78310 221.90890
#
# Poissons Ratio (x) = 0.29300 0.50369
# Poissons Ratio (y) = 0.60544 0.20928
# Poissons Ratio (z) = 0.17721 0.03563
#
# Static dielectric constant tensor:
#      x y z
#    x 1.867940 0.000000 0.021110 
#    y 0.000000 1.907940 0.000000 
#    z 0.021110 0.000000 1.993700 
# 
# From -- ./inp_files/195452.got.cif
#   From: 2010.05.17/outbox.cif.g08.bks.cpg/sg12_98_cif.got.tgz:195452.got - 2010.06.03 13:09:07.
