data_PCOD9197526
_publ_section_title
;
Structure prediction by ZEFSAII (Michael W. Deem and Ramdas Pophale) SiO2 
 PCOD9197526
Probable space group: C 2/M
;
_chemical_formula_sum "Si O2"
_cell_formula_units_Z 40
_cell_length_a 11.554890
_cell_length_b 18.368682
_cell_length_c 18.740723
_cell_angle_alpha 90.000000
_cell_angle_beta 149.665807
_cell_angle_gamma 90.000000
_cell_volume 2008.900050
_symmetry_space_group_name_H-M "C 2/M"
_symmetry_group_IT_number 12
_symmetry_cell_setting 'monoclinic'
loop_
_space_group_symop_operation_xyz
x,y,z
-x,y,-z
-x,-y,-z
x,-y,z
1/2+x,1/2+y,z
1/2-x,1/2+y,-z
1/2-x,1/2-y,-z
1/2+x,1/2-y,z
loop_
_atom_site_type_symbol
_atom_site_label
_atom_site_fract_x
_atom_site_fract_y
_atom_site_fract_z
Si Si1 0.008938 0.915709 0.160675
Si Si2 0.905959 0.685408 0.023890
Si Si3 0.988623 0.292288 0.216436
Si Si4 0.230183 0.339181 0.578640
Si Si5 0.540133 0.087218 0.690081
O O1 0.127633 0.897914 0.299736
O O2 0.206592 0.897424 0.208214
O O3 0.954833 0.000000 0.123944
O O4 0.780212 0.868515 0.040285
O O5 0.072952 0.705395 0.178543
O O6 0.762612 0.756171 0.923500
O O7 0.000000 0.653927 0.000000
O O8 0.982852 0.371091 0.247950
O O9 0.126883 0.235548 0.339903
O O10 0.000000 0.324020 0.500000
O O11 0.147298 0.375453 0.461570
O O12 0.512907 0.000000 0.678332
#
# Coordination Sequence:
#
# PCOD9197526 Si02
#       5
#     8   8   8   8   8
#     4   9  19  36  57  85 114 149 187 227 281 331
#     4  10  23  37  56  80 114 154 191 232 272 332
#     4  10  22  36  57  84 114 149 190 232 279 330
#     4   9  18  34  59  85 112 148 184 232 277 336
#     4  10  20  35  60  88 117 143 182 237 283 333
#
# _framework density 19.911391999999999
#
# number of rings (size 3 to 8) (size 9 to 14) (size 15 to 20)
#    0.000    2.400    0.000    1.200   11.200    3.600 
#    0.000    2.000    0.000    0.600    0.000    0.000 
#    0.000    0.000    0.000    0.000    0.000    0.000 
#
# Total GULP energy -111482.975154 kJ/mol
# GULP energy per Si atom -5574.148758 kJ/mol
# Density = 1.986607 g / cm^3
# Si number density = 19.911392 Si / 1000 Ang^3
#
#
#
# Elastic Constant Matrix: (Units=GPa)
#
#
# Indices 1 2 3 4 5 6 
#
# 1 56.5692 45.4633 35.6221 -0.0018 -22.5353 0.0015
# 2 45.4633 107.0425 46.4100 0.0011 -11.0902 0.0026
# 3 35.6221 46.4100 68.3953 0.0014 -13.3994 0.0047
# 4 -0.0018 0.0011 0.0014 22.7686 -0.0020 -0.0709
# 5 -22.5353 -11.0902 -13.3994 -0.0020 21.6631 0.0019
# 6 0.0015 0.0026 0.0047 -0.0709 0.0019 21.4775
#
#
#
# Elastic Compliance Matrix: (Units=1/GPa)
#
#
# Indices 1 2 3 4 5 6 
#
# 1 0.049567 -0.012934 -0.009370 0.000008 0.039145 -0.000003
# 2 -0.012934 0.016648 -0.006288 -0.000002 -0.008821 0.000001
# 3 -0.009370 -0.006288 0.024155 -0.000002 0.001974 -0.000004
# 4 0.000008 -0.000002 -0.000002 0.043921 0.000011 0.000145
# 5 0.039145 -0.008821 0.001974 0.000011 0.083587 -0.000009
# 6 -0.000003 0.000001 -0.000004 0.000145 -0.000009 0.046561
#
#
# Mechanical properties :
#
#
# Convention : Reuss Voigt Hill
#
# Bulk Modulus (GPa) = 30.13470 54.11085 42.12278
# Shear Modulus (GPa) = 15.02922 20.14929 17.58926
#
# Velocity S-wave (km/s) = 2.75035 3.18456 2.97539
# Velocity P-wave (km/s) = 5.02525 6.38410 5.74499
#
# Compressibility (1/GPa) = 0.03318433
#
# Stress axis : x y z
#
# Youngs Moduli (GPa) = 20.17480 60.06786 41.39931
#
# Poissons Ratio (x) = 0.77690 0.38793
# Poissons Ratio (y) = 0.26093 0.26034
# Poissons Ratio (z) = 0.18905 0.37773
#
# Static dielectric constant tensor:
#      x y z
#    x 1.743840 0.000000 -0.020040 
#    y 0.000000 1.693470 0.000000 
#    z -0.020040 0.000000 1.768830 
# 
# From -- ./inp_files/132328.got.cif
#   From: 2010.05.17/outbox.cif.g08.bks.cpg/sg12_67_cif.got.tgz:132328.got - 2010.06.03 13:09:07.
