data_PCOD9197418
_publ_section_title
;
Structure prediction by ZEFSAII (Michael W. Deem and Ramdas Pophale) SiO2 
 PCOD9197418
Probable space group: C 2/M
;
_chemical_formula_sum "Si O2"
_cell_formula_units_Z 64
_cell_length_a 17.573275
_cell_length_b 13.849037
_cell_length_c 12.528833
_cell_angle_alpha 90.000000
_cell_angle_beta 84.969123
_cell_angle_gamma 90.000000
_cell_volume 3037.432165
_symmetry_space_group_name_H-M "C 2/M"
_symmetry_group_IT_number 12
_symmetry_cell_setting 'monoclinic'
loop_
_space_group_symop_operation_xyz
x,y,z
-x,y,-z
-x,-y,-z
x,-y,z
1/2+x,1/2+y,z
1/2-x,1/2+y,-z
1/2-x,1/2-y,-z
1/2+x,1/2-y,z
loop_
_atom_site_type_symbol
_atom_site_label
_atom_site_fract_x
_atom_site_fract_y
_atom_site_fract_z
Si Si1 0.671843 0.388397 0.954433
Si Si2 0.333942 0.617725 0.376611
Si Si3 0.058835 0.295891 0.148361
Si Si4 0.860573 0.884229 0.610831
Si Si5 0.699019 0.113010 0.239660
Si Si6 0.100600 0.700254 0.901568
Si Si7 0.238347 0.884043 0.174092
Si Si8 0.000827 0.114226 0.736470
O O1 0.647141 0.500000 0.956588
O O2 0.747789 0.380969 0.872630
O O3 0.610832 0.315914 0.912691
O O4 0.694687 0.356460 0.070557
O O5 0.332834 0.500000 0.376673
O O6 0.340515 0.654505 0.496797
O O7 0.256710 0.647420 0.325502
O O8 0.412748 0.641683 0.305596
O O9 0.119456 0.334275 0.226103
O O10 0.040101 0.182843 0.172232
O O11 0.971776 0.334400 0.157116
O O12 0.089107 0.325625 0.027678
O O13 0.805915 0.853321 0.714507
O O14 0.947598 0.870424 0.638191
O O15 0.850701 0.000000 0.605050
O O16 0.682609 0.000000 0.260366
O O17 0.178042 0.659399 0.844968
O O18 0.242450 0.000000 0.171995
O O19 0.997215 0.000000 0.764601
#
# Coordination Sequence:
#
# PCOD9197418 Si02
#       8
#     8   8   8   8   8   8   8   8
#     4  10  20  36  60  87 114 154 197 239 300 357
#     4   9  18  36  63  90 117 154 195 242 302 355
#     4  11  24  37  56  86 119 159 203 243 297 353
#     4   9  18  33  60  92 118 152 195 241 297 357
#     4  10  21  38  60  84 116 156 200 248 289 345
#     4  11  23  37  56  84 121 161 197 247 295 350
#     4  10  20  35  59  90 122 158 197 240 295 356
#     4  10  20  37  60  89 124 155 190 241 298 360
#
# _framework density 21.070429000000001
#
# number of rings (size 3 to 8) (size 9 to 14) (size 15 to 20)
#    0.000    2.000    1.250    2.250    1.750    5.000 
#    0.000    3.125    2.750    0.000    0.000    3.500 
#    0.000    1.000    0.000    0.000    0.000    0.000 
#
# Total GULP energy -178681.747845 kJ/mol
# GULP energy per Si atom -5583.804620 kJ/mol
# Density = 2.102247 g / cm^3
# Si number density = 21.070429 Si / 1000 Ang^3
#
#
#
# Elastic Constant Matrix: (Units=GPa)
#
#
# Indices 1 2 3 4 5 6 
#
# 1 174.1660 35.6452 63.8459 0.0000 32.2424 0.0000
# 2 35.6452 43.3647 10.7575 0.0000 9.1627 0.0000
# 3 63.8459 10.7575 116.1147 0.0000 16.9342 0.0000
# 4 0.0000 0.0000 0.0000 15.8633 0.0000 1.7419
# 5 32.2424 9.1627 16.9342 0.0000 26.4897 0.0000
# 6 0.0000 0.0000 0.0000 1.7419 0.0000 26.9430
#
#
#
# Elastic Compliance Matrix: (Units=1/GPa)
#
#
# Indices 1 2 3 4 5 6 
#
# 1 0.009567 -0.005381 -0.003678 0.000000 -0.007432 0.000000
# 2 -0.005381 0.028047 0.000904 0.000000 -0.003730 0.000000
# 3 -0.003678 0.000904 0.010966 0.000000 -0.002846 0.000000
# 4 0.000000 0.000000 0.000000 0.063489 0.000000 -0.004105
# 5 -0.007432 -0.003730 -0.002846 0.000000 0.049906 0.000000
# 6 0.000000 0.000000 0.000000 -0.004105 0.000000 0.037381
#
#
# Mechanical properties :
#
#
# Convention : Reuss Voigt Hill
#
# Bulk Modulus (GPa) = 30.98812 61.57138 46.27975
# Shear Modulus (GPa) = 22.08253 28.75234 25.41743
#
# Velocity S-wave (km/s) = 3.24085 3.69803 3.47696
# Velocity P-wave (km/s) = 5.36125 6.89341 6.17503
#
# Compressibility (1/GPa) = 0.03227043
#
# Stress axis : x y z
#
# Youngs Moduli (GPa) = 104.52385 35.65402 91.19201
#
# Poissons Ratio (x) = 0.19187 0.33541
# Poissons Ratio (y) = 0.56248 -0.08248
# Poissons Ratio (z) = 0.38445 -0.03225
#
# Static dielectric constant tensor:
#      x y z
#    x 1.756460 0.000000 0.029190 
#    y 0.000000 1.790480 0.000000 
#    z 0.029190 0.000000 1.791370 
# 
# From -- ./inp_files/156639.got.cif
#   From: 2010.05.17/outbox.cif.g08.bks.cpg/sg12_79_cif.got.tgz:156639.got - 2010.06.03 13:09:07.
