data_PCOD9197672
_publ_section_title
;
Structure prediction by ZEFSAII (Michael W. Deem and Ramdas Pophale) SiO2 
 PCOD9197672
Probable space group: C 2/M
;
_chemical_formula_sum "Si O2"
_cell_formula_units_Z 44
_cell_length_a 19.545533
_cell_length_b 10.491294
_cell_length_c 10.201797
_cell_angle_alpha 90.000000
_cell_angle_beta 72.664560
_cell_angle_gamma 90.000000
_cell_volume 1996.935659
_symmetry_space_group_name_H-M "C 2/M"
_symmetry_group_IT_number 12
_symmetry_cell_setting 'monoclinic'
loop_
_space_group_symop_operation_xyz
x,y,z
-x,y,-z
-x,-y,-z
x,-y,z
1/2+x,1/2+y,z
1/2-x,1/2+y,-z
1/2-x,1/2-y,-z
1/2+x,1/2-y,z
loop_
_atom_site_type_symbol
_atom_site_label
_atom_site_fract_x
_atom_site_fract_y
_atom_site_fract_z
Si Si1 0.160547 0.500000 0.793382
Si Si2 0.426239 0.268937 0.875085
Si Si3 0.835673 0.271615 0.660955
Si Si4 0.705866 0.736947 0.890473
Si Si5 0.378035 0.500000 0.556206
Si Si6 0.608839 0.000000 0.542720
Si Si7 0.999877 0.000000 0.718648
Si Si8 0.499294 0.000000 0.174112
O O1 0.192944 0.377035 0.841279
O O2 0.164130 0.500000 0.633901
O O3 0.075017 0.500000 0.861522
O O4 0.379736 0.251863 0.769254
O O5 0.485745 0.374238 0.811540
O O6 0.459439 0.130110 0.875620
O O7 0.371777 0.312868 0.020702
O O8 0.758283 0.324302 0.752705
O O9 0.834347 0.131768 0.594785
O O10 0.876523 0.373990 0.549405
O O11 0.750000 0.750000 0.000000
O O12 0.437562 0.500000 0.640593
O O13 0.424765 0.500000 0.397690
O O14 0.530923 0.000000 0.657496
#
# Coordination Sequence:
#
# PCOD9197672 Si02
#       8
#     4   8   8   8   4   4   4   4
#     4  10  24  43  61  94 122 165 207 253 325 377
#     4  10  20  35  61  92 126 165 210 258 302 361
#     4  10  20  36  60  92 125 165 212 256 301 362
#     4  10  22  39  63  87 116 159 212 262 308 363
#     4   9  17  31  55  81 119 162 197 245 296 351
#     4  10  23  37  59  96 126 167 203 260 319 366
#     4   9  18  31  52  86 119 154 199 249 300 346
#     4  10  22  38  61  94 125 171 201 256 319 371
#
# _framework density 22.033757999999999
#
# number of rings (size 3 to 8) (size 9 to 14) (size 15 to 20)
#    0.545    1.636    0.000    2.727    0.000   10.182 
#    0.000    0.000    0.000    5.455    0.000    0.000 
#    0.000    0.000    0.000    0.000    0.000    0.000 
#
# Total GULP energy -122787.897764 kJ/mol
# GULP energy per Si atom -5581.268080 kJ/mol
# Density = 2.198361 g / cm^3
# Si number density = 22.033758 Si / 1000 Ang^3
#
#
#
# Elastic Constant Matrix: (Units=GPa)
#
#
# Indices 1 2 3 4 5 6 
#
# 1 48.9258 16.7321 27.3173 0.0000 -24.9513 0.0000
# 2 16.7321 108.2776 48.6327 0.0000 -18.1369 0.0000
# 3 27.3173 48.6327 135.6680 0.0000 -44.0688 0.0000
# 4 0.0000 0.0000 0.0000 145.4036 0.0000 48.8206
# 5 -24.9513 -18.1369 -44.0688 0.0000 37.9395 0.0000
# 6 0.0000 0.0000 0.0000 48.8206 0.0000 34.8903
#
#
#
# Elastic Compliance Matrix: (Units=1/GPa)
#
#
# Indices 1 2 3 4 5 6 
#
# 1 0.031087 -0.001835 0.001211 0.000000 0.020975 0.000000
# 2 -0.001835 0.011144 -0.003673 0.000000 -0.000145 0.000000
# 3 0.001211 -0.003673 0.013059 0.000000 0.014210 0.000000
# 4 0.000000 0.000000 0.000000 0.012972 0.000000 -0.018151
# 5 0.020975 -0.000145 0.014210 0.000000 0.056589 0.000000
# 6 0.000000 0.000000 0.000000 -0.018151 0.000000 0.054059
#
#
# Mechanical properties :
#
#
# Convention : Reuss Voigt Hill
#
# Bulk Modulus (GPa) = 21.41372 53.13729 37.27550
# Shear Modulus (GPa) = 24.62231 56.99263 40.80747
#
# Velocity S-wave (km/s) = 3.34650 5.09139 4.30821
# Velocity P-wave (km/s) = 4.96707 7.66365 6.45768
#
# Compressibility (1/GPa) = 0.04669903
#
# Stress axis : x y z
#
# Youngs Moduli (GPa) = 32.16784 89.73222 76.57327
#
# Poissons Ratio (x) = 0.16462 -0.09276
# Poissons Ratio (y) = 0.05902 0.28122
# Poissons Ratio (z) = -0.03897 0.32955
#
# Static dielectric constant tensor:
#      x y z
#    x 1.833000 0.000000 -0.031160 
#    y 0.000000 1.762540 0.000000 
#    z -0.031160 0.000000 1.860750 
# 
# From -- ./inp_files/94878.got.cif
#   From: 2010.05.17/outbox.cif.g08.bks.cpg/sg12_48_cif.got.tgz:94878.got - 2010.06.03 13:09:07.
