data_PCOD9197881
_publ_section_title
;
Structure prediction by ZEFSAII (Michael W. Deem and Ramdas Pophale) SiO2 
 PCOD9197881
Probable space group: C 2/M
;
_chemical_formula_sum "Si O2"
_cell_formula_units_Z 56
_cell_length_a 12.337262
_cell_length_b 24.213070
_cell_length_c 11.534446
_cell_angle_alpha 90.000000
_cell_angle_beta 128.595493
_cell_angle_gamma 90.000000
_cell_volume 2692.979292
_symmetry_space_group_name_H-M "C 2/M"
_symmetry_group_IT_number 12
_symmetry_cell_setting 'monoclinic'
loop_
_space_group_symop_operation_xyz
x,y,z
-x,y,-z
-x,-y,-z
x,-y,z
1/2+x,1/2+y,z
1/2-x,1/2+y,-z
1/2-x,1/2-y,-z
1/2+x,1/2-y,z
loop_
_atom_site_type_symbol
_atom_site_label
_atom_site_fract_x
_atom_site_fract_y
_atom_site_fract_z
Si Si1 0.840570 0.936678 0.934616
Si Si2 0.804102 0.843291 0.547450
Si Si3 0.398737 0.333226 0.132759
Si Si4 0.000177 0.717562 0.126052
Si Si5 0.982689 0.305159 0.610966
Si Si6 0.308909 0.706379 0.306217
Si Si7 0.164589 0.561981 0.589589
O O1 0.740235 0.921702 0.760326
O O2 0.804064 0.000000 0.949609
O O3 0.844189 0.885044 0.024216
O O4 0.000000 0.939648 0.000000
O O5 0.682560 0.799278 0.494778
O O6 0.840110 0.832390 0.437278
O O7 0.719342 0.898658 0.523772
O O8 0.943927 0.842443 0.715360
O O9 0.409526 0.273929 0.073236
O O10 0.304245 0.326924 0.183066
O O11 0.976621 0.681885 0.227919
O O12 0.162166 0.734344 0.235452
O O13 0.000000 0.689680 0.000000
O O14 0.074874 0.251401 0.647847
O O15 0.000000 0.337113 0.500000
O O16 0.215169 0.500000 0.597735
O O17 0.000000 0.557724 0.500000
#
# Coordination Sequence:
#
# PCOD9197881 Si02
#       7
#     8   8   8   8   8   8   8
#     4  10  20  39  64  90 121 152 191 250 313 361
#     4  11  21  36  60  87 118 157 205 246 301 357
#     4  11  21  35  61  87 119 158 205 242 303 361
#     4  10  22  37  53  79 119 162 207 253 296 355
#     4  10  20  36  54  80 113 159 204 245 293 351
#     4  10  22  39  54  82 123 166 203 250 294 354
#     4  10  22  41  65  93 119 149 197 254 305 361
#
# _framework density 20.794812
#
# number of rings (size 3 to 8) (size 9 to 14) (size 15 to 20)
#    0.000    1.714    1.429    3.857    0.000    6.286 
#    7.714    0.714    0.000    1.714    0.000    3.000 
#    0.000    0.000    0.000    0.000    0.000    0.000 
#
# Total GULP energy -155907.565955 kJ/mol
# GULP energy per Si atom -5568.127356 kJ/mol
# Density = 2.074748 g / cm^3
# Si number density = 20.794812 Si / 1000 Ang^3
#
#
#
# Elastic Constant Matrix: (Units=GPa)
#
#
# Indices 1 2 3 4 5 6 
#
# 1 122.3222 40.0342 46.7248 0.0000 -16.3467 0.0000
# 2 40.0342 83.7674 28.7346 0.0000 -13.0645 0.0000
# 3 46.7248 28.7346 114.3103 0.0000 -16.0077 0.0000
# 4 0.0000 0.0000 0.0000 23.6621 0.0000 -4.7794
# 5 -16.3467 -13.0645 -16.0077 0.0000 47.0993 0.0000
# 6 0.0000 0.0000 0.0000 -4.7794 0.0000 37.0679
#
#
#
# Elastic Compliance Matrix: (Units=1/GPa)
#
#
# Indices 1 2 3 4 5 6 
#
# 1 0.010891 -0.003835 -0.003263 0.000000 0.001607 0.000000
# 2 -0.003835 0.014733 -0.001837 0.000000 0.002131 0.000000
# 3 -0.003263 -0.001837 0.010829 0.000000 0.002038 0.000000
# 4 0.000000 0.000000 0.000000 0.043392 0.000000 0.005595
# 5 0.001607 0.002131 0.002038 0.000000 0.023074 0.000000
# 6 0.000000 0.000000 0.000000 0.005595 0.000000 0.027699
#
#
# Mechanical properties :
#
#
# Convention : Reuss Voigt Hill
#
# Bulk Modulus (GPa) = 53.81269 61.26523 57.53896
# Shear Modulus (GPa) = 32.32401 35.22627 33.77514
#
# Velocity S-wave (km/s) = 3.94690 4.12028 4.03452
# Velocity P-wave (km/s) = 6.83409 7.22228 7.03087
#
# Compressibility (1/GPa) = 0.01858298
#
# Stress axis : x y z
#
# Youngs Moduli (GPa) = 91.81477 67.87254 92.34364
#
# Poissons Ratio (x) = 0.26032 0.30129
# Poissons Ratio (y) = 0.35214 0.16968
# Poissons Ratio (z) = 0.29957 0.12471
#
# Static dielectric constant tensor:
#      x y z
#    x 1.763110 0.000000 -0.005300 
#    y 0.000000 1.795520 0.000000 
#    z -0.005300 0.000000 1.864880 
# 
# From -- ./inp_files/137010.got.cif
#   From: 2010.05.17/outbox.cif.g08.bks.cpg/sg12_69_cif.got.tgz:137010.got - 2010.06.03 13:09:07.
