data_PCOD9197070
_publ_section_title
;
Structure prediction by ZEFSAII (Michael W. Deem and Ramdas Pophale) SiO2 
 PCOD9197070
Probable space group: C 2/M
;
_chemical_formula_sum "Si O2"
_cell_formula_units_Z 64
_cell_length_a 13.199181
_cell_length_b 11.814209
_cell_length_c 20.298257
_cell_angle_alpha 90.000000
_cell_angle_beta 108.033098
_cell_angle_gamma 90.000000
_cell_volume 3009.782487
_symmetry_space_group_name_H-M "C 2/M"
_symmetry_group_IT_number 12
_symmetry_cell_setting 'monoclinic'
loop_
_space_group_symop_operation_xyz
x,y,z
-x,y,-z
-x,-y,-z
x,-y,z
1/2+x,1/2+y,z
1/2-x,1/2+y,-z
1/2-x,1/2-y,-z
1/2+x,1/2-y,z
loop_
_atom_site_type_symbol
_atom_site_label
_atom_site_fract_x
_atom_site_fract_y
_atom_site_fract_z
Si Si1 0.093370 0.871172 0.464722
Si Si2 0.846410 0.816210 0.834631
Si Si3 0.136921 0.282590 0.708152
Si Si4 0.203411 0.706725 0.922018
Si Si5 0.565847 0.372593 0.810038
Si Si6 0.482119 0.127531 0.923330
Si Si7 0.560159 0.124773 0.388172
Si Si8 0.779014 0.875975 0.385528
O O1 0.074882 0.750299 0.424686
O O2 0.197610 0.861006 0.532091
O O3 0.000000 0.876885 0.500000
O O4 0.096573 0.000000 0.433391
O O5 0.747036 0.817495 0.764959
O O6 0.791810 0.851665 0.893196
O O7 0.895647 0.694090 0.863623
O O8 0.950996 0.872119 0.823461
O O9 0.071749 0.203899 0.746092
O O10 0.167159 0.214654 0.648937
O O11 0.055067 0.375972 0.667924
O O12 0.154389 0.815877 0.874749
O O13 0.097797 0.632670 0.912778
O O14 0.250000 0.750000 0.000000
O O15 0.594500 0.500000 0.798916
O O16 0.445617 0.000000 0.925409
O O17 0.500000 0.179556 0.000000
O O18 0.652864 0.126277 0.352438
O O19 0.573776 0.000000 0.426054
O O20 0.820428 0.000000 0.375585
#
# Coordination Sequence:
#
# PCOD9197070 Si02
#       8
#     8   8   8   8   8   8   8   8
#     4  10  20  39  66  97 132 172 217 263 319 389
#     4  10  22  39  59  83 123 157 196 256 317 371
#     4  11  22  41  60  87 122 168 210 262 314 376
#     4  10  20  37  58  85 121 154 188 247 314 380
#     4  10  23  39  60  86 114 154 208 253 301 376
#     4  10  20  35  58  87 114 151 203 251 301 371
#     4  11  24  41  65  99 132 168 217 271 324 380
#     4  10  21  39  64  91 128 172 217 263 319 383
#
# _framework density 21.263994
#
# number of rings (size 3 to 8) (size 9 to 14) (size 15 to 20)
#    0.000    1.750    2.500    1.500    0.000    4.750 
#    0.000    8.750    0.000    0.000    0.000    0.000 
#    0.000    0.000    0.000    0.000    0.000    0.000 
#
# Total GULP energy -178205.380424 kJ/mol
# GULP energy per Si atom -5568.918138 kJ/mol
# Density = 2.121560 g / cm^3
# Si number density = 21.263994 Si / 1000 Ang^3
#
#
#
# Elastic Constant Matrix: (Units=GPa)
#
#
# Indices 1 2 3 4 5 6 
#
# 1 108.2523 19.2067 14.1289 0.0000 6.2865 0.0000
# 2 19.2067 122.6056 43.1201 0.0000 -0.3440 0.0000
# 3 14.1289 43.1201 63.4155 0.0000 14.1434 0.0000
# 4 0.0000 0.0000 0.0000 -12.0083 0.0000 18.7916
# 5 6.2865 -0.3440 14.1434 0.0000 33.9230 0.0000
# 6 0.0000 0.0000 0.0000 18.7916 0.0000 -7.5264
#
#
#
# Elastic Compliance Matrix: (Units=1/GPa)
#
#
# Indices 1 2 3 4 5 6 
#
# 1 0.009659 -0.001138 -0.001076 0.000000 -0.001353 0.000000
# 2 -0.001138 0.011238 -0.008225 0.000000 0.003754 0.000000
# 3 -0.001076 -0.008225 0.023787 0.000000 -0.009802 0.000000
# 4 0.000000 0.000000 0.000000 0.028645 0.000000 0.071520
# 5 -0.001353 0.003754 -0.009802 0.000000 0.033854 0.000000
# 6 0.000000 0.000000 0.000000 0.071520 0.000000 0.045703
#
#
# Mechanical properties :
#
#
# Convention : Reuss Voigt Hill
#
# Bulk Modulus (GPa) = 42.00806 49.68720 45.84763
# Shear Modulus (GPa) = 27.51794 17.39886 22.45840
#
# Velocity S-wave (km/s) = 3.60128 2.86358 3.25340
# Velocity P-wave (km/s) = 6.09021 5.86097 5.97669
#
# Compressibility (1/GPa) = 0.02380495
#
# Stress axis : x y z
#
# Youngs Moduli (GPa) = 103.53384 88.98556 42.03904
#
# Poissons Ratio (x) = 0.10130 0.04524
# Poissons Ratio (y) = 0.11786 0.34577
# Poissons Ratio (z) = 0.11142 0.73190
#
# Static dielectric constant tensor:
#      x y z
#    x 1.795250 0.000000 0.025000 
#    y 0.000000 1.800150 0.000000 
#    z 0.025000 0.000000 1.808170 
# 
# From -- ./inp_files/309913.got.cif
#   From: 2010.05.17/outbox.cif.g08.bks.cpg/sg12_155_cif.got.tgz:309913.got - 2010.06.03 13:09:07.
