data_PCOD9197073
_publ_section_title
;
Structure prediction by ZEFSAII (Michael W. Deem and Ramdas Pophale) SiO2 
 PCOD9197073
Probable space group: C 2/M
;
_chemical_formula_sum "Si O2"
_cell_formula_units_Z 56
_cell_length_a 25.008230
_cell_length_b 8.779079
_cell_length_c 13.903745
_cell_angle_alpha 90.000000
_cell_angle_beta 84.207217
_cell_angle_gamma 90.000000
_cell_volume 3036.968371
_symmetry_space_group_name_H-M "C 2/M"
_symmetry_group_IT_number 12
_symmetry_cell_setting 'monoclinic'
loop_
_space_group_symop_operation_xyz
x,y,z
-x,y,-z
-x,-y,-z
x,-y,z
1/2+x,1/2+y,z
1/2-x,1/2+y,-z
1/2-x,1/2-y,-z
1/2+x,1/2-y,z
loop_
_atom_site_type_symbol
_atom_site_label
_atom_site_fract_x
_atom_site_fract_y
_atom_site_fract_z
Si Si1 0.803372 0.681617 0.039970
Si Si2 0.474889 0.318358 0.725203
Si Si3 0.191124 0.318962 0.300726
Si Si4 0.628268 0.681397 0.134667
Si Si5 0.914580 0.317595 0.336548
Si Si6 0.811331 0.817765 0.251655
Si Si7 0.588426 0.181832 0.441359
O O1 0.798801 0.500000 0.045269
O O2 0.809793 0.750881 0.144484
O O3 0.750000 0.750000 0.000000
O O4 0.852766 0.731483 0.963300
O O5 0.480292 0.500000 0.723414
O O6 0.430631 0.277466 0.814021
O O7 0.532518 0.241931 0.726808
O O8 0.449762 0.263394 0.628381
O O9 0.188079 0.500000 0.278078
O O10 0.169098 0.227649 0.212901
O O11 0.253037 0.281765 0.308396
O O12 0.149527 0.290807 0.394633
O O13 0.630752 0.500000 0.118742
O O14 0.912893 0.500000 0.334226
O O15 0.860629 0.251735 0.300776
O O16 0.919181 0.269752 0.447682
O O17 0.816785 0.000000 0.246219
O O18 0.578082 0.000000 0.436894
#
# Coordination Sequence:
#
# PCOD9197073 Si02
#       7
#     8   8   8   8   8   8   8
#     4  12  23  37  60  88 117 148 185 229 278 338
#     4  10  21  37  59  86 114 147 192 241 283 331
#     4   9  18  34  56  82 113 149 188 232 283 337
#     4  10  20  35  58  87 115 144 185 237 285 331
#     4  11  23  38  56  80 115 157 194 235 285 338
#     4  11  23  38  57  83 116 152 191 235 283 338
#     4   9  19  36  58  84 113 149 194 237 282 336
#
# _framework density 18.439442
#
# number of rings (size 3 to 8) (size 9 to 14) (size 15 to 20)
#    0.000    1.714    1.429    3.429    0.000    5.714 
#    0.000    0.714    0.000    4.286    0.000    0.000 
#    0.000    0.000    0.000    0.000    0.000    0.000 
#
# Total GULP energy -156431.541980 kJ/mol
# GULP energy per Si atom -5586.840785 kJ/mol
# Density = 1.839747 g / cm^3
# Si number density = 18.439442 Si / 1000 Ang^3
#
#
#
# Elastic Constant Matrix: (Units=GPa)
#
#
# Indices 1 2 3 4 5 6 
#
# 1 113.5981 37.0944 8.5665 0.0000 -14.8683 0.0000
# 2 37.0944 51.2887 10.6037 0.0000 -9.1401 0.0000
# 3 8.5665 10.6037 29.3398 0.0000 -14.9522 0.0000
# 4 0.0000 0.0000 0.0000 27.0542 0.0000 4.1107
# 5 -14.8683 -9.1401 -14.9522 0.0000 18.0016 0.0000
# 6 0.0000 0.0000 0.0000 4.1107 0.0000 31.4189
#
#
#
# Elastic Compliance Matrix: (Units=1/GPa)
#
#
# Indices 1 2 3 4 5 6 
#
# 1 0.012396 -0.008124 0.004218 0.000000 0.009617 0.000000
# 2 -0.008124 0.027010 -0.006624 0.000000 0.001502 0.000000
# 3 0.004218 -0.006624 0.061222 0.000000 0.050972 0.000000
# 4 0.000000 0.000000 0.000000 0.037713 0.000000 -0.004934
# 5 0.009617 0.001502 0.050972 0.000000 0.106594 0.000000
# 6 0.000000 0.000000 0.000000 -0.004934 0.000000 0.032474
#
#
# Mechanical properties :
#
#
# Convention : Reuss Voigt Hill
#
# Bulk Modulus (GPa) = 12.56784 34.08399 23.32591
# Shear Modulus (GPa) = 15.38498 24.49240 19.93869
#
# Velocity S-wave (km/s) = 2.89165 3.64849 3.29189
# Velocity P-wave (km/s) = 4.24021 6.02271 5.20828
#
# Compressibility (1/GPa) = 0.07956817
#
# Stress axis : x y z
#
# Youngs Moduli (GPa) = 80.66847 37.02303 16.33393
#
# Poissons Ratio (x) = 0.30077 -0.06889
# Poissons Ratio (y) = 0.65533 0.10820
# Poissons Ratio (z) = -0.34024 0.24525
#
# Static dielectric constant tensor:
#      x y z
#    x 1.638450 0.000000 -0.033780 
#    y 0.000000 1.616730 0.000000 
#    z -0.033780 0.000000 1.613200 
# 
# From -- ./inp_files/230930.got.cif
#   From: 2010.05.17/outbox.cif.g08.bks.cpg/sg12_116_cif.got.tgz:230930.got - 2010.06.03 13:09:07.
