data_PCOD9197838
_publ_section_title
;
Structure prediction by ZEFSAII (Michael W. Deem and Ramdas Pophale) SiO2 
 PCOD9197838
Probable space group: C 2/M
;
_chemical_formula_sum "Si O2"
_cell_formula_units_Z 56
_cell_length_a 8.088183
_cell_length_b 28.545528
_cell_length_c 15.805924
_cell_angle_alpha 90.000000
_cell_angle_beta 131.820707
_cell_angle_gamma 90.000000
_cell_volume 2719.582379
_symmetry_space_group_name_H-M "C 2/M"
_symmetry_group_IT_number 12
_symmetry_cell_setting 'monoclinic'
loop_
_space_group_symop_operation_xyz
x,y,z
-x,y,-z
-x,-y,-z
x,-y,z
1/2+x,1/2+y,z
1/2-x,1/2+y,-z
1/2-x,1/2-y,-z
1/2+x,1/2-y,z
loop_
_atom_site_type_symbol
_atom_site_label
_atom_site_fract_x
_atom_site_fract_y
_atom_site_fract_z
Si Si1 0.342689 0.697591 0.027864
Si Si2 0.992904 0.612276 0.904306
Si Si3 0.878145 0.767809 0.624577
Si Si4 0.011494 0.399637 0.286489
Si Si5 0.213023 0.692209 0.729467
Si Si6 0.576269 0.633037 0.664205
Si Si7 0.305153 0.449014 0.504421
O O1 0.526278 0.694291 0.162849
O O2 0.500000 0.690583 0.000000
O O3 0.250000 0.750000 0.000000
O O4 0.147720 0.658880 0.962338
O O5 0.057200 0.588368 0.834702
O O6 0.734809 0.623448 0.798568
O O7 0.000000 0.589206 0.000000
O O8 0.750000 0.750000 0.500000
O O9 0.704721 0.787588 0.633058
O O10 0.044382 0.727959 0.718924
O O11 0.010017 0.813739 0.641982
O O12 0.250507 0.374725 0.353137
O O13 0.077775 0.439432 0.375496
O O14 0.858382 0.360366 0.274987
O O15 0.380687 0.594899 0.587924
O O16 0.500000 0.452285 0.500000
O O17 0.298196 0.500000 0.545102
#
# Coordination Sequence:
#
# PCOD9197838 Si02
#       7
#     8   8   8   8   8   8   8
#     4  12  21  34  50  74 105 149 201 236 268 320
#     4  10  20  36  53  77 110 152 184 234 281 329
#     4  12  24  36  53  78 114 154 189 235 288 335
#     4   9  20  36  57  83 113 145 191 234 289 339
#     4  12  23  37  53  79 113 155 196 238 277 331
#     4   9  19  37  56  83 113 144 187 231 287 343
#     4   9  17  34  64  92 112 139 180 238 292 351
#
# _framework density 20.591398000000002
#
# number of rings (size 3 to 8) (size 9 to 14) (size 15 to 20)
#    0.857    0.714    1.429    5.143    0.000    2.286 
#    0.000    0.000    0.000    3.429    0.000    3.000 
#    0.000    0.000    0.000    0.000    0.000    0.000 
#
# Total GULP energy -155880.330411 kJ/mol
# GULP energy per Si atom -5567.154658 kJ/mol
# Density = 2.054453 g / cm^3
# Si number density = 20.591398 Si / 1000 Ang^3
#
#
#
# Elastic Constant Matrix: (Units=GPa)
#
#
# Indices 1 2 3 4 5 6 
#
# 1 42.7398 -5.4296 10.9368 0.0000 -9.3268 0.0000
# 2 -5.4296 55.2600 32.8941 0.0000 12.7225 0.0000
# 3 10.9368 32.8941 138.4824 0.0000 0.3622 0.0000
# 4 0.0000 0.0000 0.0000 13.9173 0.0000 1.3835
# 5 -9.3268 12.7225 0.3622 0.0000 23.8457 0.0000
# 6 0.0000 0.0000 0.0000 1.3835 0.0000 3.0624
#
#
#
# Elastic Compliance Matrix: (Units=1/GPa)
#
#
# Indices 1 2 3 4 5 6 
#
# 1 0.026334 0.001984 -0.002575 0.000000 0.009281 0.000000
# 2 0.001984 0.024689 -0.005989 0.000000 -0.012306 0.000000
# 3 -0.002575 -0.005989 0.008842 0.000000 0.002054 0.000000
# 4 0.000000 0.000000 0.000000 0.075232 0.000000 -0.033988
# 5 0.009281 -0.012306 0.002054 0.000000 0.052101 0.000000
# 6 0.000000 0.000000 0.000000 -0.033988 0.000000 0.341895
#
#
# Mechanical properties :
#
#
# Convention : Reuss Voigt Hill
#
# Bulk Modulus (GPa) = 21.41163 34.80943 28.11053
# Shear Modulus (GPa) = 8.96344 21.37045 15.16695
#
# Velocity S-wave (km/s) = 2.08865 3.22504 2.71692
# Velocity P-wave (km/s) = 4.02958 5.55062 4.85010
#
# Compressibility (1/GPa) = 0.04670358
#
# Stress axis : x y z
#
# Youngs Moduli (GPa) = 37.97427 40.50328 113.10014
#
# Poissons Ratio (x) = -0.08034 0.29125
# Poissons Ratio (y) = -0.07533 0.67736
# Poissons Ratio (z) = 0.09779 0.24257
#
# Static dielectric constant tensor:
#      x y z
#    x 1.873090 0.000000 -0.051480 
#    y 0.000000 1.754390 0.000000 
#    z -0.051480 0.000000 1.872860 
# 
# From -- ./inp_files/259245.got.cif
#   From: 2010.05.17/outbox.cif.g08.bks.cpg/sg12_130_cif.got.tgz:259245.got - 2010.06.03 13:09:07.
