data_PCOD9197825
_publ_section_title
;
Structure prediction by ZEFSAII (Michael W. Deem and Ramdas Pophale) SiO2 
 PCOD9197825
Probable space group: C 2/M
;
_chemical_formula_sum "Si O2"
_cell_formula_units_Z 64
_cell_length_a 10.683533
_cell_length_b 24.798927
_cell_length_c 19.626136
_cell_angle_alpha 90.000000
_cell_angle_beta 140.976938
_cell_angle_gamma 90.000000
_cell_volume 3273.935911
_symmetry_space_group_name_H-M "C 2/M"
_symmetry_group_IT_number 12
_symmetry_cell_setting 'monoclinic'
loop_
_space_group_symop_operation_xyz
x,y,z
-x,y,-z
-x,-y,-z
x,-y,z
1/2+x,1/2+y,z
1/2-x,1/2+y,-z
1/2-x,1/2-y,-z
1/2+x,1/2-y,z
loop_
_atom_site_type_symbol
_atom_site_label
_atom_site_fract_x
_atom_site_fract_y
_atom_site_fract_z
Si Si1 0.782123 0.220064 0.892796
Si Si2 0.117115 0.841668 0.675654
Si Si3 0.233806 0.062100 0.096996
Si Si4 0.133525 0.831572 0.839577
Si Si5 0.189272 0.312807 0.465470
Si Si6 0.720739 0.219417 0.702660
Si Si7 0.541888 0.857642 0.260581
Si Si8 0.807235 0.562018 0.968787
O O1 0.769587 0.280465 0.917334
O O2 0.750335 0.218619 0.797454
O O3 0.594989 0.185188 0.839563
O O4 0.000000 0.198195 0.000000
O O5 0.173673 0.842944 0.777883
O O6 0.172218 0.782150 0.669192
O O7 0.269060 0.879800 0.700463
O O8 0.880325 0.846794 0.568827
O O9 0.375263 0.097643 0.204578
O O10 0.240441 0.000000 0.120735
O O11 0.324546 0.065996 0.058462
O O12 0.000000 0.077539 0.000000
O O13 0.166726 0.887243 0.892087
O O14 0.915232 0.805814 0.752658
O O15 0.250000 0.250000 0.500000
O O16 0.136821 0.329890 0.366586
O O17 0.969129 0.314216 0.403797
O O18 0.735500 0.500000 0.926083
O O19 0.000000 0.568488 0.000000
#
# Coordination Sequence:
#
# PCOD9197825 Si02
#       8
#     8   8   8   8   8   8   8   8
#     4  10  21  32  48  79 115 151 179 230 299 356
#     4  10  20  36  52  81 113 152 196 240 293 351
#     4  10  23  41  63  90 120 157 202 253 306 359
#     4  11  21  35  54  81 116 152 200 241 291 360
#     4   9  20  35  56  78 113 153 191 236 292 350
#     4   9  20  34  49  77 111 148 194 230 285 353
#     4  11  20  35  58  83 114 151 195 242 292 364
#     4  10  22  40  60  84 117 162 207 248 296 356
#
# _framework density 19.548337
#
# number of rings (size 3 to 8) (size 9 to 14) (size 15 to 20)
#    0.000    2.000    1.250    2.625    5.250    2.000 
#    0.000    0.000    0.000    2.250    0.000    0.875 
#    0.000    0.000    0.000    0.000    0.000    0.000 
#
# Total GULP energy -178199.489928 kJ/mol
# GULP energy per Si atom -5568.734060 kJ/mol
# Density = 1.950384 g / cm^3
# Si number density = 19.548337 Si / 1000 Ang^3
#
#
#
# Elastic Constant Matrix: (Units=GPa)
#
#
# Indices 1 2 3 4 5 6 
#
# 1 45.7189 -0.8891 -4.2874 -0.0001 7.7943 0.0000
# 2 -0.8891 85.2242 32.7161 -0.0001 -4.3136 0.0000
# 3 -4.2874 32.7161 75.1207 -0.0002 14.8449 -0.0001
# 4 -0.0001 -0.0001 -0.0002 19.6085 0.0000 3.9337
# 5 7.7943 -4.3136 14.8449 0.0000 31.2684 0.0000
# 6 0.0000 0.0000 -0.0001 3.9337 0.0000 11.9933
#
#
#
# Elastic Compliance Matrix: (Units=1/GPa)
#
#
# Indices 1 2 3 4 5 6 
#
# 1 0.023493 -0.001498 0.003522 0.000000 -0.007735 0.000000
# 2 -0.001498 0.015049 -0.007861 0.000000 0.006182 0.000000
# 3 0.003522 -0.007861 0.019118 0.000000 -0.011039 0.000000
# 4 0.000000 0.000000 0.000000 0.054590 0.000000 -0.017905
# 5 -0.007735 0.006182 -0.011039 0.000000 0.040003 0.000000
# 6 0.000000 0.000000 0.000000 -0.017905 0.000000 0.089253
#
#
# Mechanical properties :
#
#
# Convention : Reuss Voigt Hill
#
# Bulk Modulus (GPa) = 21.74667 29.01591 25.38129
# Shear Modulus (GPa) = 18.62143 24.47566 21.54854
#
# Velocity S-wave (km/s) = 3.08974 3.54228 3.32372
# Velocity P-wave (km/s) = 4.88645 5.62190 5.26703
#
# Compressibility (1/GPa) = 0.04598406
#
# Stress axis : x y z
#
# Youngs Moduli (GPa) = 42.56670 66.45081 52.30691
#
# Poissons Ratio (x) = 0.09957 -0.18422
# Poissons Ratio (y) = 0.06378 0.41119
# Poissons Ratio (z) = -0.14991 0.52237
#
# Static dielectric constant tensor:
#      x y z
#    x 1.642030 0.000000 0.079940 
#    y 0.000000 1.723670 0.000000 
#    z 0.079940 0.000000 1.678270 
# 
# From -- ./inp_files/337112.got.cif
#   From: 2010.05.17/outbox.cif.g08.bks.cpg/sg12_169_cif.got.tgz:337112.got - 2010.06.03 13:09:07.
