data_PCOD9197931
_publ_section_title
;
Structure prediction by ZEFSAII (Michael W. Deem and Ramdas Pophale) SiO2 
 PCOD9197931
Probable space group: C 2/M
;
_chemical_formula_sum "Si O2"
_cell_formula_units_Z 48
_cell_length_a 8.348930
_cell_length_b 11.166696
_cell_length_c 27.146084
_cell_angle_alpha 90.000000
_cell_angle_beta 61.032622
_cell_angle_gamma 90.000000
_cell_volume 2214.210636
_symmetry_space_group_name_H-M "C 2/M"
_symmetry_group_IT_number 12
_symmetry_cell_setting 'monoclinic'
loop_
_space_group_symop_operation_xyz
x,y,z
-x,y,-z
-x,-y,-z
x,-y,z
1/2+x,1/2+y,z
1/2-x,1/2+y,-z
1/2-x,1/2-y,-z
1/2+x,1/2-y,z
loop_
_atom_site_type_symbol
_atom_site_label
_atom_site_fract_x
_atom_site_fract_y
_atom_site_fract_z
Si Si1 0.792266 0.135973 0.742337
Si Si2 0.026876 0.132729 0.054485
Si Si3 0.396830 0.629269 0.614166
Si Si4 0.306315 0.132206 0.091155
Si Si5 0.804609 0.684641 0.542365
Si Si6 0.060067 0.132231 0.787994
O O1 0.822854 0.153397 0.679775
O O2 0.981724 0.137277 0.744140
O O3 0.677411 0.248968 0.778841
O O4 0.715255 0.000000 0.761759
O O5 0.924078 0.252450 0.086851
O O6 0.232220 0.140189 0.045808
O O7 0.958897 0.000000 0.081749
O O8 0.000000 0.131581 0.000000
O O9 0.324109 0.500000 0.608550
O O10 0.616587 0.621616 0.584567
O O11 0.343305 0.725471 0.581581
O O12 0.120563 0.134744 0.150919
O O13 0.392251 0.000000 0.085553
O O14 0.500000 0.874145 0.500000
O O15 0.750000 0.750000 0.500000
O O16 0.148844 0.000000 0.781791
#
# Coordination Sequence:
#
# PCOD9197931 Si02
#       6
#     8   8   8   8   8   8
#     4  10  21  36  56  81 109 144 182 221 271 327
#     4  10  21  36  54  79 110 144 185 230 274 325
#     4  10  20  36  55  76 107 140 173 219 266 314
#     4  10  21  36  55  80 109 143 182 226 277 328
#     4   9  19  34  53  78 104 134 174 212 255 314
#     4  10  21  37  56  81 112 142 180 229 274 324
#
# _framework density 21.678152999999998
#
# number of rings (size 3 to 8) (size 9 to 14) (size 15 to 20)
#    0.000    2.167    0.000    2.500    0.000    5.667 
#    0.000    3.333    0.000    0.000    0.000    0.000 
#    0.000    0.000    0.000    0.000    0.000    0.000 
#
# Total GULP energy -133781.582900 kJ/mol
# GULP energy per Si atom -5574.232621 kJ/mol
# Density = 2.162881 g / cm^3
# Si number density = 21.678153 Si / 1000 Ang^3
#
#
#
# Elastic Constant Matrix: (Units=GPa)
#
#
# Indices 1 2 3 4 5 6 
#
# 1 47.6778 47.9443 -2.2261 0.0000 11.3641 0.0000
# 2 47.9443 196.9474 29.6882 0.0000 -11.0709 0.0000
# 3 -2.2261 29.6882 58.8795 0.0000 16.0990 0.0000
# 4 0.0000 0.0000 0.0000 45.3041 0.0000 -12.8188
# 5 11.3641 -11.0709 16.0990 0.0000 34.1525 0.0000
# 6 0.0000 0.0000 0.0000 -12.8188 0.0000 25.5522
#
#
#
# Elastic Compliance Matrix: (Units=1/GPa)
#
#
# Indices 1 2 3 4 5 6 
#
# 1 0.042087 -0.014092 0.015813 0.000000 -0.026026 0.000000
# 2 -0.014092 0.010615 -0.009307 0.000000 0.012517 0.000000
# 3 0.015813 -0.009307 0.028169 0.000000 -0.021557 0.000000
# 4 0.000000 0.000000 0.000000 0.025725 0.000000 0.012905
# 5 -0.026026 0.012517 -0.021557 0.000000 0.052160 0.000000
# 6 0.000000 0.000000 0.000000 0.012905 0.000000 0.045610
#
#
# Mechanical properties :
#
#
# Convention : Reuss Voigt Hill
#
# Bulk Modulus (GPa) = 15.22138 50.47974 32.85056
# Shear Modulus (GPa) = 20.70930 36.20830 28.45880
#
# Velocity S-wave (km/s) = 3.09416 4.09132 3.62717
# Velocity P-wave (km/s) = 4.44993 6.75686 5.72088
#
# Compressibility (1/GPa) = 0.06569706
#
# Stress axis : x y z
#
# Youngs Moduli (GPa) = 23.76042 94.20885 35.50010
#
# Poissons Ratio (x) = 1.32761 -0.56136
# Poissons Ratio (y) = 0.33484 0.33042
# Poissons Ratio (z) = -0.37572 0.87685
#
# Static dielectric constant tensor:
#      x y z
#    x 1.768050 0.000000 -0.008170 
#    y 0.000000 1.822640 0.000000 
#    z -0.008170 0.000000 1.820270 
# 
# From -- ./inp_files/331992.got.cif
#   From: 2010.05.17/outbox.cif.g08.bks.cpg/sg12_166_cif.got.tgz:331992.got - 2010.06.03 13:09:07.
