data_PCOD9197260
_publ_section_title
;
Structure prediction by ZEFSAII (Michael W. Deem and Ramdas Pophale) SiO2 
 PCOD9197260
Probable space group: C 2/M
;
_chemical_formula_sum "Si O2"
_cell_formula_units_Z 58
_cell_length_a 34.325345
_cell_length_b 12.462044
_cell_length_c 24.933437
_cell_angle_alpha 90.000000
_cell_angle_beta 163.263724
_cell_angle_gamma 90.000000
_cell_volume 3071.347115
_symmetry_space_group_name_H-M "C 2/M"
_symmetry_group_IT_number 12
_symmetry_cell_setting 'monoclinic'
loop_
_space_group_symop_operation_xyz
x,y,z
-x,y,-z
-x,-y,-z
x,-y,z
1/2+x,1/2+y,z
1/2-x,1/2+y,-z
1/2-x,1/2-y,-z
1/2+x,1/2-y,z
loop_
_atom_site_type_symbol
_atom_site_label
_atom_site_fract_x
_atom_site_fract_y
_atom_site_fract_z
Si Si1 0.274568 0.623172 0.347835
Si Si2 0.342370 0.123740 0.285265
Si Si3 0.365081 0.683873 0.898416
Si Si4 0.308453 0.781565 0.994741
Si Si5 0.464389 0.791344 0.783057
Si Si6 0.280896 0.617594 0.482956
Si Si7 0.913980 0.123057 0.225040
Si Si8 0.000000 0.000000 0.000000
O O1 0.242204 0.500000 0.289154
O O2 0.188107 0.712439 0.203986
O O3 0.252953 0.632304 0.383296
O O4 0.436112 0.640382 0.553342
O O5 0.500000 0.149244 0.500000
O O6 0.261019 0.138753 0.233382
O O7 0.275803 0.200547 0.153672
O O8 0.330457 0.000000 0.252364
O O9 0.429199 0.594632 0.944606
O O10 0.471534 0.725191 0.083218
O O11 0.203916 0.858491 0.887049
O O12 0.417465 0.835907 0.099152
O O13 0.384638 0.709052 0.139726
O O14 0.379266 0.708221 0.634802
O O15 0.357961 0.873525 0.667285
O O16 0.343062 0.500000 0.572388
O O17 0.910757 0.000000 0.200842
#
# Coordination Sequence:
#
# PCOD9197260 Si02
#       8
#     8   8   8   8   8   8   8   2
#     4  10  21  40  64  89 118 162 202 251 295 365
#     4  10  20  36  58  85 117 158 198 243 295 365
#     4  11  23  39  61  90 127 155 205 243 313 360
#     4  10  20  35  59  84 116 153 195 248 300 358
#     4  10  22  38  58  87 115 157 194 250 291 361
#     4  10  21  38  61  83 114 153 204 245 296 347
#     4  10  20  36  59  87 118 154 197 249 304 363
#     4  12  24  40  56  92 124 168 188 258 302 366
#
# _framework density 18.884222999999999
#
# number of rings (size 3 to 8) (size 9 to 14) (size 15 to 20)
#    0.000    1.793    2.069    2.069    0.966    1.655 
#    0.000    3.793    1.517    7.448    0.000    0.000 
#    0.000    0.000    0.000    0.000    0.000    0.000 
#
# Total GULP energy -161623.038404 kJ/mol
# GULP energy per Si atom -5573.208221 kJ/mol
# Density = 1.884124 g / cm^3
# Si number density = 18.884223 Si / 1000 Ang^3
#
#
#
# Elastic Constant Matrix: (Units=GPa)
#
#
# Indices 1 2 3 4 5 6 
#
# 1 98.4124 20.4948 33.9817 0.0001 27.3070 0.0000
# 2 20.4948 58.9021 16.5868 0.0000 -0.2528 0.0000
# 3 33.9817 16.5868 38.5029 0.0001 7.5607 0.0000
# 4 0.0001 0.0000 0.0001 18.2666 0.0001 11.1523
# 5 27.3070 -0.2528 7.5607 0.0001 24.6651 0.0000
# 6 0.0000 0.0000 0.0000 11.1523 0.0000 35.6641
#
#
#
# Elastic Compliance Matrix: (Units=1/GPa)
#
#
# Indices 1 2 3 4 5 6 
#
# 1 0.020627 -0.003616 -0.012934 0.000000 -0.018909 0.000000
# 2 -0.003616 0.020156 -0.006723 0.000000 0.006271 0.000000
# 3 -0.012934 -0.006723 0.039886 0.000000 0.002024 0.000000
# 4 0.000000 0.000000 0.000000 0.067662 0.000000 -0.021158
# 5 -0.018909 0.006271 0.002024 0.000000 0.060921 0.000000
# 6 0.000000 0.000000 0.000000 -0.021158 0.000000 0.034656
#
#
# Mechanical properties :
#
#
# Convention : Reuss Voigt Hill
#
# Bulk Modulus (GPa) = 29.30597 37.54934 33.42765
# Shear Modulus (GPa) = 16.56569 24.03612 20.30091
#
# Velocity S-wave (km/s) = 2.96501 3.57152 3.28231
# Velocity P-wave (km/s) = 5.22247 6.07740 5.66608
#
# Compressibility (1/GPa) = 0.03412274
#
# Stress axis : x y z
#
# Youngs Moduli (GPa) = 48.47938 49.61408 25.07141
#
# Poissons Ratio (x) = 0.17941 0.32428
# Poissons Ratio (y) = 0.17531 0.16855
# Poissons Ratio (z) = 0.62705 0.33354
#
# Static dielectric constant tensor:
#      x y z
#    x 1.661190 0.000000 0.025010 
#    y 0.000000 1.614200 0.000000 
#    z 0.025010 0.000000 1.645310 
# 
# From -- ./inp_files/330307.got.cif
#   From: 2010.05.17/outbox.cif.g08.bks.cpg/sg12_166_cif.got.tgz:330307.got - 2010.06.03 13:09:07.
