data_PCOD9197759
_publ_section_title
;
Structure prediction by ZEFSAII (Michael W. Deem and Ramdas Pophale) SiO2 
 PCOD9197759
Probable space group: C 2/M
;
_chemical_formula_sum "Si O2"
_cell_formula_units_Z 56
_cell_length_a 14.779331
_cell_length_b 17.838804
_cell_length_c 13.467257
_cell_angle_alpha 90.000000
_cell_angle_beta 128.186308
_cell_angle_gamma 90.000000
_cell_volume 2790.774680
_symmetry_space_group_name_H-M "C 2/M"
_symmetry_group_IT_number 12
_symmetry_cell_setting 'monoclinic'
loop_
_space_group_symop_operation_xyz
x,y,z
-x,y,-z
-x,-y,-z
x,-y,z
1/2+x,1/2+y,z
1/2-x,1/2+y,-z
1/2-x,1/2-y,-z
1/2+x,1/2-y,z
loop_
_atom_site_type_symbol
_atom_site_label
_atom_site_fract_x
_atom_site_fract_y
_atom_site_fract_z
Si Si1 0.248605 0.587357 0.516536
Si Si2 0.387837 0.588539 0.134474
Si Si3 0.938019 0.801949 0.866475
Si Si4 0.058299 0.694364 0.296736
Si Si5 0.252980 0.417749 0.755439
Si Si6 0.510562 0.337867 0.388774
Si Si7 0.867056 0.584275 0.128758
O O1 0.245252 0.500000 0.485587
O O2 0.148059 0.635482 0.399650
O O3 0.231383 0.590372 0.624122
O O4 0.370850 0.622665 0.567528
O O5 0.418263 0.500000 0.147825
O O6 0.473905 0.641050 0.129082
O O7 0.409577 0.618334 0.261046
O O8 0.257277 0.596247 0.006634
O O9 0.886931 0.747104 0.750111
O O10 0.838835 0.853023 0.843323
O O11 0.000000 0.762585 0.000000
O O12 0.014579 0.752290 0.351203
O O13 0.955703 0.650531 0.172210
O O14 0.307685 0.500000 0.807791
O O15 0.149098 0.415222 0.762085
O O16 0.500000 0.341167 0.500000
O O17 0.906099 0.500000 0.127568
#
# Coordination Sequence:
#
# PCOD9197759 Si02
#       7
#     8   8   8   8   8   8   8
#     4  11  23  42  64  86 119 161 206 251 292 350
#     4  10  20  38  63  90 120 154 199 251 298 349
#     4  11  21  36  60  91 119 154 193 253 311 354
#     4  11  25  41  59  87 126 164 198 240 298 365
#     4  10  20  35  63  94 118 149 196 252 306 353
#     4  11  25  40  63  93 122 159 199 248 300 353
#     4  10  22  39  62  91 121 158 199 246 300 357
#
# _framework density 20.066113000000001
#
# number of rings (size 3 to 8) (size 9 to 14) (size 15 to 20)
#    0.000    1.429    4.286    1.714    2.000    4.000 
#    2.571    2.143    0.000    0.857    0.000    0.000 
#    0.000    0.000    0.000    0.000    0.000    0.000 
#
# Total GULP energy -156266.794985 kJ/mol
# GULP energy per Si atom -5580.956964 kJ/mol
# Density = 2.002044 g / cm^3
# Si number density = 20.066113 Si / 1000 Ang^3
#
#
#
# Elastic Constant Matrix: (Units=GPa)
#
#
# Indices 1 2 3 4 5 6 
#
# 1 18.7111 15.5135 15.7174 0.0000 -8.0680 0.0000
# 2 15.5135 108.0820 47.9885 0.0000 9.4168 0.0000
# 3 15.7174 47.9885 84.8015 0.0000 -10.4196 0.0000
# 4 0.0000 0.0000 0.0000 44.1992 0.0000 7.7386
# 5 -8.0680 9.4168 -10.4196 0.0000 29.7345 0.0000
# 6 0.0000 0.0000 0.0000 7.7386 0.0000 12.5242
#
#
#
# Elastic Compliance Matrix: (Units=1/GPa)
#
#
# Indices 1 2 3 4 5 6 
#
# 1 0.076219 -0.010404 -0.005531 0.000000 0.022037 0.000000
# 2 -0.010404 0.015178 -0.007940 0.000000 -0.010412 0.000000
# 3 -0.005531 -0.007940 0.018220 0.000000 0.007398 0.000000
# 4 0.000000 0.000000 0.000000 0.025369 0.000000 -0.015676
# 5 0.022037 -0.010412 0.007398 0.000000 0.045501 0.000000
# 6 0.000000 0.000000 0.000000 -0.015676 0.000000 0.089531
#
#
# Mechanical properties :
#
#
# Convention : Reuss Voigt Hill
#
# Bulk Modulus (GPa) = 16.16409 41.11484 28.63946
# Shear Modulus (GPa) = 14.77578 26.11660 20.44619
#
# Velocity S-wave (km/s) = 2.71653 3.61158 3.19555
# Velocity P-wave (km/s) = 4.23229 6.15837 5.28384
#
# Compressibility (1/GPa) = 0.06186554
#
# Stress axis : x y z
#
# Youngs Moduli (GPa) = 13.12008 65.88367 54.88529
#
# Poissons Ratio (x) = 0.68547 0.30359
# Poissons Ratio (y) = 0.13650 0.43580
# Poissons Ratio (z) = 0.07257 0.52313
#
# Static dielectric constant tensor:
#      x y z
#    x 1.698400 0.000000 -0.006010 
#    y 0.000000 1.707300 0.000000 
#    z -0.006010 0.000000 1.722000 
# 
# From -- ./inp_files/226586.got.cif
#   From: 2010.05.17/outbox.cif.g08.bks.cpg/sg12_114_cif.got.tgz:226586.got - 2010.06.03 13:09:07.
