data_PCOD9197698
_publ_section_title
;
Structure prediction by ZEFSAII (Michael W. Deem and Ramdas Pophale) SiO2 
 PCOD9197698
Probable space group: C 2/M
;
_chemical_formula_sum "Si O2"
_cell_formula_units_Z 48
_cell_length_a 32.052593
_cell_length_b 14.718078
_cell_length_c 5.915764
_cell_angle_alpha 90.000000
_cell_angle_beta 58.873593
_cell_angle_gamma 90.000000
_cell_volume 2388.985705
_symmetry_space_group_name_H-M "C 2/M"
_symmetry_group_IT_number 12
_symmetry_cell_setting 'monoclinic'
loop_
_space_group_symop_operation_xyz
x,y,z
-x,y,-z
-x,-y,-z
x,-y,z
1/2+x,1/2+y,z
1/2-x,1/2+y,-z
1/2-x,1/2-y,-z
1/2+x,1/2-y,z
loop_
_atom_site_type_symbol
_atom_site_label
_atom_site_fract_x
_atom_site_fract_y
_atom_site_fract_z
Si Si1 0.375458 0.103987 0.419205
Si Si2 0.457123 0.327887 0.482084
Si Si3 0.630434 0.395695 0.545027
Si Si4 0.307428 0.755537 0.863312
Si Si5 0.520942 0.868076 0.693949
Si Si6 0.622302 0.749889 0.952445
O O1 0.331938 0.163752 0.647737
O O2 0.422016 0.105682 0.454656
O O3 0.362541 0.000000 0.406172
O O4 0.391681 0.162703 0.156089
O O5 0.500000 0.376256 0.500000
O O6 0.423241 0.386754 0.415641
O O7 0.481528 0.241703 0.291886
O O8 0.419140 0.278517 0.756758
O O9 0.643622 0.500000 0.537088
O O10 0.668098 0.339207 0.285137
O O11 0.629040 0.337380 0.775957
O O12 0.327615 0.770570 0.058275
O O13 0.250000 0.750000 0.000000
O O14 0.500000 0.893798 0.500000
O O15 0.500000 0.899950 0.000000
#
# Coordination Sequence:
#
# PCOD9197698 Si02
#       6
#     8   8   8   8   8   8
#     4  11  23  39  61  95 127 164 215 264 319 388
#     4  10  20  35  62  86 125 171 210 249 312 376
#     4  10  22  38  61  91 120 156 208 261 319 380
#     4  10  23  44  65  86 120 163 207 263 332 392
#     4  11  22  38  65  95 133 181 221 267 324 387
#     4  10  20  42  59  87 121 167 202 268 321 385
#
# _framework density 20.092209
#
# number of rings (size 3 to 8) (size 9 to 14) (size 15 to 20)
#    0.000    1.667    5.000    2.000    0.000    7.667 
#    0.000    2.500    0.000    0.500    0.000    0.000 
#    0.000    0.000    0.000    0.000    0.000    0.000 
#
# Total GULP energy -133859.540262 kJ/mol
# GULP energy per Si atom -5577.480844 kJ/mol
# Density = 2.004648 g / cm^3
# Si number density = 20.092209 Si / 1000 Ang^3
#
#
#
# Elastic Constant Matrix: (Units=GPa)
#
#
# Indices 1 2 3 4 5 6 
#
# 1 136.4810 8.3416 45.1381 0.0000 -2.5048 0.0000
# 2 8.3416 136.1110 23.0887 0.0000 12.2004 0.0000
# 3 45.1381 23.0887 78.5584 0.0000 14.4945 0.0000
# 4 0.0000 0.0000 0.0000 -15.8439 0.0000 -5.6861
# 5 -2.5048 12.2004 14.4945 0.0000 32.4290 0.0000
# 6 0.0000 0.0000 0.0000 -5.6861 0.0000 8.2793
#
#
#
# Elastic Compliance Matrix: (Units=1/GPa)
#
#
# Indices 1 2 3 4 5 6 
#
# 1 0.009384 0.000150 -0.006059 0.000000 0.003376 0.000000
# 2 0.000150 0.007864 -0.002020 0.000000 -0.002044 0.000000
# 3 -0.006059 -0.002020 0.018256 0.000000 -0.007868 0.000000
# 4 0.000000 0.000000 0.000000 -0.050635 0.000000 -0.034776
# 5 0.003376 -0.002044 -0.007868 0.000000 0.035383 0.000000
# 6 0.000000 0.000000 0.000000 -0.034776 0.000000 0.096900
#
#
# Mechanical properties :
#
#
# Convention : Reuss Voigt Hill
#
# Bulk Modulus (GPa) = 50.90249 56.03190 53.46719
# Shear Modulus (GPa) = 35.82765 23.27835 29.55300
#
# Velocity S-wave (km/s) = 4.22733 3.40748 3.83935
# Velocity P-wave (km/s) = 7.01545 6.59008 6.80609
#
# Compressibility (1/GPa) = 0.01964541
#
# Stress axis : x y z
#
# Youngs Moduli (GPa) = 106.56905 127.16737 54.77669
#
# Poissons Ratio (x) = -0.01908 0.33187
# Poissons Ratio (y) = -0.01599 0.11066
# Poissons Ratio (z) = 0.64567 0.25691
#
# Static dielectric constant tensor:
#      x y z
#    x 1.749370 0.000000 0.036440 
#    y 0.000000 1.689850 0.000000 
#    z 0.036440 0.000000 1.766110 
# 
# From -- ./inp_files/28334.got.cif
#   From: 2010.05.17/outbox.cif.g08.bks.cpg/sg12_15_cif.got.tgz:28334.got - 2010.06.03 13:09:07.
