data_PCOD9197100
_publ_section_title
;
Structure prediction by ZEFSAII (Michael W. Deem and Ramdas Pophale) SiO2 
 PCOD9197100
Probable space group: C 2/M
;
_chemical_formula_sum "Si O2"
_cell_formula_units_Z 64
_cell_length_a 20.256879
_cell_length_b 15.121177
_cell_length_c 17.054791
_cell_angle_alpha 90.000000
_cell_angle_beta 147.259380
_cell_angle_gamma 90.000000
_cell_volume 2825.340194
_symmetry_space_group_name_H-M "C 2/M"
_symmetry_group_IT_number 12
_symmetry_cell_setting 'monoclinic'
loop_
_space_group_symop_operation_xyz
x,y,z
-x,y,-z
-x,-y,-z
x,-y,z
1/2+x,1/2+y,z
1/2-x,1/2+y,-z
1/2-x,1/2-y,-z
1/2+x,1/2-y,z
loop_
_atom_site_type_symbol
_atom_site_label
_atom_site_fract_x
_atom_site_fract_y
_atom_site_fract_z
Si Si1 0.858690 0.706312 0.360018
Si Si2 0.839300 0.396558 0.958973
Si Si3 0.603246 0.339142 0.816690
Si Si4 0.726267 0.897436 0.573941
Si Si5 0.723978 0.394597 0.689739
Si Si6 0.022189 0.359535 0.760714
Si Si7 0.347553 0.399092 0.548500
Si Si8 0.746923 0.401658 0.107306
O O1 0.796869 0.664510 0.375138
O O2 0.858786 0.813026 0.362654
O O3 0.783473 0.665612 0.212363
O O4 0.000000 0.676071 0.500000
O O5 0.815690 0.500000 0.949682
O O6 0.724741 0.347046 0.885724
O O7 0.836506 0.385507 0.862632
O O8 0.957983 0.371426 0.126854
O O9 0.548429 0.241624 0.764919
O O10 0.490260 0.394451 0.670496
O O11 0.642728 0.369029 0.943319
O O12 0.603194 0.893126 0.399113
O O13 0.824868 0.857736 0.611108
O O14 0.749351 0.000000 0.621502
O O15 0.685805 0.500000 0.656376
O O16 0.731653 0.372414 0.605426
O O17 0.133214 0.407367 0.827515
O O18 0.313740 0.500000 0.529308
O O19 0.718222 0.500000 0.108929
#
# Coordination Sequence:
#
# PCOD9197100 Si02
#       8
#     8   8   8   8   8   8   8   8
#     4  12  24  38  62  94 123 158 203 258 310 366
#     4  10  20  35  58  87 119 155 197 250 306 356
#     4  11  21  36  59  88 122 160 205 252 302 361
#     4  11  24  42  63  89 124 165 208 254 305 366
#     4  10  23  40  60  89 126 161 203 254 308 365
#     4  11  20  34  59  88 123 158 200 252 306 365
#     4  10  23  42  62  86 120 166 210 248 301 368
#     4  11  22  38  60  90 127 162 202 255 311 363
#
# _framework density 22.652141
#
# number of rings (size 3 to 8) (size 9 to 14) (size 15 to 20)
#    0.000    1.250    1.250    7.125    1.750    2.750 
#    0.000    1.250    0.000    8.250    0.000    0.000 
#    0.000    0.000    0.000    0.000    0.000    0.000 
#
# Total GULP energy -178569.240034 kJ/mol
# GULP energy per Si atom -5580.288751 kJ/mol
# Density = 2.260058 g / cm^3
# Si number density = 22.652141 Si / 1000 Ang^3
#
#
#
# Elastic Constant Matrix: (Units=GPa)
#
#
# Indices 1 2 3 4 5 6 
#
# 1 45.3210 7.0523 35.1366 0.0000 -22.7648 0.0000
# 2 7.0523 118.6214 1.5109 0.0000 -7.4523 0.0000
# 3 35.1366 1.5109 84.5823 0.0000 -27.7497 0.0000
# 4 0.0000 0.0000 0.0000 29.5740 0.0000 -9.2416
# 5 -22.7648 -7.4523 -27.7497 0.0000 36.5061 0.0000
# 6 0.0000 0.0000 0.0000 -9.2416 0.0000 17.4979
#
#
#
# Elastic Compliance Matrix: (Units=1/GPa)
#
#
# Indices 1 2 3 4 5 6 
#
# 1 0.038451 -0.001176 -0.010877 0.000000 0.015470 0.000000
# 2 -0.001176 0.008596 0.000893 0.000000 0.001700 0.000000
# 3 -0.010877 0.000893 0.018864 0.000000 0.007739 0.000000
# 4 0.000000 0.000000 0.000000 0.040497 0.000000 0.021389
# 5 0.015470 0.001700 0.007739 0.000000 0.043269 0.000000
# 6 0.000000 0.000000 0.000000 0.021389 0.000000 0.068446
#
#
# Mechanical properties :
#
#
# Convention : Reuss Voigt Hill
#
# Bulk Modulus (GPa) = 22.94047 37.32493 30.13270
# Shear Modulus (GPa) = 19.60992 30.37058 24.99025
#
# Velocity S-wave (km/s) = 2.94547 3.66558 3.32508
# Velocity P-wave (km/s) = 4.66015 5.86758 5.29837
#
# Compressibility (1/GPa) = 0.04359108
#
# Stress axis : x y z
#
# Youngs Moduli (GPa) = 26.00738 116.33985 53.01055
#
# Poissons Ratio (x) = 0.13676 0.57658
# Poissons Ratio (y) = 0.03057 -0.04732
# Poissons Ratio (z) = 0.28287 -0.10384
#
# Static dielectric constant tensor:
#      x y z
#    x 1.888180 0.000000 -0.029540 
#    y 0.000000 1.891480 0.000000 
#    z -0.029540 0.000000 1.838590 
# 
# From -- ./inp_files/290164.got.cif
#   From: 2010.05.17/outbox.cif.g08.bks.cpg/sg12_146_cif.got.tgz:290164.got - 2010.06.03 13:09:07.
