data_PCOD9197447
_publ_section_title
;
Structure prediction by ZEFSAII (Michael W. Deem and Ramdas Pophale) SiO2 
 PCOD9197447
Probable space group: C 2/M
;
_chemical_formula_sum "Si O2"
_cell_formula_units_Z 50
_cell_length_a 7.981790
_cell_length_b 12.445442
_cell_length_c 24.991737
_cell_angle_alpha 90.000000
_cell_angle_beta 111.502624
_cell_angle_gamma 90.000000
_cell_volume 2309.814649
_symmetry_space_group_name_H-M "C 2/M"
_symmetry_group_IT_number 12
_symmetry_cell_setting 'monoclinic'
loop_
_space_group_symop_operation_xyz
x,y,z
-x,y,-z
-x,-y,-z
x,-y,z
1/2+x,1/2+y,z
1/2-x,1/2+y,-z
1/2-x,1/2-y,-z
1/2+x,1/2-y,z
loop_
_atom_site_type_symbol
_atom_site_label
_atom_site_fract_x
_atom_site_fract_y
_atom_site_fract_z
Si Si1 0.131046 0.883173 0.566494
Si Si2 0.827542 0.191262 0.221569
Si Si3 0.912845 0.118662 0.931449
Si Si4 0.212753 0.117101 0.287026
Si Si5 0.786263 0.156101 0.589969
Si Si6 0.000000 0.500000 0.500000
Si Si7 0.029579 0.310821 0.866373
O O1 0.264166 0.783840 0.580767
O O2 0.000000 0.876990 0.500000
O O3 0.990559 0.874691 0.598985
O O4 0.223431 0.000000 0.576499
O O5 0.781512 0.281007 0.261128
O O6 0.895236 0.256716 0.178263
O O7 0.650489 0.133391 0.177308
O O8 0.995658 0.121750 0.259409
O O9 0.978095 0.215361 0.901378
O O10 0.695974 0.124355 0.909820
O O11 0.962705 0.000000 0.915819
O O12 0.000000 0.130555 0.000000
O O13 0.262253 0.128360 0.354839
O O14 0.274553 0.000000 0.273598
O O15 0.647428 0.093266 0.535872
#
# Coordination Sequence:
#
# PCOD9197447 Si02
#       7
#     8   8   8   8   8   2   8
#     4  11  24  41  61  89 119 155 193 240 293 370
#     4   9  21  38  59  87 113 154 210 248 302 366
#     4  10  20  35  59  91 127 167 208 249 301 358
#     4  11  22  41  62  85 117 154 193 259 312 358
#     4  12  24  42  64  90 124 156 202 248 311 386
#     4  12  24  40  68  92 124 160 206 242 316 400
#     4   9  19  37  59  85 123 160 203 255 298 353
#
# _framework density 21.64676
#
# number of rings (size 3 to 8) (size 9 to 14) (size 15 to 20)
#    0.000    1.600    2.400    1.920    0.000    6.400 
#    0.000    5.600    0.000    8.640    0.000    0.000 
#    0.000    0.000    0.000    0.000    0.000    0.000 
#
# Total GULP energy -139357.167490 kJ/mol
# GULP energy per Si atom -5574.286700 kJ/mol
# Density = 2.159749 g / cm^3
# Si number density = 21.646760 Si / 1000 Ang^3
#
#
#
# Elastic Constant Matrix: (Units=GPa)
#
#
# Indices 1 2 3 4 5 6 
#
# 1 40.0434 6.7813 11.3549 0.0000 -1.5180 0.0000
# 2 6.7813 142.9238 18.8478 0.0000 -3.8118 0.0000
# 3 11.3549 18.8478 52.2203 0.0000 -0.7594 0.0000
# 4 0.0000 0.0000 0.0000 223.6434 0.0000 20.8366
# 5 -1.5180 -3.8118 -0.7594 0.0000 30.8911 0.0000
# 6 0.0000 0.0000 0.0000 20.8366 0.0000 24.0568
#
#
#
# Elastic Compliance Matrix: (Units=1/GPa)
#
#
# Indices 1 2 3 4 5 6 
#
# 1 0.026689 -0.000497 -0.005608 0.000000 0.001112 0.000000
# 2 -0.000497 0.007378 -0.002543 0.000000 0.000823 0.000000
# 3 -0.005608 -0.002543 0.021286 0.000000 -0.000066 0.000000
# 4 0.000000 0.000000 0.000000 0.004864 0.000000 -0.004213
# 5 0.001112 0.000823 -0.000066 0.000000 0.032526 0.000000
# 6 0.000000 0.000000 0.000000 -0.004213 0.000000 0.045217
#
#
# Mechanical properties :
#
#
# Convention : Reuss Voigt Hill
#
# Bulk Modulus (GPa) = 26.27603 34.35062 30.31332
# Shear Modulus (GPa) = 29.77230 68.93183 49.35206
#
# Velocity S-wave (km/s) = 3.71262 5.64917 4.77999
# Velocity P-wave (km/s) = 5.52657 7.64552 6.67072
#
# Compressibility (1/GPa) = 0.03805750
#
# Stress axis : x y z
#
# Youngs Moduli (GPa) = 37.46805 135.54542 46.97975
#
# Poissons Ratio (x) = 0.06739 0.26345
# Poissons Ratio (y) = 0.01863 0.11946
# Poissons Ratio (z) = 0.21011 0.34465
#
# Static dielectric constant tensor:
#      x y z
#    x 1.827970 0.000000 0.020920 
#    y 0.000000 1.806480 0.000000 
#    z 0.020920 0.000000 1.788850 
# 
# From -- ./inp_files/355477.got.cif
#   From: 2010.05.17/outbox.cif.g08.bks.cpg/sg12_178_cif.got.tgz:355477.got - 2010.06.03 13:09:07.
