data_PCOD9197832
_publ_section_title
;
Structure prediction by ZEFSAII (Michael W. Deem and Ramdas Pophale) SiO2 
 PCOD9197832
Probable space group: C 2/M
;
_chemical_formula_sum "Si O2"
_cell_formula_units_Z 40
_cell_length_a 14.441542
_cell_length_b 30.413284
_cell_length_c 13.272394
_cell_angle_alpha 90.000000
_cell_angle_beta 160.104962
_cell_angle_gamma 90.000000
_cell_volume 1983.744321
_symmetry_space_group_name_H-M "C 2/M"
_symmetry_group_IT_number 12
_symmetry_cell_setting 'monoclinic'
loop_
_space_group_symop_operation_xyz
x,y,z
-x,y,-z
-x,-y,-z
x,-y,z
1/2+x,1/2+y,z
1/2-x,1/2+y,-z
1/2-x,1/2-y,-z
1/2+x,1/2-y,z
loop_
_atom_site_type_symbol
_atom_site_label
_atom_site_fract_x
_atom_site_fract_y
_atom_site_fract_z
Si Si1 0.771769 0.550115 0.844340
Si Si2 0.641164 0.180482 0.252177
Si Si3 0.508813 0.237633 0.629094
Si Si4 0.516845 0.681196 0.137542
Si Si5 0.861418 0.868294 0.168807
O O1 0.500000 0.548599 0.500000
O O2 0.839899 0.500000 0.945123
O O3 0.735949 0.583448 0.899800
O O4 0.000000 0.566307 0.000000
O O5 0.833375 0.220684 0.485806
O O6 0.870116 0.142508 0.489584
O O7 0.500000 0.189993 0.000000
O O8 0.381290 0.164977 0.049594
O O9 0.500000 0.244309 0.500000
O O10 0.325796 0.195782 0.468076
O O11 0.818858 0.222743 0.963989
O O12 0.439795 0.641996 0.133686
O O13 0.500000 0.672659 0.000000
#
# Coordination Sequence:
#
# PCOD9197832 Si02
#       5
#     8   8   8   8   8
#     4  10  21  38  59  83 113 142 168 210 274 343
#     4  12  23  35  54  82 114 144 181 230 276 322
#     4  10  20  36  53  72 107 150 185 224 272 313
#     4  10  22  38  54  74 106 148 192 229 263 308
#     4  12  23  35  57  83 108 143 185 227 271 323
#
# _framework density 20.163888
#
# number of rings (size 3 to 8) (size 9 to 14) (size 15 to 20)
#    0.000    1.200    0.000    9.000    0.000    4.800 
#    0.000    0.000    0.000    0.600    0.000    0.000 
#    0.000   12.800    0.000    0.000    0.000    3.800 
#
# Total GULP energy -111680.193252 kJ/mol
# GULP energy per Si atom -5584.009663 kJ/mol
# Density = 2.011799 g / cm^3
# Si number density = 20.163888 Si / 1000 Ang^3
#
#
#
# Elastic Constant Matrix: (Units=GPa)
#
#
# Indices 1 2 3 4 5 6 
#
# 1 124.4103 61.1688 27.1711 0.0000 12.3523 0.0010
# 2 61.1688 94.3698 12.3540 -0.0004 3.4079 0.0010
# 3 27.1711 12.3540 132.0224 -0.0007 10.1555 0.0072
# 4 0.0000 -0.0004 -0.0007 21.6832 0.0002 10.1115
# 5 12.3523 3.4079 10.1555 0.0002 36.4837 0.0018
# 6 0.0010 0.0010 0.0072 10.1115 0.0018 22.6495
#
#
#
# Elastic Compliance Matrix: (Units=1/GPa)
#
#
# Indices 1 2 3 4 5 6 
#
# 1 0.012529 -0.007799 -0.001613 -0.000001 -0.003065 0.000001
# 2 -0.007799 0.015603 0.000055 0.000001 0.001168 -0.000001
# 3 -0.001613 0.000055 0.008032 0.000002 -0.001695 -0.000003
# 4 -0.000001 0.000001 0.000002 0.058244 0.000001 -0.026002
# 5 -0.003065 0.001168 -0.001695 0.000001 0.028810 -0.000002
# 6 0.000001 -0.000001 -0.000003 -0.026002 -0.000002 0.055759
#
#
# Mechanical properties :
#
#
# Convention : Reuss Voigt Hill
#
# Bulk Modulus (GPa) = 57.30907 61.35449 59.33178
# Shear Modulus (GPa) = 24.56920 32.83720 28.70320
#
# Velocity S-wave (km/s) = 3.49445 4.03986 3.77702
# Velocity P-wave (km/s) = 6.69066 7.22874 6.96490
#
# Compressibility (1/GPa) = 0.01744924
#
# Stress axis : x y z
#
# Youngs Moduli (GPa) = 79.81361 64.09184 124.50776
#
# Poissons Ratio (x) = 0.49988 0.20084
# Poissons Ratio (y) = 0.62250 -0.00689
# Poissons Ratio (z) = 0.12874 -0.00355
#
# Static dielectric constant tensor:
#      x y z
#    x 1.786670 0.000000 -0.007800 
#    y 0.000000 1.751300 0.000000 
#    z -0.007800 0.000000 1.731120 
# 
# From -- ./inp_files/219178.got.cif
#   From: 2010.05.17/outbox.cif.g08.bks.cpg/sg12_110_cif.got.tgz:219178.got - 2010.06.03 13:09:07.
