data_PCOD9197440
_publ_section_title
;
Structure prediction by ZEFSAII (Michael W. Deem and Ramdas Pophale) SiO2 
 PCOD9197440
Probable space group: C 2/M
;
_chemical_formula_sum "Si O2"
_cell_formula_units_Z 48
_cell_length_a 12.539551
_cell_length_b 18.444173
_cell_length_c 15.051318
_cell_angle_alpha 90.000000
_cell_angle_beta 138.486899
_cell_angle_gamma 90.000000
_cell_volume 2307.238517
_symmetry_space_group_name_H-M "C 2/M"
_symmetry_group_IT_number 12
_symmetry_cell_setting 'monoclinic'
loop_
_space_group_symop_operation_xyz
x,y,z
-x,y,-z
-x,-y,-z
x,-y,z
1/2+x,1/2+y,z
1/2-x,1/2+y,-z
1/2-x,1/2-y,-z
1/2+x,1/2-y,z
loop_
_atom_site_type_symbol
_atom_site_label
_atom_site_fract_x
_atom_site_fract_y
_atom_site_fract_z
Si Si1 0.865633 0.087865 0.985836
Si Si2 0.621407 0.582448 0.800705
Si Si3 0.673510 0.767416 0.592308
Si Si4 0.132721 0.315384 0.150526
Si Si5 0.193863 0.865870 0.477299
Si Si6 0.499713 0.914729 0.226928
O O1 0.678587 0.107635 0.851259
O O2 0.870747 0.000000 0.985079
O O3 0.901056 0.106888 0.110939
O O4 0.000000 0.113816 0.000000
O O5 0.683856 0.500000 0.841450
O O6 0.743949 0.634565 0.826877
O O7 0.454689 0.584551 0.642454
O O8 0.500000 0.801105 0.500000
O O9 0.770359 0.747867 0.740420
O O10 0.771571 0.817372 0.587231
O O11 0.645663 0.690765 0.524300
O O12 0.047895 0.365166 0.172985
O O13 0.000000 0.287896 0.000000
O O14 0.357783 0.903106 0.612807
O O15 0.494573 0.000000 0.199473
#
# Coordination Sequence:
#
# PCOD9197440 Si02
#       6
#     8   8   8   8   8   8
#     4   9  19  35  54  82 124 162 193 237 297 370
#     4  11  21  36  62  95 128 156 195 253 317 375
#     4  10  21  41  60  80 120 164 208 253 295 348
#     4  11  21  37  62  96 125 157 199 256 313 369
#     4  10  22  38  58  87 118 163 205 247 299 361
#     4  10  20  35  59  91 125 158 197 249 311 372
#
# _framework density 20.804091
#
# number of rings (size 3 to 8) (size 9 to 14) (size 15 to 20)
#    0.000    1.833    3.333    1.000    0.000    2.000 
#    0.000    5.833    0.000    5.000    0.000    0.000 
#    0.000    0.000    0.000    0.000    0.000    0.000 
#
# Total GULP energy -134079.131838 kJ/mol
# GULP energy per Si atom -5586.630493 kJ/mol
# Density = 2.075674 g / cm^3
# Si number density = 20.804091 Si / 1000 Ang^3
#
#
#
# Elastic Constant Matrix: (Units=GPa)
#
#
# Indices 1 2 3 4 5 6 
#
# 1 135.7284 16.7563 53.8621 -0.0001 8.8369 0.0002
# 2 16.7563 38.4609 16.4120 -0.0002 -4.0578 0.0004
# 3 53.8621 16.4120 162.8867 -0.0003 3.2391 0.0009
# 4 -0.0001 -0.0002 -0.0003 -125.2729 -0.0002 329.8108
# 5 8.8369 -4.0578 3.2391 -0.0002 28.6706 0.0005
# 6 0.0002 0.0004 0.0009 329.8108 0.0005 -853.7910
#
#
#
# Elastic Compliance Matrix: (Units=1/GPa)
#
#
# Indices 1 2 3 4 5 6 
#
# 1 0.008971 -0.003108 -0.002595 0.000000 -0.002912 0.000000
# 2 -0.003108 0.028751 -0.001973 0.000000 0.005250 0.000000
# 3 -0.002595 -0.001973 0.007202 0.000000 -0.000293 0.000000
# 4 0.000000 0.000000 0.000000 0.469557 0.000000 0.181385
# 5 -0.002912 0.005250 -0.000293 0.000000 0.036553 0.000000
# 6 0.000000 0.000000 0.000000 0.181385 0.000000 0.068896
#
#
# Mechanical properties :
#
#
# Convention : Reuss Voigt Hill
#
# Bulk Modulus (GPa) = 33.81836 56.79298 45.30567
# Shear Modulus (GPa) = 7.75026 -173.40895 -82.82935
#
# Velocity S-wave (km/s) = 1.93221 -9.13971 -6.31668
# Velocity P-wave (km/s) = 4.61182 9.16629 5.60143
#
# Compressibility (1/GPa) = 0.02956974
#
# Stress axis : x y z
#
# Youngs Moduli (GPa) = 111.47189 34.78196 138.84801
#
# Poissons Ratio (x) = 0.10810 0.36036
# Poissons Ratio (y) = 0.34646 0.27401
# Poissons Ratio (z) = 0.28931 0.06864
#
# Static dielectric constant tensor:
#      x y z
#    x 1.728340 0.000000 0.008320 
#    y 0.000000 1.717670 0.000000 
#    z 0.008320 0.000000 1.754120 
# 
# From -- ./inp_files/50723.got.cif
#   From: 2010.05.17/outbox.cif.g08.bks.cpg/sg12_26_cif.got.tgz:50723.got - 2010.06.03 13:09:07.
