data_PCOD9197369
_publ_section_title
;
Structure prediction by ZEFSAII (Michael W. Deem and Ramdas Pophale) SiO2 
 PCOD9197369
Probable space group: C 2/M
;
_chemical_formula_sum "Si O2"
_cell_formula_units_Z 52
_cell_length_a 5.429461
_cell_length_b 25.947724
_cell_length_c 22.016422
_cell_angle_alpha 90.000000
_cell_angle_beta 125.101713
_cell_angle_gamma 90.000000
_cell_volume 2537.618826
_symmetry_space_group_name_H-M "C 2/M"
_symmetry_group_IT_number 12
_symmetry_cell_setting 'monoclinic'
loop_
_space_group_symop_operation_xyz
x,y,z
-x,y,-z
-x,-y,-z
x,-y,z
1/2+x,1/2+y,z
1/2-x,1/2+y,-z
1/2-x,1/2-y,-z
1/2+x,1/2-y,z
loop_
_atom_site_type_symbol
_atom_site_label
_atom_site_fract_x
_atom_site_fract_y
_atom_site_fract_z
Si Si1 0.552588 0.218541 0.349089
Si Si2 0.870542 0.000000 0.048526
Si Si3 0.742214 0.644284 0.214814
Si Si4 0.276349 0.442030 0.684364
Si Si5 0.047934 0.559582 0.190779
Si Si6 0.147315 0.624335 0.455232
Si Si7 0.722391 0.097613 0.086114
O O1 0.348417 0.258172 0.358861
O O2 0.357060 0.193636 0.266596
O O3 0.627841 0.173179 0.407127
O O4 0.949540 0.055017 0.089488
O O5 0.500000 0.000000 0.000000
O O6 0.000000 0.000000 0.000000
O O7 0.757508 0.597080 0.264863
O O8 0.408720 0.644923 0.139855
O O9 0.941277 0.618032 0.191418
O O10 0.185704 0.500000 0.687041
O O11 0.634956 0.441972 0.726709
O O12 0.072756 0.419775 0.602106
O O13 0.936142 0.500000 0.184437
O O14 0.093132 0.565675 0.124541
O O15 0.500000 0.608559 0.500000
O O16 0.000000 0.637597 0.500000
O O17 0.500000 0.111633 0.000000
#
# Coordination Sequence:
#
# PCOD9197369 Si02
#       7
#     8   4   8   8   8   8   8
#     4  11  26  46  72  95 122 159 208 269 331 385
#     4  10  22  34  50  82 132 174 206 242 300 366
#     4  10  23  36  64  88 122 167 218 266 314 379
#     4   9  21  39  57  90 132 175 216 247 298 365
#     4  10  20  35  59  88 127 173 218 255 303 364
#     4  11  25  42  68  99 132 165 204 258 313 384
#     4  10  22  34  53  89 131 172 210 260 312 366
#
# _framework density 20.491652999999999
#
# number of rings (size 3 to 8) (size 9 to 14) (size 15 to 20)
#    0.000    1.846    0.769    1.385   17.231    2.462 
#    0.000    0.000    0.000    0.923    0.000    0.000 
#    0.000    0.000    0.000    0.000    0.000    0.000 
#
# Total GULP energy -144752.218278 kJ/mol
# GULP energy per Si atom -5567.393011 kJ/mol
# Density = 2.044501 g / cm^3
# Si number density = 20.491653 Si / 1000 Ang^3
#
#
#
# Elastic Constant Matrix: (Units=GPa)
#
#
# Indices 1 2 3 4 5 6 
#
# 1 74.5265 1.1360 16.0900 0.0000 -12.4538 0.0000
# 2 1.1360 18.3878 4.8023 0.0000 1.6473 0.0000
# 3 16.0900 4.8023 111.7974 0.0000 7.0834 0.0000
# 4 0.0000 0.0000 0.0000 8.8584 0.0000 2.0965
# 5 -12.4538 1.6473 7.0834 0.0000 28.4912 0.0000
# 6 0.0000 0.0000 0.0000 2.0965 0.0000 19.3411
#
#
#
# Elastic Compliance Matrix: (Units=1/GPa)
#
#
# Indices 1 2 3 4 5 6 
#
# 1 0.015227 -0.000916 -0.002618 0.000000 0.007360 0.000000
# 2 -0.000916 0.055251 -0.002046 0.000000 -0.003086 0.000000
# 3 -0.002618 -0.002046 0.009626 0.000000 -0.003420 0.000000
# 4 0.000000 0.000000 0.000000 0.115860 0.000000 -0.012559
# 5 0.007360 -0.003086 -0.003420 0.000000 0.039344 0.000000
# 6 0.000000 0.000000 0.000000 -0.012559 0.000000 0.053065
#
#
# Mechanical properties :
#
#
# Convention : Reuss Voigt Hill
#
# Bulk Modulus (GPa) = 14.50466 27.64093 21.07280
# Shear Modulus (GPa) = 15.50312 23.51704 19.51008
#
# Velocity S-wave (km/s) = 2.75354 3.39136 3.08896
# Velocity P-wave (km/s) = 4.14765 5.37152 4.79876
#
# Compressibility (1/GPa) = 0.06894335
#
# Stress axis : x y z
#
# Youngs Moduli (GPa) = 65.67185 18.09912 103.88373
#
# Poissons Ratio (x) = 0.01658 0.27202
# Poissons Ratio (y) = 0.06017 0.21254
# Poissons Ratio (z) = 0.17196 0.03703
#
# Static dielectric constant tensor:
#      x y z
#    x 2.202510 0.000000 0.103470 
#    y 0.000000 1.839200 0.000000 
#    z 0.103470 0.000000 1.810280 
# 
# From -- ./inp_files/298068.got.cif
#   From: 2010.05.17/outbox.cif.g08.bks.cpg/sg12_150_cif.got.tgz:298068.got - 2010.06.03 13:09:07.
