data_PCOD9197612
_publ_section_title
;
Structure prediction by ZEFSAII (Michael W. Deem and Ramdas Pophale) SiO2 
 PCOD9197612
Probable space group: C 2/M
;
_chemical_formula_sum "Si O2"
_cell_formula_units_Z 40
_cell_length_a 4.977915
_cell_length_b 23.153173
_cell_length_c 19.491410
_cell_angle_alpha 90.000000
_cell_angle_beta 63.801230
_cell_angle_gamma 90.000000
_cell_volume 2015.688212
_symmetry_space_group_name_H-M "C 2/M"
_symmetry_group_IT_number 12
_symmetry_cell_setting 'monoclinic'
loop_
_space_group_symop_operation_xyz
x,y,z
-x,y,-z
-x,-y,-z
x,-y,z
1/2+x,1/2+y,z
1/2-x,1/2+y,-z
1/2-x,1/2-y,-z
1/2+x,1/2-y,z
loop_
_atom_site_type_symbol
_atom_site_label
_atom_site_fract_x
_atom_site_fract_y
_atom_site_fract_z
Si Si1 0.190532 0.790424 0.413470
Si Si2 0.022894 0.638144 0.733752
Si Si3 0.051447 0.933852 0.216479
Si Si4 0.782281 0.213436 0.124036
Si Si5 0.852638 0.901240 0.949769
O O1 0.499779 0.762716 0.404391
O O2 0.258484 0.837926 0.348859
O O3 0.000000 0.812326 0.500000
O O4 0.200418 0.604816 0.773631
O O5 0.769043 0.595561 0.733841
O O6 0.853421 0.692361 0.788117
O O7 0.097732 0.931242 0.129083
O O8 0.067572 0.000000 0.237577
O O9 0.506018 0.233093 0.108839
O O10 0.970761 0.159347 0.076710
O O11 0.500000 0.893936 0.000000
O O12 0.000000 0.930556 0.000000
#
# Coordination Sequence:
#
# PCOD9197612 Si02
#       5
#     8   8   8   8   8
#     4  10  20  35  60  94 127 156 183 218 272 333
#     4  11  21  38  60  84 116 147 190 236 273 335
#     4  11  24  41  61  81 105 147 196 244 293 331
#     4  11  21  34  54  79 110 148 180 215 272 339
#     4  11  23  38  55  80 111 143 188 239 289 343
#
# _framework density 19.844336999999999
#
# number of rings (size 3 to 8) (size 9 to 14) (size 15 to 20)
#    0.000    1.200    0.000    9.000    0.000    3.200 
#    0.000    0.000    0.000    3.600    0.000    0.000 
#    0.000    0.000    0.000    0.000    0.000    0.000 
#
# Total GULP energy -111858.498720 kJ/mol
# GULP energy per Si atom -5592.924936 kJ/mol
# Density = 1.979917 g / cm^3
# Si number density = 19.844337 Si / 1000 Ang^3
#
#
#
# Elastic Constant Matrix: (Units=GPa)
#
#
# Indices 1 2 3 4 5 6 
#
# 1 98.5801 14.8359 17.4632 0.0000 -6.5259 0.0000
# 2 14.8359 67.3087 30.3468 0.0000 -6.3776 0.0000
# 3 17.4632 30.3468 102.1833 0.0000 -7.3034 0.0000
# 4 0.0000 0.0000 0.0000 -12.5604 0.0000 -2.4543
# 5 -6.5259 -6.3776 -7.3034 0.0000 23.2931 0.0000
# 6 0.0000 0.0000 0.0000 -2.4543 0.0000 3.4906
#
#
#
# Elastic Compliance Matrix: (Units=1/GPa)
#
#
# Indices 1 2 3 4 5 6 
#
# 1 0.010745 -0.001620 -0.001199 0.000000 0.002191 0.000000
# 2 -0.001620 0.017630 -0.004753 0.000000 0.002883 0.000000
# 3 -0.001199 -0.004753 0.011544 0.000000 0.001983 0.000000
# 4 0.000000 0.000000 0.000000 -0.069998 0.000000 -0.049217
# 5 0.002191 0.002883 0.001983 0.000000 0.044956 0.000000
# 6 0.000000 0.000000 0.000000 -0.049217 0.000000 0.251881
#
#
# Mechanical properties :
#
#
# Convention : Reuss Voigt Hill
#
# Bulk Modulus (GPa) = 40.36157 43.70711 42.03434
# Shear Modulus (GPa) = 17.23184 16.53973 16.88579
#
# Velocity S-wave (km/s) = 2.94998 2.89013 2.92020
# Velocity P-wave (km/s) = 5.65565 5.76280 5.70948
#
# Compressibility (1/GPa) = 0.02477604
#
# Stress axis : x y z
#
# Youngs Moduli (GPa) = 93.06431 56.72109 86.62215
#
# Poissons Ratio (x) = 0.09191 0.10382
# Poissons Ratio (y) = 0.15081 0.41170
# Poissons Ratio (z) = 0.11154 0.26959
#
# Static dielectric constant tensor:
#      x y z
#    x 1.696860 0.000000 0.019950 
#    y 0.000000 1.679660 0.000000 
#    z 0.019950 0.000000 1.709530 
# 
# From -- ./inp_files/252802.got.cif
#   From: 2010.05.17/outbox.cif.g08.bks.cpg/sg12_127_cif.got.tgz:252802.got - 2010.06.03 13:09:07.
