data_PCOD9197951
_publ_section_title
;
Structure prediction by ZEFSAII (Michael W. Deem and Ramdas Pophale) SiO2 
 PCOD9197951
Probable space group: C 2/M
;
_chemical_formula_sum "Si O2"
_cell_formula_units_Z 58
_cell_length_a 28.189569
_cell_length_b 9.004748
_cell_length_c 12.772590
_cell_angle_alpha 90.000000
_cell_angle_beta 96.464808
_cell_angle_gamma 90.000000
_cell_volume 3221.577336
_symmetry_space_group_name_H-M "C 2/M"
_symmetry_group_IT_number 12
_symmetry_cell_setting 'monoclinic'
loop_
_space_group_symop_operation_xyz
x,y,z
-x,y,-z
-x,-y,-z
x,-y,z
1/2+x,1/2+y,z
1/2-x,1/2+y,-z
1/2-x,1/2-y,-z
1/2+x,1/2-y,z
loop_
_atom_site_type_symbol
_atom_site_label
_atom_site_fract_x
_atom_site_fract_y
_atom_site_fract_z
Si Si1 0.526887 0.335762 0.798912
Si Si2 0.700674 0.677985 0.248666
Si Si3 0.872627 0.678183 0.172579
Si Si4 0.643006 0.678571 0.440951
Si Si5 0.692680 0.178708 0.648760
Si Si6 0.966012 0.819421 0.586948
Si Si7 0.500000 0.500000 0.000000
Si Si8 0.299509 0.821657 0.973910
O O1 0.542357 0.500000 0.761764
O O2 0.574269 0.239765 0.817754
O O3 0.489269 0.277288 0.704236
O O4 0.505392 0.372630 0.907592
O O5 0.700154 0.500000 0.228534
O O6 0.663290 0.711533 0.330908
O O7 0.753716 0.717202 0.302610
O O8 0.690357 0.763325 0.139475
O O9 0.873851 0.500000 0.174058
O O10 0.844058 0.726168 0.269378
O O11 0.841289 0.723911 0.064412
O O12 0.644255 0.500000 0.453504
O O13 0.676660 0.749443 0.536679
O O14 0.588457 0.731681 0.439018
O O15 0.690877 0.000000 0.639214
O O16 0.000000 0.771444 0.500000
O O17 0.963913 0.000000 0.584650
O O18 0.295216 0.000000 0.975272
O O19 0.250000 0.750000 0.000000
#
# Coordination Sequence:
#
# PCOD9197951 Si02
#       8
#     8   8   8   8   8   8   2   8
#     4   9  19  36  57  81 111 142 186 237 288 333
#     4  10  21  38  56  81 117 155 190 236 286 336
#     4  10  21  37  57  83 115 150 187 234 290 341
#     4  10  21  35  56  86 110 149 196 231 284 346
#     4  10  20  36  55  77 119 152 183 237 286 335
#     4   9  17  32  54  80 112 140 178 241 287 323
#     4   8  20  36  56  84 112 132 194 242 280 336
#     4  11  22  38  58  83 118 153 195 236 284 339
#
# _framework density 18.003602999999998
#
# number of rings (size 3 to 8) (size 9 to 14) (size 15 to 20)
#    0.414    1.793    1.379    1.655    0.000    4.966 
#    2.483    1.034    0.000    2.483    0.000    0.000 
#    0.000    0.000    0.000    0.000    0.000    0.000 
#
# Total GULP energy -161464.830911 kJ/mol
# GULP energy per Si atom -5567.752790 kJ/mol
# Density = 1.796263 g / cm^3
# Si number density = 18.003603 Si / 1000 Ang^3
#
#
#
# Elastic Constant Matrix: (Units=GPa)
#
#
# Indices 1 2 3 4 5 6 
#
# 1 17.5591 5.5060 -1.9933 0.0000 -9.3151 0.0000
# 2 5.5060 12.1894 21.1715 0.0000 -1.3353 0.0000
# 3 -1.9933 21.1715 84.3571 0.0000 -13.5150 0.0000
# 4 0.0000 0.0000 0.0000 25.8102 0.0000 4.1638
# 5 -9.3151 -1.3353 -13.5150 0.0000 28.0367 0.0000
# 6 0.0000 0.0000 0.0000 4.1638 0.0000 16.0878
#
#
#
# Elastic Compliance Matrix: (Units=1/GPa)
#
#
# Indices 1 2 3 4 5 6 
#
# 1 0.141007 -0.142262 0.049261 0.000000 0.063819 0.000000
# 2 -0.142262 0.292505 -0.088986 0.000000 -0.076230 0.000000
# 3 0.049261 -0.088986 0.040416 0.000000 0.031611 0.000000
# 4 0.000000 0.000000 0.000000 0.040433 0.000000 -0.010465
# 5 0.063819 -0.076230 0.031611 0.000000 0.068479 0.000000
# 6 0.000000 0.000000 0.000000 -0.010465 0.000000 0.064867
#
#
# Mechanical properties :
#
#
# Convention : Reuss Voigt Hill
#
# Bulk Modulus (GPa) = 9.09466 18.16379 13.62923
# Shear Modulus (GPa) = 4.76948 19.94836 12.35892
#
# Velocity S-wave (km/s) = 1.62940 3.33231 2.62290
# Velocity P-wave (km/s) = 2.93299 4.99165 4.09384
#
# Compressibility (1/GPa) = 0.10995463
#
# Stress axis : x y z
#
# Youngs Moduli (GPa) = 7.09183 3.41874 24.74264
#
# Poissons Ratio (x) = 0.48636 -1.21884
# Poissons Ratio (y) = 1.00890 2.20175
# Poissons Ratio (z) = -0.34935 0.30422
#
# Static dielectric constant tensor:
#      x y z
#    x 1.606050 0.000000 -0.001840 
#    y 0.000000 1.620690 0.000000 
#    z -0.001840 0.000000 1.608550 
# 
# From -- ./inp_files/186782.got.cif
#   From: 2010.05.17/outbox.cif.g08.bks.cpg/sg12_94_cif.got.tgz:186782.got - 2010.06.03 13:09:07.
