data_PCOD9197121
_publ_section_title
;
Structure prediction by ZEFSAII (Michael W. Deem and Ramdas Pophale) SiO2 
 PCOD9197121
Probable space group: C 2/M
;
_chemical_formula_sum "Si O2"
_cell_formula_units_Z 56
_cell_length_a 19.811419
_cell_length_b 8.928751
_cell_length_c 28.281704
_cell_angle_alpha 90.000000
_cell_angle_beta 38.302115
_cell_angle_gamma 90.000000
_cell_volume 3100.766371
_symmetry_space_group_name_H-M "C 2/M"
_symmetry_group_IT_number 12
_symmetry_cell_setting 'monoclinic'
loop_
_space_group_symop_operation_xyz
x,y,z
-x,y,-z
-x,-y,-z
x,-y,z
1/2+x,1/2+y,z
1/2-x,1/2+y,-z
1/2-x,1/2-y,-z
1/2+x,1/2-y,z
loop_
_atom_site_type_symbol
_atom_site_label
_atom_site_fract_x
_atom_site_fract_y
_atom_site_fract_z
Si Si1 0.384064 0.172384 0.539444
Si Si2 0.346699 0.323680 0.300478
Si Si3 0.182033 0.320023 0.126715
Si Si4 0.080556 0.680132 0.999335
Si Si5 0.136510 0.824615 0.547328
Si Si6 0.986479 0.676976 0.304135
Si Si7 0.464901 0.679576 0.874552
O O1 0.500000 0.183633 0.500000
O O2 0.282326 0.200451 0.630279
O O3 0.379838 0.282605 0.497901
O O4 0.370829 0.000000 0.529323
O O5 0.365593 0.500000 0.300536
O O6 0.394719 0.229059 0.317300
O O7 0.419366 0.289965 0.214738
O O8 0.188952 0.500000 0.116734
O O9 0.299435 0.250476 0.072396
O O10 0.126725 0.248044 0.110280
O O11 0.099715 0.288319 0.215451
O O12 0.088215 0.500000 0.997929
O O13 0.039184 0.745890 0.071970
O O14 0.000000 0.717858 0.000000
O O15 0.250000 0.750000 0.500000
O O16 0.040133 0.759273 0.632702
O O17 0.144191 0.000000 0.550691
O O18 0.980137 0.500000 0.315021
O O19 0.449373 0.500000 0.886627
#
# Coordination Sequence:
#
# PCOD9197121 Si02
#       7
#     8   8   8   8   8   8   8
#     4  10  21  38  58  82 117 155 193 238 287 340
#     4   9  18  34  57  84 113 150 189 233 286 337
#     4  10  21  38  62  89 116 147 189 236 283 339
#     4  11  24  41  59  82 117 155 190 231 284 339
#     4  12  23  36  58  85 116 153 195 239 285 336
#     4  10  20  35  58  88 115 146 188 239 288 334
#     4  10  20  36  61  88 114 147 192 237 282 340
#
# _framework density 18.060051000000001
#
# number of rings (size 3 to 8) (size 9 to 14) (size 15 to 20)
#    0.000    1.714    1.429    3.429    0.000    3.714 
#    2.571    0.000    0.000    0.000    0.000    0.000 
#    0.000    0.000    0.000    0.000    0.000    0.000 
#
# Total GULP energy -156340.767092 kJ/mol
# GULP energy per Si atom -5583.598825 kJ/mol
# Density = 1.801895 g / cm^3
# Si number density = 18.060051 Si / 1000 Ang^3
#
#
#
# Elastic Constant Matrix: (Units=GPa)
#
#
# Indices 1 2 3 4 5 6 
#
# 1 89.5302 52.6291 75.7648 0.0000 -5.7493 -0.0002
# 2 52.6291 87.1517 69.6726 0.0001 2.0343 -0.0005
# 3 75.7648 69.6726 139.7121 0.0000 -7.2975 0.0000
# 4 0.0000 0.0001 0.0000 24.1524 0.0000 6.9544
# 5 -5.7493 2.0343 -7.2975 0.0000 24.9160 0.0000
# 6 -0.0002 -0.0005 0.0000 6.9544 0.0000 27.9251
#
#
#
# Elastic Compliance Matrix: (Units=1/GPa)
#
#
# Indices 1 2 3 4 5 6 
#
# 1 0.022855 -0.006826 -0.008820 0.000000 0.003248 0.000000
# 2 -0.006826 0.021610 -0.007362 0.000000 -0.005496 0.000000
# 3 -0.008820 -0.007362 0.015779 0.000000 0.003187 0.000000
# 4 0.000000 0.000000 0.000000 0.044602 0.000000 -0.011108
# 5 0.003248 -0.005496 0.003187 0.000000 0.042266 0.000000
# 6 0.000000 0.000000 0.000000 -0.011108 0.000000 0.038576
#
#
# Mechanical properties :
#
#
# Convention : Reuss Voigt Hill
#
# Bulk Modulus (GPa) = 70.29011 79.16966 74.72989
# Shear Modulus (GPa) = 21.14641 23.28721 22.21681
#
# Velocity S-wave (km/s) = 3.42555 3.59476 3.51117
# Velocity P-wave (km/s) = 7.39260 7.82060 7.60961
#
# Compressibility (1/GPa) = 0.01422675
#
# Stress axis : x y z
#
# Youngs Moduli (GPa) = 43.75483 46.27462 63.37731
#
# Poissons Ratio (x) = 0.31587 0.55900
# Poissons Ratio (y) = 0.29867 0.46659
# Poissons Ratio (z) = 0.38593 0.34068
#
# Static dielectric constant tensor:
#      x y z
#    x 1.579050 0.000000 -0.003170 
#    y 0.000000 1.611850 0.000000 
#    z -0.003170 0.000000 1.644940 
# 
# From -- ./inp_files/362932.got.cif
#   From: 2010.05.17/outbox.cif.g08.bks.cpg/sg12_182_cif.got.tgz:362932.got - 2010.06.03 13:09:07.
