data_PCOD9197528
_publ_section_title
;
Structure prediction by ZEFSAII (Michael W. Deem and Ramdas Pophale) SiO2 
 PCOD9197528
Probable space group: C 2/M
;
_chemical_formula_sum "Si O2"
_cell_formula_units_Z 40
_cell_length_a 21.470940
_cell_length_b 9.052094
_cell_length_c 10.318243
_cell_angle_alpha 90.000000
_cell_angle_beta 81.406493
_cell_angle_gamma 90.000000
_cell_volume 1982.908181
_symmetry_space_group_name_H-M "C 2/M"
_symmetry_group_IT_number 12
_symmetry_cell_setting 'monoclinic'
loop_
_space_group_symop_operation_xyz
x,y,z
-x,y,-z
-x,-y,-z
x,-y,z
1/2+x,1/2+y,z
1/2-x,1/2+y,-z
1/2-x,1/2-y,-z
1/2+x,1/2-y,z
loop_
_atom_site_type_symbol
_atom_site_label
_atom_site_fract_x
_atom_site_fract_y
_atom_site_fract_z
Si Si1 0.345543 0.324483 0.381076
Si Si2 0.450632 0.321442 0.901849
Si Si3 0.313372 0.330037 0.941356
Si Si4 0.772971 0.170039 0.668072
Si Si5 0.019444 0.677288 0.641815
O O1 0.354989 0.500000 0.365404
O O2 0.289572 0.269136 0.305113
O O3 0.316089 0.290153 0.532168
O O4 0.411374 0.241567 0.348475
O O5 0.448402 0.500000 0.884646
O O6 0.380759 0.270940 0.965135
O O7 0.472587 0.246741 0.762059
O O8 0.500000 0.289025 0.000000
O O9 0.308399 0.500000 0.984520
O O10 0.313322 0.323631 0.785206
O O11 0.250000 0.250000 0.000000
O O12 0.752167 0.000000 0.655264
O O13 0.019531 0.500000 0.651716
O O14 0.000000 0.716871 0.500000
#
# Coordination Sequence:
#
# PCOD9197528 Si02
#       5
#     8   8   8   8   8
#     4  10  20  35  60  88 117 155 199 251 306 361
#     4  10  23  43  65  92 127 164 209 258 308 370
#     4  10  22  39  60  86 120 160 202 249 298 358
#     4   9  19  36  56  84 120 156 198 248 303 359
#     4  11  24  40  61  90 125 162 205 254 309 370
#
# _framework density 20.172391999999999
#
# number of rings (size 3 to 8) (size 9 to 14) (size 15 to 20)
#    0.000    2.000    0.000    2.400    2.800    6.000 
#    0.000    0.000    0.000    0.000    0.000    0.000 
#    0.000    0.000    0.000    0.000    0.000    0.000 
#
# Total GULP energy -111720.632352 kJ/mol
# GULP energy per Si atom -5586.031618 kJ/mol
# Density = 2.012648 g / cm^3
# Si number density = 20.172392 Si / 1000 Ang^3
#
#
#
# Elastic Constant Matrix: (Units=GPa)
#
#
# Indices 1 2 3 4 5 6 
#
# 1 172.4382 50.8465 34.2942 0.0000 -10.1770 0.0000
# 2 50.8465 42.1520 25.5465 0.0000 -6.6765 0.0000
# 3 34.2942 25.5465 54.2430 0.0000 -5.4417 0.0000
# 4 0.0000 0.0000 0.0000 24.7256 0.0000 -4.9506
# 5 -10.1770 -6.6765 -5.4417 0.0000 25.2570 0.0000
# 6 0.0000 0.0000 0.0000 -4.9506 0.0000 28.8963
#
#
#
# Elastic Compliance Matrix: (Units=1/GPa)
#
#
# Indices 1 2 3 4 5 6 
#
# 1 0.009039 -0.010310 -0.000784 0.000000 0.000748 0.000000
# 2 -0.010310 0.045732 -0.014538 0.000000 0.004802 0.000000
# 3 -0.000784 -0.014538 0.025921 0.000000 0.001426 0.000000
# 4 0.000000 0.000000 0.000000 0.041881 0.000000 0.007175
# 5 0.000748 0.004802 0.001426 0.000000 0.041471 0.000000
# 6 0.000000 0.000000 0.000000 0.007175 0.000000 0.035836
#
#
# Mechanical properties :
#
#
# Convention : Reuss Voigt Hill
#
# Bulk Modulus (GPa) = 33.98132 54.46750 44.22441
# Shear Modulus (GPa) = 19.16048 26.31884 22.73966
#
# Velocity S-wave (km/s) = 3.08529 3.61598 3.36112
# Velocity P-wave (km/s) = 5.43820 6.67033 6.08553
#
# Compressibility (1/GPa) = 0.02942793
#
# Stress axis : x y z
#
# Youngs Moduli (GPa) = 110.62644 21.86661 38.57836
#
# Poissons Ratio (x) = 0.22545 0.03026
# Poissons Ratio (y) = 1.14057 0.56085
# Poissons Ratio (z) = 0.08676 0.31789
#
# Static dielectric constant tensor:
#      x y z
#    x 1.706650 0.000000 -0.002160 
#    y 0.000000 1.693370 0.000000 
#    z -0.002160 0.000000 1.741410 
# 
# From -- ./inp_files/151842.got.cif
#   From: 2010.05.17/outbox.cif.g08.bks.cpg/sg12_76_cif.got.tgz:151842.got - 2010.06.03 13:09:07.
