data_PCOD9197790
_publ_section_title
;
Structure prediction by ZEFSAII (Michael W. Deem and Ramdas Pophale) SiO2 
 PCOD9197790
Probable space group: C 2/M
;
_chemical_formula_sum "Si O2"
_cell_formula_units_Z 40
_cell_length_a 14.308149
_cell_length_b 27.939572
_cell_length_c 8.357312
_cell_angle_alpha 90.000000
_cell_angle_beta 36.715813
_cell_angle_gamma 90.000000
_cell_volume 1997.374225
_symmetry_space_group_name_H-M "C 2/M"
_symmetry_group_IT_number 12
_symmetry_cell_setting 'monoclinic'
loop_
_space_group_symop_operation_xyz
x,y,z
-x,y,-z
-x,-y,-z
x,-y,z
1/2+x,1/2+y,z
1/2-x,1/2+y,-z
1/2-x,1/2-y,-z
1/2+x,1/2-y,z
loop_
_atom_site_type_symbol
_atom_site_label
_atom_site_fract_x
_atom_site_fract_y
_atom_site_fract_z
Si Si1 0.352195 0.794052 0.301624
Si Si2 0.561864 0.879282 0.592927
Si Si3 0.617504 0.419443 0.964748
Si Si4 0.723735 0.054967 0.918299
Si Si5 0.099856 0.865393 0.512445
O O1 0.250000 0.750000 0.500000
O O2 0.421712 0.829184 0.340848
O O3 0.238211 0.829341 0.360417
O O4 0.500000 0.775992 0.000000
O O5 0.500000 0.871007 0.500000
O O6 0.438054 0.915642 0.842598
O O7 0.732327 0.902614 0.341375
O O8 0.514851 0.376138 0.182025
O O9 0.500000 0.444230 0.000000
O O10 0.688427 0.443621 0.028360
O O11 0.699537 0.000000 0.906798
O O12 0.827496 0.084267 0.649035
O O13 0.000000 0.846696 0.500000
#
# Coordination Sequence:
#
# PCOD9197790 Si02
#       5
#     8   8   8   8   8
#     4  12  26  44  68  98 125 164 218 269 327 393
#     4  10  22  42  66  93 134 171 207 266 321 382
#     4  10  20  35  65  92 130 171 209 267 311 363
#     4  10  22  42  64  91 132 182 219 252 311 388
#     4  10  22  42  66  93 134 171 207 266 321 382
#
# _framework density 20.026292999999999
#
# number of rings (size 3 to 8) (size 9 to 14) (size 15 to 20)
#    0.000    1.600    4.000    0.000    2.800    8.400 
#    0.000    4.000    0.000    0.000    0.000    0.000 
#    0.000    0.000    0.000    0.000    0.000    0.000 
#
# Total GULP energy -111648.038258 kJ/mol
# GULP energy per Si atom -5582.401913 kJ/mol
# Density = 1.998071 g / cm^3
# Si number density = 20.026293 Si / 1000 Ang^3
#
#
#
# Elastic Constant Matrix: (Units=GPa)
#
#
# Indices 1 2 3 4 5 6 
#
# 1 63.0330 32.6450 20.5847 0.0000 -23.7751 0.0000
# 2 32.6450 123.5792 50.0742 0.0000 -10.5863 0.0000
# 3 20.5847 50.0742 145.7489 0.0000 -23.6279 0.0000
# 4 0.0000 0.0000 0.0000 22.1012 0.0000 -1.9287
# 5 -23.7751 -10.5863 -23.6279 0.0000 25.8368 0.0000
# 6 0.0000 0.0000 0.0000 -1.9287 0.0000 5.3427
#
#
#
# Elastic Compliance Matrix: (Units=1/GPa)
#
#
# Indices 1 2 3 4 5 6 
#
# 1 0.027750 -0.006089 0.002240 0.000000 0.025089 0.000000
# 2 -0.006089 0.010761 -0.003558 0.000000 -0.004448 0.000000
# 3 0.002240 -0.003558 0.009234 0.000000 0.009048 0.000000
# 4 0.000000 0.000000 0.000000 0.046718 0.000000 0.016865
# 5 0.025089 -0.004448 0.009048 0.000000 0.068243 0.000000
# 6 0.000000 0.000000 0.000000 0.016865 0.000000 0.193259
#
#
# Mechanical properties :
#
#
# Convention : Reuss Voigt Hill
#
# Bulk Modulus (GPa) = 30.36667 59.88543 45.12605
# Shear Modulus (GPa) = 13.09735 25.92664 19.51199
#
# Velocity S-wave (km/s) = 2.56013 3.60200 3.12479
# Velocity P-wave (km/s) = 4.89238 6.87514 5.96669
#
# Compressibility (1/GPa) = 0.03293084
#
# Stress axis : x y z
#
# Youngs Moduli (GPa) = 36.03611 92.92612 108.29501
#
# Poissons Ratio (x) = 0.56582 -0.24258
# Poissons Ratio (y) = 0.21942 0.38534
# Poissons Ratio (z) = -0.08072 0.33066
#
# Static dielectric constant tensor:
#      x y z
#    x 1.752260 0.000000 -0.007760 
#    y 0.000000 1.655200 0.000000 
#    z -0.007760 0.000000 1.712150 
# 
# From -- ./inp_files/41879.got.cif
#   From: 2010.05.17/outbox.cif.g08.bks.cpg/sg12_21_cif.got.tgz:41879.got - 2010.06.03 13:09:07.
