data_PCOD9197727
_publ_section_title
;
Structure prediction by ZEFSAII (Michael W. Deem and Ramdas Pophale) SiO2 
 PCOD9197727
Probable space group: C 2/M
;
_chemical_formula_sum "Si O2"
_cell_formula_units_Z 48
_cell_length_a 18.472253
_cell_length_b 13.619142
_cell_length_c 18.061293
_cell_angle_alpha 90.000000
_cell_angle_beta 148.240079
_cell_angle_gamma 90.000000
_cell_volume 2391.675682
_symmetry_space_group_name_H-M "C 2/M"
_symmetry_group_IT_number 12
_symmetry_cell_setting 'monoclinic'
loop_
_space_group_symop_operation_xyz
x,y,z
-x,y,-z
-x,-y,-z
x,-y,z
1/2+x,1/2+y,z
1/2-x,1/2+y,-z
1/2-x,1/2-y,-z
1/2+x,1/2-y,z
loop_
_atom_site_type_symbol
_atom_site_label
_atom_site_fract_x
_atom_site_fract_y
_atom_site_fract_z
Si Si1 0.662640 0.609101 0.153325
Si Si2 0.715501 0.855556 0.435868
Si Si3 0.538285 0.321170 0.450307
Si Si4 0.660791 0.895843 0.551971
Si Si5 0.716978 0.261443 0.854521
Si Si6 0.598092 0.117386 0.877348
O O1 0.706978 0.500000 0.164861
O O2 0.711600 0.614992 0.280833
O O3 0.729029 0.698204 0.167110
O O4 0.500000 0.614372 0.000000
O O5 0.750000 0.750000 0.500000
O O6 0.832507 0.873796 0.476516
O O7 0.708142 0.906592 0.508845
O O8 0.565867 0.865767 0.269309
O O9 0.500000 0.353172 0.500000
O O10 0.573324 0.203506 0.483966
O O11 0.409088 0.327300 0.283229
O O12 0.589071 0.000000 0.507930
O O13 0.662687 0.179734 0.865575
O O14 0.832099 0.330239 0.991458
O O15 0.624526 0.000000 0.896292
#
# Coordination Sequence:
#
# PCOD9197727 Si02
#       6
#     8   8   8   8   8   8
#     4  10  22  36  58  97 136 168 204 263 341 403
#     4  10  21  38  63  92 125 168 216 256 322 384
#     4  11  22  39  62  97 125 167 210 264 327 385
#     4  10  20  35  62  95 124 159 208 266 328 391
#     4  11  23  38  66  94 133 168 212 273 325 389
#     4  11  24  42  65  93 128 176 222 265 320 389
#
# _framework density 20.069610000000001
#
# number of rings (size 3 to 8) (size 9 to 14) (size 15 to 20)
#    0.000    1.500    5.000    1.000    4.667    1.000 
#    0.000    3.333    0.000    8.000    0.000    0.000 
#    0.000    0.000    0.000    0.000    0.000    0.000 
#
# Total GULP energy -133782.747646 kJ/mol
# GULP energy per Si atom -5574.281152 kJ/mol
# Density = 2.002393 g / cm^3
# Si number density = 20.069610 Si / 1000 Ang^3
#
#
#
# Elastic Constant Matrix: (Units=GPa)
#
#
# Indices 1 2 3 4 5 6 
#
# 1 132.4863 24.5657 66.6857 0.0000 0.6694 0.0000
# 2 24.5657 72.9912 48.5173 0.0000 3.7719 0.0000
# 3 66.6857 48.5173 178.1444 0.0000 -14.3074 0.0001
# 4 0.0000 0.0000 0.0000 58.2249 0.0000 -5.1021
# 5 0.6694 3.7719 -14.3074 0.0000 21.7097 0.0000
# 6 0.0000 0.0000 0.0001 -5.1021 0.0000 8.6004
#
#
#
# Elastic Compliance Matrix: (Units=1/GPa)
#
#
# Indices 1 2 3 4 5 6 
#
# 1 0.009483 -0.000693 -0.003564 0.000000 -0.002521 0.000000
# 2 -0.000693 0.017620 -0.005051 0.000000 -0.006369 0.000000
# 3 -0.003564 -0.005051 0.008872 0.000000 0.006834 0.000000
# 4 0.000000 0.000000 0.000000 0.018117 0.000000 0.010747
# 5 -0.002521 -0.006369 0.006834 0.000000 0.051751 0.000000
# 6 0.000000 0.000000 0.000000 0.010747 0.000000 0.122649
#
#
# Mechanical properties :
#
#
# Convention : Reuss Voigt Hill
#
# Bulk Modulus (GPa) = 57.60249 73.68436 65.64342
# Shear Modulus (GPa) = 19.77128 33.96388 26.86758
#
# Velocity S-wave (km/s) = 3.14209 4.11823 3.66282
# Velocity P-wave (km/s) = 6.47513 7.70760 7.11809
#
# Compressibility (1/GPa) = 0.01736036
#
# Stress axis : x y z
#
# Youngs Moduli (GPa) = 105.45435 56.75419 112.71542
#
# Poissons Ratio (x) = 0.03930 0.40167
# Poissons Ratio (y) = 0.07303 0.56932
# Poissons Ratio (z) = 0.37579 0.28666
#
# Static dielectric constant tensor:
#      x y z
#    x 1.720900 0.000000 -0.000670 
#    y 0.000000 1.760730 0.000000 
#    z -0.000670 0.000000 1.692910 
# 
# From -- ./inp_files/278237.got.cif
#   From: 2010.05.17/outbox.cif.g08.bks.cpg/sg12_140_cif.got.tgz:278237.got - 2010.06.03 13:09:07.
