data_PCOD9197340
_publ_section_title
;
Structure prediction by ZEFSAII (Michael W. Deem and Ramdas Pophale) SiO2 
 PCOD9197340
Probable space group: C 2/M
;
_chemical_formula_sum "Si O2"
_cell_formula_units_Z 56
_cell_length_a 17.971383
_cell_length_b 12.732489
_cell_length_c 15.041020
_cell_angle_alpha 90.000000
_cell_angle_beta 47.849800
_cell_angle_gamma 90.000000
_cell_volume 2551.630257
_symmetry_space_group_name_H-M "C 2/M"
_symmetry_group_IT_number 12
_symmetry_cell_setting 'monoclinic'
loop_
_space_group_symop_operation_xyz
x,y,z
-x,y,-z
-x,-y,-z
x,-y,z
1/2+x,1/2+y,z
1/2-x,1/2+y,-z
1/2-x,1/2-y,-z
1/2+x,1/2-y,z
loop_
_atom_site_type_symbol
_atom_site_label
_atom_site_fract_x
_atom_site_fract_y
_atom_site_fract_z
Si Si1 0.197939 0.199264 0.161208
Si Si2 0.009303 0.691746 0.702674
Si Si3 0.348028 0.889221 0.549820
Si Si4 0.354168 0.621306 0.987089
Si Si5 0.970529 0.724096 0.122680
Si Si6 0.661860 0.614090 0.562412
Si Si7 0.264059 0.311341 0.684096
O O1 0.286497 0.286340 0.084839
O O2 0.213638 0.136242 0.239486
O O3 0.096999 0.266727 0.241783
O O4 0.184240 0.129438 0.084177
O O5 0.057737 0.616411 0.591486
O O6 0.001596 0.656139 0.811756
O O7 0.085671 0.791503 0.639437
O O8 0.251734 0.881374 0.561216
O O9 0.337796 0.788979 0.619375
O O10 0.344976 0.000000 0.600566
O O11 0.346072 0.500000 0.023797
O O12 0.467199 0.667331 0.910545
O O13 0.850430 0.728129 0.223128
O O14 0.000000 0.686453 0.000000
O O15 0.612004 0.500000 0.609516
O O16 0.711608 0.626141 0.425100
#
# Coordination Sequence:
#
# PCOD9197340 Si02
#       7
#     8   8   8   8   8   8   8
#     4  10  23  39  58  84 124 161 195 245 303 359
#     4  10  20  39  59  83 119 158 193 242 301 363
#     4  10  20  35  59  88 115 151 196 248 305 354
#     4  10  23  41  59  85 121 166 206 243 296 354
#     4  11  20  36  63  89 115 156 202 249 293 346
#     4  10  20  36  62  91 117 153 200 250 299 353
#     4  11  20  39  60  89 122 155 196 252 300 352
#
# _framework density 21.946753000000001
#
# number of rings (size 3 to 8) (size 9 to 14) (size 15 to 20)
#    0.000    1.714    4.286    0.857    0.000    7.143 
#    0.000    1.429    0.000    0.857    0.000    0.000 
#    0.000    0.000    0.000    0.000    0.000    0.000 
#
# Total GULP energy -156159.961401 kJ/mol
# GULP energy per Si atom -5577.141479 kJ/mol
# Density = 2.189680 g / cm^3
# Si number density = 21.946753 Si / 1000 Ang^3
#
#
#
# Elastic Constant Matrix: (Units=GPa)
#
#
# Indices 1 2 3 4 5 6 
#
# 1 72.2955 -14.4974 23.7688 0.0000 14.6601 0.0000
# 2 -14.4974 57.9113 -8.0823 0.0000 -9.7789 0.0000
# 3 23.7688 -8.0823 82.2929 0.0000 10.4331 0.0000
# 4 0.0000 0.0000 0.0000 0.7243 0.0000 -5.0416
# 5 14.6601 -9.7789 10.4331 0.0000 36.1200 0.0000
# 6 0.0000 0.0000 0.0000 -5.0416 0.0000 7.7026
#
#
#
# Elastic Compliance Matrix: (Units=1/GPa)
#
#
# Indices 1 2 3 4 5 6 
#
# 1 0.016672 0.002803 -0.003922 0.000000 -0.004875 0.000000
# 2 0.002803 0.018681 0.000548 0.000000 0.003762 0.000000
# 3 -0.003922 0.000548 0.013616 0.000000 -0.002193 0.000000
# 4 0.000000 0.000000 0.000000 -0.388258 0.000000 -0.254128
# 5 -0.004875 0.003762 -0.002193 0.000000 0.031316 0.000000
# 6 0.000000 0.000000 0.000000 -0.254128 0.000000 -0.036508
#
#
# Mechanical properties :
#
#
# Convention : Reuss Voigt Hill
#
# Bulk Modulus (GPa) = 20.90812 23.87533 22.39172
# Shear Modulus (GPa) = -15.27200 22.99675 3.86237
#
# Velocity S-wave (km/s) = -2.64079 3.24055 1.32805
# Velocity P-wave (km/s) = 0.49907 4.99038 3.54634
#
# Compressibility (1/GPa) = 0.04782831
#
# Stress axis : x y z
#
# Youngs Moduli (GPa) = 59.97978 53.52981 73.44090
#
# Poissons Ratio (x) = -0.15005 0.28804
# Poissons Ratio (y) = -0.16813 -0.04026
# Poissons Ratio (z) = 0.23525 -0.02935
#
# Static dielectric constant tensor:
#      x y z
#    x 1.803050 0.000000 0.030680 
#    y 0.000000 1.804710 0.000000 
#    z 0.030680 0.000000 1.848280 
# 
# From -- ./inp_files/225203.got.cif
#   From: 2010.05.17/outbox.cif.g08.bks.cpg/sg12_113_cif.got.tgz:225203.got - 2010.06.03 13:09:07.
