data_PCOD9197199
_publ_section_title
;
Structure prediction by ZEFSAII (Michael W. Deem and Ramdas Pophale) SiO2 
 PCOD9197199
Probable space group: C 2/M
;
_chemical_formula_sum "Si O2"
_cell_formula_units_Z 64
_cell_length_a 15.717454
_cell_length_b 8.682128
_cell_length_c 33.935225
_cell_angle_alpha 90.000000
_cell_angle_beta 45.827736
_cell_angle_gamma 90.000000
_cell_volume 3321.455724
_symmetry_space_group_name_H-M "C 2/M"
_symmetry_group_IT_number 12
_symmetry_cell_setting 'monoclinic'
loop_
_space_group_symop_operation_xyz
x,y,z
-x,y,-z
-x,-y,-z
x,-y,z
1/2+x,1/2+y,z
1/2-x,1/2+y,-z
1/2-x,1/2-y,-z
1/2+x,1/2-y,z
loop_
_atom_site_type_symbol
_atom_site_label
_atom_site_fract_x
_atom_site_fract_y
_atom_site_fract_z
Si Si1 0.120496 0.814170 0.438219
Si Si2 0.082227 0.314313 0.363973
Si Si3 0.547129 0.818118 0.940878
Si Si4 0.311002 0.813699 0.440926
Si Si5 0.363438 0.319000 0.941348
Si Si6 0.696209 0.682041 0.174398
Si Si7 0.234740 0.815549 0.763341
Si Si8 0.977675 0.318451 0.828420
O O1 0.117438 0.748905 0.395326
O O2 0.233023 0.765440 0.428329
O O3 0.000000 0.767730 0.500000
O O4 0.120807 0.000000 0.435859
O O5 0.082275 0.500000 0.365921
O O6 0.174950 0.268360 0.300383
O O7 0.948251 0.264657 0.396350
O O8 0.475101 0.715318 0.933460
O O9 0.686406 0.790727 0.890115
O O10 0.525253 0.000000 0.938913
O O11 0.500000 0.789439 0.000000
O O12 0.250000 0.750000 0.500000
O O13 0.307553 0.000000 0.443460
O O14 0.347328 0.500000 0.939799
O O15 0.391160 0.235891 0.891453
O O16 0.250000 0.250000 0.000000
O O17 0.672024 0.500000 0.181738
O O18 0.728556 0.737125 0.207597
O O19 0.586053 0.771489 0.191394
O O20 0.102219 0.766206 0.794634
O O21 0.239622 0.000000 0.766476
O O22 0.996642 0.500000 0.824700
#
# Coordination Sequence:
#
# PCOD9197199 Si02
#       8
#     8   8   8   8   8   8   8   8
#     4  10  20  35  58  90 126 163 205 253 310 372
#     4  10  23  40  61  90 124 164 209 257 308 369
#     4  10  21  38  61  91 128 163 204 257 319 384
#     4  10  20  36  58  87 123 161 202 250 308 367
#     4  12  24  39  62  92 129 166 210 264 321 384
#     4  11  23  41  67  96 128 167 212 263 324 385
#     4  11  24  44  65  91 129 170 219 269 317 376
#     4  12  25  43  67  94 126 168 217 266 324 384
#
# _framework density 19.268659
#
# number of rings (size 3 to 8) (size 9 to 14) (size 15 to 20)
#    0.000    1.250    2.500    3.750    0.000    4.500 
#    0.000    1.250    0.000    0.000    0.000    0.000 
#    0.000    0.000    0.000    0.000    0.000    0.000 
#
# Total GULP energy -178947.159777 kJ/mol
# GULP energy per Si atom -5592.098743 kJ/mol
# Density = 1.922480 g / cm^3
# Si number density = 19.268659 Si / 1000 Ang^3
#
#
#
# Elastic Constant Matrix: (Units=GPa)
#
#
# Indices 1 2 3 4 5 6 
#
# 1 121.2423 2.7916 48.6290 -0.0002 4.2263 -0.0006
# 2 2.7916 25.2663 12.3480 -0.0004 -0.0554 -0.0015
# 3 48.6290 12.3480 130.6547 -0.0001 2.1270 -0.0003
# 4 -0.0002 -0.0004 -0.0001 24.5385 0.0000 4.4069
# 5 4.2263 -0.0554 2.1270 0.0000 26.0177 -0.0001
# 6 -0.0006 -0.0015 -0.0003 4.4069 -0.0001 34.9699
#
#
#
# Elastic Compliance Matrix: (Units=1/GPa)
#
#
# Indices 1 2 3 4 5 6 
#
# 1 0.009751 0.000716 -0.003676 0.000000 -0.001282 0.000000
# 2 0.000716 0.041552 -0.004199 0.000000 0.000315 0.000002
# 3 -0.003676 -0.004199 0.009422 0.000000 -0.000182 0.000000
# 4 0.000000 0.000000 0.000000 0.041696 0.000000 -0.005255
# 5 -0.001282 0.000315 -0.000182 0.000000 0.038659 0.000000
# 6 0.000000 0.000002 0.000000 -0.005255 0.000000 0.029258
#
#
# Mechanical properties :
#
#
# Convention : Reuss Voigt Hill
#
# Bulk Modulus (GPa) = 21.54825 44.96674 33.25750
# Shear Modulus (GPa) = 24.98460 31.33155 28.15807
#
# Velocity S-wave (km/s) = 3.60480 4.03679 3.82690
# Velocity P-wave (km/s) = 5.34167 6.71677 6.06829
#
# Compressibility (1/GPa) = 0.04640748
#
# Stress axis : x y z
#
# Youngs Moduli (GPa) = 102.55877 24.06624 106.13788
#
# Poissons Ratio (x) = -0.01724 0.39015
# Poissons Ratio (y) = -0.07347 0.44565
# Poissons Ratio (z) = 0.37700 0.10105
#
# Static dielectric constant tensor:
#      x y z
#    x 1.663610 0.000000 -0.011800 
#    y 0.000000 1.650200 0.000000 
#    z -0.011800 0.000000 1.650990 
# 
# From -- ./inp_files/375459.got.cif
#   From: 2010.05.17/outbox.cif.g08.bks.cpg/sg12_188_cif.got.tgz:375459.got - 2010.06.03 13:09:07.
