data_PCOD9197050
_publ_section_title
;
Structure prediction by ZEFSAII (Michael W. Deem and Ramdas Pophale) SiO2 
 PCOD9197050
Probable space group: C 2/M
;
_chemical_formula_sum "Si O2"
_cell_formula_units_Z 56
_cell_length_a 30.910621
_cell_length_b 9.053656
_cell_length_c 10.260756
_cell_angle_alpha 90.000000
_cell_angle_beta 69.289814
_cell_angle_gamma 90.000000
_cell_volume 2685.961017
_symmetry_space_group_name_H-M "C 2/M"
_symmetry_group_IT_number 12
_symmetry_cell_setting 'monoclinic'
loop_
_space_group_symop_operation_xyz
x,y,z
-x,y,-z
-x,-y,-z
x,-y,z
1/2+x,1/2+y,z
1/2-x,1/2+y,-z
1/2-x,1/2-y,-z
1/2+x,1/2-y,z
loop_
_atom_site_type_symbol
_atom_site_label
_atom_site_fract_x
_atom_site_fract_y
_atom_site_fract_z
Si Si1 0.261524 0.835849 0.791996
Si Si2 0.552600 0.828124 0.987967
Si Si3 0.448707 0.679013 0.508733
Si Si4 0.105176 0.178201 0.695630
Si Si5 0.200991 0.675192 0.516809
Si Si6 0.315669 0.834487 0.007274
Si Si7 0.593757 0.675233 0.177212
O O1 0.298571 0.807145 0.640740
O O2 0.286573 0.837379 0.904178
O O3 0.242020 0.000000 0.788503
O O4 0.219386 0.722252 0.845386
O O5 0.583873 0.740397 0.851438
O O6 0.565885 0.000000 0.976080
O O7 0.500000 0.817059 0.000000
O O8 0.557132 0.756710 0.125060
O O9 0.500000 0.729705 0.500000
O O10 0.451233 0.500000 0.499048
O O11 0.427594 0.726023 0.392187
O O12 0.414085 0.717623 0.664095
O O13 0.156344 0.244107 0.621142
O O14 0.106999 0.000000 0.696233
O O15 0.200777 0.500000 0.548051
O O16 0.250000 0.750000 0.500000
O O17 0.357506 0.725719 0.933636
O O18 0.331899 0.000000 0.017793
O O19 0.588334 0.500000 0.173140
#
# Coordination Sequence:
#
# PCOD9197050 Si02
#       7
#     8   8   8   8   8   8   8
#     4   9  20  38  58  82 116 157 202 249 299 357
#     4  11  25  44  64  90 126 166 210 260 314 374
#     4   9  19  37  63  95 126 158 203 258 314 377
#     4  11  23  41  67  96 129 169 212 260 320 382
#     4  11  24  41  61  86 123 166 214 263 309 369
#     4  10  20  35  58  86 117 153 195 249 304 358
#     4  11  22  37  62  91 122 158 201 252 307 372
#
# _framework density 20.849148
#
# number of rings (size 3 to 8) (size 9 to 14) (size 15 to 20)
#    0.000    1.714    0.000    3.857    2.000    4.000 
#    0.000    2.143    0.000    5.143    0.000    0.000 
#    0.000    0.000    0.000    0.000    0.000    0.000 
#
# Total GULP energy -156431.221962 kJ/mol
# GULP energy per Si atom -5586.829356 kJ/mol
# Density = 2.080169 g / cm^3
# Si number density = 20.849148 Si / 1000 Ang^3
#
#
#
# Elastic Constant Matrix: (Units=GPa)
#
#
# Indices 1 2 3 4 5 6 
#
# 1 62.5403 19.6059 6.0976 0.0000 -11.7031 0.0000
# 2 19.6059 83.9887 33.1298 0.0000 -6.4492 0.0000
# 3 6.0976 33.1298 71.1349 0.0000 -2.5936 0.0000
# 4 0.0000 0.0000 0.0000 -8.6093 0.0000 9.3272
# 5 -11.7031 -6.4492 -2.5936 0.0000 33.0138 0.0000
# 6 0.0000 0.0000 0.0000 9.3272 0.0000 25.2634
#
#
#
# Elastic Compliance Matrix: (Units=1/GPa)
#
#
# Indices 1 2 3 4 5 6 
#
# 1 0.018275 -0.004031 0.000520 0.000000 0.005732 0.000000
# 2 -0.004031 0.015655 -0.006906 0.000000 0.001087 0.000000
# 3 0.000520 -0.006906 0.017236 0.000000 0.000189 0.000000
# 4 0.000000 0.000000 0.000000 -0.082967 0.000000 0.030631
# 5 0.005732 0.001087 0.000189 0.000000 0.032549 0.000000
# 6 0.000000 0.000000 0.000000 0.030631 0.000000 0.028274
#
#
# Mechanical properties :
#
#
# Convention : Reuss Voigt Hill
#
# Bulk Modulus (GPa) = 32.96792 37.25896 35.11344
# Shear Modulus (GPa) = 83.37895 20.52228 51.95061
#
# Velocity S-wave (km/s) = 6.33075 3.14079 4.99715
# Velocity P-wave (km/s) = 8.32375 5.57336 7.08333
#
# Compressibility (1/GPa) = 0.03033251
#
# Stress axis : x y z
#
# Youngs Moduli (GPa) = 54.71869 63.87811 58.01676
#
# Poissons Ratio (x) = 0.25749 -0.03016
# Poissons Ratio (y) = 0.22057 0.40065
# Poissons Ratio (z) = -0.02844 0.44113
#
# Static dielectric constant tensor:
#      x y z
#    x 1.781490 0.000000 0.023790 
#    y 0.000000 1.717400 0.000000 
#    z 0.023790 0.000000 1.734840 
# 
# From -- ./inp_files/187137.got.cif
#   From: 2010.05.17/outbox.cif.g08.bks.cpg/sg12_94_cif.got.tgz:187137.got - 2010.06.03 13:09:07.
