data_PCOD9197033
_publ_section_title
;
Structure prediction by ZEFSAII (Michael W. Deem and Ramdas Pophale) SiO2 
 PCOD9197033
Probable space group: C 2/M
;
_chemical_formula_sum "Si O2"
_cell_formula_units_Z 56
_cell_length_a 27.976878
_cell_length_b 7.717679
_cell_length_c 17.532785
_cell_angle_alpha 90.000000
_cell_angle_beta 138.612807
_cell_angle_gamma 90.000000
_cell_volume 2502.839768
_symmetry_space_group_name_H-M "C 2/M"
_symmetry_group_IT_number 12
_symmetry_cell_setting 'monoclinic'
loop_
_space_group_symop_operation_xyz
x,y,z
-x,y,-z
-x,-y,-z
x,-y,z
1/2+x,1/2+y,z
1/2-x,1/2+y,-z
1/2-x,1/2-y,-z
1/2+x,1/2-y,z
loop_
_atom_site_type_symbol
_atom_site_label
_atom_site_fract_x
_atom_site_fract_y
_atom_site_fract_z
Si Si1 0.172983 0.700638 0.542523
Si Si2 0.900304 0.711782 0.693355
Si Si3 0.027714 0.200593 0.452496
Si Si4 0.082434 0.289800 0.114623
Si Si5 0.795573 0.206401 0.980206
Si Si6 0.955015 0.296111 0.218652
Si Si7 0.775516 0.796908 0.792943
O O1 0.192754 0.500000 0.553035
O O2 0.156020 0.775297 0.438318
O O3 0.097291 0.708723 0.498358
O O4 0.232025 0.781907 0.669514
O O5 0.898187 0.500000 0.690924
O O6 0.892568 0.767560 0.771039
O O7 0.979789 0.763275 0.757975
O O8 0.000000 0.271714 0.500000
O O9 0.965825 0.210491 0.314063
O O10 0.048161 0.000000 0.488950
O O11 0.084212 0.500000 0.113679
O O12 0.139786 0.220181 0.123120
O O13 0.000000 0.236975 0.000000
O O14 0.762360 0.276789 0.861378
O O15 0.797982 0.000000 0.975787
O O16 0.750000 0.250000 0.000000
O O17 0.877202 0.268086 0.089850
O O18 0.965547 0.500000 0.243543
O O19 0.754894 0.000000 0.769990
#
# Coordination Sequence:
#
# PCOD9197033 Si02
#       7
#     8   8   8   8   8   8   8
#     4   9  19  37  57  79 113 155 196 236 283 346
#     4   8  16  33  57  83 111 146 189 233 280 339
#     4  10  21  35  54  84 116 147 188 241 288 336
#     4  10  20  35  58  86 115 149 192 239 288 344
#     4  11  24  40  57  81 113 150 192 241 295 350
#     4  10  20  37  60  83 110 149 191 234 286 343
#     4  10  23  40  57  83 117 151 191 241 292 344
#
# _framework density 22.374586000000001
#
# number of rings (size 3 to 8) (size 9 to 14) (size 15 to 20)
#    0.000    2.286    0.000    3.000    2.000    4.857 
#    0.000    3.571    0.000    0.000    0.000    0.000 
#    0.000    0.000    0.000    0.000    0.000    0.000 
#
# Total GULP energy -156379.686767 kJ/mol
# GULP energy per Si atom -5584.988813 kJ/mol
# Density = 2.232366 g / cm^3
# Si number density = 22.374586 Si / 1000 Ang^3
#
#
#
# Elastic Constant Matrix: (Units=GPa)
#
#
# Indices 1 2 3 4 5 6 
#
# 1 82.4893 -7.6909 34.4408 0.0000 -34.5832 0.0000
# 2 -7.6909 39.0542 -5.6067 0.0000 -2.4854 0.0000
# 3 34.4408 -5.6067 123.5093 0.0000 -15.0497 0.0000
# 4 0.0000 0.0000 0.0000 15.0184 0.0000 6.2395
# 5 -34.5832 -2.4854 -15.0497 0.0000 34.4300 0.0000
# 6 0.0000 0.0000 0.0000 6.2395 0.0000 5.9600
#
#
#
# Elastic Compliance Matrix: (Units=1/GPa)
#
#
# Indices 1 2 3 4 5 6 
#
# 1 0.023576 0.005562 -0.003578 0.000000 0.022518 0.000000
# 2 0.005562 0.027292 0.000643 0.000000 0.007838 0.000000
# 3 -0.003578 0.000643 0.009180 0.000000 0.000465 0.000000
# 4 0.000000 0.000000 0.000000 0.117838 0.000000 -0.123364
# 5 0.022518 0.007838 0.000465 0.000000 0.052432 0.000000
# 6 0.000000 0.000000 0.000000 -0.123364 0.000000 0.296935
#
#
# Mechanical properties :
#
#
# Convention : Reuss Voigt Hill
#
# Bulk Modulus (GPa) = 15.31330 31.92658 23.61994
# Shear Modulus (GPa) = 9.19514 26.00900 17.60207
#
# Velocity S-wave (km/s) = 2.02942 3.41315 2.80786
# Velocity P-wave (km/s) = 3.51430 5.46195 4.59256
#
# Compressibility (1/GPa) = 0.06530271
#
# Stress axis : x y z
#
# Youngs Moduli (GPa) = 42.41620 36.64087 108.93090
#
# Poissons Ratio (x) = -0.20380 0.38973
# Poissons Ratio (y) = -0.23593 -0.07004
# Poissons Ratio (z) = 0.15176 -0.02356
#
# Static dielectric constant tensor:
#      x y z
#    x 1.803680 0.000000 -0.039180 
#    y 0.000000 1.850020 0.000000 
#    z -0.039180 0.000000 1.853680 
# 
# From -- ./inp_files/292567.got.cif
#   From: 2010.05.17/outbox.cif.g08.bks.cpg/sg12_147_cif.got.tgz:292567.got - 2010.06.03 13:09:07.
