data_PCOD9197062
_publ_section_title
;
Structure prediction by ZEFSAII (Michael W. Deem and Ramdas Pophale) SiO2 
 PCOD9197062
Probable space group: C 2/M
;
_chemical_formula_sum "Si O2"
_cell_formula_units_Z 48
_cell_length_a 20.754342
_cell_length_b 11.957450
_cell_length_c 12.497122
_cell_angle_alpha 90.000000
_cell_angle_beta 134.296785
_cell_angle_gamma 90.000000
_cell_volume 2219.769806
_symmetry_space_group_name_H-M "C 2/M"
_symmetry_group_IT_number 12
_symmetry_cell_setting 'monoclinic'
loop_
_space_group_symop_operation_xyz
x,y,z
-x,y,-z
-x,-y,-z
x,-y,z
1/2+x,1/2+y,z
1/2-x,1/2+y,-z
1/2-x,1/2-y,-z
1/2+x,1/2-y,z
loop_
_atom_site_type_symbol
_atom_site_label
_atom_site_fract_x
_atom_site_fract_y
_atom_site_fract_z
Si Si1 0.191761 0.880023 0.765874
Si Si2 0.901598 0.624155 0.061905
Si Si3 0.081508 0.127458 0.011752
Si Si4 0.039799 0.288417 0.657370
Si Si5 0.726164 0.621523 0.359613
Si Si6 0.361156 0.320863 0.526665
O O1 0.129366 0.781301 0.734882
O O2 0.185267 0.878877 0.629149
O O3 0.155118 0.000000 0.760642
O O4 0.293817 0.871205 0.923368
O O5 0.928497 0.500000 0.045941
O O6 0.935382 0.625095 0.222633
O O7 0.931370 0.749600 0.057413
O O8 0.172080 0.140989 0.187712
O O9 0.086443 0.000000 0.965423
O O10 0.000000 0.119064 0.000000
O O11 0.000000 0.333966 0.500000
O O12 0.963428 0.203566 0.613794
O O13 0.767137 0.500000 0.403044
O O14 0.656269 0.625843 0.378086
O O15 0.806537 0.705731 0.471318
#
# Coordination Sequence:
#
# PCOD9197062 Si02
#       6
#     8   8   8   8   8   8
#     4  10  21  39  63  91 124 164 210 260 315 370
#     4  11  23  41  63  92 130 164 206 261 321 381
#     4  10  21  39  63  92 125 166 215 259 307 369
#     4  10  23  40  62  88 122 163 211 263 313 375
#     4  10  20  35  58  86 123 163 203 254 310 371
#     4  10  20  37  59  90 123 160 208 256 311 368
#
# _framework density 21.623863
#
# number of rings (size 3 to 8) (size 9 to 14) (size 15 to 20)
#    0.000    1.833    1.667    2.000    0.000    5.667 
#    0.000    3.333    0.000    0.000    0.000    0.000 
#    0.000    0.000    0.000    0.000    0.000    0.000 
#
# Total GULP energy -133694.461422 kJ/mol
# GULP energy per Si atom -5570.602559 kJ/mol
# Density = 2.157465 g / cm^3
# Si number density = 21.623863 Si / 1000 Ang^3
#
#
#
# Elastic Constant Matrix: (Units=GPa)
#
#
# Indices 1 2 3 4 5 6 
#
# 1 37.4744 18.2447 3.8659 0.0000 -7.4070 0.0000
# 2 18.2447 169.9884 37.2561 0.0000 -16.4043 0.0000
# 3 3.8659 37.2561 88.3226 0.0000 -3.6968 0.0000
# 4 0.0000 0.0000 0.0000 731.9858 0.0000 75.9211
# 5 -7.4070 -16.4043 -3.6968 0.0000 18.2716 0.0000
# 6 0.0000 0.0000 0.0000 75.9211 0.0000 19.8834
#
#
#
# Elastic Compliance Matrix: (Units=1/GPa)
#
#
# Indices 1 2 3 4 5 6 
#
# 1 0.029757 -0.002236 0.000062 0.000000 0.010068 0.000000
# 2 -0.002236 0.007205 -0.002732 0.000000 0.005010 0.000000
# 3 0.000062 -0.002732 0.012476 0.000000 0.000097 0.000000
# 4 0.000000 0.000000 0.000000 0.002262 0.000000 -0.008637
# 5 0.010068 0.005010 0.000097 0.000000 0.063328 0.000000
# 6 0.000000 0.000000 0.000000 -0.008637 0.000000 0.083271
#
#
# Mechanical properties :
#
#
# Convention : Reuss Voigt Hill
#
# Bulk Modulus (GPa) = 25.23539 46.05764 35.64652
# Shear Modulus (GPa) = 22.59185 169.78940 96.19062
#
# Velocity S-wave (km/s) = 3.23579 8.87073 6.67683
# Velocity P-wave (km/s) = 5.06517 11.23680 8.71555
#
# Compressibility (1/GPa) = 0.03962688
#
# Stress axis : x y z
#
# Youngs Moduli (GPa) = 33.60551 138.79577 80.15579
#
# Poissons Ratio (x) = 0.31032 -0.00497
# Poissons Ratio (y) = 0.07513 0.21895
# Poissons Ratio (z) = -0.00208 0.37913
#
# Static dielectric constant tensor:
#      x y z
#    x 1.784780 0.000000 -0.044380 
#    y 0.000000 1.848490 0.000000 
#    z -0.044380 0.000000 1.795230 
# 
# From -- ./inp_files/165467.got.cif
#   From: 2010.05.17/outbox.cif.g08.bks.cpg/sg12_83_cif.got.tgz:165467.got - 2010.06.03 13:09:07.
