data_PCOD9197270
_publ_section_title
;
Structure prediction by ZEFSAII (Michael W. Deem and Ramdas Pophale) SiO2 
 PCOD9197270
Probable space group: C 2/M
;
_chemical_formula_sum "Si O2"
_cell_formula_units_Z 40
_cell_length_a 24.851505
_cell_length_b 19.338294
_cell_length_c 5.495827
_cell_angle_alpha 90.000000
_cell_angle_beta 139.360555
_cell_angle_gamma 90.000000
_cell_volume 1720.215424
_symmetry_space_group_name_H-M "C 2/M"
_symmetry_group_IT_number 12
_symmetry_cell_setting 'monoclinic'
loop_
_space_group_symop_operation_xyz
x,y,z
-x,y,-z
-x,-y,-z
x,-y,z
1/2+x,1/2+y,z
1/2-x,1/2+y,-z
1/2-x,1/2-y,-z
1/2+x,1/2-y,z
loop_
_atom_site_type_symbol
_atom_site_label
_atom_site_fract_x
_atom_site_fract_y
_atom_site_fract_z
Si Si1 0.927047 0.925413 0.443505
Si Si2 0.050693 0.581662 0.427905
Si Si3 0.733710 0.577411 0.445480
Si Si4 0.322017 0.166862 0.400964
Si Si5 0.843775 0.182890 0.438934
O O1 0.919368 0.859541 0.587908
O O2 0.000000 0.919180 0.500000
O O3 0.934516 0.000000 0.597552
O O4 0.840518 0.929229 0.003324
O O5 0.071870 0.500000 0.514590
O O6 0.130242 0.629977 0.656096
O O7 0.000000 0.598787 0.500000
O O8 0.000000 0.591276 0.000000
O O9 0.749445 0.500000 0.596994
O O10 0.812408 0.610101 0.579201
O O11 0.698215 0.632342 0.511698
O O12 0.363144 0.240589 0.600635
O O13 0.227603 0.187702 0.012267
#
# Coordination Sequence:
#
# PCOD9197270 Si02
#       5
#     8   8   8   8   8
#     4   9  19  36  54  80 116 148 189 241 290 357
#     4  10  23  43  65  93 125 163 211 259 312 372
#     4  10  20  35  59  85 110 150 198 241 296 357
#     4  10  22  39  57  84 119 153 194 254 305 365
#     4  10  21  37  58  84 114 154 195 243 306 369
#
# _framework density 23.252901000000001
#
# number of rings (size 3 to 8) (size 9 to 14) (size 15 to 20)
#    0.000    2.200    0.000    1.800    2.800    4.000 
#    3.600    3.000    0.000    0.000    0.000    0.000 
#    0.000    0.000    0.000    0.000    0.000    0.000 
#
# Total GULP energy -111673.643486 kJ/mol
# GULP energy per Si atom -5583.682174 kJ/mol
# Density = 2.319998 g / cm^3
# Si number density = 23.252901 Si / 1000 Ang^3
#
#
#
# Elastic Constant Matrix: (Units=GPa)
#
#
# Indices 1 2 3 4 5 6 
#
# 1 125.0257 91.9371 -7.5656 0.0000 8.7801 0.0000
# 2 91.9371 188.6094 -6.7956 0.0000 11.4757 0.0000
# 3 -7.5656 -6.7956 64.4735 0.0000 4.3335 0.0000
# 4 0.0000 0.0000 0.0000 8.0902 0.0000 -1.3621
# 5 8.7801 11.4757 4.3335 0.0000 26.6006 0.0000
# 6 0.0000 0.0000 0.0000 -1.3621 0.0000 -30.5754
#
#
#
# Elastic Compliance Matrix: (Units=1/GPa)
#
#
# Indices 1 2 3 4 5 6 
#
# 1 0.012587 -0.005996 0.000961 0.000000 -0.001724 0.000000
# 2 -0.005996 0.008336 0.000287 0.000000 -0.001664 0.000000
# 3 0.000961 0.000287 0.015857 0.000000 -0.003024 0.000000
# 4 0.000000 0.000000 0.000000 0.122687 0.000000 -0.005466
# 5 -0.001724 -0.001664 -0.003024 0.000000 0.039373 0.000000
# 6 0.000000 0.000000 0.000000 -0.005466 0.000000 -0.032463
#
#
# Mechanical properties :
#
#
# Convention : Reuss Voigt Hill
#
# Bulk Modulus (GPa) = 36.65239 59.25120 47.95179
# Shear Modulus (GPa) = 27.03190 20.85858 23.94524
#
# Velocity S-wave (km/s) = 3.41327 2.99830 3.21249
# Velocity P-wave (km/s) = 5.59737 6.12559 5.86743
#
# Compressibility (1/GPa) = 0.02728335
#
# Stress axis : x y z
#
# Youngs Moduli (GPa) = 79.44999 119.95950 63.06561
#
# Poissons Ratio (x) = 0.71925 -0.06060
# Poissons Ratio (y) = 0.47636 -0.01809
# Poissons Ratio (z) = -0.07634 -0.03442
#
# Static dielectric constant tensor:
#      x y z
#    x 1.853650 0.000000 -0.026070 
#    y 0.000000 1.916560 0.000000 
#    z -0.026070 0.000000 1.949330 
# 
# From -- ./inp_files/15127.got.cif
#   From: 2010.05.17/outbox.cif.g08.bks.cpg/sg12_8_cif.got.tgz:15127.got - 2010.06.03 13:09:07.
