data_PCOD9197061
_publ_section_title
;
Structure prediction by ZEFSAII (Michael W. Deem and Ramdas Pophale) SiO2 
 PCOD9197061
Probable space group: C 2/M
;
_chemical_formula_sum "Si O2"
_cell_formula_units_Z 48
_cell_length_a 29.735452
_cell_length_b 13.932209
_cell_length_c 7.937515
_cell_angle_alpha 90.000000
_cell_angle_beta 133.658372
_cell_angle_gamma 90.000000
_cell_volume 2379.024741
_symmetry_space_group_name_H-M "C 2/M"
_symmetry_group_IT_number 12
_symmetry_cell_setting 'monoclinic'
loop_
_space_group_symop_operation_xyz
x,y,z
-x,y,-z
-x,-y,-z
x,-y,z
1/2+x,1/2+y,z
1/2-x,1/2+y,-z
1/2-x,1/2-y,-z
1/2+x,1/2-y,z
loop_
_atom_site_type_symbol
_atom_site_label
_atom_site_fract_x
_atom_site_fract_y
_atom_site_fract_z
Si Si1 0.064987 0.739375 0.730082
Si Si2 0.578364 0.889245 0.077598
Si Si3 0.706364 0.886906 0.549408
Si Si4 0.104658 0.304032 0.490810
Si Si5 0.570299 0.609416 0.249463
Si Si6 0.651632 0.387858 0.122735
O O1 0.088652 0.671353 0.640041
O O2 0.000000 0.782327 0.500000
O O3 0.052935 0.679725 0.869002
O O4 0.115191 0.819811 0.901577
O O5 0.654274 0.876927 0.268580
O O6 0.567332 0.858621 0.243926
O O7 0.562500 0.000000 0.011617
O O8 0.675555 0.827340 0.621988
O O9 0.775878 0.860781 0.680222
O O10 0.705427 0.000000 0.592739
O O11 0.088585 0.192306 0.425144
O O12 0.574912 0.500000 0.324768
O O13 0.616852 0.621226 0.211797
O O14 0.500000 0.623146 0.000000
O O15 0.647631 0.500000 0.064039
#
# Coordination Sequence:
#
# PCOD9197061 Si02
#       6
#     8   8   8   8   8   8
#     4  12  25  37  59  94 126 163 207 242 297 371
#     4   9  21  42  62  87 121 157 201 258 306 349
#     4   8  18  39  65  89 116 156 205 254 306 357
#     4  10  21  37  63  87 123 159 202 248 306 357
#     4  10  20  35  58  86 120 162 204 243 291 355
#     4  10  20  39  65  90 122 162 202 250 305 361
#
# _framework density 20.176335999999999
#
# number of rings (size 3 to 8) (size 9 to 14) (size 15 to 20)
#    1.000    1.167    1.667    1.000    0.000    6.000 
#    0.000    0.833    0.000    4.000    0.000    0.000 
#    0.000    0.000    0.000    0.000    0.000    0.000 
#
# Total GULP energy -133833.899872 kJ/mol
# GULP energy per Si atom -5576.412495 kJ/mol
# Density = 2.013041 g / cm^3
# Si number density = 20.176336 Si / 1000 Ang^3
#
#
#
# Elastic Constant Matrix: (Units=GPa)
#
#
# Indices 1 2 3 4 5 6 
#
# 1 95.5912 9.6319 29.3654 0.0000 13.6339 0.0000
# 2 9.6319 66.9585 28.8643 0.0000 -0.5664 0.0000
# 3 29.3654 28.8643 71.2589 0.0000 7.7046 0.0000
# 4 0.0000 0.0000 0.0000 10.2076 0.0000 9.7881
# 5 13.6339 -0.5664 7.7046 0.0000 38.5668 0.0000
# 6 0.0000 0.0000 0.0000 9.7881 0.0000 18.7148
#
#
#
# Elastic Compliance Matrix: (Units=1/GPa)
#
#
# Indices 1 2 3 4 5 6 
#
# 1 0.012413 0.000281 -0.004860 0.000000 -0.003413 0.000000
# 2 0.000281 0.018219 -0.007680 0.000000 0.001703 0.000000
# 3 -0.004860 -0.007680 0.019392 0.000000 -0.002269 0.000000
# 4 0.000000 0.000000 0.000000 0.196532 0.000000 -0.102789
# 5 -0.003413 0.001703 -0.002269 0.000000 0.027614 0.000000
# 6 0.000000 0.000000 0.000000 -0.102789 0.000000 0.107194
#
#
# Mechanical properties :
#
#
# Convention : Reuss Voigt Hill
#
# Bulk Modulus (GPa) = 39.20619 41.05909 40.13264
# Shear Modulus (GPa) = 12.06612 24.56097 18.31355
#
# Velocity S-wave (km/s) = 2.44813 3.49279 3.01603
# Velocity P-wave (km/s) = 5.24071 6.05478 5.66240
#
# Compressibility (1/GPa) = 0.02550617
#
# Stress axis : x y z
#
# Youngs Moduli (GPa) = 80.56287 54.88721 51.56749
#
# Poissons Ratio (x) = -0.01540 0.25061
# Poissons Ratio (y) = -0.02260 0.39602
# Poissons Ratio (z) = 0.39152 0.42151
#
# Static dielectric constant tensor:
#      x y z
#    x 1.760830 0.000000 0.018280 
#    y 0.000000 1.716470 0.000000 
#    z 0.018280 0.000000 1.725050 
# 
# From -- ./inp_files/111752.got.cif
#   From: 2010.05.17/outbox.cif.g08.bks.cpg/sg12_56_cif.got.tgz:111752.got - 2010.06.03 13:09:07.
