data_PCOD9197130
_publ_section_title
;
Structure prediction by ZEFSAII (Michael W. Deem and Ramdas Pophale) SiO2 
 PCOD9197130
Probable space group: C 2/M
;
_chemical_formula_sum "Si O2"
_cell_formula_units_Z 64
_cell_length_a 9.166076
_cell_length_b 24.833825
_cell_length_c 29.925100
_cell_angle_alpha 90.000000
_cell_angle_beta 152.007383
_cell_angle_gamma 90.000000
_cell_volume 3197.177188
_symmetry_space_group_name_H-M "C 2/M"
_symmetry_group_IT_number 12
_symmetry_cell_setting 'monoclinic'
loop_
_space_group_symop_operation_xyz
x,y,z
-x,y,-z
-x,-y,-z
x,-y,z
1/2+x,1/2+y,z
1/2-x,1/2+y,-z
1/2-x,1/2-y,-z
1/2+x,1/2-y,z
loop_
_atom_site_type_symbol
_atom_site_label
_atom_site_fract_x
_atom_site_fract_y
_atom_site_fract_z
Si Si1 0.744983 0.346404 0.769091
Si Si2 0.363175 0.729497 0.600270
Si Si3 0.716715 0.939238 0.389000
Si Si4 0.247640 0.803812 0.027834
Si Si5 0.272591 0.637959 0.840509
Si Si6 0.675702 0.562376 0.895704
Si Si7 0.571238 0.560495 0.266860
Si Si8 0.680472 0.819840 0.346996
O O1 0.546295 0.302347 0.688752
O O2 0.519015 0.393610 0.723467
O O3 0.933413 0.321732 0.862242
O O4 0.005124 0.369377 0.805147
O O5 0.373528 0.791669 0.619760
O O6 0.546750 0.712751 0.604941
O O7 0.000000 0.714221 0.500000
O O8 0.407395 0.933548 0.335274
O O9 0.751259 0.883840 0.370140
O O10 0.000000 0.940061 0.500000
O O11 0.702702 0.000000 0.363793
O O12 0.250000 0.750000 0.000000
O O13 0.000000 0.794944 0.000000
O O14 0.083156 0.846605 0.951029
O O15 0.378479 0.589604 0.837706
O O16 0.127244 0.682400 0.767506
O O17 0.667577 0.500000 0.906318
O O18 0.656819 0.565776 0.837363
O O19 0.000000 0.586145 0.000000
O O20 0.545591 0.500000 0.278419
#
# Coordination Sequence:
#
# PCOD9197130 Si02
#       8
#     8   8   8   8   8   8   8   8
#     4  10  23  39  59  87 123 158 200 251 303 373
#     4  11  25  40  61  92 125 162 204 253 309 366
#     4  10  22  40  65  91 120 162 211 257 307 362
#     4  10  21  38  56  81 114 150 193 238 294 360
#     4  10  21  38  57  85 118 155 194 241 304 354
#     4  10  20  35  58  88 117 151 199 245 294 355
#     4  10  21  38  61  89 119 160 206 252 302 362
#     4  11  23  40  63  92 122 163 203 252 312 367
#
# _framework density 20.017657
#
# number of rings (size 3 to 8) (size 9 to 14) (size 15 to 20)
#    0.000    1.750    1.250    2.250    3.500    2.000 
#    0.000    1.875    0.000    5.250    0.000    0.000 
#    0.000    0.000    0.000    0.000    0.000    0.000 
#
# Total GULP energy -178485.891384 kJ/mol
# GULP energy per Si atom -5577.684106 kJ/mol
# Density = 1.997210 g / cm^3
# Si number density = 20.017657 Si / 1000 Ang^3
#
#
#
# Elastic Constant Matrix: (Units=GPa)
#
#
# Indices 1 2 3 4 5 6 
#
# 1 46.7565 50.9191 1.3377 -0.0076 0.0545 0.0077
# 2 50.9191 95.8243 6.7937 0.0007 0.2960 -0.0139
# 3 1.3377 6.7937 89.8050 0.0008 6.6308 -0.0040
# 4 -0.0076 0.0007 0.0008 18.9847 0.0094 3.5414
# 5 0.0545 0.2960 6.6308 0.0094 18.5490 -0.0018
# 6 0.0077 -0.0139 -0.0040 3.5414 -0.0018 28.1788
#
#
#
# Elastic Compliance Matrix: (Units=1/GPa)
#
#
# Indices 1 2 3 4 5 6 
#
# 1 0.050914 -0.027147 0.001309 0.000027 -0.000184 -0.000031
# 2 -0.027147 0.024967 -0.001500 -0.000016 0.000218 0.000022
# 3 0.001309 -0.001500 0.011532 0.000002 -0.004102 0.000000
# 4 0.000027 -0.000016 0.000002 0.053938 -0.000028 -0.006779
# 5 -0.000184 0.000218 -0.004102 -0.000028 0.055375 0.000007
# 6 -0.000031 0.000022 0.000000 -0.006779 0.000007 0.036340
#
#
# Mechanical properties :
#
#
# Convention : Reuss Voigt Hill
#
# Bulk Modulus (GPa) = 30.54752 38.94302 34.74527
# Shear Modulus (GPa) = 16.74178 24.69820 20.71999
#
# Velocity S-wave (km/s) = 2.89511 3.51639 3.22076
# Velocity P-wave (km/s) = 5.14480 5.99860 5.58803
#
# Compressibility (1/GPa) = 0.03273588
#
# Stress axis : x y z
#
# Youngs Moduli (GPa) = 19.64106 40.05329 86.71416
#
# Poissons Ratio (x) = 1.08732 -0.11349
# Poissons Ratio (y) = 0.53319 0.13011
# Poissons Ratio (z) = -0.02571 0.06010
#
# Static dielectric constant tensor:
#      x y z
#    x 2.605490 -0.000140 -0.965280 
#    y -0.000140 1.720690 0.000110 
#    z -0.965280 0.000110 2.745750 
# 
# From -- ./inp_files/373288.got.cif
#   From: 2010.05.17/outbox.cif.g08.bks.cpg/sg12_187_cif.got.tgz:373288.got - 2010.06.03 13:09:07.
