data_PCOD9197902
_publ_section_title
;
Structure prediction by ZEFSAII (Michael W. Deem and Ramdas Pophale) SiO2 
 PCOD9197902
Probable space group: C 2/M
;
_chemical_formula_sum "Si O2"
_cell_formula_units_Z 38
_cell_length_a 11.694994
_cell_length_b 14.664499
_cell_length_c 9.711635
_cell_angle_alpha 90.000000
_cell_angle_beta 125.074984
_cell_angle_gamma 90.000000
_cell_volume 1363.093271
_symmetry_space_group_name_H-M "C 2/M"
_symmetry_group_IT_number 12
_symmetry_cell_setting 'monoclinic'
loop_
_space_group_symop_operation_xyz
x,y,z
-x,y,-z
-x,-y,-z
x,-y,z
1/2+x,1/2+y,z
1/2-x,1/2+y,-z
1/2-x,1/2-y,-z
1/2+x,1/2-y,z
loop_
_atom_site_type_symbol
_atom_site_label
_atom_site_fract_x
_atom_site_fract_y
_atom_site_fract_z
Si Si1 0.702173 0.167993 0.627612
Si Si2 0.500000 0.328356 0.500000
Si Si3 0.500000 0.000000 0.500000
Si Si4 0.002936 0.106311 0.201922
Si Si5 0.898071 0.392224 0.728677
Si Si6 0.697398 0.107967 0.024062
O O1 0.624511 0.258164 0.620622
O O2 0.866149 0.159552 0.770556
O O3 0.676081 0.160382 0.444417
O O4 0.615915 0.080516 0.618847
O O5 0.475471 0.388020 0.617709
O O6 0.845658 0.142673 0.073031
O O7 0.012126 0.000000 0.168281
O O8 0.905570 0.500000 0.685660
O O9 0.824440 0.390726 0.825525
O O10 0.054161 0.355931 0.861250
O O11 0.699083 0.000000 0.994383
#
# Coordination Sequence:
#
# PCOD9197902 Si02
#       6
#     8   4   2   8   8   8
#     4  11  21  36  59  82 116 150 189 227 282 333
#     4  11  25  35  53  88 122 146 185 237 281 331
#     4  10  20  36  54  86 106 150 182 220 272 350
#     4  11  20  37  59  83 110 150 189 237 277 325
#     4   9  15  31  54  84 113 150 183 229 281 336
#     4   8  17  29  54  86 113 138 192 236 273 327
#
# _framework density 27.877770000000002
#
# number of rings (size 3 to 8) (size 9 to 14) (size 15 to 20)
#    0.000    2.105    2.105    3.474    0.000    1.684 
#    0.000    1.053    0.000    8.842    0.000    0.000 
#    0.000    0.000    0.000    0.211    0.000    0.000 
#
# Total GULP energy -106380.596221 kJ/mol
# GULP energy per Si atom -5598.978748 kJ/mol
# Density = 2.781432 g / cm^3
# Si number density = 27.877770 Si / 1000 Ang^3
#
#
#
# Elastic Constant Matrix: (Units=GPa)
#
#
# Indices 1 2 3 4 5 6 
#
# 1 133.8963 36.5290 78.5919 0.0000 33.7054 0.0000
# 2 36.5290 121.4116 43.7906 0.0000 18.2061 0.0000
# 3 78.5919 43.7906 107.1990 0.0000 32.5810 0.0000
# 4 0.0000 0.0000 0.0000 19.1231 0.0000 21.9807
# 5 33.7054 18.2061 32.5810 0.0000 96.7031 0.0000
# 6 0.0000 0.0000 0.0000 21.9807 0.0000 27.0729
#
#
#
# Elastic Compliance Matrix: (Units=1/GPa)
#
#
# Indices 1 2 3 4 5 6 
#
# 1 0.013329 -0.000500 -0.009119 0.000000 -0.001480 0.000000
# 2 -0.000500 0.009704 -0.003449 0.000000 -0.000491 0.000000
# 3 -0.009119 -0.003449 0.018114 0.000000 -0.002275 0.000000
# 4 0.000000 0.000000 0.000000 0.783291 0.000000 -0.635962
# 5 -0.001480 -0.000491 -0.002275 0.000000 0.011716 0.000000
# 6 0.000000 0.000000 0.000000 -0.635962 0.000000 0.553281
#
#
# Mechanical properties :
#
#
# Convention : Reuss Voigt Hill
#
# Bulk Modulus (GPa) = 66.60464 75.59221 71.09843
# Shear Modulus (GPa) = 3.51970 42.15282 22.83626
#
# Velocity S-wave (km/s) = 1.12485 3.89274 2.86520
# Velocity P-wave (km/s) = 5.06267 6.88324 6.04192
#
# Compressibility (1/GPa) = 0.01501397
#
# Stress axis : x y z
#
# Youngs Moduli (GPa) = 75.02157 103.04764 55.20612
#
# Poissons Ratio (x) = 0.05149 0.50340
# Poissons Ratio (y) = 0.03749 0.19038
# Poissons Ratio (z) = 0.68409 0.35537
#
# Static dielectric constant tensor:
#      x y z
#    x -12.534000 0.000000 3.700470 
#    y 0.000000 2.089280 0.000000 
#    z 3.700470 0.000000 1.239240 
# 
# From -- ./inp_files/141870.got.cif
#   From: 2010.05.17/outbox.cif.g08.bks.cpg/sg12_71_cif.got.tgz:141870.got - 2010.06.03 13:09:07.
