data_PCOD9197437
_publ_section_title
;
Structure prediction by ZEFSAII (Michael W. Deem and Ramdas Pophale) SiO2 
 PCOD9197437
Probable space group: C 2/M
;
_chemical_formula_sum "Si O2"
_cell_formula_units_Z 64
_cell_length_a 14.815071
_cell_length_b 8.788536
_cell_length_c 24.660951
_cell_angle_alpha 90.000000
_cell_angle_beta 68.231249
_cell_angle_gamma 90.000000
_cell_volume 2981.947794
_symmetry_space_group_name_H-M "C 2/M"
_symmetry_group_IT_number 12
_symmetry_cell_setting 'monoclinic'
loop_
_space_group_symop_operation_xyz
x,y,z
-x,y,-z
-x,-y,-z
x,-y,z
1/2+x,1/2+y,z
1/2-x,1/2+y,-z
1/2-x,1/2-y,-z
1/2+x,1/2-y,z
loop_
_atom_site_type_symbol
_atom_site_label
_atom_site_fract_x
_atom_site_fract_y
_atom_site_fract_z
Si Si1 0.185140 0.679984 0.257114
Si Si2 0.498638 0.183405 0.161410
Si Si3 0.479552 0.321873 0.277403
Si Si4 0.480716 0.173202 0.440397
Si Si5 0.776120 0.682319 0.871363
Si Si6 0.325376 0.323675 0.408997
Si Si7 0.673879 0.676656 0.371330
Si Si8 0.919473 0.317056 0.060786
O O1 0.198838 0.500000 0.261888
O O2 0.071363 0.717686 0.272601
O O3 0.233812 0.729016 0.189821
O O4 0.214429 0.766999 0.304723
O O5 0.451994 0.269665 0.222942
O O6 0.614117 0.221796 0.135658
O O7 0.453794 0.224908 0.113694
O O8 0.490454 0.000000 0.171036
O O9 0.508830 0.500000 0.270396
O O10 0.396310 0.305490 0.340817
O O11 0.500000 0.179039 0.500000
O O12 0.374634 0.225525 0.445146
O O13 0.559559 0.286072 0.396886
O O14 0.498734 0.000000 0.417842
O O15 0.768999 0.500000 0.874961
O O16 0.688381 0.753927 0.924092
O O17 0.321959 0.500000 0.425278
O O18 0.222873 0.267682 0.409404
O O19 0.691867 0.500000 0.374534
O O20 0.915875 0.500000 0.058745
O O21 0.000000 0.263585 0.000000
#
# Coordination Sequence:
#
# PCOD9197437 Si02
#       8
#     8   8   8   8   8   8   8   8
#     4  10  20  37  61  88 126 163 197 250 311 368
#     4   9  20  38  57  81 116 159 195 239 305 364
#     4  10  20  35  59  91 123 156 201 251 303 364
#     4  11  25  46  70  94 125 166 210 258 311 367
#     4   9  20  37  57  83 115 153 196 242 297 359
#     4  11  24  41  63  94 129 166 208 257 308 367
#     4  12  25  40  63  95 128 167 210 254 308 368
#     4  10  22  39  58  83 116 154 200 249 298 358
#
# _framework density 21.462482000000001
#
# number of rings (size 3 to 8) (size 9 to 14) (size 15 to 20)
#    0.000    1.750    1.250    3.375    1.750    6.750 
#    0.000    0.000    0.000    0.000    0.000    0.000 
#    0.000    0.000    0.000    0.000    0.000    0.000 
#
# Total GULP energy -178941.126424 kJ/mol
# GULP energy per Si atom -5591.910201 kJ/mol
# Density = 2.141363 g / cm^3
# Si number density = 21.462482 Si / 1000 Ang^3
#
#
#
# Elastic Constant Matrix: (Units=GPa)
#
#
# Indices 1 2 3 4 5 6 
#
# 1 59.1899 -6.4434 -0.9765 0.0000 5.9089 0.0000
# 2 -6.4434 34.3806 11.3316 0.0000 3.2469 0.0000
# 3 -0.9765 11.3316 42.3628 0.0000 -2.7154 0.0000
# 4 0.0000 0.0000 0.0000 25.8115 0.0000 0.1428
# 5 5.9089 3.2469 -2.7154 0.0000 30.4350 0.0000
# 6 0.0000 0.0000 0.0000 0.1428 0.0000 24.8749
#
#
#
# Elastic Compliance Matrix: (Units=1/GPa)
#
#
# Indices 1 2 3 4 5 6 
#
# 1 0.017708 0.003992 -0.000913 0.000000 -0.003945 0.000000
# 2 0.003992 0.033338 -0.009156 0.000000 -0.005149 0.000000
# 3 -0.000913 -0.009156 0.026258 0.000000 0.003497 0.000000
# 4 0.000000 0.000000 0.000000 0.038744 0.000000 -0.000222
# 5 -0.003945 -0.005149 0.003497 0.000000 0.034484 0.000000
# 6 0.000000 0.000000 0.000000 -0.000222 0.000000 0.040203
#
#
# Mechanical properties :
#
#
# Convention : Reuss Voigt Hill
#
# Bulk Modulus (GPa) = 15.34873 15.97298 15.66086
# Shear Modulus (GPa) = 22.26144 25.02572 23.64358
#
# Velocity S-wave (km/s) = 3.22409 3.41841 3.32267
# Velocity P-wave (km/s) = 4.58548 4.79991 4.69392
#
# Compressibility (1/GPa) = 0.06515195
#
# Stress axis : x y z
#
# Youngs Moduli (GPa) = 56.47114 29.99564 38.08405
#
# Poissons Ratio (x) = -0.11975 0.03475
# Poissons Ratio (y) = -0.22544 0.34868
# Poissons Ratio (z) = 0.05153 0.27463
#
# Static dielectric constant tensor:
#      x y z
#    x 1.776940 0.000000 0.000130 
#    y 0.000000 1.716810 0.000000 
#    z 0.000130 0.000000 1.792450 
# 
# From -- ./inp_files/359778.got.cif
#   From: 2010.05.17/outbox.cif.g08.bks.cpg/sg12_180_cif.got.tgz:359778.got - 2010.06.03 13:09:07.
