data_PCOD9197555
_publ_section_title
;
Structure prediction by ZEFSAII (Michael W. Deem and Ramdas Pophale) SiO2 
 PCOD9197555
Probable space group: C 2/M
;
_chemical_formula_sum "Si O2"
_cell_formula_units_Z 44
_cell_length_a 27.626194
_cell_length_b 11.509471
_cell_length_c 14.362645
_cell_angle_alpha 90.000000
_cell_angle_beta 150.883883
_cell_angle_gamma 90.000000
_cell_volume 2222.112926
_symmetry_space_group_name_H-M "C 2/M"
_symmetry_group_IT_number 12
_symmetry_cell_setting 'monoclinic'
loop_
_space_group_symop_operation_xyz
x,y,z
-x,y,-z
-x,-y,-z
x,-y,z
1/2+x,1/2+y,z
1/2-x,1/2+y,-z
1/2-x,1/2-y,-z
1/2+x,1/2-y,z
loop_
_atom_site_type_symbol
_atom_site_label
_atom_site_fract_x
_atom_site_fract_y
_atom_site_fract_z
Si Si1 0.388447 0.711007 0.821119
Si Si2 0.356664 0.131489 0.948434
Si Si3 0.326756 0.130012 0.547097
Si Si4 0.500000 0.703728 0.500000
Si Si5 0.546109 0.133941 0.403826
Si Si6 0.281153 0.367112 0.110000
O O1 0.373285 0.779922 0.892348
O O2 0.373225 0.798388 0.709084
O O3 0.292260 0.630101 0.649400
O O4 0.500000 0.661870 0.000000
O O5 0.263695 0.149669 0.861681
O O6 0.349872 0.000000 0.898694
O O7 0.450700 0.137565 0.175841
O O8 0.363078 0.175553 0.508247
O O9 0.366411 0.000000 0.620071
O O10 0.473481 0.785725 0.542076
O O11 0.599642 0.633448 0.689355
O O12 0.562668 0.000000 0.460863
O O13 0.247325 0.500000 0.023257
O O14 0.250000 0.250000 0.000000
#
# Coordination Sequence:
#
# PCOD9197555 Si02
#       6
#     8   8   8   4   8   8
#     4  11  21  36  62  85 113 153 195 246 302 354
#     4  10  20  37  60  87 118 155 200 246 294 359
#     4  10  22  38  57  87 119 152 197 245 297 361
#     4  12  22  38  64  88 123 160 201 250 307 356
#     4  10  20  35  60  90 120 157 204 250 298 363
#     4  11  24  42  63  90 125 162 204 253 305 365
#
# _framework density 19.800972000000002
#
# number of rings (size 3 to 8) (size 9 to 14) (size 15 to 20)
#    0.000    1.455    3.636    2.182    0.000    1.818 
#    0.000    0.909    0.000    1.091    0.000    0.000 
#    0.000    0.000    0.000    0.000    0.000    0.000 
#
# Total GULP energy -122711.354473 kJ/mol
# GULP energy per Si atom -5577.788840 kJ/mol
# Density = 1.975590 g / cm^3
# Si number density = 19.800972 Si / 1000 Ang^3
#
#
#
# Elastic Constant Matrix: (Units=GPa)
#
#
# Indices 1 2 3 4 5 6 
#
# 1 114.0806 38.1749 16.9631 0.0000 11.4853 0.0000
# 2 38.1749 79.5741 10.3214 0.0000 -13.9137 0.0000
# 3 16.9631 10.3214 81.1347 0.0000 22.4864 0.0000
# 4 0.0000 0.0000 0.0000 62.1556 0.0000 -17.6812
# 5 11.4853 -13.9137 22.4864 0.0000 37.1459 0.0000
# 6 0.0000 0.0000 0.0000 -17.6812 0.0000 35.0939
#
#
#
# Elastic Compliance Matrix: (Units=1/GPa)
#
#
# Indices 1 2 3 4 5 6 
#
# 1 0.011593 -0.006655 0.000129 0.000000 -0.006155 0.000000
# 2 -0.006655 0.018279 -0.004088 0.000000 0.011379 0.000000
# 3 0.000129 -0.004088 0.015926 0.000000 -0.011211 0.000000
# 4 0.000000 0.000000 0.000000 0.018780 0.000000 0.009462
# 5 -0.006155 0.011379 -0.011211 0.000000 0.039873 0.000000
# 6 0.000000 0.000000 0.000000 0.009462 0.000000 0.033262
#
#
# Mechanical properties :
#
#
# Convention : Reuss Voigt Hill
#
# Bulk Modulus (GPa) = 40.69927 45.07870 42.88898
# Shear Modulus (GPa) = 29.91665 40.83440 35.37553
#
# Velocity S-wave (km/s) = 3.89121 4.54612 4.23135
# Velocity P-wave (km/s) = 6.38650 7.09729 6.75126
#
# Compressibility (1/GPa) = 0.02457047
#
# Stress axis : x y z
#
# Youngs Moduli (GPa) = 86.25816 54.70694 62.79217
#
# Poissons Ratio (x) = 0.36405 -0.00807
# Poissons Ratio (y) = 0.57401 0.25668
# Poissons Ratio (z) = -0.01109 0.22363
#
# Static dielectric constant tensor:
#      x y z
#    x 1.697860 0.000000 0.040860 
#    y 0.000000 1.680000 0.000000 
#    z 0.040860 0.000000 1.715540 
# 
# From -- ./inp_files/245547.got.cif
#   From: 2010.05.17/outbox.cif.g08.bks.cpg/sg12_123_cif.got.tgz:245547.got - 2010.06.03 13:09:07.
