data_PCOD9197214
_publ_section_title
;
Structure prediction by ZEFSAII (Michael W. Deem and Ramdas Pophale) SiO2 
 PCOD9197214
Probable space group: C 2/M
;
_chemical_formula_sum "Si O2"
_cell_formula_units_Z 64
_cell_length_a 29.154815
_cell_length_b 13.903824
_cell_length_c 12.387110
_cell_angle_alpha 90.000000
_cell_angle_beta 38.627326
_cell_angle_gamma 90.000000
_cell_volume 3134.546132
_symmetry_space_group_name_H-M "C 2/M"
_symmetry_group_IT_number 12
_symmetry_cell_setting 'monoclinic'
loop_
_space_group_symop_operation_xyz
x,y,z
-x,y,-z
-x,-y,-z
x,-y,z
1/2+x,1/2+y,z
1/2-x,1/2+y,-z
1/2-x,1/2-y,-z
1/2+x,1/2-y,z
loop_
_atom_site_type_symbol
_atom_site_label
_atom_site_fract_x
_atom_site_fract_y
_atom_site_fract_z
Si Si1 0.697369 0.885615 0.048449
Si Si2 0.675252 0.242147 0.875346
Si Si3 0.193179 0.284217 0.514477
Si Si4 0.567452 0.386142 0.172910
Si Si5 0.916831 0.790333 0.426537
Si Si6 0.363334 0.386079 0.738949
Si Si7 0.587407 0.887003 0.859812
Si Si8 0.930826 0.386987 0.547284
O O1 0.684427 0.824342 0.964346
O O2 0.780939 0.868520 0.931712
O O3 0.689706 0.000000 0.037943
O O4 0.640423 0.863942 0.248522
O O5 0.752724 0.283613 0.688318
O O6 0.626975 0.179279 0.878253
O O7 0.629155 0.335053 0.990980
O O8 0.250000 0.250000 0.500000
O O9 0.131678 0.208691 0.590851
O O10 0.142143 0.369212 0.656202
O O11 0.572998 0.500000 0.159598
O O12 0.490315 0.348492 0.275203
O O13 0.579289 0.354523 0.275769
O O14 0.875005 0.837821 0.603512
O O15 0.934049 0.682504 0.438103
O O16 0.372523 0.500000 0.707134
O O17 0.589258 0.000000 0.885960
O O18 0.500000 0.862883 0.000000
O O19 0.928911 0.500000 0.520702
O O20 0.000000 0.372669 0.500000
#
# Coordination Sequence:
#
# PCOD9197214 Si02
#       8
#     8   8   8   8   8   8   8   8
#     4  10  20  35  58  91 127 164 210 257 309 375
#     4  11  21  40  64  90 124 164 207 251 317 379
#     4  10  24  41  62  92 120 156 203 259 308 363
#     4  11  25  40  61  94 130 169 210 255 306 373
#     4  12  21  39  63  86 122 170 211 252 308 371
#     4  10  21  36  58  91 128 167 213 256 298 364
#     4  10  22  42  67  92 119 152 201 263 320 374
#     4  10  22  36  54  88 127 162 204 256 311 371
#
# _framework density 20.417629000000002
#
# number of rings (size 3 to 8) (size 9 to 14) (size 15 to 20)
#    0.000    1.500    1.250    4.125    1.750    3.000 
#    0.000    3.750    0.000    7.875    0.000    0.000 
#    0.000    0.000    0.000    0.000    0.000    0.000 
#
# Total GULP energy -178635.931467 kJ/mol
# GULP energy per Si atom -5582.372858 kJ/mol
# Density = 2.037116 g / cm^3
# Si number density = 20.417629 Si / 1000 Ang^3
#
#
#
# Elastic Constant Matrix: (Units=GPa)
#
#
# Indices 1 2 3 4 5 6 
#
# 1 101.6363 31.7382 4.5890 0.0000 -13.9556 0.0000
# 2 31.7382 79.6575 38.8119 0.0000 -2.3182 0.0000
# 3 4.5890 38.8119 58.8606 0.0000 -16.5947 0.0000
# 4 0.0000 0.0000 0.0000 31.2092 0.0000 -0.6272
# 5 -13.9556 -2.3182 -16.5947 0.0000 26.5726 0.0000
# 6 0.0000 0.0000 0.0000 -0.6272 0.0000 9.3013
#
#
#
# Elastic Compliance Matrix: (Units=1/GPa)
#
#
# Indices 1 2 3 4 5 6 
#
# 1 0.013978 -0.009297 0.008352 0.000000 0.011746 0.000000
# 2 -0.009297 0.025919 -0.020760 0.000000 -0.015586 0.000000
# 3 0.008352 -0.020760 0.037325 0.000000 0.025885 0.000000
# 4 0.000000 0.000000 0.000000 0.032085 0.000000 0.002163
# 5 0.011746 -0.015586 0.025885 0.000000 0.058607 0.000000
# 6 0.000000 0.000000 0.000000 0.002163 0.000000 0.107658
#
#
# Mechanical properties :
#
#
# Convention : Reuss Voigt Hill
#
# Bulk Modulus (GPa) = 29.57550 43.38141 36.47845
# Shear Modulus (GPa) = 15.13989 24.41763 19.77876
#
# Velocity S-wave (km/s) = 2.72602 3.46194 3.11579
# Velocity P-wave (km/s) = 4.94216 6.10518 5.55420
#
# Compressibility (1/GPa) = 0.03381178
#
# Stress axis : x y z
#
# Youngs Moduli (GPa) = 71.54199 38.58103 26.79165
#
# Poissons Ratio (x) = 0.35868 -0.22376
# Poissons Ratio (y) = 0.66511 0.55621
# Poissons Ratio (z) = -0.59751 0.80096
#
# Static dielectric constant tensor:
#      x y z
#    x 1.747210 0.000000 -0.012980 
#    y 0.000000 1.720010 0.000000 
#    z -0.012980 0.000000 1.816450 
# 
# From -- ./inp_files/183756.got.cif
#   From: 2010.05.17/outbox.cif.g08.bks.cpg/sg12_92_cif.got.tgz:183756.got - 2010.06.03 13:09:07.
