data_PCOD9197682
_publ_section_title
;
Structure prediction by ZEFSAII (Michael W. Deem and Ramdas Pophale) SiO2 
 PCOD9197682
Probable space group: C 2/M
;
_chemical_formula_sum "Si O2"
_cell_formula_units_Z 56
_cell_length_a 23.849291
_cell_length_b 15.053442
_cell_length_c 9.265897
_cell_angle_alpha 90.000000
_cell_angle_beta 120.807491
_cell_angle_gamma 90.000000
_cell_volume 2857.181236
_symmetry_space_group_name_H-M "C 2/M"
_symmetry_group_IT_number 12
_symmetry_cell_setting 'monoclinic'
loop_
_space_group_symop_operation_xyz
x,y,z
-x,y,-z
-x,-y,-z
x,-y,z
1/2+x,1/2+y,z
1/2-x,1/2+y,-z
1/2-x,1/2-y,-z
1/2+x,1/2-y,z
loop_
_atom_site_type_symbol
_atom_site_label
_atom_site_fract_x
_atom_site_fract_y
_atom_site_fract_z
Si Si1 0.980716 0.396698 0.129696
Si Si2 0.174307 0.260310 0.721634
Si Si3 0.710905 0.698825 0.321854
Si Si4 0.489415 0.603971 0.158222
Si Si5 0.620435 0.750100 0.953652
Si Si6 0.365367 0.603593 0.540972
Si Si7 0.068254 0.597784 0.505499
O O1 0.961254 0.500000 0.093056
O O2 0.922534 0.338798 0.115571
O O3 0.045340 0.393097 0.311055
O O4 0.000000 0.360266 0.000000
O O5 0.234476 0.313805 0.729517
O O6 0.171498 0.245637 0.889292
O O7 0.163868 0.168365 0.619974
O O8 0.112463 0.321595 0.606664
O O9 0.750000 0.750000 0.500000
O O10 0.674255 0.621620 0.361969
O O11 0.655254 0.748707 0.155690
O O12 0.474365 0.500000 0.166738
O O13 0.430741 0.668661 0.125199
O O14 0.558312 0.625232 0.327048
O O15 0.500000 0.613576 0.000000
O O16 0.360662 0.500000 0.496348
O O17 0.098276 0.500000 0.568945
O O18 0.000000 0.598884 0.500000
#
# Coordination Sequence:
#
# PCOD9197682 Si02
#       7
#     8   8   8   8   8   8   8
#     4  10  22  36  58  93 124 153 195 248 305 359
#     4  11  24  39  61  93 124 163 204 246 311 366
#     4  10  24  42  60  84 116 164 212 247 292 361
#     4  10  20  35  61  94 118 154 205 253 305 363
#     4  12  22  38  64  87 126 161 199 257 309 356
#     4  10  22  42  64  91 127 159 203 255 302 364
#     4  10  20  38  61  90 125 156 195 247 304 367
#
# _framework density 19.599737999999999
#
# number of rings (size 3 to 8) (size 9 to 14) (size 15 to 20)
#    0.000    1.571    2.857    1.714    4.000    1.143 
#    0.000    4.286    0.000    5.143    0.000    0.000 
#    0.000    0.000    0.000    0.000    0.000    0.000 
#
# Total GULP energy -156154.874083 kJ/mol
# GULP energy per Si atom -5576.959789 kJ/mol
# Density = 1.955513 g / cm^3
# Si number density = 19.599738 Si / 1000 Ang^3
#
#
#
# Elastic Constant Matrix: (Units=GPa)
#
#
# Indices 1 2 3 4 5 6 
#
# 1 93.2927 28.6541 13.1500 0.0000 -9.6463 0.0000
# 2 28.6541 72.7733 19.0242 0.0000 2.3307 0.0000
# 3 13.1500 19.0242 65.7942 0.0000 -10.3954 0.0000
# 4 0.0000 0.0000 0.0000 -12.7666 0.0000 14.1330
# 5 -9.6463 2.3307 -10.3954 0.0000 33.0851 0.0000
# 6 0.0000 0.0000 0.0000 14.1330 0.0000 -6.8650
#
#
#
# Elastic Compliance Matrix: (Units=1/GPa)
#
#
# Indices 1 2 3 4 5 6 
#
# 1 0.012731 -0.005014 -0.000476 0.000000 0.003915 0.000000
# 2 -0.005014 0.017042 -0.004573 0.000000 -0.004099 0.000000
# 3 -0.000476 -0.004573 0.017515 0.000000 0.005687 0.000000
# 4 0.000000 0.000000 0.000000 0.061241 0.000000 0.126077
# 5 0.003915 -0.004099 0.005687 0.000000 0.033442 0.000000
# 6 0.000000 0.000000 0.000000 0.126077 0.000000 0.113888
#
#
# Mechanical properties :
#
#
# Convention : Reuss Voigt Hill
#
# Bulk Modulus (GPa) = 36.81654 39.27967 38.04811
# Shear Modulus (GPa) = 17.54145 14.09282 15.81714
#
# Velocity S-wave (km/s) = 2.99487 2.68438 2.84387
# Velocity P-wave (km/s) = 5.54833 5.44907 5.49892
#
# Compressibility (1/GPa) = 0.02716170
#
# Stress axis : x y z
#
# Youngs Moduli (GPa) = 78.54965 58.67778 57.09422
#
# Poissons Ratio (x) = 0.29419 0.02719
# Poissons Ratio (y) = 0.39382 0.26111
# Poissons Ratio (z) = 0.03740 0.26835
#
# Static dielectric constant tensor:
#      x y z
#    x 1.709930 0.000000 -0.020070 
#    y 0.000000 1.664790 0.000000 
#    z -0.020070 0.000000 1.736200 
# 
# From -- ./inp_files/96993.got.cif
#   From: 2010.05.17/outbox.cif.g08.bks.cpg/sg12_49_cif.got.tgz:96993.got - 2010.06.03 13:09:07.
