data_PCOD9197424
_publ_section_title
;
Structure prediction by ZEFSAII (Michael W. Deem and Ramdas Pophale) SiO2 
 PCOD9197424
Probable space group: C 2/M
;
_chemical_formula_sum "Si O2"
_cell_formula_units_Z 48
_cell_length_a 15.019896
_cell_length_b 10.641787
_cell_length_c 16.164216
_cell_angle_alpha 90.000000
_cell_angle_beta 63.296183
_cell_angle_gamma 90.000000
_cell_volume 2308.094678
_symmetry_space_group_name_H-M "C 2/M"
_symmetry_group_IT_number 12
_symmetry_cell_setting 'monoclinic'
loop_
_space_group_symop_operation_xyz
x,y,z
-x,y,-z
-x,-y,-z
x,-y,z
1/2+x,1/2+y,z
1/2-x,1/2+y,-z
1/2-x,1/2-y,-z
1/2+x,1/2-y,z
loop_
_atom_site_type_symbol
_atom_site_label
_atom_site_fract_x
_atom_site_fract_y
_atom_site_fract_z
Si Si1 0.674597 0.636211 0.037418
Si Si2 0.129023 0.727365 0.209517
Si Si3 0.934661 0.359961 0.218042
Si Si4 0.576553 0.644352 0.398400
Si Si5 0.639882 0.356445 0.872315
Si Si6 0.725794 0.141954 0.575892
O O1 0.723376 0.500000 0.010353
O O2 0.631324 0.652820 0.146627
O O3 0.750000 0.750000 0.000000
O O4 0.608620 0.648682 0.982459
O O5 0.084751 0.770171 0.315022
O O6 0.239797 0.671298 0.176223
O O7 0.050306 0.640900 0.194717
O O8 0.905629 0.500000 0.200072
O O9 0.908516 0.251210 0.163620
O O10 0.872016 0.334911 0.328062
O O11 0.500000 0.690456 0.500000
O O12 0.547889 0.500000 0.389017
O O13 0.684101 0.641153 0.396312
O O14 0.622531 0.500000 0.850360
O O15 0.750000 0.250000 0.500000
O O16 0.719717 0.000000 0.542038
#
# Coordination Sequence:
#
# PCOD9197424 Si02
#       6
#     8   8   8   8   8   8
#     4   9  20  37  62  93 125 166 211 260 312 371
#     4  11  21  39  64  90 125 164 208 256 316 366
#     4  11  24  41  63  91 126 166 210 257 312 373
#     4  10  20  35  59  90 124 160 203 252 308 373
#     4  10  22  41  62  90 126 162 209 260 310 369
#     4  10  21  39  59  87 122 160 204 256 307 370
#
# _framework density 20.796375000000001
#
# number of rings (size 3 to 8) (size 9 to 14) (size 15 to 20)
#    0.000    1.833    1.667    2.000    0.000    6.000 
#    0.000    2.500    0.000    3.500    0.000    0.000 
#    0.000    0.000    0.000    0.000    0.000    0.000 
#
# Total GULP energy -133877.686623 kJ/mol
# GULP energy per Si atom -5578.236943 kJ/mol
# Density = 2.074904 g / cm^3
# Si number density = 20.796375 Si / 1000 Ang^3
#
#
#
# Elastic Constant Matrix: (Units=GPa)
#
#
# Indices 1 2 3 4 5 6 
#
# 1 84.7348 27.1311 6.1882 0.0000 4.2698 0.0000
# 2 27.1311 161.4648 52.7051 0.0000 30.2320 0.0000
# 3 6.1882 52.7051 90.6885 0.0000 13.9285 0.0000
# 4 0.0000 0.0000 0.0000 12.1049 0.0000 -5.9205
# 5 4.2698 30.2320 13.9285 0.0000 25.0734 0.0000
# 6 0.0000 0.0000 0.0000 -5.9205 0.0000 17.5633
#
#
#
# Elastic Compliance Matrix: (Units=1/GPa)
#
#
# Indices 1 2 3 4 5 6 
#
# 1 0.012491 -0.002320 0.000430 0.000000 0.000431 0.000000
# 2 -0.002320 0.009566 -0.004035 0.000000 -0.008898 0.000000
# 3 0.000430 -0.004035 0.013782 0.000000 -0.002865 0.000000
# 4 0.000000 0.000000 0.000000 0.098921 0.000000 0.033346
# 5 0.000431 -0.008898 -0.002865 0.000000 0.052129 0.000000
# 6 0.000000 0.000000 0.000000 0.033346 0.000000 0.068178
#
#
# Mechanical properties :
#
#
# Convention : Reuss Voigt Hill
#
# Bulk Modulus (GPa) = 41.68449 56.54857 49.11653
# Shear Modulus (GPa) = 18.18752 27.67255 22.93003
#
# Velocity S-wave (km/s) = 2.96049 3.65176 3.32414
# Velocity P-wave (km/s) = 5.63681 6.71051 6.19696
#
# Compressibility (1/GPa) = 0.02398974
#
# Stress axis : x y z
#
# Youngs Moduli (GPa) = 80.05618 104.53594 72.55749
#
# Poissons Ratio (x) = 0.24252 -0.03117
# Poissons Ratio (y) = 0.18573 0.29274
# Poissons Ratio (z) = -0.03440 0.42176
#
# Static dielectric constant tensor:
#      x y z
#    x 1.784460 0.000000 -0.048900 
#    y 0.000000 1.755980 0.000000 
#    z -0.048900 0.000000 1.773110 
# 
# From -- ./inp_files/212500.got.cif
#   From: 2010.05.17/outbox.cif.g08.bks.cpg/sg12_107_cif.got.tgz:212500.got - 2010.06.03 13:09:07.
