data_PCOD9197331
_publ_section_title
;
Structure prediction by ZEFSAII (Michael W. Deem and Ramdas Pophale) SiO2 
 PCOD9197331
Probable space group: C 2/M
;
_chemical_formula_sum "Si O2"
_cell_formula_units_Z 48
_cell_length_a 11.706281
_cell_length_b 20.202924
_cell_length_c 13.842774
_cell_angle_alpha 90.000000
_cell_angle_beta 45.694857
_cell_angle_gamma 90.000000
_cell_volume 2342.852060
_symmetry_space_group_name_H-M "C 2/M"
_symmetry_group_IT_number 12
_symmetry_cell_setting 'monoclinic'
loop_
_space_group_symop_operation_xyz
x,y,z
-x,y,-z
-x,-y,-z
x,-y,z
1/2+x,1/2+y,z
1/2-x,1/2+y,-z
1/2-x,1/2-y,-z
1/2+x,1/2-y,z
loop_
_atom_site_type_symbol
_atom_site_label
_atom_site_fract_x
_atom_site_fract_y
_atom_site_fract_z
Si Si1 0.184927 0.924338 0.661840
Si Si2 0.199868 0.302495 0.782509
Si Si3 0.391704 0.576274 0.974148
Si Si4 0.320317 0.819459 0.992852
Si Si5 0.393339 0.170962 0.655470
Si Si6 0.716978 0.824230 0.559070
O O1 0.306650 0.895253 0.670604
O O2 0.200058 0.876182 0.561359
O O3 0.011463 0.922143 0.812493
O O4 0.224917 0.000000 0.614534
O O5 0.240564 0.333921 0.861740
O O6 0.262191 0.226968 0.751870
O O7 0.265683 0.329845 0.642049
O O8 0.009547 0.309183 0.885794
O O9 0.344898 0.500000 0.020580
O O10 0.244977 0.623461 0.037966
O O11 0.500000 0.599290 0.000000
O O12 0.250000 0.750000 0.000000
O O13 0.500000 0.192938 0.500000
O O14 0.526307 0.164575 0.659072
O O15 0.750000 0.750000 0.500000
#
# Coordination Sequence:
#
# PCOD9197331 Si02
#       6
#     8   8   8   8   8   8
#     4  10  22  40  63  94 126 164 215 262 312 376
#     4  11  23  39  57 100 122 170 211 254 329 370
#     4  10  24  45  68  93 126 172 215 263 322 375
#     4  11  25  38  66  93 131 162 217 270 307 384
#     4  10  20  35  59  87 129 168 202 260 310 367
#     4  11  22  37  61  91 130 169 210 257 319 379
#
# _framework density 20.487850000000002
#
# number of rings (size 3 to 8) (size 9 to 14) (size 15 to 20)
#    0.000    1.500    3.333    2.000    9.333    3.000 
#    0.000    3.333    0.000    2.000    0.000    0.000 
#    0.000    0.000    0.000    0.000    0.000    0.000 
#
# Total GULP energy -134059.527014 kJ/mol
# GULP energy per Si atom -5585.813626 kJ/mol
# Density = 2.044122 g / cm^3
# Si number density = 20.487850 Si / 1000 Ang^3
#
#
#
# Elastic Constant Matrix: (Units=GPa)
#
#
# Indices 1 2 3 4 5 6 
#
# 1 77.7976 18.3241 23.5010 -0.0005 10.4476 0.0005
# 2 18.3241 86.9590 34.9019 -0.0004 -8.8206 0.0003
# 3 23.5010 34.9019 73.3857 0.0002 9.0595 0.0001
# 4 -0.0005 -0.0004 0.0002 28.4091 -0.0004 -2.0356
# 5 10.4476 -8.8206 9.0595 -0.0004 39.9736 0.0001
# 6 0.0005 0.0003 0.0001 -2.0356 0.0001 29.2162
#
#
#
# Elastic Compliance Matrix: (Units=1/GPa)
#
#
# Indices 1 2 3 4 5 6 
#
# 1 0.014841 -0.002183 -0.003268 0.000000 -0.003620 0.000000
# 2 -0.002183 0.015490 -0.007366 0.000000 0.005658 0.000000
# 3 -0.003268 -0.007366 0.018798 0.000000 -0.005032 0.000000
# 4 0.000000 0.000000 0.000000 0.035377 0.000000 0.002465
# 5 -0.003620 0.005658 -0.005032 0.000000 0.028352 0.000000
# 6 0.000000 0.000000 0.000000 0.002465 0.000000 0.034399
#
#
# Mechanical properties :
#
#
# Convention : Reuss Voigt Hill
#
# Bulk Modulus (GPa) = 42.56247 43.51070 43.03659
# Shear Modulus (GPa) = 27.66670 30.28082 28.97376
#
# Velocity S-wave (km/s) = 3.67876 3.84863 3.76465
# Velocity P-wave (km/s) = 6.23410 6.40568 6.32047
#
# Compressibility (1/GPa) = 0.02349488
#
# Stress axis : x y z
#
# Youngs Moduli (GPa) = 67.37954 64.55670 53.19805
#
# Poissons Ratio (x) = 0.14093 0.17383
# Poissons Ratio (y) = 0.14710 0.39188
# Poissons Ratio (z) = 0.22017 0.47556
#
# Static dielectric constant tensor:
#      x y z
#    x 1.755700 0.000000 0.033960 
#    y 0.000000 1.685480 0.000000 
#    z 0.033960 0.000000 1.803910 
# 
# From -- ./inp_files/207929.got.cif
#   From: 2010.05.17/outbox.cif.g08.bks.cpg/sg12_104_cif.got.tgz:207929.got - 2010.06.03 13:09:07.
