data_PCOD9197030
_publ_section_title
;
Structure prediction by ZEFSAII (Michael W. Deem and Ramdas Pophale) SiO2 
 PCOD9197030
Probable space group: C 2/M
;
_chemical_formula_sum "Si O2"
_cell_formula_units_Z 56
_cell_length_a 28.044528
_cell_length_b 7.587883
_cell_length_c 17.953817
_cell_angle_alpha 90.000000
_cell_angle_beta 38.975767
_cell_angle_gamma 90.000000
_cell_volume 2403.092185
_symmetry_space_group_name_H-M "C 2/M"
_symmetry_group_IT_number 12
_symmetry_cell_setting 'monoclinic'
loop_
_space_group_symop_operation_xyz
x,y,z
-x,y,-z
-x,-y,-z
x,-y,z
1/2+x,1/2+y,z
1/2-x,1/2+y,-z
1/2-x,1/2-y,-z
1/2+x,1/2-y,z
loop_
_atom_site_type_symbol
_atom_site_label
_atom_site_fract_x
_atom_site_fract_y
_atom_site_fract_z
Si Si1 0.913793 0.214729 0.128882
Si Si2 0.161478 0.788166 0.623891
Si Si3 0.710122 0.699109 0.143316
Si Si4 0.072442 0.786664 0.585666
Si Si5 0.640009 0.700717 0.960515
Si Si6 0.591865 0.716313 0.170737
Si Si7 0.414591 0.204947 0.593276
O O1 0.876475 0.276752 0.252207
O O2 0.864270 0.273584 0.117213
O O3 0.913851 0.000000 0.134767
O O4 0.000000 0.264918 0.000000
O O5 0.250000 0.750000 0.500000
O O6 0.114573 0.725756 0.608804
O O7 0.154542 0.000000 0.634297
O O8 0.735699 0.500000 0.098900
O O9 0.777537 0.799459 0.102184
O O10 0.667948 0.772255 0.121306
O O11 0.642367 0.695347 0.284976
O O12 0.107200 0.721327 0.466565
O O13 0.984637 0.729566 0.695767
O O14 0.073811 0.000000 0.582838
O O15 0.612746 0.500000 0.985598
O O16 0.589845 0.779587 0.087930
O O17 0.594132 0.500000 0.167966
O O18 0.500000 0.272280 0.500000
O O19 0.413037 0.000000 0.617065
#
# Coordination Sequence:
#
# PCOD9197030 Si02
#       7
#     8   8   8   8   8   8   8
#     4   9  18  36  62  88 113 148 199 249 290 340
#     4  10  22  38  59  88 119 154 194 245 298 347
#     4  11  22  36  55  81 117 155 188 228 282 348
#     4  10  20  37  60  83 112 154 197 234 281 344
#     4  10  20  35  58  86 115 148 189 239 284 334
#     4   9  18  34  57  83 112 150 193 232 276 336
#     4  11  23  38  57  84 114 147 189 240 290 341
#
# _framework density 23.303308999999999
#
# number of rings (size 3 to 8) (size 9 to 14) (size 15 to 20)
#    0.000    2.000    1.429    2.143    2.000    4.571 
#    0.000    1.429    0.000    3.429    0.000    0.000 
#    0.000    0.000    0.000    0.000    0.000    0.000 
#
# Total GULP energy -156389.293105 kJ/mol
# GULP energy per Si atom -5585.331897 kJ/mol
# Density = 2.325027 g / cm^3
# Si number density = 23.303309 Si / 1000 Ang^3
#
#
#
# Elastic Constant Matrix: (Units=GPa)
#
#
# Indices 1 2 3 4 5 6 
#
# 1 148.7309 3.5494 47.3035 0.0078 29.7608 -0.0021
# 2 3.5494 61.1553 12.5203 0.0039 5.5541 -0.0025
# 3 47.3035 12.5203 120.3287 0.0062 25.4207 0.0041
# 4 0.0078 0.0039 0.0062 23.4077 -0.0016 -4.2438
# 5 29.7608 5.5541 25.4207 -0.0016 47.8937 0.0014
# 6 -0.0021 -0.0025 0.0041 -4.2438 0.0014 14.4265
#
#
#
# Elastic Compliance Matrix: (Units=1/GPa)
#
#
# Indices 1 2 3 4 5 6 
#
# 1 0.008277 0.000378 -0.002475 -0.000002 -0.003873 0.000002
# 2 0.000378 0.016781 -0.001615 -0.000002 -0.001324 0.000003
# 3 -0.002475 -0.001615 0.010235 -0.000003 -0.003707 -0.000004
# 4 -0.000002 -0.000002 -0.000003 0.045128 0.000004 0.013275
# 5 -0.003873 -0.001324 -0.003707 0.000004 0.025408 -0.000001
# 6 0.000002 0.000003 -0.000004 0.013275 -0.000001 0.073222
#
#
# Mechanical properties :
#
#
# Convention : Reuss Voigt Hill
#
# Bulk Modulus (GPa) = 35.88264 50.77347 43.32805
# Shear Modulus (GPa) = 25.54115 34.93504 30.23809
#
# Velocity S-wave (km/s) = 3.31423 3.87608 3.60611
# Velocity P-wave (km/s) = 5.48425 6.47050 5.99768
#
# Compressibility (1/GPa) = 0.02786863
#
# Stress axis : x y z
#
# Youngs Moduli (GPa) = 120.82145 59.59220 97.70705
#
# Poissons Ratio (x) = -0.02253 0.24180
# Poissons Ratio (y) = -0.04568 0.15780
# Poissons Ratio (z) = 0.29900 0.09624
#
# Static dielectric constant tensor:
#      x y z
#    x 1.884640 0.000000 0.010290 
#    y 0.000000 1.908200 0.000010 
#    z 0.010290 0.000010 1.879090 
# 
# From -- ./inp_files/288422.got.cif
#   From: 2010.05.17/outbox.cif.g08.bks.cpg/sg12_145_cif.got.tgz:288422.got - 2010.06.03 13:09:07.
