data_PCOD9197716
_publ_section_title
;
Structure prediction by ZEFSAII (Michael W. Deem and Ramdas Pophale) SiO2 
 PCOD9197716
Probable space group: C 2/M
;
_chemical_formula_sum "Si O2"
_cell_formula_units_Z 42
_cell_length_a 20.233058
_cell_length_b 13.316077
_cell_length_c 9.377695
_cell_angle_alpha 90.000000
_cell_angle_beta 37.647494
_cell_angle_gamma 90.000000
_cell_volume 1543.242475
_symmetry_space_group_name_H-M "C 2/M"
_symmetry_group_IT_number 12
_symmetry_cell_setting 'monoclinic'
loop_
_space_group_symop_operation_xyz
x,y,z
-x,y,-z
-x,-y,-z
x,-y,z
1/2+x,1/2+y,z
1/2-x,1/2+y,-z
1/2-x,1/2-y,-z
1/2+x,1/2-y,z
loop_
_atom_site_type_symbol
_atom_site_label
_atom_site_fract_x
_atom_site_fract_y
_atom_site_fract_z
Si Si1 0.389529 0.119364 0.112980
Si Si2 0.316244 0.619085 0.345982
Si Si3 0.216205 0.652923 0.973835
Si Si4 0.000000 0.000000 0.500000
Si Si5 0.925177 0.167672 0.435427
Si Si6 0.157247 0.389066 0.376303
O O1 0.291838 0.149925 0.381781
O O2 0.375766 0.169003 0.984680
O O3 0.381422 0.000000 0.103482
O O4 0.500000 0.141271 0.000000
O O5 0.331151 0.500000 0.328307
O O6 0.411071 0.657847 0.288582
O O7 0.271494 0.635861 0.262027
O O8 0.318428 0.619614 0.702107
O O9 0.250000 0.750000 0.000000
O O10 0.173597 0.594113 0.181494
O O11 0.987641 0.908076 0.645060
O O12 0.913458 0.286930 0.488153
O O13 0.119801 0.500000 0.500765
#
# Coordination Sequence:
#
# PCOD9197716 Si02
#       6
#     8   8   8   2   8   8
#     4   9  17  31  54  82 110 152 201 244 290 351
#     4   9  17  34  59  85 117 157 199 250 298 363
#     4   9  19  36  60  84 119 161 203 242 300 370
#     4  12  24  40  66  86 118 164 224 252 268 368
#     4  10  21  39  61  87 116 167 214 241 292 361
#     4  10  20  35  62  93 120 154 194 257 316 359
#
# _framework density 27.215425
#
# number of rings (size 3 to 8) (size 9 to 14) (size 15 to 20)
#    0.000    2.476    0.952    1.143    2.667    0.000 
#    6.857    0.476    0.000    1.143    0.000    0.000 
#    0.000    0.000    0.000    0.000    0.000    0.000 
#
# Total GULP energy -116943.850509 kJ/mol
# GULP energy per Si atom -5568.754786 kJ/mol
# Density = 2.715348 g / cm^3
# Si number density = 27.215425 Si / 1000 Ang^3
#
#
#
# Elastic Constant Matrix: (Units=GPa)
#
#
# Indices 1 2 3 4 5 6 
#
# 1 140.0660 50.3813 20.1708 0.0000 49.4098 0.0000
# 2 50.3813 250.2096 24.6150 0.0000 19.9518 0.0000
# 3 20.1708 24.6150 71.9508 0.0000 21.4660 0.0000
# 4 0.0000 0.0000 0.0000 18.3574 0.0000 16.8685
# 5 49.4098 19.9518 21.4660 0.0000 39.4000 0.0000
# 6 0.0000 0.0000 0.0000 16.8685 0.0000 33.8139
#
#
#
# Elastic Compliance Matrix: (Units=1/GPa)
#
#
# Indices 1 2 3 4 5 6 
#
# 1 0.013460 -0.001528 0.001856 0.000000 -0.017117 0.000000
# 2 -0.001528 0.004393 -0.001173 0.000000 0.000331 0.000000
# 3 0.001856 -0.001173 0.017071 0.000000 -0.011034 0.000000
# 4 0.000000 0.000000 0.000000 0.100580 0.000000 -0.050175
# 5 -0.017117 0.000331 -0.011034 0.000000 0.052691 0.000000
# 6 0.000000 0.000000 0.000000 -0.050175 0.000000 0.054604
#
#
# Mechanical properties :
#
#
# Convention : Reuss Voigt Hill
#
# Bulk Modulus (GPa) = 30.08905 72.50672 51.29788
# Shear Modulus (GPa) = 19.56423 42.78488 31.17455
#
# Velocity S-wave (km/s) = 2.68408 3.96925 3.38816
# Velocity P-wave (km/s) = 4.54814 6.90697 5.84772
#
# Compressibility (1/GPa) = 0.03323468
#
# Stress axis : x y z
#
# Youngs Moduli (GPa) = 74.29377 227.61550 58.57716
#
# Poissons Ratio (x) = 0.34778 -0.10873
# Poissons Ratio (y) = 0.11352 0.06873
# Poissons Ratio (z) = -0.13790 0.26706
#
# Static dielectric constant tensor:
#      x y z
#    x 2.261210 0.000000 -0.035750 
#    y 0.000000 2.195720 0.000000 
#    z -0.035750 0.000000 2.217900 
# 
# From -- ./inp_files/72928.got.cif
#   From: 2010.05.17/outbox.cif.g08.bks.cpg/sg12_37_cif.got.tgz:72928.got - 2010.06.03 13:09:07.
