data_PCOD9197126
_publ_section_title
;
Structure prediction by ZEFSAII (Michael W. Deem and Ramdas Pophale) SiO2 
 PCOD9197126
Probable space group: C 2/M
;
_chemical_formula_sum "Si O2"
_cell_formula_units_Z 56
_cell_length_a 15.240644
_cell_length_b 8.671368
_cell_length_c 24.921982
_cell_angle_alpha 90.000000
_cell_angle_beta 62.778392
_cell_angle_gamma 90.000000
_cell_volume 2928.831729
_symmetry_space_group_name_H-M "C 2/M"
_symmetry_group_IT_number 12
_symmetry_cell_setting 'monoclinic'
loop_
_space_group_symop_operation_xyz
x,y,z
-x,y,-z
-x,-y,-z
x,-y,z
1/2+x,1/2+y,z
1/2-x,1/2+y,-z
1/2-x,1/2-y,-z
1/2+x,1/2-y,z
loop_
_atom_site_type_symbol
_atom_site_label
_atom_site_fract_x
_atom_site_fract_y
_atom_site_fract_z
Si Si1 0.716446 0.685868 0.381825
Si Si2 0.007350 0.185968 0.154248
Si Si3 0.569725 0.314714 0.708067
Si Si4 0.963227 0.317844 0.638144
Si Si5 0.593860 0.676475 0.514398
Si Si6 0.226986 0.186096 0.065257
Si Si7 0.923877 0.685921 0.068240
O O1 0.714127 0.500000 0.381332
O O2 0.823701 0.747444 0.337223
O O3 0.633342 0.747674 0.363800
O O4 0.682499 0.732463 0.451696
O O5 0.960440 0.235661 0.223593
O O6 0.951406 0.245736 0.117651
O O7 0.120713 0.237546 0.115946
O O8 0.006436 0.000000 0.153997
O O9 0.574083 0.500000 0.705116
O O10 0.489208 0.257057 0.687745
O O11 0.951358 0.500000 0.646318
O O12 0.056913 0.279224 0.573580
O O13 0.500000 0.671496 0.500000
O O14 0.611475 0.500000 0.527615
O O15 0.315232 0.232187 0.079780
O O16 0.226917 0.000000 0.062020
O O17 0.250000 0.250000 0.000000
O O18 0.929064 0.500000 0.070014
O O19 0.000000 0.734632 0.000000
#
# Coordination Sequence:
#
# PCOD9197126 Si02
#       7
#     8   8   8   8   8   8   8
#     4  10  21  39  62  87 117 155 199 248 303 355
#     4  10  23  40  58  83 115 151 193 237 286 343
#     4  11  24  41  58  82 118 159 205 250 292 350
#     4  11  22  37  60  89 120 156 198 244 299 357
#     4   8  16  33  57  85 116 151 194 245 298 353
#     4  10  20  36  58  85 115 146 181 225 280 336
#     4  10  20  35  58  88 117 146 184 229 282 342
#
# _framework density 19.120251
#
# number of rings (size 3 to 8) (size 9 to 14) (size 15 to 20)
#    0.000    2.000    1.429    3.000    0.000    6.857 
#    0.000    1.429    0.000    0.000    0.000    0.000 
#    0.000    0.000    0.000    0.000    0.000    0.000 
#
# Total GULP energy -156395.853076 kJ/mol
# GULP energy per Si atom -5585.566181 kJ/mol
# Density = 1.907673 g / cm^3
# Si number density = 19.120251 Si / 1000 Ang^3
#
#
#
# Elastic Constant Matrix: (Units=GPa)
#
#
# Indices 1 2 3 4 5 6 
#
# 1 93.9793 14.5586 23.8496 0.0000 5.5505 0.0000
# 2 14.5586 38.7026 16.8208 0.0000 2.8187 0.0000
# 3 23.8496 16.8208 77.8262 0.0000 8.7656 0.0000
# 4 0.0000 0.0000 0.0000 24.7090 0.0000 3.1235
# 5 5.5505 2.8187 8.7656 0.0000 33.5861 0.0000
# 6 0.0000 0.0000 0.0000 3.1235 0.0000 30.1126
#
#
#
# Elastic Compliance Matrix: (Units=1/GPa)
#
#
# Indices 1 2 3 4 5 6 
#
# 1 0.011913 -0.003170 -0.002858 0.000000 -0.000957 0.000000
# 2 -0.003170 0.029381 -0.005317 0.000000 -0.000554 0.000000
# 3 -0.002858 -0.005317 0.015218 0.000000 -0.003053 0.000000
# 4 0.000000 0.000000 0.000000 0.041009 0.000000 -0.004254
# 5 -0.000957 -0.000554 -0.003053 0.000000 0.030776 0.000000
# 6 0.000000 0.000000 0.000000 -0.004254 0.000000 0.033650
#
#
# Mechanical properties :
#
#
# Convention : Reuss Voigt Hill
#
# Bulk Modulus (GPa) = 29.56437 35.66290 32.61363
# Shear Modulus (GPa) = 25.52188 28.03348 26.77768
#
# Velocity S-wave (km/s) = 3.65747 3.83321 3.74637
# Velocity P-wave (km/s) = 5.77339 6.18738 5.98397
#
# Compressibility (1/GPa) = 0.03382450
#
# Stress axis : x y z
#
# Youngs Moduli (GPa) = 83.93869 34.03519 65.71199
#
# Poissons Ratio (x) = 0.10788 0.18781
# Poissons Ratio (y) = 0.26605 0.34936
# Poissons Ratio (z) = 0.23990 0.18095
#
# Static dielectric constant tensor:
#      x y z
#    x 1.656890 0.000000 -0.011760 
#    y 0.000000 1.649460 0.000000 
#    z -0.011760 0.000000 1.655770 
# 
# From -- ./inp_files/338511.got.cif
#   From: 2010.05.17/outbox.cif.g08.bks.cpg/sg12_170_cif.got.tgz:338511.got - 2010.06.03 13:09:07.
