data_PCOD9197081
_publ_section_title
;
Structure prediction by ZEFSAII (Michael W. Deem and Ramdas Pophale) SiO2 
 PCOD9197081
Probable space group: C 2/M
;
_chemical_formula_sum "Si O2"
_cell_formula_units_Z 56
_cell_length_a 22.370427
_cell_length_b 9.037682
_cell_length_c 14.309617
_cell_angle_alpha 90.000000
_cell_angle_beta 98.173188
_cell_angle_gamma 90.000000
_cell_volume 2863.687328
_symmetry_space_group_name_H-M "C 2/M"
_symmetry_group_IT_number 12
_symmetry_cell_setting 'monoclinic'
loop_
_space_group_symop_operation_xyz
x,y,z
-x,y,-z
-x,-y,-z
x,-y,z
1/2+x,1/2+y,z
1/2-x,1/2+y,-z
1/2-x,1/2-y,-z
1/2+x,1/2-y,z
loop_
_atom_site_type_symbol
_atom_site_label
_atom_site_fract_x
_atom_site_fract_y
_atom_site_fract_z
Si Si1 0.847176 0.823775 0.277603
Si Si2 0.473910 0.175799 0.283233
Si Si3 0.345091 0.671960 0.794346
Si Si4 0.394554 0.175210 0.623427
Si Si5 0.755638 0.823695 0.102113
Si Si6 0.481810 0.672398 0.891086
Si Si7 0.300526 0.175109 0.447068
O O1 0.913978 0.758897 0.301178
O O2 0.818229 0.789815 0.169953
O O3 0.805933 0.750359 0.348009
O O4 0.847182 0.000000 0.289504
O O5 0.534911 0.215903 0.353647
O O6 0.488138 0.225439 0.180369
O O7 0.464917 0.000000 0.288015
O O8 0.327146 0.500000 0.784936
O O9 0.357882 0.736405 0.694324
O O10 0.296684 0.763556 0.841765
O O11 0.409856 0.681034 0.860677
O O12 0.363518 0.197230 0.516900
O O13 0.390334 0.000000 0.645104
O O14 0.750932 0.000000 0.091662
O O15 0.750000 0.750000 0.000000
O O16 0.499627 0.500000 0.878645
O O17 0.500000 0.712106 0.000000
O O18 0.250000 0.250000 0.500000
O O19 0.289528 0.000000 0.436210
#
# Coordination Sequence:
#
# PCOD9197081 Si02
#       7
#     8   8   8   8   8   8   8
#     4  11  25  43  61  86 122 159 196 246 304 356
#     4  10  21  38  60  87 119 156 200 246 293 350
#     4  10  20  35  58  87 116 151 195 240 289 349
#     4   9  20  39  61  87 122 159 194 241 298 348
#     4  11  25  42  60  82 115 156 196 243 299 355
#     4   9  19  35  56  82 116 155 192 238 296 351
#     4  11  23  40  64  92 122 158 201 246 295 353
#
# _framework density 19.555209000000001
#
# number of rings (size 3 to 8) (size 9 to 14) (size 15 to 20)
#    0.000    1.857    0.000    3.000    2.000    8.857 
#    0.000    2.857    0.000    0.000    0.000    0.000 
#    0.000    0.000    0.000    0.000    0.000    0.000 
#
# Total GULP energy -156498.700718 kJ/mol
# GULP energy per Si atom -5589.239311 kJ/mol
# Density = 1.951070 g / cm^3
# Si number density = 19.555209 Si / 1000 Ang^3
#
#
#
# Elastic Constant Matrix: (Units=GPa)
#
#
# Indices 1 2 3 4 5 6 
#
# 1 84.4103 48.5065 38.3906 0.0000 -7.3516 0.0000
# 2 48.5065 78.4961 51.7760 0.0000 5.6561 0.0000
# 3 38.3906 51.7760 96.4210 0.0000 15.5245 0.0000
# 4 0.0000 0.0000 0.0000 32.6518 0.0000 -5.3511
# 5 -7.3516 5.6561 15.5245 0.0000 19.7311 0.0000
# 6 0.0000 0.0000 0.0000 -5.3511 0.0000 35.7812
#
#
#
# Elastic Compliance Matrix: (Units=1/GPa)
#
#
# Indices 1 2 3 4 5 6 
#
# 1 0.022089 -0.011329 -0.005221 0.000000 0.015586 0.000000
# 2 -0.011329 0.025701 -0.008501 0.000000 -0.004900 0.000000
# 3 -0.005221 -0.008501 0.019392 0.000000 -0.014766 0.000000
# 4 0.000000 0.000000 0.000000 0.031396 0.000000 0.004695
# 5 0.015586 -0.004900 -0.014766 0.000000 0.069511 0.000000
# 6 0.000000 0.000000 0.000000 0.004695 0.000000 0.028650
#
#
# Mechanical properties :
#
#
# Convention : Reuss Voigt Hill
#
# Bulk Modulus (GPa) = 58.54811 59.63040 59.08926
# Shear Modulus (GPa) = 19.79930 25.67644 22.73787
#
# Velocity S-wave (km/s) = 3.18540 3.62750 3.41362
# Velocity P-wave (km/s) = 6.59803 6.93574 6.76899
#
# Compressibility (1/GPa) = 0.01707997
#
# Stress axis : x y z
#
# Youngs Moduli (GPa) = 45.27093 38.90939 51.56743
#
# Poissons Ratio (x) = 0.44082 0.26922
# Poissons Ratio (y) = 0.51289 0.43837
# Poissons Ratio (z) = 0.23635 0.33076
#
# Static dielectric constant tensor:
#      x y z
#    x 1.692770 0.000000 0.033080 
#    y 0.000000 1.653470 0.000000 
#    z 0.033080 0.000000 1.662220 
# 
# From -- ./inp_files/230847.got.cif
#   From: 2010.05.17/outbox.cif.g08.bks.cpg/sg12_116_cif.got.tgz:230847.got - 2010.06.03 13:09:07.
