data_PCOD9197300
_publ_section_title
;
Structure prediction by ZEFSAII (Michael W. Deem and Ramdas Pophale) SiO2 
 PCOD9197300
Probable space group: C 2/M
;
_chemical_formula_sum "Si O2"
_cell_formula_units_Z 44
_cell_length_a 17.427478
_cell_length_b 19.757950
_cell_length_c 5.471472
_cell_angle_alpha 90.000000
_cell_angle_beta 76.444261
_cell_angle_gamma 90.000000
_cell_volume 1831.514970
_symmetry_space_group_name_H-M "C 2/M"
_symmetry_group_IT_number 12
_symmetry_cell_setting 'monoclinic'
loop_
_space_group_symop_operation_xyz
x,y,z
-x,y,-z
-x,-y,-z
x,-y,z
1/2+x,1/2+y,z
1/2-x,1/2+y,-z
1/2-x,1/2-y,-z
1/2+x,1/2-y,z
loop_
_atom_site_type_symbol
_atom_site_label
_atom_site_fract_x
_atom_site_fract_y
_atom_site_fract_z
Si Si1 0.699495 0.350911 0.968558
Si Si2 0.450464 0.274398 0.788144
Si Si3 0.652287 0.500000 0.979287
Si Si4 0.237690 0.637183 0.579591
Si Si5 0.447925 0.000000 0.793346
Si Si6 0.341166 0.500000 0.525165
Si Si7 0.408022 0.864955 0.638733
O O1 0.610405 0.333597 0.106673
O O2 0.704579 0.432274 0.938908
O O3 0.751124 0.330141 0.163773
O O4 0.721650 0.324922 0.682354
O O5 0.500000 0.287203 0.500000
O O6 0.399231 0.207083 0.773488
O O7 0.500000 0.263059 0.000000
O O8 0.608673 0.500000 0.267338
O O9 0.607976 0.500000 0.757445
O O10 0.284622 0.565815 0.566515
O O11 0.148528 0.628622 0.552311
O O12 0.500000 0.000000 0.500000
O O13 0.397999 0.068887 0.813617
O O14 0.500000 0.000000 0.000000
O O15 0.500000 0.863693 0.500000
#
# Coordination Sequence:
#
# PCOD9197300 Si02
#       7
#     8   8   4   8   4   4   8
#     4  10  21  38  60  87 115 149 193 237 287 344
#     4  11  24  42  61  83 117 154 188 237 297 347
#     4   8  16  32  55  81 112 144 181 232 283 335
#     4  10  20  35  59  86 116 151 193 239 281 336
#     4  10  21  38  59  84 115 154 199 236 272 336
#     4   8  15  30  51  81 114 146 180 228 287 325
#     4  10  23  40  60  86 120 157 194 236 286 337
#
# _framework density 24.023826
#
# number of rings (size 3 to 8) (size 9 to 14) (size 15 to 20)
#    0.000    2.182    0.000    2.182    0.000    7.273 
#    0.000    6.364    0.000    0.000    0.000    0.000 
#    0.000    0.000    0.000    0.000    0.000    0.000 
#
# Total GULP energy -122727.391984 kJ/mol
# GULP energy per Si atom -5578.517817 kJ/mol
# Density = 2.396915 g / cm^3
# Si number density = 24.023826 Si / 1000 Ang^3
#
#
#
# Elastic Constant Matrix: (Units=GPa)
#
#
# Indices 1 2 3 4 5 6 
#
# 1 47.9243 8.0288 32.2498 0.0000 1.7899 0.0000
# 2 8.0288 63.1104 -6.8816 0.0000 -14.8464 0.0000
# 3 32.2498 -6.8816 205.9816 0.0000 17.1041 0.0000
# 4 0.0000 0.0000 0.0000 0.2328 0.0000 2.8605
# 5 1.7899 -14.8464 17.1041 0.0000 44.8069 0.0000
# 6 0.0000 0.0000 0.0000 2.8605 0.0000 6.5830
#
#
#
# Elastic Compliance Matrix: (Units=1/GPa)
#
#
# Indices 1 2 3 4 5 6 
#
# 1 0.024084 -0.003648 -0.003834 0.000000 -0.000707 0.000000
# 2 -0.003648 0.017740 0.000685 0.000000 0.005762 0.000000
# 3 -0.003834 0.000685 0.005625 0.000000 -0.001767 0.000000
# 4 0.000000 0.000000 0.000000 -0.989919 0.000000 0.430150
# 5 -0.000707 0.005762 -0.001767 0.000000 0.024930 0.000000
# 6 0.000000 0.000000 0.000000 0.430150 0.000000 -0.035007
#
#
# Mechanical properties :
#
#
# Convention : Reuss Voigt Hill
#
# Bulk Modulus (GPa) = 29.53823 42.64560 36.09192
# Shear Modulus (GPa) = -5.38985 29.23247 11.92131
#
# Velocity S-wave (km/s) = -1.49947 3.49207 2.23004
# Velocity P-wave (km/s) = 3.05355 5.83518 4.65690
#
# Compressibility (1/GPa) = 0.03385443
#
# Stress axis : x y z
#
# Youngs Moduli (GPa) = 41.52172 56.37109 177.78823
#
# Poissons Ratio (x) = 0.20566 0.68161
# Poissons Ratio (y) = 0.15149 -0.12186
# Poissons Ratio (z) = 0.15919 -0.03864
#
# Static dielectric constant tensor:
#      x y z
#    x 1.789960 0.000000 0.091260 
#    y 0.000000 1.993560 0.000000 
#    z 0.091260 0.000000 1.840630 
# 
# From -- ./inp_files/16107.got.cif
#   From: 2010.05.17/outbox.cif.g08.bks.cpg/sg12_9_cif.got.tgz:16107.got - 2010.06.03 13:09:07.
