data_PCOD9197983
_publ_section_title
;
Structure prediction by ZEFSAII (Michael W. Deem and Ramdas Pophale) SiO2 
 PCOD9197983
Probable space group: C 2/M
;
_chemical_formula_sum "Si O2"
_cell_formula_units_Z 64
_cell_length_a 9.298135
_cell_length_b 27.905470
_cell_length_c 13.965737
_cell_angle_alpha 90.000000
_cell_angle_beta 67.987383
_cell_angle_gamma 90.000000
_cell_volume 3359.512469
_symmetry_space_group_name_H-M "C 2/M"
_symmetry_group_IT_number 12
_symmetry_cell_setting 'monoclinic'
loop_
_space_group_symop_operation_xyz
x,y,z
-x,y,-z
-x,-y,-z
x,-y,z
1/2+x,1/2+y,z
1/2-x,1/2+y,-z
1/2-x,1/2-y,-z
1/2+x,1/2-y,z
loop_
_atom_site_type_symbol
_atom_site_label
_atom_site_fract_x
_atom_site_fract_y
_atom_site_fract_z
Si Si1 0.771166 0.101636 0.945464
Si Si2 0.925372 0.263798 0.423455
Si Si3 0.933306 0.943876 0.209974
Si Si4 0.690977 0.093749 0.751048
Si Si5 0.814527 0.710370 0.055722
Si Si6 0.731763 0.702526 0.295554
Si Si7 0.874548 0.555425 0.830644
Si Si8 0.483511 0.445697 0.606605
O O1 0.689646 0.087338 0.865860
O O2 0.754279 0.158651 0.956460
O O3 0.947737 0.085041 0.885654
O O4 0.693739 0.075305 0.053290
O O5 0.750000 0.250000 0.500000
O O6 0.874063 0.286069 0.333635
O O7 0.000000 0.289792 0.500000
O O8 0.063622 0.224697 0.368233
O O9 0.763595 0.942347 0.210353
O O10 0.940289 0.924679 0.316785
O O11 0.984339 0.000000 0.198890
O O12 0.768177 0.144919 0.710507
O O13 0.516824 0.087710 0.761514
O O14 0.802434 0.054952 0.676513
O O15 0.770611 0.719846 0.177831
O O16 0.750000 0.750000 0.000000
O O17 0.000000 0.707351 0.000000
O O18 0.923520 0.500000 0.829778
O O19 0.500000 0.421082 0.500000
O O20 0.545136 0.500000 0.582310
#
# Coordination Sequence:
#
# PCOD9197983 Si02
#       8
#     8   8   8   8   8   8   8   8
#     4  10  20  36  55  80 113 151 190 227 272 334
#     4   9  19  37  62  85 106 138 184 235 289 339
#     4   9  19  35  55  81 110 142 184 233 284 330
#     4  10  21  35  54  81 112 146 183 225 276 337
#     4  11  23  38  56  81 115 155 193 227 274 338
#     4  10  20  38  57  81 114 145 181 234 283 328
#     4  11  21  34  55  84 117 148 185 238 285 325
#     4   9  18  35  56  75 102 143 184 220 268 333
#
# _framework density 19.050383
#
# number of rings (size 3 to 8) (size 9 to 14) (size 15 to 20)
#    0.000    2.125    0.000    3.750    0.000    5.500 
#    0.000   10.625    0.000    3.000    0.000    0.000 
#    0.000    0.000    0.000    0.000    0.000    0.000 
#
# Total GULP energy -178180.202584 kJ/mol
# GULP energy per Si atom -5568.131331 kJ/mol
# Density = 1.900702 g / cm^3
# Si number density = 19.050383 Si / 1000 Ang^3
#
#
#
# Elastic Constant Matrix: (Units=GPa)
#
#
# Indices 1 2 3 4 5 6 
#
# 1 100.8684 37.0029 38.7694 0.0000 -1.3313 0.0000
# 2 37.0029 56.9559 39.2518 0.0000 4.7342 0.0000
# 3 38.7694 39.2518 103.1239 0.0000 9.2701 0.0000
# 4 0.0000 0.0000 0.0000 10.2955 0.0000 -5.7885
# 5 -1.3313 4.7342 9.2701 0.0000 24.2781 0.0000
# 6 0.0000 0.0000 0.0000 -5.7885 0.0000 21.7147
#
#
#
# Elastic Compliance Matrix: (Units=1/GPa)
#
#
# Indices 1 2 3 4 5 6 
#
# 1 0.013653 -0.007320 -0.002633 0.000000 0.003181 0.000000
# 2 -0.007320 0.027761 -0.007551 0.000000 -0.002932 0.000000
# 3 -0.002633 -0.007551 0.013919 0.000000 -0.003987 0.000000
# 4 0.000000 0.000000 0.000000 0.114253 0.000000 0.030456
# 5 0.003181 -0.002932 -0.003987 0.000000 0.043458 0.000000
# 6 0.000000 0.000000 0.000000 0.030456 0.000000 0.054170
#
#
# Mechanical properties :
#
#
# Convention : Reuss Voigt Hill
#
# Bulk Modulus (GPa) = 49.19912 54.55516 51.87714
# Shear Modulus (GPa) = 16.18137 20.98594 18.58366
#
# Velocity S-wave (km/s) = 2.91761 3.32264 3.12669
# Velocity P-wave (km/s) = 6.10178 6.58934 6.35024
#
# Compressibility (1/GPa) = 0.02032557
#
# Stress axis : x y z
#
# Youngs Moduli (GPa) = 73.24319 36.02210 71.84292
#
# Poissons Ratio (x) = 0.26369 0.18913
# Poissons Ratio (y) = 0.53616 0.54248
# Poissons Ratio (z) = 0.19282 0.27200
#
# Static dielectric constant tensor:
#      x y z
#    x 1.680660 0.000000 0.032020 
#    y 0.000000 1.696400 0.000000 
#    z 0.032020 0.000000 1.634750 
# 
# From -- ./inp_files/200902.got.cif
#   From: 2010.05.17/outbox.cif.g08.bks.cpg/sg12_101_cif.got.tgz:200902.got - 2010.06.03 13:09:07.
