data_PCOD9197746
_publ_section_title
;
Structure prediction by ZEFSAII (Michael W. Deem and Ramdas Pophale) SiO2 
 PCOD9197746
Probable space group: C 2/M
;
_chemical_formula_sum "Si O2"
_cell_formula_units_Z 42
_cell_length_a 9.537712
_cell_length_b 26.439250
_cell_length_c 7.212687
_cell_angle_alpha 90.000000
_cell_angle_beta 115.659035
_cell_angle_gamma 90.000000
_cell_volume 1639.463068
_symmetry_space_group_name_H-M "C 2/M"
_symmetry_group_IT_number 12
_symmetry_cell_setting 'monoclinic'
loop_
_space_group_symop_operation_xyz
x,y,z
-x,y,-z
-x,-y,-z
x,-y,z
1/2+x,1/2+y,z
1/2-x,1/2+y,-z
1/2-x,1/2-y,-z
1/2+x,1/2-y,z
loop_
_atom_site_type_symbol
_atom_site_label
_atom_site_fract_x
_atom_site_fract_y
_atom_site_fract_z
Si Si1 0.654556 0.210768 0.311556
Si Si2 0.054197 0.797517 0.743483
Si Si3 0.816339 0.944932 0.396395
Si Si4 0.638773 0.103211 0.974578
Si Si5 0.000000 0.500000 0.000000
Si Si6 0.268318 0.366565 0.662325
O O1 0.497149 0.242977 0.207472
O O2 0.760666 0.201887 0.189359
O O3 0.659002 0.163243 0.453316
O O4 0.500000 0.132659 0.000000
O O5 0.750000 0.750000 0.500000
O O6 0.937775 0.838933 0.768763
O O7 0.000000 0.803807 0.500000
O O8 0.769533 0.908508 0.202622
O O9 0.778774 0.921272 0.572094
O O10 0.000000 0.950027 0.500000
O O11 0.739048 0.000000 0.312105
O O12 0.566017 0.047066 0.900354
O O13 0.700269 0.128367 0.826276
#
# Coordination Sequence:
#
# PCOD9197746 Si02
#       6
#     8   8   8   8   2   8
#     4   8  15  32  56  91 125 159 203 251 320 383
#     4   8  15  32  56  91 125 159 203 251 320 383
#     4  11  23  39  61  91 120 160 218 265 313 386
#     4  10  22  43  58  85 128 164 208 267 323 373
#     4   8  20  44  56  78 134 164 202 280 324 358
#     4  10  20  35  63  87 118 168 207 252 326 384
#
# _framework density 25.618143
#
# number of rings (size 3 to 8) (size 9 to 14) (size 15 to 20)
#    0.571    2.476    0.952    1.714    1.333    1.524 
#   17.143    3.810    0.000   10.286    0.000    0.000 
#    0.000    0.000    0.000    0.000    0.000    0.000 
#
# Total GULP energy -117061.471992 kJ/mol
# GULP energy per Si atom -5574.355809 kJ/mol
# Density = 2.555983 g / cm^3
# Si number density = 25.618143 Si / 1000 Ang^3
#
#
#
# Elastic Constant Matrix: (Units=GPa)
#
#
# Indices 1 2 3 4 5 6 
#
# 1 187.2224 70.2265 91.4601 0.0000 -43.2101 0.0000
# 2 70.2265 122.6254 46.2156 0.0000 -35.6970 0.0000
# 3 91.4601 46.2156 155.1504 0.0000 -38.8313 0.0000
# 4 0.0000 0.0000 0.0000 135.3251 0.0000 -102.8052
# 5 -43.2101 -35.6970 -38.8313 0.0000 62.3036 0.0000
# 6 0.0000 0.0000 0.0000 -102.8052 0.0000 107.1354
#
#
#
# Elastic Compliance Matrix: (Units=1/GPa)
#
#
# Indices 1 2 3 4 5 6 
#
# 1 0.008782 -0.003023 -0.003774 0.000000 0.002006 0.000000
# 2 -0.003023 0.011267 -0.000573 0.000000 0.004002 0.000000
# 3 -0.003774 -0.000573 0.009601 0.000000 0.003038 0.000000
# 4 0.000000 0.000000 0.000000 0.027266 0.000000 0.026164
# 5 0.002006 0.004002 0.003038 0.000000 0.021629 0.000000
# 6 0.000000 0.000000 0.000000 0.026164 0.000000 0.034441
#
#
# Mechanical properties :
#
#
# Convention : Reuss Voigt Hill
#
# Bulk Modulus (GPa) = 67.06575 97.86696 82.46635
# Shear Modulus (GPa) = 37.68018 78.09255 57.88637
#
# Velocity S-wave (km/s) = 3.83931 5.52716 4.75867
# Velocity P-wave (km/s) = 6.77419 8.88919 7.90276
#
# Compressibility (1/GPa) = 0.01491074
#
# Stress axis : x y z
#
# Youngs Moduli (GPa) = 113.87023 88.75579 104.15254
#
# Poissons Ratio (x) = 0.26829 0.39310
# Poissons Ratio (y) = 0.34421 0.05963
# Poissons Ratio (z) = 0.42978 0.05082
#
# Static dielectric constant tensor:
#      x y z
#    x 2.132550 0.000000 0.044880 
#    y 0.000000 2.152910 0.000000 
#    z 0.044880 0.000000 1.935250 
# 
# From -- ./inp_files/8468.got.cif
#   From: 2010.05.17/outbox.cif.g08.bks.cpg/sg12_5_cif.got.tgz:8468.got - 2010.06.03 13:09:07.
