data_PCOD9197548
_publ_section_title
;
Structure prediction by ZEFSAII (Michael W. Deem and Ramdas Pophale) SiO2 
 PCOD9197548
Probable space group: C 2/M
;
_chemical_formula_sum "Si O2"
_cell_formula_units_Z 64
_cell_length_a 15.579886
_cell_length_b 26.331892
_cell_length_c 11.336316
_cell_angle_alpha 90.000000
_cell_angle_beta 138.980782
_cell_angle_gamma 90.000000
_cell_volume 3052.310553
_symmetry_space_group_name_H-M "C 2/M"
_symmetry_group_IT_number 12
_symmetry_cell_setting 'monoclinic'
loop_
_space_group_symop_operation_xyz
x,y,z
-x,y,-z
-x,-y,-z
x,-y,z
1/2+x,1/2+y,z
1/2-x,1/2+y,-z
1/2-x,1/2-y,-z
1/2+x,1/2-y,z
loop_
_atom_site_type_symbol
_atom_site_label
_atom_site_fract_x
_atom_site_fract_y
_atom_site_fract_z
Si Si1 0.863655 0.189762 0.310129
Si Si2 0.152508 0.307518 0.648505
Si Si3 0.377434 0.655353 0.061007
Si Si4 0.795408 0.940419 0.873588
Si Si5 0.840333 0.868013 0.698694
Si Si6 0.936462 0.441452 0.210327
Si Si7 0.779338 0.557610 0.584941
Si Si8 0.139680 0.388177 0.104966
O O1 0.847890 0.246840 0.340303
O O2 0.869241 0.184543 0.174837
O O3 0.745869 0.154835 0.227173
O O4 0.000000 0.169291 0.500000
O O5 0.220824 0.330028 0.602649
O O6 0.000000 0.323734 0.500000
O O7 0.254312 0.326766 0.854438
O O8 0.522974 0.661852 0.159504
O O9 0.364472 0.593628 0.046412
O O10 0.834205 0.911730 0.793810
O O11 0.641433 0.935336 0.748189
O O12 0.828033 0.000000 0.905177
O O13 0.820049 0.899003 0.557672
O O14 0.913729 0.500000 0.151413
O O15 0.092373 0.434802 0.365860
O O16 0.875485 0.406938 0.044559
O O17 0.732885 0.500000 0.521323
O O18 0.826240 0.567172 0.767192
O O19 0.000000 0.367712 0.000000
#
# Coordination Sequence:
#
# PCOD9197548 Si02
#       8
#     8   8   8   8   8   8   8   8
#     4  11  23  43  64  92 124 163 209 258 317 373
#     4  10  24  42  66  90 119 158 210 262 317 372
#     4  11  23  43  64  89 129 167 202 255 315 374
#     4  10  20  35  60  89 122 163 208 246 300 365
#     4  11  24  38  62  92 127 164 201 255 314 377
#     4   9  18  34  57  89 123 166 213 259 302 356
#     4  10  21  36  58  91 131 167 206 254 309 366
#     4  10  20  36  62  90 121 166 214 260 303 363
#
# _framework density 20.967721999999998
#
# number of rings (size 3 to 8) (size 9 to 14) (size 15 to 20)
#    0.000    1.750    1.250    3.375    3.500    4.000 
#    0.000    7.500    0.000    1.875    0.000    0.000 
#    0.000    0.000    0.000    0.000    0.000    0.000 
#
# Total GULP energy -178525.015689 kJ/mol
# GULP energy per Si atom -5578.906740 kJ/mol
# Density = 2.092000 g / cm^3
# Si number density = 20.967722 Si / 1000 Ang^3
#
#
#
# Elastic Constant Matrix: (Units=GPa)
#
#
# Indices 1 2 3 4 5 6 
#
# 1 83.7457 23.8802 25.0319 0.0000 20.9349 0.0000
# 2 23.8802 92.1521 22.3067 0.0000 21.8989 0.0000
# 3 25.0319 22.3067 98.8086 0.0000 22.8352 0.0000
# 4 0.0000 0.0000 0.0000 28.4459 0.0000 4.9144
# 5 20.9349 21.8989 22.8352 0.0000 34.3078 0.0000
# 6 0.0000 0.0000 0.0000 4.9144 0.0000 12.9011
#
#
#
# Elastic Compliance Matrix: (Units=1/GPa)
#
#
# Indices 1 2 3 4 5 6 
#
# 1 0.014634 -0.001793 -0.001777 0.000000 -0.006603 0.000000
# 2 -0.001793 0.013130 -0.000976 0.000000 -0.006637 0.000000
# 3 -0.001777 -0.000976 0.012286 0.000000 -0.006471 0.000000
# 4 0.000000 0.000000 0.000000 0.037631 0.000000 -0.014335
# 5 -0.006603 -0.006637 -0.006471 0.000000 0.041720 0.000000
# 6 0.000000 0.000000 0.000000 -0.014335 0.000000 0.082973
#
#
# Mechanical properties :
#
#
# Convention : Reuss Voigt Hill
#
# Bulk Modulus (GPa) = 32.30122 46.34930 39.32526
# Shear Modulus (GPa) = 22.54435 28.69682 25.62058
#
# Velocity S-wave (km/s) = 3.28257 3.70350 3.49937
# Velocity P-wave (km/s) = 5.45946 6.35932 5.92649
#
# Compressibility (1/GPa) = 0.03095859
#
# Stress axis : x y z
#
# Youngs Moduli (GPa) = 68.33504 76.16289 81.39068
#
# Poissons Ratio (x) = 0.13657 0.14460
# Poissons Ratio (y) = 0.12253 0.07944
# Poissons Ratio (z) = 0.12140 0.07434
#
# Static dielectric constant tensor:
#      x y z
#    x 1.805060 0.000000 0.001230 
#    y 0.000000 1.740840 0.000000 
#    z 0.001230 0.000000 1.793440 
# 
# From -- ./inp_files/150307.got.cif
#   From: 2010.05.17/outbox.cif.g08.bks.cpg/sg12_76_cif.got.tgz:150307.got - 2010.06.03 13:09:07.
