data_PCOD9197493
_publ_section_title
;
Structure prediction by ZEFSAII (Michael W. Deem and Ramdas Pophale) SiO2 
 PCOD9197493
Probable space group: C 2/M
;
_chemical_formula_sum "Si O2"
_cell_formula_units_Z 50
_cell_length_a 14.947206
_cell_length_b 12.542347
_cell_length_c 14.742950
_cell_angle_alpha 90.000000
_cell_angle_beta 72.161668
_cell_angle_gamma 90.000000
_cell_volume 2631.030022
_symmetry_space_group_name_H-M "C 2/M"
_symmetry_group_IT_number 12
_symmetry_cell_setting 'monoclinic'
loop_
_space_group_symop_operation_xyz
x,y,z
-x,y,-z
-x,-y,-z
x,-y,z
1/2+x,1/2+y,z
1/2-x,1/2+y,-z
1/2-x,1/2-y,-z
1/2+x,1/2-y,z
loop_
_atom_site_type_symbol
_atom_site_label
_atom_site_fract_x
_atom_site_fract_y
_atom_site_fract_z
Si Si1 0.848379 0.193588 0.577900
Si Si2 0.853818 0.373468 0.420451
Si Si3 0.489374 0.620121 0.149249
Si Si4 0.639566 0.310904 0.960036
Si Si5 0.000000 0.000000 0.500000
Si Si6 0.154471 0.620315 0.085080
Si Si7 0.040299 0.728444 0.281993
O O1 0.851114 0.293638 0.507549
O O2 0.740361 0.152556 0.608652
O O3 0.888685 0.239145 0.660168
O O4 0.917353 0.095818 0.528471
O O5 0.854551 0.500000 0.442024
O O6 0.950969 0.339109 0.342282
O O7 0.454978 0.500000 0.160673
O O8 0.416365 0.690443 0.115814
O O9 0.505946 0.662815 0.244162
O O10 0.581643 0.627250 0.056655
O O11 0.738433 0.366645 0.916503
O O12 0.648745 0.193544 0.998062
O O13 0.129917 0.500000 0.072849
O O14 0.091014 0.666567 0.184781
#
# Coordination Sequence:
#
# PCOD9197493 Si02
#       7
#     8   8   8   8   2   8   8
#     4  11  25  43  69  94 126 168 213 257 319 372
#     4  11  24  44  66  92 129 169 206 256 317 386
#     4  10  20  35  60  85 118 159 204 261 301 355
#     4   9  19  37  56  84 117 155 213 245 300 366
#     4  12  20  48  70  92 122 170 206 278 288 388
#     4  10  20  36  60  84 121 161 197 254 306 365
#     4  11  24  38  60  96 127 156 208 254 313 377
#
# _framework density 19.003964
#
# number of rings (size 3 to 8) (size 9 to 14) (size 15 to 20)
#    0.000    1.600    2.400    2.400    3.360    1.920 
#    0.000    7.200    0.000    0.000    0.000    0.000 
#    0.000    0.000    0.000    0.000    0.000    0.000 
#
# Total GULP energy -139197.945868 kJ/mol
# GULP energy per Si atom -5567.917835 kJ/mol
# Density = 1.896071 g / cm^3
# Si number density = 19.003964 Si / 1000 Ang^3
#
#
#
# Elastic Constant Matrix: (Units=GPa)
#
#
# Indices 1 2 3 4 5 6 
#
# 1 93.9283 21.1976 25.0642 0.0000 9.5415 0.0000
# 2 21.1976 75.9253 15.0247 0.0000 -6.0887 0.0000
# 3 25.0642 15.0247 36.2204 0.0000 11.3074 0.0000
# 4 0.0000 0.0000 0.0000 2.4606 0.0000 -10.7766
# 5 9.5415 -6.0887 11.3074 0.0000 19.7539 0.0000
# 6 0.0000 0.0000 0.0000 -10.7766 0.0000 -0.3481
#
#
#
# Elastic Compliance Matrix: (Units=1/GPa)
#
#
# Indices 1 2 3 4 5 6 
#
# 1 0.013491 -0.002576 -0.007287 0.000000 -0.003139 0.000000
# 2 -0.002576 0.016484 -0.008559 0.000000 0.011225 0.000000
# 3 -0.007287 -0.008559 0.043743 0.000000 -0.024158 0.000000
# 4 0.000000 0.000000 0.000000 0.002976 0.000000 -0.092115
# 5 -0.003139 0.011225 -0.024158 0.000000 0.069427 0.000000
# 6 0.000000 0.000000 0.000000 -0.092115 0.000000 -0.021032
#
#
# Mechanical properties :
#
#
# Convention : Reuss Voigt Hill
#
# Bulk Modulus (GPa) = 27.11964 36.51632 31.81798
# Shear Modulus (GPa) = 28.69841 14.02576 21.36209
#
# Velocity S-wave (km/s) = 3.89025 2.71964 3.35638
# Velocity P-wave (km/s) = 5.87199 5.39618 5.63911
#
# Compressibility (1/GPa) = 0.03687365
#
# Stress axis : x y z
#
# Youngs Moduli (GPa) = 74.12203 60.66480 22.86060
#
# Poissons Ratio (x) = 0.15630 0.16659
# Poissons Ratio (y) = 0.19097 0.19567
# Poissons Ratio (z) = 0.54013 0.51924
#
# Static dielectric constant tensor:
#      x y z
#    x 1.692140 0.000000 0.000160 
#    y 0.000000 1.662950 0.000000 
#    z 0.000160 0.000000 1.648660 
# 
# From -- ./inp_files/213363.got.cif
#   From: 2010.05.17/outbox.cif.g08.bks.cpg/sg12_107_cif.got.tgz:213363.got - 2010.06.03 13:09:07.
