data_PCOD9197321
_publ_section_title
;
Structure prediction by ZEFSAII (Michael W. Deem and Ramdas Pophale) SiO2 
 PCOD9197321
Probable space group: C 2/M
;
_chemical_formula_sum "Si O2"
_cell_formula_units_Z 40
_cell_length_a 21.679264
_cell_length_b 8.574235
_cell_length_c 10.415143
_cell_angle_alpha 90.000000
_cell_angle_beta 99.142575
_cell_angle_gamma 90.000000
_cell_volume 1911.404200
_symmetry_space_group_name_H-M "C 2/M"
_symmetry_group_IT_number 12
_symmetry_cell_setting 'monoclinic'
loop_
_space_group_symop_operation_xyz
x,y,z
-x,y,-z
-x,-y,-z
x,-y,z
1/2+x,1/2+y,z
1/2-x,1/2+y,-z
1/2-x,1/2-y,-z
1/2+x,1/2-y,z
loop_
_atom_site_type_symbol
_atom_site_label
_atom_site_fract_x
_atom_site_fract_y
_atom_site_fract_z
Si Si1 0.949738 0.190698 0.588232
Si Si2 0.783019 0.319503 0.818204
Si Si3 0.978575 0.188557 0.134752
Si Si4 0.185484 0.181589 0.429533
Si Si5 0.659354 0.183076 0.878716
O O1 0.879604 0.247627 0.538289
O O2 0.000000 0.242161 0.500000
O O3 0.973208 0.235493 0.737761
O O4 0.948400 0.000000 0.584966
O O5 0.788154 0.500000 0.781067
O O6 0.814653 0.211649 0.722922
O O7 0.710352 0.273551 0.810658
O O8 0.815998 0.299734 0.966591
O O9 0.910359 0.251864 0.148690
O O10 0.975428 0.000000 0.131881
O O11 0.000000 0.241111 0.000000
O O12 0.250000 0.250000 0.500000
O O13 0.186588 0.000000 0.458711
O O14 0.661018 0.000000 0.846917
#
# Coordination Sequence:
#
# PCOD9197321 Si02
#       5
#     8   8   8   8   8
#     4   9  20  38  59  85 119 161 203 244 295 361
#     4  10  21  38  59  84 119 159 199 244 301 365
#     4  10  20  35  59  87 116 156 205 247 297 364
#     4  11  23  39  62  89 121 158 205 254 299 357
#     4  10  21  36  58  89 120 153 196 252 309 358
#
# _framework density 20.927022000000001
#
# number of rings (size 3 to 8) (size 9 to 14) (size 15 to 20)
#    0.000    2.000    0.000    3.000    2.800    4.400 
#    0.000    2.000    0.000    3.000    0.000    0.000 
#    0.000    0.000    0.000    0.000    0.000    0.000 
#
# Total GULP energy -111761.850638 kJ/mol
# GULP energy per Si atom -5588.092532 kJ/mol
# Density = 2.087939 g / cm^3
# Si number density = 20.927022 Si / 1000 Ang^3
#
#
#
# Elastic Constant Matrix: (Units=GPa)
#
#
# Indices 1 2 3 4 5 6 
#
# 1 179.6362 17.2558 38.8631 0.0000 14.3947 0.0000
# 2 17.2558 13.9969 9.8736 0.0000 14.1359 0.0000
# 3 38.8631 9.8736 59.4332 0.0000 2.0580 0.0000
# 4 0.0000 0.0000 0.0000 19.7329 0.0000 -0.0513
# 5 14.3947 14.1359 2.0580 0.0000 29.1622 0.0000
# 6 0.0000 0.0000 0.0000 -0.0513 0.0000 27.1908
#
#
#
# Elastic Compliance Matrix: (Units=1/GPa)
#
#
# Indices 1 2 3 4 5 6 
#
# 1 0.006910 -0.005480 -0.003591 0.000000 -0.000501 0.000000
# 2 -0.005480 0.176287 -0.022894 0.000000 -0.081131 0.000000
# 3 -0.003591 -0.022894 0.022587 0.000000 0.011276 0.000000
# 4 0.000000 0.000000 0.000000 0.050677 0.000000 0.000096
# 5 -0.000501 -0.081131 0.011276 0.000000 0.073070 0.000000
# 6 0.000000 0.000000 0.000000 0.000096 0.000000 0.036777
#
#
# Mechanical properties :
#
#
# Convention : Reuss Voigt Hill
#
# Bulk Modulus (GPa) = 7.04949 42.78350 24.91650
# Shear Modulus (GPa) = 10.47073 27.68875 19.07974
#
# Velocity S-wave (km/s) = 2.23927 3.64140 3.02276
# Velocity P-wave (km/s) = 3.17201 6.17805 4.91070
#
# Compressibility (1/GPa) = 0.14185421
#
# Stress axis : x y z
#
# Youngs Moduli (GPa) = 144.71306 5.67258 44.27411
#
# Poissons Ratio (x) = 0.03108 0.15898
# Poissons Ratio (y) = 0.79301 1.01361
# Poissons Ratio (z) = 0.51964 0.12987
#
# Static dielectric constant tensor:
#      x y z
#    x 1.749650 0.000000 0.008150 
#    y 0.000000 1.713880 0.000000 
#    z 0.008150 0.000000 1.774170 
# 
# From -- ./inp_files/151724.got.cif
#   From: 2010.05.17/outbox.cif.g08.bks.cpg/sg12_76_cif.got.tgz:151724.got - 2010.06.03 13:09:07.
