data_PCOD9197191
_publ_section_title
;
Structure prediction by ZEFSAII (Michael W. Deem and Ramdas Pophale) SiO2 
 PCOD9197191
Probable space group: C 2/M
;
_chemical_formula_sum "Si O2"
_cell_formula_units_Z 52
_cell_length_a 29.814368
_cell_length_b 15.015451
_cell_length_c 8.818403
_cell_angle_alpha 90.000000
_cell_angle_beta 137.868062
_cell_angle_gamma 90.000000
_cell_volume 2648.335194
_symmetry_space_group_name_H-M "C 2/M"
_symmetry_group_IT_number 12
_symmetry_cell_setting 'monoclinic'
loop_
_space_group_symop_operation_xyz
x,y,z
-x,y,-z
-x,-y,-z
x,-y,z
1/2+x,1/2+y,z
1/2-x,1/2+y,-z
1/2-x,1/2-y,-z
1/2+x,1/2-y,z
loop_
_atom_site_type_symbol
_atom_site_label
_atom_site_fract_x
_atom_site_fract_y
_atom_site_fract_z
Si Si1 0.291372 0.730108 0.807118
Si Si2 0.500000 0.157658 0.500000
Si Si3 0.765150 0.099890 0.011973
Si Si4 0.484069 0.256943 0.785615
Si Si5 0.855585 0.595945 0.086479
Si Si6 0.158945 0.826167 0.510871
Si Si7 0.399090 0.398882 0.922096
O O1 0.279177 0.680093 0.935151
O O2 0.216040 0.763170 0.575486
O O3 0.340157 0.659281 0.850405
O O4 0.332960 0.821110 0.928486
O O5 0.498688 0.209007 0.660350
O O6 0.432228 0.102962 0.320215
O O7 0.688405 0.101612 0.871783
O O8 0.780964 0.000000 0.994514
O O9 0.805327 0.121223 0.265429
O O10 0.404494 0.271797 0.587634
O O11 0.500000 0.220531 0.000000
O O12 0.531078 0.345212 0.894264
O O13 0.840031 0.500000 0.975300
O O14 0.125594 0.895145 0.312411
O O15 0.404295 0.500000 0.990753
#
# Coordination Sequence:
#
# PCOD9197191 Si02
#       7
#     8   4   8   8   8   8   8
#     4  11  20  39  59  90 120 156 202 254 304 366
#     4  12  19  40  65  88 118 162 211 252 317 362
#     4  10  20  35  58  90 120 152 198 249 305 368
#     4  10  23  39  61  93 125 164 206 251 307 375
#     4  10  21  35  60  88 114 156 207 255 305 365
#     4  10  21  37  60  83 119 167 198 244 303 369
#     4  11  23  39  59  90 126 160 200 251 311 373
#
# _framework density 19.634975000000001
#
# number of rings (size 3 to 8) (size 9 to 14) (size 15 to 20)
#    0.000    1.538    1.538    5.308    0.000    4.000 
#    0.000    0.385    0.000    1.846    0.000    0.000 
#    0.000    0.000    0.000    0.000    0.000    0.000 
#
# Total GULP energy -144736.687025 kJ/mol
# GULP energy per Si atom -5566.795655 kJ/mol
# Density = 1.959029 g / cm^3
# Si number density = 19.634975 Si / 1000 Ang^3
#
#
#
# Elastic Constant Matrix: (Units=GPa)
#
#
# Indices 1 2 3 4 5 6 
#
# 1 90.6799 33.0767 40.5963 0.0000 16.9267 0.0000
# 2 33.0767 103.6384 25.8252 0.0000 0.4668 0.0000
# 3 40.5963 25.8252 68.8784 0.0000 27.8184 0.0000
# 4 0.0000 0.0000 0.0000 44.7710 0.0000 3.5644
# 5 16.9267 0.4668 27.8184 0.0000 39.5557 0.0000
# 6 0.0000 0.0000 0.0000 3.5644 0.0000 17.9941
#
#
#
# Elastic Compliance Matrix: (Units=1/GPa)
#
#
# Indices 1 2 3 4 5 6 
#
# 1 0.015837 -0.003159 -0.007581 0.000000 -0.001408 0.000000
# 2 -0.003159 0.011686 -0.004204 0.000000 0.004170 0.000000
# 3 -0.007581 -0.004204 0.026862 0.000000 -0.015598 0.000000
# 4 0.000000 0.000000 0.000000 0.022694 0.000000 -0.004495
# 5 -0.001408 0.004170 -0.015598 0.000000 0.036804 0.000000
# 6 0.000000 0.000000 0.000000 -0.004495 0.000000 0.056464
#
#
# Mechanical properties :
#
#
# Convention : Reuss Voigt Hill
#
# Bulk Modulus (GPa) = 40.82089 51.35481 46.08785
# Shear Modulus (GPa) = 23.99228 31.37739 27.68483
#
# Velocity S-wave (km/s) = 3.49938 4.00188 3.75904
# Velocity P-wave (km/s) = 6.09611 6.89673 6.50875
#
# Compressibility (1/GPa) = 0.02449726
#
# Stress axis : x y z
#
# Youngs Moduli (GPa) = 63.14388 85.57295 37.22693
#
# Poissons Ratio (x) = 0.27033 0.28221
# Poissons Ratio (y) = 0.19947 0.15650
# Poissons Ratio (z) = 0.47869 0.35975
#
# Static dielectric constant tensor:
#      x y z
#    x 1.757100 0.000000 -0.023770 
#    y 0.000000 1.713030 0.000000 
#    z -0.023770 0.000000 1.685170 
# 
# From -- ./inp_files/112063.got.cif
#   From: 2010.05.17/outbox.cif.g08.bks.cpg/sg12_57_cif.got.tgz:112063.got - 2010.06.03 13:09:07.
