data_PCOD9197193
_publ_section_title
;
Structure prediction by ZEFSAII (Michael W. Deem and Ramdas Pophale) SiO2 
 PCOD9197193
Probable space group: C 2/M
;
_chemical_formula_sum "Si O2"
_cell_formula_units_Z 64
_cell_length_a 23.970776
_cell_length_b 17.510540
_cell_length_c 21.171300
_cell_angle_alpha 90.000000
_cell_angle_beta 159.379540
_cell_angle_gamma 90.000000
_cell_volume 3129.599595
_symmetry_space_group_name_H-M "C 2/M"
_symmetry_group_IT_number 12
_symmetry_cell_setting 'monoclinic'
loop_
_space_group_symop_operation_xyz
x,y,z
-x,y,-z
-x,-y,-z
x,-y,z
1/2+x,1/2+y,z
1/2-x,1/2+y,-z
1/2-x,1/2-y,-z
1/2+x,1/2-y,z
loop_
_atom_site_type_symbol
_atom_site_label
_atom_site_fract_x
_atom_site_fract_y
_atom_site_fract_z
Si Si1 0.042317 0.703190 0.376735
Si Si2 0.598710 0.912261 0.669505
Si Si3 0.362906 0.303375 0.938890
Si Si4 0.184452 0.744230 0.243869
Si Si5 0.976262 0.589627 0.745886
Si Si6 0.831999 0.416683 0.732523
Si Si7 0.025961 0.086355 0.599742
Si Si8 0.761736 0.808150 0.089966
O O1 0.174068 0.747675 0.556467
O O2 0.107841 0.647787 0.391732
O O3 0.967408 0.645130 0.348219
O O4 0.903580 0.760978 0.205941
O O5 0.500000 0.903015 0.500000
O O6 0.779281 0.884981 0.852914
O O7 0.586267 0.000000 0.675700
O O8 0.277507 0.261843 0.788467
O O9 0.336704 0.254468 0.974563
O O10 0.547551 0.302883 0.118979
O O11 0.112776 0.659636 0.174537
O O12 0.987955 0.500000 0.739129
O O13 0.887242 0.590535 0.718726
O O14 0.147900 0.631007 0.935044
O O15 0.889449 0.500000 0.816094
O O16 0.642816 0.416208 0.543611
O O17 0.144251 0.141990 0.759241
O O18 0.000000 0.110095 0.500000
O O19 0.090960 0.000000 0.667408
#
# Coordination Sequence:
#
# PCOD9197193 Si02
#       8
#     8   8   8   8   8   8   8   8
#     4  11  23  38  66  90 117 169 215 260 317 373
#     4  10  20  39  63  92 123 156 204 260 323 383
#     4  10  22  36  61  93 124 160 200 256 322 368
#     4  11  20  40  59  91 126 158 209 263 305 379
#     4  11  24  43  59  86 126 167 214 263 313 377
#     4  10  21  39  58  84 124 169 205 251 310 370
#     4  10  20  35  58  90 122 159 206 256 311 371
#     4  11  21  37  61  88 121 160 211 253 318 366
#
# _framework density 20.449901000000001
#
# number of rings (size 3 to 8) (size 9 to 14) (size 15 to 20)
#    0.000    1.500    3.750    1.875    0.000    0.500 
#    0.000    4.375    0.000    1.500    0.000    0.000 
#    0.000    0.000    0.000    0.000    0.000    0.000 
#
# Total GULP energy -178512.958517 kJ/mol
# GULP energy per Si atom -5578.529954 kJ/mol
# Density = 2.040336 g / cm^3
# Si number density = 20.449901 Si / 1000 Ang^3
#
#
#
# Elastic Constant Matrix: (Units=GPa)
#
#
# Indices 1 2 3 4 5 6 
#
# 1 38.9945 16.0297 2.6817 -0.0013 -3.3674 -0.0006
# 2 16.0297 89.6025 13.8185 0.0008 -11.7524 0.0044
# 3 2.6817 13.8185 47.3559 -0.0048 3.3464 -0.0006
# 4 -0.0013 0.0008 -0.0048 26.9026 -0.0016 1.1336
# 5 -3.3674 -11.7524 3.3464 -0.0016 19.6099 0.0000
# 6 -0.0006 0.0044 -0.0006 1.1336 0.0000 30.9663
#
#
#
# Elastic Compliance Matrix: (Units=1/GPa)
#
#
# Indices 1 2 3 4 5 6 
#
# 1 0.027754 -0.004641 -0.000362 0.000002 0.002046 0.000001
# 2 -0.004641 0.013728 -0.004320 -0.000001 0.008168 -0.000002
# 3 -0.000362 -0.004320 0.022861 0.000004 -0.006553 0.000001
# 4 0.000002 -0.000001 0.000004 0.037229 0.000002 -0.001363
# 5 0.002046 0.008168 -0.006553 0.000002 0.057359 -0.000001
# 6 0.000001 -0.000002 0.000001 -0.001363 -0.000001 0.032343
#
#
# Mechanical properties :
#
#
# Convention : Reuss Voigt Hill
#
# Bulk Modulus (GPa) = 21.88344 26.77919 24.33131
# Shear Modulus (GPa) = 22.20716 25.05731 23.63224
#
# Velocity S-wave (km/s) = 3.29892 3.50423 3.40312
# Velocity P-wave (km/s) = 5.02342 5.43105 5.23121
#
# Compressibility (1/GPa) = 0.04569666
#
# Stress axis : x y z
#
# Youngs Moduli (GPa) = 36.03085 72.84270 43.74280
#
# Poissons Ratio (x) = 0.33805 0.01584
# Poissons Ratio (y) = 0.16721 0.18898
# Poissons Ratio (z) = 0.01305 0.31470
#
# Static dielectric constant tensor:
#      x y z
#    x 1.763960 0.000000 -0.000550 
#    y 0.000000 1.728230 0.000000 
#    z -0.000550 0.000000 1.736580 
# 
# From -- ./inp_files/326167.got.cif
#   From: 2010.05.17/outbox.cif.g08.bks.cpg/sg12_164_cif.got.tgz:326167.got - 2010.06.03 13:09:07.
