data_PCOD9197973
_publ_section_title
;
Structure prediction by ZEFSAII (Michael W. Deem and Ramdas Pophale) SiO2 
 PCOD9197973
Probable space group: C 2/M
;
_chemical_formula_sum "Si O2"
_cell_formula_units_Z 40
_cell_length_a 8.574952
_cell_length_b 29.500057
_cell_length_c 7.151811
_cell_angle_alpha 90.000000
_cell_angle_beta 107.820896
_cell_angle_gamma 90.000000
_cell_volume 1722.327234
_symmetry_space_group_name_H-M "C 2/M"
_symmetry_group_IT_number 12
_symmetry_cell_setting 'monoclinic'
loop_
_space_group_symop_operation_xyz
x,y,z
-x,y,-z
-x,-y,-z
x,-y,z
1/2+x,1/2+y,z
1/2-x,1/2+y,-z
1/2-x,1/2-y,-z
1/2+x,1/2-y,z
loop_
_atom_site_type_symbol
_atom_site_label
_atom_site_fract_x
_atom_site_fract_y
_atom_site_fract_z
Si Si1 0.822429 0.612979 0.364197
Si Si2 0.235096 0.788221 0.250874
Si Si3 0.355613 0.301556 0.195859
Si Si4 0.460786 0.601580 0.210988
Si Si5 0.679587 0.049404 0.979591
O O1 0.813813 0.667539 0.371485
O O2 0.641536 0.596372 0.366369
O O3 0.824516 0.591976 0.158483
O O4 0.000000 0.597727 0.500000
O O5 0.297426 0.737675 0.313078
O O6 0.042836 0.789759 0.218649
O O7 0.251845 0.797060 0.032381
O O8 0.367705 0.353973 0.254198
O O9 0.500000 0.610729 0.000000
O O10 0.334206 0.560272 0.169201
O O11 0.709836 0.000000 0.899672
O O12 0.500000 0.047597 0.000000
#
# Coordination Sequence:
#
# PCOD9197973 Si02
#       5
#     8   8   8   8   8
#     4  10  20  36  55  79 112 144 176 217 267 320
#     4   9  16  27  45  74 103 133 176 218 251 297
#     4   9  14  27  46  71  99 134 177 217 248 299
#     4   9  16  34  52  76 106 141 182 218 255 312
#     4  10  21  37  58  83 105 130 178 231 268 314
#
# _framework density 23.22439
#
# number of rings (size 3 to 8) (size 9 to 14) (size 15 to 20)
#    0.000    2.600    6.000    0.000    0.000    5.600 
#    0.000    5.000    0.000    2.400    0.000    0.000 
#    0.000    0.000    0.000    0.000    0.000    0.000 
#
# Total GULP energy -111434.291005 kJ/mol
# GULP energy per Si atom -5571.714550 kJ/mol
# Density = 2.317153 g / cm^3
# Si number density = 23.224390 Si / 1000 Ang^3
#
#
#
# Elastic Constant Matrix: (Units=GPa)
#
#
# Indices 1 2 3 4 5 6 
#
# 1 57.8822 38.7210 33.6935 0.0000 32.4585 0.0000
# 2 38.7210 84.3794 -2.3895 0.0000 10.0014 0.0000
# 3 33.6935 -2.3895 74.0991 0.0000 31.1342 0.0000
# 4 0.0000 0.0000 0.0000 1.0420 0.0000 10.4807
# 5 32.4585 10.0014 31.1342 0.0000 43.4927 0.0000
# 6 0.0000 0.0000 0.0000 10.4807 0.0000 4.2851
#
#
#
# Elastic Compliance Matrix: (Units=1/GPa)
#
#
# Indices 1 2 3 4 5 6 
#
# 1 0.056062 -0.023162 -0.015585 0.000000 -0.025356 0.000000
# 2 -0.023162 0.022020 0.008734 0.000000 0.005970 0.000000
# 3 -0.015585 0.008734 0.024056 0.000000 -0.007598 0.000000
# 4 0.000000 0.000000 0.000000 -0.040663 0.000000 0.099456
# 5 -0.025356 0.005970 -0.007598 0.000000 0.045982 0.000000
# 6 0.000000 0.000000 0.000000 0.099456 0.000000 -0.009888
#
#
# Mechanical properties :
#
#
# Convention : Reuss Voigt Hill
#
# Bulk Modulus (GPa) = 23.74690 39.60119 31.67404
# Shear Modulus (GPa) = 29.13186 19.51968 24.32577
#
# Velocity S-wave (km/s) = 3.54554 2.90225 3.23990
# Velocity P-wave (km/s) = 5.19696 5.32159 5.25964
#
# Compressibility (1/GPa) = 0.04211077
#
# Stress axis : x y z
#
# Youngs Moduli (GPa) = 17.83731 45.41342 41.56955
#
# Poissons Ratio (x) = 1.05188 0.64786
# Poissons Ratio (y) = 0.41315 -0.36305
# Poissons Ratio (z) = 0.27799 -0.39662
#
# Static dielectric constant tensor:
#      x y z
#    x 1.896700 0.000000 -0.017680 
#    y 0.000000 1.850800 0.000000 
#    z -0.017680 0.000000 2.031120 
# 
# From -- ./inp_files/40528.got.cif
#   From: 2010.05.17/outbox.cif.g08.bks.cpg/sg12_21_cif.got.tgz:40528.got - 2010.06.03 13:09:07.
