data_PCOD9197181
_publ_section_title
;
Structure prediction by ZEFSAII (Michael W. Deem and Ramdas Pophale) SiO2 
 PCOD9197181
Probable space group: C 2/M
;
_chemical_formula_sum "Si O2"
_cell_formula_units_Z 56
_cell_length_a 20.768893
_cell_length_b 8.803278
_cell_length_c 17.900467
_cell_angle_alpha 90.000000
_cell_angle_beta 108.666206
_cell_angle_gamma 90.000000
_cell_volume 3100.667148
_symmetry_space_group_name_H-M "C 2/M"
_symmetry_group_IT_number 12
_symmetry_cell_setting 'monoclinic'
loop_
_space_group_symop_operation_xyz
x,y,z
-x,y,-z
-x,-y,-z
x,-y,z
1/2+x,1/2+y,z
1/2-x,1/2+y,-z
1/2-x,1/2-y,-z
1/2+x,1/2-y,z
loop_
_atom_site_type_symbol
_atom_site_label
_atom_site_fract_x
_atom_site_fract_y
_atom_site_fract_z
Si Si1 0.572659 0.818449 0.244280
Si Si2 0.816559 0.819418 0.264734
Si Si3 0.086490 0.681320 0.821979
Si Si4 0.827246 0.181576 0.841322
Si Si5 0.822082 0.681895 0.000920
Si Si6 0.810333 0.680631 0.422328
Si Si7 0.346736 0.319318 0.591111
O O1 0.493159 0.783359 0.205741
O O2 0.617210 0.740191 0.196604
O O3 0.600751 0.759092 0.333699
O O4 0.581743 0.000000 0.243044
O O5 0.874558 0.769634 0.228598
O O6 0.746206 0.743773 0.211393
O O7 0.831329 0.758611 0.353169
O O8 0.808482 0.000000 0.262500
O O9 0.094205 0.500000 0.811268
O O10 0.123218 0.714525 0.914196
O O11 0.841218 0.245515 0.928982
O O12 0.825232 0.000000 0.841172
O O13 0.815867 0.500000 0.990663
O O14 0.750000 0.750000 0.000000
O O15 0.820943 0.500000 0.422675
O O16 0.729409 0.707408 0.404640
O O17 0.846775 0.750015 0.508303
O O18 0.357489 0.500000 0.592633
#
# Coordination Sequence:
#
# PCOD9197181 Si02
#       7
#     8   8   8   8   8   8   8
#     4  11  23  41  63  89 122 163 203 245 303 365
#     4  12  23  37  62  92 121 157 204 252 299 359
#     4  10  24  43  63  87 123 162 199 247 307 367
#     4  12  24  39  61  89 123 160 202 253 301 355
#     4  11  22  39  63  91 121 157 202 254 304 357
#     4  10  20  35  59  89 123 158 198 248 299 353
#     4  10  20  35  58  89 124 159 197 248 300 352
#
# _framework density 18.06063
#
# number of rings (size 3 to 8) (size 9 to 14) (size 15 to 20)
#    0.000    1.143    2.857    4.286    0.000    3.429 
#    0.000    3.571    0.000    4.286    0.000    0.000 
#    0.000    0.000    0.000    0.000    0.000    0.000 
#
# Total GULP energy -156581.365944 kJ/mol
# GULP energy per Si atom -5592.191641 kJ/mol
# Density = 1.801952 g / cm^3
# Si number density = 18.060630 Si / 1000 Ang^3
#
#
#
# Elastic Constant Matrix: (Units=GPa)
#
#
# Indices 1 2 3 4 5 6 
#
# 1 98.1208 67.9697 74.4338 0.0000 1.6936 0.0000
# 2 67.9697 106.4483 81.0973 0.0000 -0.9353 0.0000
# 3 74.4338 81.0973 170.5774 0.0000 -5.7546 0.0000
# 4 0.0000 0.0000 0.0000 35.0049 0.0000 -5.5606
# 5 1.6936 -0.9353 -5.7546 0.0000 30.9145 0.0000
# 6 0.0000 0.0000 0.0000 -5.5606 0.0000 29.1475
#
#
#
# Elastic Compliance Matrix: (Units=1/GPa)
#
#
# Indices 1 2 3 4 5 6 
#
# 1 0.020145 -0.009609 -0.004296 0.000000 -0.002194 0.000000
# 2 -0.009609 0.019336 -0.004994 0.000000 0.000182 0.000000
# 3 -0.004296 -0.004994 0.010178 0.000000 0.001979 0.000000
# 4 0.000000 0.000000 0.000000 0.029460 0.000000 0.005620
# 5 -0.002194 0.000182 0.001979 0.000000 0.032841 0.000000
# 6 0.000000 0.000000 0.000000 0.005620 0.000000 0.035380
#
#
# Mechanical properties :
#
#
# Convention : Reuss Voigt Hill
#
# Bulk Modulus (GPa) = 84.31026 91.34978 87.83002
# Shear Modulus (GPa) = 26.44217 29.12308 27.78262
#
# Velocity S-wave (km/s) = 3.83048 4.01997 3.92637
# Velocity P-wave (km/s) = 8.14534 8.49919 8.32414
#
# Compressibility (1/GPa) = 0.01186095
#
# Stress axis : x y z
#
# Youngs Moduli (GPa) = 49.64065 51.71717 98.25266
#
# Poissons Ratio (x) = 0.49697 0.42208
# Poissons Ratio (y) = 0.47702 0.49063
# Poissons Ratio (z) = 0.21325 0.25825
#
# Static dielectric constant tensor:
#      x y z
#    x 1.587750 0.000000 0.000230 
#    y 0.000000 1.602920 0.000000 
#    z 0.000230 0.000000 1.603660 
# 
# From -- ./inp_files/275595.got.cif
#   From: 2010.05.17/outbox.cif.g08.bks.cpg/sg12_138_cif.got.tgz:275595.got - 2010.06.03 13:09:07.
