data_PCOD9197673
_publ_section_title
;
Structure prediction by ZEFSAII (Michael W. Deem and Ramdas Pophale) SiO2 
 PCOD9197673
Probable space group: C 2/M
;
_chemical_formula_sum "Si O2"
_cell_formula_units_Z 64
_cell_length_a 15.887092
_cell_length_b 18.361875
_cell_length_c 15.332564
_cell_angle_alpha 90.000000
_cell_angle_beta 47.086241
_cell_angle_gamma 90.000000
_cell_volume 3275.762063
_symmetry_space_group_name_H-M "C 2/M"
_symmetry_group_IT_number 12
_symmetry_cell_setting 'monoclinic'
loop_
_space_group_symop_operation_xyz
x,y,z
-x,y,-z
-x,-y,-z
x,-y,z
1/2+x,1/2+y,z
1/2-x,1/2+y,-z
1/2-x,1/2-y,-z
1/2+x,1/2-y,z
loop_
_atom_site_type_symbol
_atom_site_label
_atom_site_fract_x
_atom_site_fract_y
_atom_site_fract_z
Si Si1 0.416175 0.717312 0.222303
Si Si2 0.449730 0.855324 0.918109
Si Si3 0.953926 0.261123 0.394556
Si Si4 0.696555 0.084940 0.129718
Si Si5 0.321893 0.085234 0.177987
Si Si6 0.458404 0.582107 0.930187
Si Si7 0.322218 0.718030 0.660978
Si Si8 0.494488 0.080410 0.607592
O O1 0.504533 0.773010 0.112287
O O2 0.419905 0.734941 0.322690
O O3 0.460646 0.636477 0.177806
O O4 0.292844 0.733477 0.266425
O O5 0.383491 0.868528 0.876095
O O6 0.564800 0.904405 0.841823
O O7 0.367218 0.880205 0.054829
O O8 0.881271 0.225405 0.524394
O O9 0.939029 0.348658 0.406738
O O10 0.085700 0.244194 0.331557
O O11 0.636885 0.087224 0.266096
O O12 0.691495 0.000000 0.105477
O O13 0.827047 0.108461 0.027867
O O14 0.221725 0.136802 0.285251
O O15 0.294155 0.000000 0.188217
O O16 0.460701 0.500000 0.892845
O O17 0.500000 0.579461 0.000000
O O18 0.500000 0.082759 0.500000
O O19 0.535151 0.000000 0.608522
#
# Coordination Sequence:
#
# PCOD9197673 Si02
#       8
#     8   8   8   8   8   8   8   8
#     4  11  24  39  64  90 122 159 210 251 310 376
#     4  10  20  35  61  93 118 153 194 249 307 362
#     4  11  22  44  61  89 122 162 208 261 307 365
#     4  10  20  36  58  86 120 155 197 251 307 362
#     4  10  21  38  59  90 125 157 193 245 307 366
#     4  10  25  42  58  86 126 166 203 250 306 369
#     4  10  24  41  64  86 122 163 204 258 313 362
#     4  10  20  36  61  90 117 154 203 258 312 360
#
# _framework density 19.537438000000002
#
# number of rings (size 3 to 8) (size 9 to 14) (size 15 to 20)
#    0.000    1.750    2.500    1.875    7.000    0.500 
#    0.000    2.500    0.000    0.000    0.000    0.000 
#    0.000    0.000    0.000    0.000    0.000    0.000 
#
# Total GULP energy -178593.587823 kJ/mol
# GULP energy per Si atom -5581.049619 kJ/mol
# Density = 1.949297 g / cm^3
# Si number density = 19.537438 Si / 1000 Ang^3
#
#
#
# Elastic Constant Matrix: (Units=GPa)
#
#
# Indices 1 2 3 4 5 6 
#
# 1 74.5903 13.0789 28.7211 0.0000 -7.8590 0.0000
# 2 13.0789 106.9567 58.7672 0.0000 -5.0758 0.0000
# 3 28.7211 58.7672 73.0309 0.0000 -9.7155 0.0000
# 4 0.0000 0.0000 0.0000 38.8216 0.0000 10.6999
# 5 -7.8590 -5.0758 -9.7155 0.0000 21.1853 0.0000
# 6 0.0000 0.0000 0.0000 10.6999 0.0000 25.2810
#
#
#
# Elastic Compliance Matrix: (Units=1/GPa)
#
#
# Indices 1 2 3 4 5 6 
#
# 1 0.016404 0.002622 -0.008166 0.000000 0.002969 0.000000
# 2 0.002622 0.017285 -0.015187 0.000000 -0.001851 0.000000
# 3 -0.008166 -0.015187 0.030073 0.000000 0.007123 0.000000
# 4 0.000000 0.000000 0.000000 0.029160 0.000000 -0.012342
# 5 0.002969 -0.001851 0.007123 0.000000 0.051127 0.000000
# 6 0.000000 0.000000 0.000000 -0.012342 0.000000 0.044779
#
#
# Mechanical properties :
#
#
# Convention : Reuss Voigt Hill
#
# Bulk Modulus (GPa) = 44.84295 50.63470 47.73883
# Shear Modulus (GPa) = 21.03282 27.32497 24.17890
#
# Velocity S-wave (km/s) = 3.28463 3.74384 3.52172
# Velocity P-wave (km/s) = 6.11450 6.68292 6.40502
#
# Compressibility (1/GPa) = 0.02230005
#
# Stress axis : x y z
#
# Youngs Moduli (GPa) = 60.96083 57.85214 33.25295
#
# Poissons Ratio (x) = -0.15168 0.27155
# Poissons Ratio (y) = -0.15983 0.50500
# Poissons Ratio (z) = 0.49781 0.87858
#
# Static dielectric constant tensor:
#      x y z
#    x 1.684390 0.000000 0.002130 
#    y 0.000000 1.705040 0.000000 
#    z 0.002130 0.000000 1.705640 
# 
# From -- ./inp_files/216797.got.cif
#   From: 2010.05.17/outbox.cif.g08.bks.cpg/sg12_109_cif.got.tgz:216797.got - 2010.06.03 13:09:07.
