data_PCOD9197243
_publ_section_title
;
Structure prediction by ZEFSAII (Michael W. Deem and Ramdas Pophale) SiO2 
 PCOD9197243
Probable space group: C 2/M
;
_chemical_formula_sum "Si O2"
_cell_formula_units_Z 48
_cell_length_a 20.656911
_cell_length_b 7.695810
_cell_length_c 27.365296
_cell_angle_alpha 90.000000
_cell_angle_beta 147.999433
_cell_angle_gamma 90.000000
_cell_volume 2305.347778
_symmetry_space_group_name_H-M "C 2/M"
_symmetry_group_IT_number 12
_symmetry_cell_setting 'monoclinic'
loop_
_space_group_symop_operation_xyz
x,y,z
-x,y,-z
-x,-y,-z
x,-y,z
1/2+x,1/2+y,z
1/2-x,1/2+y,-z
1/2-x,1/2-y,-z
1/2+x,1/2-y,z
loop_
_atom_site_type_symbol
_atom_site_label
_atom_site_fract_x
_atom_site_fract_y
_atom_site_fract_z
Si Si1 0.870955 0.213325 0.736172
Si Si2 0.941299 0.201631 0.224104
Si Si3 0.689350 0.201030 0.101336
Si Si4 0.896214 0.712417 0.471344
Si Si5 0.109177 0.707783 0.421222
Si Si6 0.550880 0.701541 0.107147
O O1 0.738306 0.268562 0.632014
O O2 0.898072 0.267907 0.808888
O O3 0.977256 0.275408 0.767707
O O4 0.869208 0.000000 0.733911
O O5 0.809227 0.278346 0.152557
O O6 0.023558 0.211079 0.325307
O O7 0.919715 0.000000 0.197096
O O8 0.649297 0.286205 0.126618
O O9 0.714855 0.000000 0.129286
O O10 0.571831 0.209463 0.990959
O O11 0.896110 0.500000 0.471427
O O12 0.919347 0.766900 0.541918
O O13 0.000000 0.769087 0.500000
O O14 0.093205 0.500000 0.408665
O O15 0.250000 0.750000 0.500000
O O16 0.518808 0.500000 0.093294
#
# Coordination Sequence:
#
# PCOD9197243 Si02
#       6
#     8   8   8   8   8   8
#     4   9  18  34  54  78 109 143 180 225 271 316
#     4  10  21  38  57  79 109 147 184 221 272 327
#     4  10  21  37  57  79 111 147 177 218 282 337
#     4   9  18  32  53  80 108 142 180 218 265 318
#     4  11  21  35  58  82 111 146 182 224 268 321
#     4  10  20  35  59  83 108 139 183 232 267 317
#
# _framework density 20.821152000000001
#
# number of rings (size 3 to 8) (size 9 to 14) (size 15 to 20)
#    0.000    2.167    1.667    2.500    2.333    2.000 
#    0.000    1.667    0.000    2.000    0.000    0.000 
#    0.000    0.000    0.000    0.000    0.000    0.000 
#
# Total GULP energy -134026.047546 kJ/mol
# GULP energy per Si atom -5584.418648 kJ/mol
# Density = 2.077376 g / cm^3
# Si number density = 20.821152 Si / 1000 Ang^3
#
#
#
# Elastic Constant Matrix: (Units=GPa)
#
#
# Indices 1 2 3 4 5 6 
#
# 1 152.9730 -1.1951 54.4349 0.0000 6.1261 0.0000
# 2 -1.1951 35.4077 -4.6245 0.0002 1.3747 0.0005
# 3 54.4349 -4.6245 62.8834 0.0000 0.2403 0.0000
# 4 0.0000 0.0002 0.0000 15.3714 0.0000 -9.2057
# 5 6.1261 1.3747 0.2403 0.0000 46.6583 0.0000
# 6 0.0000 0.0005 0.0000 -9.2057 0.0000 -1.1557
#
#
#
# Elastic Compliance Matrix: (Units=1/GPa)
#
#
# Indices 1 2 3 4 5 6 
#
# 1 0.009533 -0.000716 -0.008300 0.000000 -0.001188 0.000000
# 2 -0.000716 0.028604 0.002726 0.000001 -0.000763 0.000003
# 3 -0.008300 0.002726 0.023284 0.000000 0.000890 0.000000
# 4 0.000000 0.000001 0.000000 0.011274 0.000000 -0.089803
# 5 -0.001188 -0.000763 0.000890 0.000000 0.021606 0.000000
# 6 0.000000 0.000003 0.000000 -0.089803 0.000000 -0.149951
#
#
# Mechanical properties :
#
#
# Convention : Reuss Voigt Hill
#
# Bulk Modulus (GPa) = 20.47438 38.72163 29.59801
# Shear Modulus (GPa) = -186.63784 25.68473 -80.47656
#
# Velocity S-wave (km/s) = -9.47804 3.51606 -6.22377
# Velocity P-wave (km/s) = 10.48441 5.92631 6.11562
#
# Compressibility (1/GPa) = 0.04884153
#
# Stress axis : x y z
#
# Youngs Moduli (GPa) = 104.90308 34.96014 42.94711
#
# Poissons Ratio (x) = 0.02504 0.35646
# Poissons Ratio (y) = 0.07513 -0.11709
# Poissons Ratio (z) = 0.87070 -0.09532
#
# Static dielectric constant tensor:
#      x y z
#    x 1.739510 0.000000 0.010480 
#    y 0.000000 1.834060 0.000000 
#    z 0.010480 0.000000 1.700760 
# 
# From -- ./inp_files/365542.got.cif
#   From: 2010.05.17/outbox.cif.g08.bks.cpg/sg12_183_cif.got.tgz:365542.got - 2010.06.03 13:09:07.
