data_PCOD9197492
_publ_section_title
;
Structure prediction by ZEFSAII (Michael W. Deem and Ramdas Pophale) SiO2 
 PCOD9197492
Probable space group: C 2/M
;
_chemical_formula_sum "Si O2"
_cell_formula_units_Z 64
_cell_length_a 18.680825
_cell_length_b 18.327753
_cell_length_c 15.909613
_cell_angle_alpha 90.000000
_cell_angle_beta 31.969971
_cell_angle_gamma 90.000000
_cell_volume 2884.098739
_symmetry_space_group_name_H-M "C 2/M"
_symmetry_group_IT_number 12
_symmetry_cell_setting 'monoclinic'
loop_
_space_group_symop_operation_xyz
x,y,z
-x,y,-z
-x,-y,-z
x,-y,z
1/2+x,1/2+y,z
1/2-x,1/2+y,-z
1/2-x,1/2-y,-z
1/2+x,1/2-y,z
loop_
_atom_site_type_symbol
_atom_site_label
_atom_site_fract_x
_atom_site_fract_y
_atom_site_fract_z
Si Si1 0.161266 0.823461 0.602081
Si Si2 0.850374 0.305345 0.638604
Si Si3 0.151857 0.081651 0.316730
Si Si4 0.385366 0.328020 0.804507
Si Si5 0.909465 0.739578 0.172735
Si Si6 0.592608 0.920874 0.824008
Si Si7 0.170472 0.657231 0.152848
Si Si8 0.609141 0.084974 0.555359
O O1 0.250000 0.750000 0.500000
O O2 0.077918 0.801901 0.769724
O O3 0.269216 0.887161 0.507046
O O4 0.045370 0.842346 0.651496
O O5 0.743729 0.249011 0.707571
O O6 0.801777 0.339415 0.774903
O O7 0.869216 0.369011 0.551644
O O8 0.000000 0.272184 0.500000
O O9 0.175797 0.141045 0.220710
O O10 0.256771 0.083957 0.288656
O O11 0.000000 0.088607 0.500000
O O12 0.167686 0.000000 0.262982
O O13 0.371739 0.240828 0.823747
O O14 0.297354 0.360798 0.968278
O O15 0.937055 0.659262 0.183449
O O16 0.000000 0.749529 0.000000
O O17 0.574458 0.000000 0.797916
O O18 0.500000 0.923408 0.000000
O O19 0.040333 0.607324 0.265662
O O20 0.617558 0.000000 0.532087
#
# Coordination Sequence:
#
# PCOD9197492 Si02
#       8
#     8   8   8   8   8   8   8   8
#     4  11  23  40  61  91 125 160 207 251 305 368
#     4   9  19  35  61  90 113 152 201 249 302 359
#     4  10  23  40  59  85 115 155 204 248 297 360
#     4  11  23  39  63  87 128 160 205 256 308 363
#     4  10  20  35  60  85 118 156 204 251 301 361
#     4   9  19  36  57  85 118 151 197 249 301 359
#     4  10  21  37  60  94 121 157 201 254 311 366
#     4  10  22  42  64  90 125 161 202 252 309 374
#
# _framework density 22.190642
#
# number of rings (size 3 to 8) (size 9 to 14) (size 15 to 20)
#    0.000    2.000    1.250    1.500    1.750    8.250 
#    0.000    0.625    0.000   12.750    0.000    0.000 
#    0.000    0.000    0.000    0.000    0.000    0.000 
#
# Total GULP energy -178881.203211 kJ/mol
# GULP energy per Si atom -5590.037600 kJ/mol
# Density = 2.214014 g / cm^3
# Si number density = 22.190642 Si / 1000 Ang^3
#
#
#
# Elastic Constant Matrix: (Units=GPa)
#
#
# Indices 1 2 3 4 5 6 
#
# 1 45.6117 -6.6978 10.4048 -0.0002 -1.8250 0.0003
# 2 -6.6978 106.4312 20.2253 -0.0002 -11.3241 0.0002
# 3 10.4048 20.2253 94.8396 0.0002 1.9403 0.0003
# 4 -0.0002 -0.0002 0.0002 14.5758 0.0000 -8.9593
# 5 -1.8250 -11.3241 1.9403 0.0000 29.4575 -0.0003
# 6 0.0003 0.0002 0.0003 -8.9593 -0.0003 15.6961
#
#
#
# Elastic Compliance Matrix: (Units=1/GPa)
#
#
# Indices 1 2 3 4 5 6 
#
# 1 0.023064 0.002303 -0.003073 0.000000 0.002517 0.000000
# 2 0.002303 0.010493 -0.002579 0.000000 0.004346 0.000000
# 3 -0.003073 -0.002579 0.011471 -0.000001 -0.001938 0.000000
# 4 0.000000 0.000000 -0.000001 0.105687 0.000001 0.060325
# 5 0.002517 0.004346 -0.001938 0.000001 0.035902 0.000001
# 6 0.000000 0.000000 0.000000 0.060325 0.000001 0.098143
#
#
# Mechanical properties :
#
#
# Convention : Reuss Voigt Hill
#
# Bulk Modulus (GPa) = 26.08923 32.74967 29.41945
# Shear Modulus (GPa) = 16.43464 26.80923 21.62193
#
# Velocity S-wave (km/s) = 2.72437 3.47959 3.12488
# Velocity P-wave (km/s) = 4.65603 5.56181 5.12896
#
# Compressibility (1/GPa) = 0.03832999
#
# Stress axis : x y z
#
# Youngs Moduli (GPa) = 43.35739 95.29891 87.17657
#
# Poissons Ratio (x) = -0.21949 0.26789
# Poissons Ratio (y) = -0.09986 0.22486
# Poissons Ratio (z) = 0.13324 0.24581
#
# Static dielectric constant tensor:
#      x y z
#    x 1.876570 0.000000 0.025180 
#    y 0.000000 1.791380 0.000000 
#    z 0.025180 0.000000 1.846210 
# 
# From -- ./inp_files/285207.got.cif
#   From: 2010.05.17/outbox.cif.g08.bks.cpg/sg12_143_cif.got.tgz:285207.got - 2010.06.03 13:09:07.
