data_PCOD9197201
_publ_section_title
;
Structure prediction by ZEFSAII (Michael W. Deem and Ramdas Pophale) SiO2 
 PCOD9197201
Probable space group: C 2/M
;
_chemical_formula_sum "Si O2"
_cell_formula_units_Z 64
_cell_length_a 12.572315
_cell_length_b 20.665507
_cell_length_c 15.641791
_cell_angle_alpha 90.000000
_cell_angle_beta 140.535515
_cell_angle_gamma 90.000000
_cell_volume 2583.042498
_symmetry_space_group_name_H-M "C 2/M"
_symmetry_group_IT_number 12
_symmetry_cell_setting 'monoclinic'
loop_
_space_group_symop_operation_xyz
x,y,z
-x,y,-z
-x,-y,-z
x,-y,z
1/2+x,1/2+y,z
1/2-x,1/2+y,-z
1/2-x,1/2-y,-z
1/2+x,1/2-y,z
loop_
_atom_site_type_symbol
_atom_site_label
_atom_site_fract_x
_atom_site_fract_y
_atom_site_fract_z
Si Si1 0.217227 0.927396 0.347004
Si Si2 0.824610 0.425098 0.219336
Si Si3 0.921599 0.241447 0.359245
Si Si4 0.369879 0.611157 0.059079
Si Si5 0.172570 0.112147 0.632235
Si Si6 0.855066 0.339916 0.583932
Si Si7 0.490406 0.112124 0.095467
Si Si8 0.041477 0.761012 0.125135
O O1 0.304037 0.918924 0.308578
O O2 0.272623 0.873190 0.449091
O O3 0.022203 0.924430 0.199867
O O4 0.257947 0.000000 0.405312
O O5 0.851242 0.500000 0.217156
O O6 0.985473 0.384192 0.294356
O O7 0.667577 0.403263 0.064226
O O8 0.874764 0.165473 0.324559
O O9 0.739931 0.275356 0.248909
O O10 0.000000 0.253930 0.500000
O O11 0.057002 0.270712 0.378167
O O12 0.426866 0.686223 0.100372
O O13 0.193455 0.592163 0.990737
O O14 0.226333 0.153378 0.581461
O O15 0.342086 0.077843 0.765479
O O16 0.000000 0.077492 0.500000
O O17 0.507996 0.187924 0.134395
O O18 0.500000 0.109508 0.000000
O O19 0.000000 0.761934 0.000000
#
# Coordination Sequence:
#
# PCOD9197201 Si02
#       8
#     8   8   8   8   8   8   8   8
#     4  11  25  41  65 101 131 164 216 274 328 384
#     4  11  23  41  67  96 129 166 215 270 326 386
#     4  10  21  38  56  90 128 167 213 252 305 380
#     4  12  21  38  65  92 128 171 210 264 329 382
#     4  10  24  42  62  93 129 172 218 263 312 386
#     4  12  22  41  68  92 131 178 212 266 328 378
#     4  10  23  41  59  90 129 173 217 259 312 388
#     4  10  20  35  58  90 128 166 209 256 310 390
#
# _framework density 24.776983999999999
#
# number of rings (size 3 to 8) (size 9 to 14) (size 15 to 20)
#    0.000    1.250    1.250    5.625    1.750    4.000 
#    6.750    0.000    0.000    4.500    0.000    0.000 
#    0.000    0.000    0.000    0.000    0.000    0.000 
#
# Total GULP energy -179015.325774 kJ/mol
# GULP energy per Si atom -5594.228930 kJ/mol
# Density = 2.472059 g / cm^3
# Si number density = 24.776984 Si / 1000 Ang^3
#
#
#
# Elastic Constant Matrix: (Units=GPa)
#
#
# Indices 1 2 3 4 5 6 
#
# 1 111.2428 6.3019 37.6430 0.0006 21.3435 0.0001
# 2 6.3019 80.6353 8.6154 0.0005 -0.8234 0.0002
# 3 37.6430 8.6154 152.5461 0.0009 23.7555 0.0004
# 4 0.0006 0.0005 0.0009 12.0876 0.0008 -1.3303
# 5 21.3435 -0.8234 23.7555 0.0008 48.3549 0.0003
# 6 0.0001 0.0002 0.0004 -1.3303 0.0003 7.5875
#
#
#
# Elastic Compliance Matrix: (Units=1/GPa)
#
#
# Indices 1 2 3 4 5 6 
#
# 1 0.010386 -0.000639 -0.001961 0.000000 -0.003632 0.000000
# 2 -0.000639 0.012533 -0.000679 0.000000 0.000829 0.000000
# 3 -0.001961 -0.000679 0.007520 0.000000 -0.002840 0.000000
# 4 0.000000 0.000000 0.000000 0.084357 -0.000001 0.014790
# 5 -0.003632 0.000829 -0.002840 -0.000001 0.023693 -0.000001
# 6 0.000000 0.000000 0.000000 0.014790 -0.000001 0.134389
#
#
# Mechanical properties :
#
#
# Convention : Reuss Voigt Hill
#
# Bulk Modulus (GPa) = 41.87749 49.94945 45.91347
# Shear Modulus (GPa) = 17.39758 33.06360 25.23059
#
# Velocity S-wave (km/s) = 2.65272 3.65697 3.19456
# Velocity P-wave (km/s) = 5.13040 6.16722 5.67255
#
# Compressibility (1/GPa) = 0.02387918
#
# Stress axis : x y z
#
# Youngs Moduli (GPa) = 96.28345 79.79244 132.97820
#
# Poissons Ratio (x) = 0.05101 0.26080
# Poissons Ratio (y) = 0.06155 0.09032
# Poissons Ratio (z) = 0.18884 0.05419
#
# Static dielectric constant tensor:
#      x y z
#    x 1.980150 0.000000 0.013190 
#    y 0.000000 2.001080 0.000000 
#    z 0.013190 0.000000 1.971020 
# 
# From -- ./inp_files/209406.got.cif
#   From: 2010.05.17/outbox.cif.g08.bks.cpg/sg12_105_cif.got.tgz:209406.got - 2010.06.03 13:09:07.
