data_PCOD9197311
_publ_section_title
;
Structure prediction by ZEFSAII (Michael W. Deem and Ramdas Pophale) SiO2 
 PCOD9197311
Probable space group: C 2/M
;
_chemical_formula_sum "Si O2"
_cell_formula_units_Z 64
_cell_length_a 29.829085
_cell_length_b 7.560091
_cell_length_c 12.186760
_cell_angle_alpha 90.000000
_cell_angle_beta 87.475723
_cell_angle_gamma 90.000000
_cell_volume 2745.576765
_symmetry_space_group_name_H-M "C 2/M"
_symmetry_group_IT_number 12
_symmetry_cell_setting 'monoclinic'
loop_
_space_group_symop_operation_xyz
x,y,z
-x,y,-z
-x,-y,-z
x,-y,z
1/2+x,1/2+y,z
1/2-x,1/2+y,-z
1/2-x,1/2-y,-z
1/2+x,1/2-y,z
loop_
_atom_site_type_symbol
_atom_site_label
_atom_site_fract_x
_atom_site_fract_y
_atom_site_fract_z
Si Si1 0.797114 0.709859 0.052042
Si Si2 0.395646 0.704984 0.026449
Si Si3 0.843896 0.706269 0.680553
Si Si4 0.993389 0.216066 0.375380
Si Si5 0.254961 0.785359 0.276549
Si Si6 0.100792 0.214555 0.724558
Si Si7 0.431507 0.704500 0.799667
Si Si8 0.681209 0.206026 0.553586
O O1 0.803685 0.500000 0.049971
O O2 0.788640 0.771856 0.177355
O O3 0.750000 0.750000 0.000000
O O4 0.842812 0.789646 0.001616
O O5 0.409188 0.500000 0.034377
O O6 0.423375 0.783906 0.921657
O O7 0.399416 0.779619 0.149189
O O8 0.856175 0.500000 0.670766
O O9 0.795119 0.722050 0.740926
O O10 0.883860 0.793212 0.742609
O O11 0.835468 0.783836 0.559531
O O12 0.945157 0.263223 0.331580
O O13 0.000000 0.276382 0.500000
O O14 0.031716 0.280472 0.287369
O O15 0.995793 0.000000 0.378124
O O16 0.275021 0.719955 0.389538
O O17 0.254223 0.000000 0.277029
O O18 0.141774 0.282794 0.647231
O O19 0.104245 0.000000 0.725814
O O20 0.444726 0.500000 0.815646
O O21 0.690359 0.000000 0.529714
#
# Coordination Sequence:
#
# PCOD9197311 Si02
#       8
#     8   8   8   8   8   8   8   8
#     4  11  22  36  56  79 110 152 193 235 280 331
#     4  10  21  36  55  83 114 147 190 235 281 332
#     4  11  23  36  55  83 113 145 187 238 283 333
#     4   9  18  34  58  87 114 145 188 233 281 338
#     4  10  21  37  55  77 108 148 189 226 279 342
#     4  10  20  35  59  87 113 146 192 239 279 334
#     4  10  21  38  58  80 114 152 185 228 283 339
#     4  10  21  38  56  80 114 148 185 230 285 342
#
# _framework density 23.310220999999999
#
# number of rings (size 3 to 8) (size 9 to 14) (size 15 to 20)
#    0.000    1.875    1.250    2.625    0.000    7.500 
#    0.000    3.125    0.000    2.250    0.000    2.625 
#    0.000    0.000    0.000    0.000    0.000    0.000 
#
# Total GULP energy -178863.180073 kJ/mol
# GULP energy per Si atom -5589.474377 kJ/mol
# Density = 2.325717 g / cm^3
# Si number density = 23.310221 Si / 1000 Ang^3
#
#
#
# Elastic Constant Matrix: (Units=GPa)
#
#
# Indices 1 2 3 4 5 6 
#
# 1 87.2493 -11.8301 17.4944 0.0000 -7.5738 0.0000
# 2 -11.8301 62.2801 1.5905 0.0000 -0.6007 0.0000
# 3 17.4944 1.5905 103.0146 0.0000 -12.7970 0.0000
# 4 0.0000 0.0000 0.0000 4.3201 0.0000 -0.9392
# 5 -7.5738 -0.6007 -12.7970 0.0000 41.0892 0.0000
# 6 0.0000 0.0000 0.0000 -0.9392 0.0000 12.7293
#
#
#
# Elastic Compliance Matrix: (Units=1/GPa)
#
#
# Indices 1 2 3 4 5 6 
#
# 1 0.012320 0.002406 -0.001917 0.000000 0.001709 0.000000
# 2 0.002406 0.016534 -0.000602 0.000000 0.000498 0.000000
# 3 -0.001917 -0.000602 0.010400 0.000000 0.002877 0.000000
# 4 0.000000 0.000000 0.000000 0.235252 0.000000 0.017358
# 5 0.001709 0.000498 0.002877 0.000000 0.025556 0.000000
# 6 0.000000 0.000000 0.000000 0.017358 0.000000 0.079840
#
#
# Mechanical properties :
#
#
# Convention : Reuss Voigt Hill
#
# Bulk Modulus (GPa) = 25.62348 29.67262 27.64805
# Shear Modulus (GPa) = 12.71822 27.98032 20.34927
#
# Velocity S-wave (km/s) = 2.33836 3.46836 2.95782
# Velocity P-wave (km/s) = 4.27864 5.36623 4.85300
#
# Compressibility (1/GPa) = 0.03902671
#
# Stress axis : x y z
#
# Youngs Moduli (GPa) = 81.16649 60.48280 96.15761
#
# Poissons Ratio (x) = -0.14550 0.18435
# Poissons Ratio (y) = -0.19526 0.05789
# Poissons Ratio (z) = 0.15561 0.03641
#
# Static dielectric constant tensor:
#      x y z
#    x 1.832010 0.000000 0.000000 
#    y 0.000000 1.918120 0.000000 
#    z 0.000000 0.000000 1.920670 
# 
# From -- ./inp_files/187629.got.cif
#   From: 2010.05.17/outbox.cif.g08.bks.cpg/sg12_94_cif.got.tgz:187629.got - 2010.06.03 13:09:07.
