data_PCOD9197777
_publ_section_title
;
Structure prediction by ZEFSAII (Michael W. Deem and Ramdas Pophale) SiO2 
 PCOD9197777
Probable space group: C 2/M
;
_chemical_formula_sum "Si O2"
_cell_formula_units_Z 56
_cell_length_a 9.359739
_cell_length_b 17.106825
_cell_length_c 21.969878
_cell_angle_alpha 90.000000
_cell_angle_beta 118.810274
_cell_angle_gamma 90.000000
_cell_volume 3082.294257
_symmetry_space_group_name_H-M "C 2/M"
_symmetry_group_IT_number 12
_symmetry_cell_setting 'monoclinic'
loop_
_space_group_symop_operation_xyz
x,y,z
-x,y,-z
-x,-y,-z
x,-y,z
1/2+x,1/2+y,z
1/2-x,1/2+y,-z
1/2-x,1/2-y,-z
1/2+x,1/2-y,z
loop_
_atom_site_type_symbol
_atom_site_label
_atom_site_fract_x
_atom_site_fract_y
_atom_site_fract_z
Si Si1 0.345738 0.286234 0.827070
Si Si2 0.400416 0.809659 0.041625
Si Si3 0.994977 0.200959 0.267304
Si Si4 0.672263 0.590739 0.068997
Si Si5 0.981053 0.089623 0.376223
Si Si6 0.665337 0.138122 0.512354
Si Si7 0.758995 0.703461 0.599705
O O1 0.477627 0.228811 0.884867
O O2 0.180335 0.239283 0.780364
O O3 0.419459 0.317140 0.779075
O O4 0.315669 0.354366 0.869742
O O5 0.316443 0.885851 0.052614
O O6 0.500000 0.821844 0.000000
O O7 0.250000 0.750000 0.000000
O O8 0.979970 0.126659 0.308567
O O9 0.108152 0.263776 0.325995
O O10 0.677159 0.500000 0.086010
O O11 0.500000 0.607027 0.000000
O O12 0.870897 0.147583 0.394344
O O13 0.166057 0.095005 0.438714
O O14 0.925063 0.000000 0.366614
O O15 0.500000 0.097960 0.500000
O O16 0.677484 0.219708 0.552839
O O17 0.660176 0.158472 0.440133
#
# Coordination Sequence:
#
# PCOD9197777 Si02
#       7
#     8   8   8   8   8   8   8
#     4  12  21  39  66  91 119 166 210 247 301 372
#     4  12  20  38  67  95 122 164 212 254 296 368
#     4  11  23  38  64  91 118 163 211 253 295 372
#     4  11  24  41  62  95 130 158 200 263 315 353
#     4  11  24  41  60  89 125 159 200 256 315 360
#     4  10  20  35  64  88 118 155 208 252 298 362
#     4  10  20  38  59  89 118 161 204 251 299 365
#
# _framework density 18.168285000000001
#
# number of rings (size 3 to 8) (size 9 to 14) (size 15 to 20)
#    0.000    1.000    5.714    3.000    2.000    2.286 
#    0.000    2.857    0.000    0.000    0.000    0.000 
#    0.000    0.000    0.000    0.000    0.000    0.000 
#
# Total GULP energy -156452.304398 kJ/mol
# GULP energy per Si atom -5587.582300 kJ/mol
# Density = 1.812693 g / cm^3
# Si number density = 18.168285 Si / 1000 Ang^3
#
#
#
# Elastic Constant Matrix: (Units=GPa)
#
#
# Indices 1 2 3 4 5 6 
#
# 1 122.9364 30.4235 45.5076 0.0000 -8.8432 0.0000
# 2 30.4235 81.6692 24.8432 0.0000 -2.2284 0.0000
# 3 45.5076 24.8432 100.1977 0.0000 -1.3323 0.0000
# 4 0.0000 0.0000 0.0000 2.1386 0.0000 2.8577
# 5 -8.8432 -2.2284 -1.3323 0.0000 45.6256 0.0000
# 6 0.0000 0.0000 0.0000 2.8577 0.0000 19.9244
#
#
#
# Elastic Compliance Matrix: (Units=1/GPa)
#
#
# Indices 1 2 3 4 5 6 
#
# 1 0.010406 -0.002593 -0.004060 0.000000 0.001772 0.000000
# 2 -0.002593 0.013903 -0.002268 0.000000 0.000110 0.000000
# 3 -0.004060 -0.002268 0.012379 0.000000 -0.000536 0.000000
# 4 0.000000 0.000000 0.000000 0.578455 0.000000 -0.082966
# 5 0.001772 0.000110 -0.000536 0.000000 0.022251 0.000000
# 6 0.000000 0.000000 0.000000 -0.082966 0.000000 0.062089
#
#
# Mechanical properties :
#
#
# Convention : Reuss Voigt Hill
#
# Bulk Modulus (GPa) = 53.05868 56.26131 54.66000
# Shear Modulus (GPa) = 6.90981 27.13966 17.02474
#
# Velocity S-wave (km/s) = 1.95230 3.86915 3.06446
# Velocity P-wave (km/s) = 5.86084 7.14104 6.53238
#
# Compressibility (1/GPa) = 0.01884706
#
# Stress axis : x y z
#
# Youngs Moduli (GPa) = 96.09551 71.92447 80.77979
#
# Poissons Ratio (x) = 0.18652 0.32795
# Poissons Ratio (y) = 0.24920 0.18321
# Poissons Ratio (z) = 0.39013 0.16312
#
# Static dielectric constant tensor:
#      x y z
#    x 1.634930 0.000000 -0.001840 
#    y 0.000000 1.604900 0.000000 
#    z -0.001840 0.000000 1.613820 
# 
# From -- ./inp_files/300872.got.cif
#   From: 2010.05.17/outbox.cif.g08.bks.cpg/sg12_151_cif.got.tgz:300872.got - 2010.06.03 13:09:07.
