data_PCOD9197159
_publ_section_title
;
Structure prediction by ZEFSAII (Michael W. Deem and Ramdas Pophale) SiO2 
 PCOD9197159
Probable space group: C 2/M
;
_chemical_formula_sum "Si O2"
_cell_formula_units_Z 58
_cell_length_a 27.319880
_cell_length_b 8.000660
_cell_length_c 29.283881
_cell_angle_alpha 90.000000
_cell_angle_beta 25.782699
_cell_angle_gamma 90.000000
_cell_volume 2784.080424
_symmetry_space_group_name_H-M "C 2/M"
_symmetry_group_IT_number 12
_symmetry_cell_setting 'monoclinic'
loop_
_space_group_symop_operation_xyz
x,y,z
-x,y,-z
-x,-y,-z
x,-y,z
1/2+x,1/2+y,z
1/2-x,1/2+y,-z
1/2-x,1/2-y,-z
1/2+x,1/2-y,z
loop_
_atom_site_type_symbol
_atom_site_label
_atom_site_fract_x
_atom_site_fract_y
_atom_site_fract_z
Si Si1 0.876351 0.199186 0.403332
Si Si2 0.094367 0.203206 0.883882
Si Si3 0.462012 0.702878 0.655086
Si Si4 0.500000 0.500000 0.500000
Si Si5 0.785974 0.802962 0.879998
Si Si6 0.145471 0.304007 0.345755
Si Si7 0.948676 0.309728 0.818419
Si Si8 0.531859 0.695630 0.097416
O O1 0.750000 0.250000 0.500000
O O2 0.954629 0.287542 0.300382
O O3 0.922262 0.238972 0.415458
O O4 0.892446 0.000000 0.384111
O O5 0.226890 0.241314 0.777801
O O6 0.053358 0.266682 0.868559
O O7 0.091087 0.000000 0.888653
O O8 0.000000 0.261001 0.000000
O O9 0.456744 0.500000 0.650941
O O10 0.366687 0.757251 0.771572
O O11 0.435317 0.792417 0.630672
O O12 0.597657 0.652262 0.416744
O O13 0.838091 0.753068 0.884915
O O14 0.792935 0.000000 0.871972
O O15 0.658928 0.749840 0.980468
O O16 0.145561 0.500000 0.362376
O O17 0.928008 0.500000 0.847743
O O18 0.985659 0.227030 0.834412
O O19 0.526823 0.500000 0.094849
#
# Coordination Sequence:
#
# PCOD9197159 Si02
#       8
#     8   8   8   2   8   8   8   8
#     4  10  21  39  61  88 121 154 199 254 307 364
#     4   9  20  40  66  97 128 160 210 268 327 394
#     4   9  19  38  62  90 121 155 202 261 312 368
#     4  12  26  48  66  94 136 164 230 286 324 378
#     4  10  20  35  58  88 124 158 199 246 301 375
#     4  11  23  44  71  96 128 175 219 272 334 395
#     4  11  22  37  55  81 118 159 204 247 299 365
#     4  11  21  36  57  86 123 161 198 246 310 376
#
# _framework density 20.832730000000002
#
# number of rings (size 3 to 8) (size 9 to 14) (size 15 to 20)
#    0.000    1.793    0.690    4.759    0.000    4.414 
#    4.966    0.345    0.000    0.000    0.000    0.000 
#    0.000    0.000    0.000    0.000    0.000    0.000 
#
# Total GULP energy -161507.260779 kJ/mol
# GULP energy per Si atom -5569.215889 kJ/mol
# Density = 2.078531 g / cm^3
# Si number density = 20.832730 Si / 1000 Ang^3
#
#
#
# Elastic Constant Matrix: (Units=GPa)
#
#
# Indices 1 2 3 4 5 6 
#
# 1 89.1566 14.0097 8.8424 0.0149 -20.0854 0.0519
# 2 14.0097 60.2020 18.5297 0.0156 3.1480 0.0755
# 3 8.8424 18.5297 71.9131 0.0106 -23.7240 0.0497
# 4 0.0149 0.0156 0.0106 28.9737 0.0149 -3.9850
# 5 -20.0854 3.1480 -23.7240 0.0149 27.3686 -0.0068
# 6 0.0519 0.0755 0.0497 -3.9850 -0.0068 10.8507
#
#
#
# Elastic Compliance Matrix: (Units=1/GPa)
#
#
# Indices 1 2 3 4 5 6 
#
# 1 0.015325 -0.005965 0.005027 -0.000022 0.016290 -0.000053
# 2 -0.005965 0.021915 -0.010068 -0.000010 -0.015626 -0.000091
# 3 0.005027 -0.010068 0.024482 -0.000028 0.026069 -0.000060
# 4 -0.000022 -0.000010 -0.000028 0.036350 -0.000056 0.013350
# 5 0.016290 -0.015626 0.026069 -0.000056 0.072888 -0.000063
# 6 -0.000053 -0.000091 -0.000060 0.013350 -0.000063 0.097064
#
#
# Mechanical properties :
#
#
# Convention : Reuss Voigt Hill
#
# Bulk Modulus (GPa) = 25.18333 33.78167 29.48250
# Shear Modulus (GPa) = 16.48673 25.43128 20.95900
#
# Velocity S-wave (km/s) = 2.81621 3.49769 3.17529
# Velocity P-wave (km/s) = 4.76333 5.70637 5.25604
#
# Compressibility (1/GPa) = 0.03970880
#
# Stress axis : x y z
#
# Youngs Moduli (GPa) = 65.25291 45.63068 40.84630
#
# Poissons Ratio (x) = 0.27220 -0.20533
# Poissons Ratio (y) = 0.38925 0.41125
# Poissons Ratio (z) = -0.32802 0.45942
#
# Static dielectric constant tensor:
#      x y z
#    x -0.097890 -0.000190 -0.404720 
#    y -0.000190 1.771310 -0.000060 
#    z -0.404720 -0.000060 1.646070 
# 
# From -- ./inp_files/367510.got.cif
#   From: 2010.05.17/outbox.cif.g08.bks.cpg/sg12_184_cif.got.tgz:367510.got - 2010.06.03 13:09:07.
