data_PCOD9197323
_publ_section_title
;
Structure prediction by ZEFSAII (Michael W. Deem and Ramdas Pophale) SiO2 
 PCOD9197323
Probable space group: C 2/M
;
_chemical_formula_sum "Si O2"
_cell_formula_units_Z 56
_cell_length_a 21.982257
_cell_length_b 14.302596
_cell_length_c 17.093495
_cell_angle_alpha 90.000000
_cell_angle_beta 153.489975
_cell_angle_gamma 90.000000
_cell_volume 2398.820958
_symmetry_space_group_name_H-M "C 2/M"
_symmetry_group_IT_number 12
_symmetry_cell_setting 'monoclinic'
loop_
_space_group_symop_operation_xyz
x,y,z
-x,y,-z
-x,-y,-z
x,-y,z
1/2+x,1/2+y,z
1/2-x,1/2+y,-z
1/2-x,1/2-y,-z
1/2+x,1/2-y,z
loop_
_atom_site_type_symbol
_atom_site_label
_atom_site_fract_x
_atom_site_fract_y
_atom_site_fract_z
Si Si1 0.943520 0.610863 0.751118
Si Si2 0.470171 0.190265 0.614396
Si Si3 0.353091 0.795286 0.796460
Si Si4 0.258364 0.392177 0.918758
Si Si5 0.027849 0.894501 0.696365
Si Si6 0.264923 0.107048 0.841583
Si Si7 0.236447 0.892164 0.257389
O O1 0.928006 0.500000 0.738878
O O2 0.850027 0.659911 0.707948
O O3 0.919108 0.643854 0.635547
O O4 0.101821 0.634084 0.954513
O O5 0.631742 0.173885 0.792917
O O6 0.442004 0.300488 0.588349
O O7 0.392197 0.137747 0.454863
O O8 0.255762 0.830533 0.754257
O O9 0.345189 0.683385 0.785916
O O10 0.500000 0.824885 0.000000
O O11 0.209201 0.500000 0.871643
O O12 0.296473 0.379159 0.872072
O O13 0.383164 0.382158 0.121973
O O14 0.134184 0.891678 0.746479
O O15 0.966651 0.000000 0.626803
O O16 0.286153 0.000000 0.839777
O O17 0.213613 0.000000 0.251559
#
# Coordination Sequence:
#
# PCOD9197323 Si02
#       7
#     8   8   8   8   8   8   8
#     4  10  20  35  59  87 117 153 198 246 290 345
#     4  12  22  36  61  89 123 158 195 243 301 360
#     4  10  22  38  60  85 113 156 205 249 298 346
#     4  10  20  36  61  91 122 157 198 242 291 355
#     4  10  21  36  60  93 123 157 199 243 293 351
#     4   9  17  34  59  89 119 149 196 248 289 338
#     4  11  25  41  59  87 122 158 198 245 300 361
#
# _framework density 23.344802999999999
#
# number of rings (size 3 to 8) (size 9 to 14) (size 15 to 20)
#    0.000    1.714    1.429    3.429    4.000    3.714 
#    0.000    2.143    0.000    3.429    0.000    0.000 
#    0.000    0.000    0.000    0.000    0.000    0.000 
#
# Total GULP energy -156649.761769 kJ/mol
# GULP energy per Si atom -5594.634349 kJ/mol
# Density = 2.329167 g / cm^3
# Si number density = 23.344803 Si / 1000 Ang^3
#
#
#
# Elastic Constant Matrix: (Units=GPa)
#
#
# Indices 1 2 3 4 5 6 
#
# 1 92.0233 57.6471 16.9209 0.0000 -18.8217 0.0000
# 2 57.6471 132.1900 9.1550 0.0000 -14.0873 0.0000
# 3 16.9209 9.1550 39.1789 -0.0002 -17.3372 -0.0001
# 4 0.0000 0.0000 -0.0002 -2.6414 -0.0002 13.6194
# 5 -18.8217 -14.0873 -17.3372 -0.0002 22.5915 0.0000
# 6 0.0000 0.0000 -0.0001 13.6194 0.0000 37.0870
#
#
#
# Elastic Compliance Matrix: (Units=1/GPa)
#
#
# Indices 1 2 3 4 5 6 
#
# 1 0.016980 -0.006344 -0.002031 0.000000 0.008632 0.000000
# 2 -0.006344 0.010481 0.001278 0.000000 0.002231 0.000000
# 3 -0.002031 0.001278 0.038925 -0.000002 0.028977 0.000001
# 4 0.000000 0.000000 -0.000002 -0.130842 -0.000002 0.048049
# 5 0.008632 0.002231 0.028977 -0.000002 0.075084 0.000001
# 6 0.000000 0.000000 0.000001 0.048049 0.000001 0.009319
#
#
# Mechanical properties :
#
#
# Convention : Reuss Voigt Hill
#
# Bulk Modulus (GPa) = 19.16049 47.87091 33.51570
# Shear Modulus (GPa) = 97.01380 23.38537 60.19959
#
# Velocity S-wave (km/s) = 6.45346 3.16846 5.08361
# Velocity P-wave (km/s) = 7.98467 5.82546 6.98895
#
# Compressibility (1/GPa) = 0.05219074
#
# Stress axis : x y z
#
# Youngs Moduli (GPa) = 58.89222 95.41260 25.69029
#
# Poissons Ratio (x) = 0.60533 0.05219
# Poissons Ratio (y) = 0.37363 -0.03283
# Poissons Ratio (z) = 0.11963 -0.12194
#
# Static dielectric constant tensor:
#      x y z
#    x 1.831980 0.000000 0.029870 
#    y 0.000000 1.888340 0.000000 
#    z 0.029870 0.000000 1.947390 
# 
# From -- ./inp_files/284562.got.cif
#   From: 2010.05.17/outbox.cif.g08.bks.cpg/sg12_143_cif.got.tgz:284562.got - 2010.06.03 13:09:07.
