data_PCOD9197524
_publ_section_title
;
Structure prediction by ZEFSAII (Michael W. Deem and Ramdas Pophale) SiO2 
 PCOD9197524
Probable space group: C 2/M
;
_chemical_formula_sum "Si O2"
_cell_formula_units_Z 40
_cell_length_a 33.937338
_cell_length_b 10.187347
_cell_length_c 8.724612
_cell_angle_alpha 90.000000
_cell_angle_beta 38.593727
_cell_angle_gamma 90.000000
_cell_volume 1881.595251
_symmetry_space_group_name_H-M "C 2/M"
_symmetry_group_IT_number 12
_symmetry_cell_setting 'monoclinic'
loop_
_space_group_symop_operation_xyz
x,y,z
-x,y,-z
-x,-y,-z
x,-y,z
1/2+x,1/2+y,z
1/2-x,1/2+y,-z
1/2-x,1/2-y,-z
1/2+x,1/2-y,z
loop_
_atom_site_type_symbol
_atom_site_label
_atom_site_fract_x
_atom_site_fract_y
_atom_site_fract_z
Si Si1 0.791753 0.352218 0.964024
Si Si2 0.533304 0.769141 0.237664
Si Si3 0.378689 0.351916 0.246158
Si Si4 0.582317 0.853833 0.614214
Si Si5 0.672094 0.854366 0.803095
O O1 0.767006 0.500000 0.017740
O O2 0.861599 0.348668 0.679919
O O3 0.796423 0.325729 0.129986
O O4 0.750000 0.250000 0.000000
O O5 0.500000 0.740957 0.500000
O O6 0.482817 0.833488 0.277202
O O7 0.596162 0.856308 0.068077
O O8 0.564674 0.647864 0.051300
O O9 0.360866 0.500000 0.341134
O O10 0.403890 0.262014 0.307959
O O11 0.324434 0.264606 0.328335
O O12 0.583546 0.000000 0.683169
O O13 0.690985 0.000000 0.690520
#
# Coordination Sequence:
#
# PCOD9197524 Si02
#       5
#     8   8   8   8   8
#     4  10  22  40  62  88 113 146 193 242 287 338
#     4  10  20  35  60  88 116 147 190 236 282 333
#     4  10  23  37  53  85 125 156 185 227 288 348
#     4  11  21  36  60  87 116 152 192 233 281 339
#     4   9  19  37  60  84 111 145 192 236 278 336
#
# _framework density 21.258555999999999
#
# number of rings (size 3 to 8) (size 9 to 14) (size 15 to 20)
#    1.200    0.800    2.000    1.800    0.000    5.200 
#    0.000    3.000    0.000    0.000    0.000    0.000 
#    0.000    0.000    0.000    0.000    0.000    0.000 
#
# Total GULP energy -111559.196228 kJ/mol
# GULP energy per Si atom -5577.959811 kJ/mol
# Density = 2.121017 g / cm^3
# Si number density = 21.258556 Si / 1000 Ang^3
#
#
#
# Elastic Constant Matrix: (Units=GPa)
#
#
# Indices 1 2 3 4 5 6 
#
# 1 136.9259 98.7715 6.2864 0.0000 11.8406 0.0000
# 2 98.7715 172.7104 35.3706 0.0000 17.1756 0.0000
# 3 6.2864 35.3706 80.1165 0.0000 7.3494 0.0000
# 4 0.0000 0.0000 0.0000 13.2222 0.0000 -4.5725
# 5 11.8406 17.1756 7.3494 0.0000 32.9981 0.0000
# 6 0.0000 0.0000 0.0000 -4.5725 0.0000 9.7728
#
#
#
# Elastic Compliance Matrix: (Units=1/GPa)
#
#
# Indices 1 2 3 4 5 6 
#
# 1 0.012898 -0.007781 0.002528 0.000000 -0.001141 0.000000
# 2 -0.007781 0.011312 -0.004185 0.000000 -0.002164 0.000000
# 3 0.002528 -0.004185 0.014307 0.000000 -0.001915 0.000000
# 4 0.000000 0.000000 0.000000 0.090230 0.000000 0.042216
# 5 -0.001141 -0.002164 -0.001915 0.000000 0.032267 0.000000
# 6 0.000000 0.000000 0.000000 0.042216 0.000000 0.122077
#
#
# Mechanical properties :
#
#
# Convention : Reuss Voigt Hill
#
# Bulk Modulus (GPa) = 50.91347 74.51222 62.71285
# Shear Modulus (GPa) = 16.20672 27.82025 22.01349
#
# Velocity S-wave (km/s) = 2.76409 3.62147 3.22143
# Velocity P-wave (km/s) = 5.84710 7.25350 6.58794
#
# Compressibility (1/GPa) = 0.01964117
#
# Stress axis : x y z
#
# Youngs Moduli (GPa) = 77.52864 88.40144 69.89659
#
# Poissons Ratio (x) = 0.68782 -0.17668
# Poissons Ratio (y) = 0.60322 0.29253
# Poissons Ratio (z) = -0.19597 0.36997
#
# Static dielectric constant tensor:
#      x y z
#    x 1.747780 0.000000 -0.021310 
#    y 0.000000 1.762760 0.000000 
#    z -0.021310 0.000000 1.801850 
# 
# From -- ./inp_files/101846.got.cif
#   From: 2010.05.17/outbox.cif.g08.bks.cpg/sg12_51_cif.got.tgz:101846.got - 2010.06.03 13:09:07.
