data_PCOD9197024
_publ_section_title
;
Structure prediction by ZEFSAII (Michael W. Deem and Ramdas Pophale) SiO2 
 PCOD9197024
Probable space group: C 2/M
;
_chemical_formula_sum "Si O2"
_cell_formula_units_Z 64
_cell_length_a 7.934736
_cell_length_b 31.839750
_cell_length_c 13.146820
_cell_angle_alpha 90.000000
_cell_angle_beta 64.013177
_cell_angle_gamma 90.000000
_cell_volume 2985.600777
_symmetry_space_group_name_H-M "C 2/M"
_symmetry_group_IT_number 12
_symmetry_cell_setting 'monoclinic'
loop_
_space_group_symop_operation_xyz
x,y,z
-x,y,-z
-x,-y,-z
x,-y,z
1/2+x,1/2+y,z
1/2-x,1/2+y,-z
1/2-x,1/2-y,-z
1/2+x,1/2-y,z
loop_
_atom_site_type_symbol
_atom_site_label
_atom_site_fract_x
_atom_site_fract_y
_atom_site_fract_z
Si Si1 0.712443 0.676130 0.479726
Si Si2 0.177499 0.626029 0.086965
Si Si3 0.977372 0.125336 0.839077
Si Si4 0.282012 0.419559 0.526792
Si Si5 0.855675 0.045544 0.296429
Si Si6 0.991842 0.452315 0.768382
Si Si7 0.867801 0.207129 0.285079
Si Si8 0.989829 0.702857 0.763935
O O1 0.500000 0.674865 0.500000
O O2 0.773384 0.628268 0.487197
O O3 0.711390 0.705636 0.579134
O O4 0.836356 0.690672 0.352971
O O5 0.348614 0.625957 0.125608
O O6 0.057152 0.584039 0.138043
O O7 0.054051 0.667686 0.140240
O O8 0.285535 0.626079 0.952029
O O9 0.005681 0.083616 0.765509
O O10 0.002333 0.166338 0.763284
O O11 0.500000 0.420043 0.500000
O O12 0.264388 0.446997 0.430302
O O13 0.159953 0.436802 0.651782
O O14 0.690647 0.046245 0.257024
O O15 0.949292 0.000000 0.268526
O O16 0.022799 0.500000 0.797975
O O17 0.689725 0.202127 0.260967
O O18 0.973803 0.248699 0.219874
#
# Coordination Sequence:
#
# PCOD9197024 Si02
#       8
#     8   8   8   8   8   8   8   8
#     4  11  22  37  58  84 113 146 186 228 277 335
#     4   9  19  36  57  82 112 147 187 230 276 323
#     4   9  19  36  57  82 112 147 187 230 276 323
#     4  11  22  35  56  83 116 150 182 226 279 335
#     4  10  20  35  58  86 114 146 186 229 273 328
#     4  10  20  35  58  86 114 146 186 229 273 328
#     4  11  22  37  59  84 114 148 183 227 277 331
#     4  11  22  37  59  84 114 148 183 227 277 331
#
# _framework density 21.436221
#
# number of rings (size 3 to 8) (size 9 to 14) (size 15 to 20)
#    0.000    1.750    2.500    2.250    0.000    4.000 
#    0.000    2.500    0.000    6.000    0.000    1.750 
#    0.000    0.000    0.000    0.000    0.000    0.000 
#
# Total GULP energy -178844.900750 kJ/mol
# GULP energy per Si atom -5588.903148 kJ/mol
# Density = 2.138743 g / cm^3
# Si number density = 21.436221 Si / 1000 Ang^3
#
#
#
# Elastic Constant Matrix: (Units=GPa)
#
#
# Indices 1 2 3 4 5 6 
#
# 1 21.4105 16.7809 9.6208 0.0000 -5.8760 0.0000
# 2 16.7809 177.0746 69.5307 0.0000 -32.8408 0.0000
# 3 9.6208 69.5307 136.7053 0.0000 -39.3407 0.0000
# 4 0.0000 0.0000 0.0000 0.7419 0.0000 0.3461
# 5 -5.8760 -32.8408 -39.3407 0.0000 20.3535 0.0000
# 6 0.0000 0.0000 0.0000 0.3461 0.0000 19.1761
#
#
#
# Elastic Compliance Matrix: (Units=1/GPa)
#
#
# Indices 1 2 3 4 5 6 
#
# 1 0.052050 -0.003150 0.001804 0.000000 0.013432 0.000000
# 2 -0.003150 0.008289 -0.000917 0.000000 0.010692 0.000000
# 3 0.001804 -0.000917 0.016627 0.000000 0.031179 0.000000
# 4 0.000000 0.000000 0.000000 1.359361 0.000000 -0.024532
# 5 0.013432 0.010692 0.031179 0.000000 0.130526 0.000000
# 6 0.000000 0.000000 0.000000 -0.024532 0.000000 0.052591
#
#
# Mechanical properties :
#
#
# Convention : Reuss Voigt Hill
#
# Bulk Modulus (GPa) = 13.80438 58.56171 36.18304
# Shear Modulus (GPa) = 3.03376 24.00485 13.51931
#
# Velocity S-wave (km/s) = 1.19093 3.35001 2.51405
# Velocity P-wave (km/s) = 2.88874 6.50706 5.03421
#
# Compressibility (1/GPa) = 0.07244080
#
# Stress axis : x y z
#
# Youngs Moduli (GPa) = 19.21213 120.64117 60.14238
#
# Poissons Ratio (x) = 0.38003 -0.10853
# Poissons Ratio (y) = 0.06052 0.05517
# Poissons Ratio (z) = -0.03467 0.11067
#
# Static dielectric constant tensor:
#      x y z
#    x 1.787590 0.000000 0.005390 
#    y 0.000000 1.809870 0.000000 
#    z 0.005390 0.000000 1.733740 
# 
# From -- ./inp_files/201232.got.cif
#   From: 2010.05.17/outbox.cif.g08.bks.cpg/sg12_101_cif.got.tgz:201232.got - 2010.06.03 13:09:07.
