data_PCOD9197105
_publ_section_title
;
Structure prediction by ZEFSAII (Michael W. Deem and Ramdas Pophale) SiO2 
 PCOD9197105
Probable space group: C 2/M
;
_chemical_formula_sum "Si O2"
_cell_formula_units_Z 64
_cell_length_a 32.197441
_cell_length_b 11.718855
_cell_length_c 15.117864
_cell_angle_alpha 90.000000
_cell_angle_beta 142.712315
_cell_angle_gamma 90.000000
_cell_volume 3455.721383
_symmetry_space_group_name_H-M "C 2/M"
_symmetry_group_IT_number 12
_symmetry_cell_setting 'monoclinic'
loop_
_space_group_symop_operation_xyz
x,y,z
-x,y,-z
-x,-y,-z
x,-y,z
1/2+x,1/2+y,z
1/2-x,1/2+y,-z
1/2-x,1/2-y,-z
1/2+x,1/2-y,z
loop_
_atom_site_type_symbol
_atom_site_label
_atom_site_fract_x
_atom_site_fract_y
_atom_site_fract_z
Si Si1 0.176264 0.756075 0.280256
Si Si2 0.895995 0.873612 0.001039
Si Si3 0.556017 0.867149 0.164500
Si Si4 0.951903 0.132536 0.500990
Si Si5 0.219548 0.130470 0.056609
Si Si6 0.310630 0.625442 0.518183
Si Si7 0.544257 0.702605 0.302261
Si Si8 0.793144 0.870017 0.177441
O O1 0.136265 0.789032 0.124694
O O2 0.130956 0.660616 0.253168
O O3 0.253158 0.715390 0.391790
O O4 0.179040 0.854717 0.359306
O O5 0.854444 0.861767 0.022014
O O6 0.882284 0.000000 0.942810
O O7 0.976320 0.859469 0.152348
O O8 0.548483 0.813800 0.248362
O O9 0.544676 0.000000 0.151017
O O10 0.500000 0.817854 0.000000
O O11 0.963016 0.210962 0.605081
O O12 0.872723 0.136434 0.338610
O O13 0.000000 0.162199 0.500000
O O14 0.967828 0.000000 0.553144
O O15 0.258362 0.249317 0.148701
O O16 0.246300 0.000000 0.125803
O O17 0.213562 0.130776 0.940477
O O18 0.283970 0.500000 0.454439
O O19 0.383794 0.640432 0.595577
O O20 0.768843 0.000000 0.165138
#
# Coordination Sequence:
#
# PCOD9197105 Si02
#       8
#     8   8   8   8   8   8   8   8
#     4  10  21  36  55  83 112 148 190 235 288 353
#     4  11  21  35  56  84 115 149 191 241 295 353
#     4  10  20  39  60  81 114 156 198 239 292 357
#     4  10  20  35  58  87 120 156 191 241 303 357
#     4   9  19  35  56  82 115 153 194 244 301 360
#     4  10  21  36  55  80 113 147 183 237 292 341
#     4  11  22  37  59  88 116 148 198 244 293 352
#     4   9  18  35  58  83 112 152 200 246 299 358
#
# _framework density 18.520011
#
# number of rings (size 3 to 8) (size 9 to 14) (size 15 to 20)
#    0.000    2.000    1.250    2.625    1.750    2.000 
#    0.000    4.375    0.000    3.000    0.000    0.000 
#    0.000    0.000    0.000    0.000    0.000    0.000 
#
# Total GULP energy -178255.320554 kJ/mol
# GULP energy per Si atom -5570.478767 kJ/mol
# Density = 1.847786 g / cm^3
# Si number density = 18.520011 Si / 1000 Ang^3
#
#
#
# Elastic Constant Matrix: (Units=GPa)
#
#
# Indices 1 2 3 4 5 6 
#
# 1 93.1080 42.8496 32.2631 0.0000 11.8562 0.0000
# 2 42.8496 90.9502 20.8433 0.0000 -1.0330 0.0000
# 3 32.2631 20.8433 72.9627 0.0000 7.9630 0.0000
# 4 0.0000 0.0000 0.0000 15.7255 0.0000 1.7619
# 5 11.8562 -1.0330 7.9630 0.0000 23.2605 0.0000
# 6 0.0000 0.0000 0.0000 1.7619 0.0000 6.0635
#
#
#
# Elastic Compliance Matrix: (Units=1/GPa)
#
#
# Indices 1 2 3 4 5 6 
#
# 1 0.016298 -0.006724 -0.004516 0.000000 -0.007060 0.000000
# 2 -0.006724 0.014607 -0.001708 0.000000 0.004661 0.000000
# 3 -0.004516 -0.001708 0.016566 0.000000 -0.003446 0.000000
# 4 0.000000 0.000000 0.000000 0.065731 0.000000 -0.019100
# 5 -0.007060 0.004661 -0.003446 0.000000 0.047977 0.000000
# 6 0.000000 0.000000 0.000000 -0.019100 0.000000 0.170472
#
#
# Mechanical properties :
#
#
# Convention : Reuss Voigt Hill
#
# Bulk Modulus (GPa) = 46.34686 49.88144 48.11415
# Shear Modulus (GPa) = 13.70837 19.74753 16.72795
#
# Velocity S-wave (km/s) = 2.72360 3.26894 3.00865
# Velocity P-wave (km/s) = 5.91357 6.42185 6.17294
#
# Compressibility (1/GPa) = 0.02157644
#
# Stress axis : x y z
#
# Youngs Moduli (GPa) = 61.35535 68.45847 60.36320
#
# Poissons Ratio (x) = 0.46032 0.27257
# Poissons Ratio (y) = 0.41256 0.10312
# Poissons Ratio (z) = 0.27705 0.11695
#
# Static dielectric constant tensor:
#      x y z
#    x 1.635820 0.000000 -0.005590 
#    y 0.000000 1.673690 0.000000 
#    z -0.005590 0.000000 1.635880 
# 
# From -- ./inp_files/250870.got.cif
#   From: 2010.05.17/outbox.cif.g08.bks.cpg/sg12_126_cif.got.tgz:250870.got - 2010.06.03 13:09:07.
