data_PCOD9197560
_publ_section_title
;
Structure prediction by ZEFSAII (Michael W. Deem and Ramdas Pophale) SiO2 
 PCOD9197560
Probable space group: C 2/M
;
_chemical_formula_sum "Si O2"
_cell_formula_units_Z 36
_cell_length_a 14.788103
_cell_length_b 17.321896
_cell_length_c 6.927453
_cell_angle_alpha 90.000000
_cell_angle_beta 131.346539
_cell_angle_gamma 90.000000
_cell_volume 1332.183273
_symmetry_space_group_name_H-M "C 2/M"
_symmetry_group_IT_number 12
_symmetry_cell_setting 'monoclinic'
loop_
_space_group_symop_operation_xyz
x,y,z
-x,y,-z
-x,-y,-z
x,-y,z
1/2+x,1/2+y,z
1/2-x,1/2+y,-z
1/2-x,1/2-y,-z
1/2+x,1/2-y,z
loop_
_atom_site_type_symbol
_atom_site_label
_atom_site_fract_x
_atom_site_fract_y
_atom_site_fract_z
Si Si1 0.020329 0.589583 0.315251
Si Si2 0.757915 0.377664 0.881791
Si Si3 0.398784 0.266295 0.979981
Si Si4 0.223471 0.088893 0.290048
Si Si5 0.000000 0.848323 0.500000
O O1 0.049506 0.500000 0.389526
O O2 0.152382 0.615420 0.435108
O O3 0.000000 0.626267 0.500000
O O4 0.891854 0.589013 0.028514
O O5 0.622756 0.394937 0.614613
O O6 0.786211 0.288240 0.869760
O O7 0.744540 0.402833 0.087934
O O8 0.455117 0.296049 0.259538
O O9 0.500000 0.222825 0.000000
O O10 0.367172 0.341152 0.808298
O O11 0.189592 0.000000 0.286583
#
# Coordination Sequence:
#
# PCOD9197560 Si02
#       5
#     8   8   8   8   4
#     4   8  15  30  58  89 117 159 209 254 300 360
#     4  10  20  35  60  90 126 159 208 258 309 371
#     4  11  25  40  61  96 129 166 207 256 317 377
#     4   9  18  37  65  91 122 169 215 256 306 372
#     4  10  22  40  59  88 121 170 204 250 320 356
#
# _framework density 27.023309999999999
#
# number of rings (size 3 to 8) (size 9 to 14) (size 15 to 20)
#    0.000    2.444    0.000    4.667    7.778    1.333 
#    0.000   13.889    0.000    2.667    0.000    0.000 
#    0.000    0.000    0.000    0.000    0.000    0.000 
#
# Total GULP energy -100300.943519 kJ/mol
# GULP energy per Si atom -5572.274640 kJ/mol
# Density = 2.696180 g / cm^3
# Si number density = 27.023310 Si / 1000 Ang^3
#
#
#
# Elastic Constant Matrix: (Units=GPa)
#
#
# Indices 1 2 3 4 5 6 
#
# 1 65.5760 27.5239 41.7466 0.0000 21.2129 0.0000
# 2 27.5239 116.1353 29.8330 0.0000 20.4704 0.0000
# 3 41.7466 29.8330 178.7746 0.0000 33.5555 0.0000
# 4 0.0000 0.0000 0.0000 37.6856 0.0000 14.1803
# 5 21.2129 20.4704 33.5555 0.0000 74.1721 0.0000
# 6 0.0000 0.0000 0.0000 14.1803 0.0000 19.5731
#
#
#
# Elastic Compliance Matrix: (Units=1/GPa)
#
#
# Indices 1 2 3 4 5 6 
#
# 1 0.019876 -0.003247 -0.003498 0.000000 -0.003206 0.000000
# 2 -0.003247 0.009798 -0.000594 0.000000 -0.001507 0.000000
# 3 -0.003498 -0.000594 0.006875 0.000000 -0.001946 0.000000
# 4 0.000000 0.000000 0.000000 0.036480 0.000000 -0.026429
# 5 -0.003206 -0.001507 -0.001946 0.000000 0.015695 0.000000
# 6 0.000000 0.000000 0.000000 -0.026429 0.000000 0.070238
#
#
# Mechanical properties :
#
#
# Convention : Reuss Voigt Hill
#
# Bulk Modulus (GPa) = 45.72133 62.07699 53.89916
# Shear Modulus (GPa) = 27.63493 43.71166 35.67330
#
# Velocity S-wave (km/s) = 3.20133 4.02625 3.63725
# Velocity P-wave (km/s) = 5.53359 6.68100 6.13418
#
# Compressibility (1/GPa) = 0.02187163
#
# Stress axis : x y z
#
# Youngs Moduli (GPa) = 50.31150 102.05767 145.45903
#
# Poissons Ratio (x) = 0.33138 0.50879
# Poissons Ratio (y) = 0.16336 0.08641
# Poissons Ratio (z) = 0.17598 0.06063
#
# Static dielectric constant tensor:
#      x y z
#    x -2.267610 0.000000 4.819170 
#    y 0.000000 2.100270 0.000000 
#    z 4.819170 0.000000 -3.176900 
# 
# From -- ./inp_files/77116.got.cif
#   From: 2010.05.17/outbox.cif.g08.bks.cpg/sg12_39_cif.got.tgz:77116.got - 2010.06.03 13:09:07.
