data_PCOD9197614
_publ_section_title
;
Structure prediction by ZEFSAII (Michael W. Deem and Ramdas Pophale) SiO2 
 PCOD9197614
Probable space group: C 2/M
;
_chemical_formula_sum "Si O2"
_cell_formula_units_Z 56
_cell_length_a 23.920425
_cell_length_b 11.135661
_cell_length_c 21.077266
_cell_angle_alpha 90.000000
_cell_angle_beta 29.062665
_cell_angle_gamma 90.000000
_cell_volume 2727.257872
_symmetry_space_group_name_H-M "C 2/M"
_symmetry_group_IT_number 12
_symmetry_cell_setting 'monoclinic'
loop_
_space_group_symop_operation_xyz
x,y,z
-x,y,-z
-x,-y,-z
x,-y,z
1/2+x,1/2+y,z
1/2-x,1/2+y,-z
1/2-x,1/2-y,-z
1/2+x,1/2-y,z
loop_
_atom_site_type_symbol
_atom_site_label
_atom_site_fract_x
_atom_site_fract_y
_atom_site_fract_z
Si Si1 0.411234 0.354401 0.709484
Si Si2 0.328817 0.629963 0.393275
Si Si3 0.428818 0.137759 0.012439
Si Si4 0.566683 0.754938 0.131154
Si Si5 0.297732 0.866952 0.894219
Si Si6 0.813877 0.865245 0.676663
Si Si7 0.329005 0.280755 0.524019
O O1 0.390427 0.500000 0.741090
O O2 0.329371 0.253612 0.822724
O O3 0.405813 0.332751 0.639246
O O4 0.536994 0.314948 0.607650
O O5 0.376925 0.500000 0.332336
O O6 0.437701 0.718186 0.277555
O O7 0.284007 0.637160 0.510264
O O8 0.223688 0.657603 0.450255
O O9 0.300202 0.132773 0.167016
O O10 0.469967 0.000000 0.962041
O O11 0.500000 0.192739 0.000000
O O12 0.436550 0.204005 0.938430
O O13 0.622446 0.854084 0.122536
O O14 0.662166 0.649228 0.043678
O O15 0.316830 0.000000 0.846855
O O16 0.792725 0.794964 0.632915
O O17 0.840949 0.000000 0.627257
#
# Coordination Sequence:
#
# PCOD9197614 Si02
#       7
#     8   8   8   8   8   8   8
#     4  11  22  41  67  95 128 169 215 267 323 382
#     4  11  24  42  64  92 127 171 213 260 318 387
#     4  10  20  35  60  94 128 161 208 270 319 366
#     4  11  22  41  65  92 127 174 208 265 317 393
#     4  11  24  39  64  99 131 167 215 267 324 384
#     4  10  20  37  64  93 124 160 211 268 320 373
#     4  11  23  40  63  94 123 164 212 271 314 379
#
# _framework density 20.533445
#
# number of rings (size 3 to 8) (size 9 to 14) (size 15 to 20)
#    0.000    1.286    2.857    3.429    0.000    4.000 
#    0.000    3.571    0.000    3.429    0.000    0.000 
#    0.000    0.000    0.000    0.000    0.000    0.000 
#
# Total GULP energy -155913.055850 kJ/mol
# GULP energy per Si atom -5568.323423 kJ/mol
# Density = 2.048671 g / cm^3
# Si number density = 20.533445 Si / 1000 Ang^3
#
#
#
# Elastic Constant Matrix: (Units=GPa)
#
#
# Indices 1 2 3 4 5 6 
#
# 1 166.7745 40.4116 26.6648 0.0000 11.7104 0.0000
# 2 40.4116 82.4681 41.4244 0.0000 1.1309 0.0000
# 3 26.6648 41.4244 63.5923 0.0000 1.0992 0.0000
# 4 0.0000 0.0000 0.0000 10.6089 0.0000 -6.9183
# 5 11.7104 1.1309 1.0992 0.0000 36.3003 0.0000
# 6 0.0000 0.0000 0.0000 -6.9183 0.0000 8.7784
#
#
#
# Elastic Compliance Matrix: (Units=1/GPa)
#
#
# Indices 1 2 3 4 5 6 
#
# 1 0.007011 -0.002895 -0.001017 0.000000 -0.002141 0.000000
# 2 -0.002895 0.019221 -0.011318 0.000000 0.000678 0.000000
# 3 -0.001017 -0.011318 0.023525 0.000000 -0.000032 0.000000
# 4 0.000000 0.000000 0.000000 0.193929 0.000000 0.152837
# 5 -0.002141 0.000678 -0.000032 0.000000 0.028218 0.000000
# 6 0.000000 0.000000 0.000000 0.152837 0.000000 0.234368
#
#
# Mechanical properties :
#
#
# Convention : Reuss Voigt Hill
#
# Bulk Modulus (GPa) = 51.82474 58.87074 55.34774
# Shear Modulus (GPa) = 9.20534 24.75979 16.98257
#
# Velocity S-wave (km/s) = 2.11963 3.47627 2.87900
# Velocity P-wave (km/s) = 5.59325 6.69668 6.16968
#
# Compressibility (1/GPa) = 0.01929580
#
# Stress axis : x y z
#
# Youngs Moduli (GPa) = 142.64229 52.02749 42.50866
#
# Poissons Ratio (x) = 0.15064 0.04321
# Poissons Ratio (y) = 0.41301 0.48112
# Poissons Ratio (z) = 0.14500 0.58885
#
# Static dielectric constant tensor:
#      x y z
#    x 1.799300 0.000000 -0.033220 
#    y 0.000000 1.763150 0.000000 
#    z -0.033220 0.000000 1.818200 
# 
# From -- ./inp_files/325117.got.cif
#   From: 2010.05.17/outbox.cif.g08.bks.cpg/sg12_163_cif.got.tgz:325117.got - 2010.06.03 13:09:07.
