data_PCOD9197581
_publ_section_title
;
Structure prediction by ZEFSAII (Michael W. Deem and Ramdas Pophale) SiO2 
 PCOD9197581
Probable space group: C 2/M
;
_chemical_formula_sum "Si O2"
_cell_formula_units_Z 56
_cell_length_a 23.231858
_cell_length_b 14.169764
_cell_length_c 9.973266
_cell_angle_alpha 90.000000
_cell_angle_beta 55.770239
_cell_angle_gamma 90.000000
_cell_volume 2714.428408
_symmetry_space_group_name_H-M "C 2/M"
_symmetry_group_IT_number 12
_symmetry_cell_setting 'monoclinic'
loop_
_space_group_symop_operation_xyz
x,y,z
-x,y,-z
-x,-y,-z
x,-y,z
1/2+x,1/2+y,z
1/2-x,1/2+y,-z
1/2-x,1/2-y,-z
1/2+x,1/2-y,z
loop_
_atom_site_type_symbol
_atom_site_label
_atom_site_fract_x
_atom_site_fract_y
_atom_site_fract_z
Si Si1 0.771901 0.387554 0.301430
Si Si2 0.822982 0.721543 0.974800
Si Si3 0.173118 0.893816 0.863502
Si Si4 0.681246 0.886211 0.466753
Si Si5 0.392628 0.612104 0.526839
Si Si6 0.919615 0.702314 0.611960
Si Si7 0.049124 0.108598 0.825274
O O1 0.781901 0.500000 0.284245
O O2 0.804418 0.353296 0.399805
O O3 0.688579 0.372300 0.404294
O O4 0.805986 0.341486 0.126490
O O5 0.875164 0.673692 0.801023
O O6 0.750000 0.750000 0.000000
O O7 0.852907 0.818862 0.995604
O O8 0.249465 0.866842 0.711286
O O9 0.123887 0.894733 0.798578
O O10 0.175034 0.000000 0.916366
O O11 0.618923 0.838150 0.468840
O O12 0.672706 0.000000 0.480503
O O13 0.401616 0.500000 0.540224
O O14 0.411844 0.683827 0.618067
O O15 0.439839 0.643244 0.338462
O O16 0.000000 0.675303 0.500000
O O17 0.023655 0.000000 0.842270
O O18 0.000000 0.156469 0.000000
#
# Coordination Sequence:
#
# PCOD9197581 Si02
#       7
#     8   8   8   8   8   8   8
#     4  10  21  40  69  98 120 151 209 273 319 365
#     4  12  24  40  60  95 126 162 206 254 312 374
#     4  10  20  35  60  91 124 159 205 251 298 367
#     4  10  21  42  69  92 117 162 216 267 317 363
#     4  10  20  37  62  92 128 164 201 249 309 377
#     4  12  28  44  58  90 131 172 212 255 316 378
#     4   9  18  32  53  88 127 164 200 240 298 367
#
# _framework density 20.630495
#
# number of rings (size 3 to 8) (size 9 to 14) (size 15 to 20)
#    0.000    1.571    4.286    0.000    4.000    3.429 
#    0.000    0.714    0.000    1.714    0.000    0.000 
#    0.000    0.000    0.000    0.000    0.000    0.000 
#
# Total GULP energy -156371.447143 kJ/mol
# GULP energy per Si atom -5584.694541 kJ/mol
# Density = 2.058354 g / cm^3
# Si number density = 20.630495 Si / 1000 Ang^3
#
#
#
# Elastic Constant Matrix: (Units=GPa)
#
#
# Indices 1 2 3 4 5 6 
#
# 1 72.7635 12.3487 27.8546 0.0000 -11.3445 0.0000
# 2 12.3487 33.5205 27.7048 0.0000 4.6154 0.0000
# 3 27.8546 27.7048 130.4373 0.0000 -2.0572 0.0000
# 4 0.0000 0.0000 0.0000 16.2595 0.0000 10.8001
# 5 -11.3445 4.6154 -2.0572 0.0000 30.1671 0.0000
# 6 0.0000 0.0000 0.0000 10.8001 0.0000 15.1850
#
#
#
# Elastic Compliance Matrix: (Units=1/GPa)
#
#
# Indices 1 2 3 4 5 6 
#
# 1 0.016578 -0.005112 -0.002346 0.000000 0.006856 0.000000
# 2 -0.005112 0.038905 -0.007304 0.000000 -0.008373 0.000000
# 3 -0.002346 -0.007304 0.009733 0.000000 0.000899 0.000000
# 4 0.000000 0.000000 0.000000 0.116576 0.000000 -0.082913
# 5 0.006856 -0.008373 0.000899 0.000000 0.037069 0.000000
# 6 0.000000 0.000000 0.000000 -0.082913 0.000000 0.124825
#
#
# Mechanical properties :
#
#
# Convention : Reuss Voigt Hill
#
# Bulk Modulus (GPa) = 28.01755 41.39305 34.70530
# Shear Modulus (GPa) = 12.98336 23.57653 18.27995
#
# Velocity S-wave (km/s) = 2.51136 3.38420 2.97991
# Velocity P-wave (km/s) = 4.69248 5.94794 5.35712
#
# Compressibility (1/GPa) = 0.03569191
#
# Stress axis : x y z
#
# Youngs Moduli (GPa) = 60.32153 25.70355 102.74263
#
# Poissons Ratio (x) = 0.13140 0.24106
# Poissons Ratio (y) = 0.30836 0.75041
# Poissons Ratio (z) = 0.14153 0.18773
#
# Static dielectric constant tensor:
#      x y z
#    x 1.741080 0.000000 -0.000810 
#    y 0.000000 1.764330 0.000000 
#    z -0.000810 0.000000 1.770950 
# 
# From -- ./inp_files/96796.got.cif
#   From: 2010.05.17/outbox.cif.g08.bks.cpg/sg12_49_cif.got.tgz:96796.got - 2010.06.03 13:09:07.
