data_PCOD9197947
_publ_section_title
;
Structure prediction by ZEFSAII (Michael W. Deem and Ramdas Pophale) SiO2 
 PCOD9197947
Probable space group: C 2/M
;
_chemical_formula_sum "Si O2"
_cell_formula_units_Z 56
_cell_length_a 9.018752
_cell_length_b 18.009166
_cell_length_c 17.958974
_cell_angle_alpha 90.000000
_cell_angle_beta 108.370636
_cell_angle_gamma 90.000000
_cell_volume 2768.248114
_symmetry_space_group_name_H-M "C 2/M"
_symmetry_group_IT_number 12
_symmetry_cell_setting 'monoclinic'
loop_
_space_group_symop_operation_xyz
x,y,z
-x,y,-z
-x,-y,-z
x,-y,z
1/2+x,1/2+y,z
1/2-x,1/2+y,-z
1/2-x,1/2-y,-z
1/2+x,1/2-y,z
loop_
_atom_site_type_symbol
_atom_site_label
_atom_site_fract_x
_atom_site_fract_y
_atom_site_fract_z
Si Si1 0.532525 0.583312 0.349202
Si Si2 0.243103 0.329971 0.251531
Si Si3 0.408940 0.172784 0.269646
Si Si4 0.132622 0.917366 0.191311
Si Si5 0.891686 0.651842 0.920193
Si Si6 0.131548 0.410983 0.582850
Si Si7 0.565693 0.699582 0.929009
O O1 0.492469 0.500000 0.366301
O O2 0.377124 0.631304 0.321521
O O3 0.592345 0.581960 0.272652
O O4 0.691280 0.607041 0.416029
O O5 0.316243 0.249818 0.242927
O O6 0.192976 0.376212 0.168750
O O7 0.085253 0.318988 0.272066
O O8 0.309571 0.110736 0.209577
O O9 0.404471 0.142420 0.353367
O O10 0.020133 0.857279 0.138463
O O11 0.109740 0.000000 0.157790
O O12 0.748514 0.688357 0.943637
O O13 0.003218 0.717312 0.906420
O O14 0.000000 0.611215 0.000000
O O15 0.132789 0.500000 0.603969
O O16 0.000000 0.401850 0.500000
O O17 0.500000 0.680320 0.000000
#
# Coordination Sequence:
#
# PCOD9197947 Si02
#       7
#     8   8   8   8   8   8   8
#     4   9  19  37  59  84 114 151 192 232 287 349
#     4  12  22  37  61  86 118 155 195 249 294 340
#     4  11  22  35  59  89 115 148 198 241 285 347
#     4  10  20  36  55  77 109 149 191 236 288 346
#     4  11  22  35  55  84 111 151 199 247 300 340
#     4   9  19  40  66  90 121 156 189 230 284 350
#     4  11  21  34  55  78 109 144 193 247 294 351
#
# _framework density 20.229399999999998
#
# number of rings (size 3 to 8) (size 9 to 14) (size 15 to 20)
#    0.000    1.571    2.857    5.571    2.000    1.429 
#    0.000    3.571    0.000    3.429    0.000    0.000 
#    0.000    0.000    0.000    0.000    0.000    0.000 
#
# Total GULP energy -156085.299290 kJ/mol
# GULP energy per Si atom -5574.474975 kJ/mol
# Density = 2.018336 g / cm^3
# Si number density = 20.229400 Si / 1000 Ang^3
#
#
#
# Elastic Constant Matrix: (Units=GPa)
#
#
# Indices 1 2 3 4 5 6 
#
# 1 144.1410 14.3394 10.3354 0.0000 25.3656 0.0000
# 2 14.3394 34.5835 10.9877 0.0000 13.0237 0.0000
# 3 10.3354 10.9877 68.5162 0.0000 33.2486 0.0000
# 4 0.0000 0.0000 0.0000 16.1995 0.0000 4.1728
# 5 25.3656 13.0237 33.2486 0.0000 34.6624 0.0000
# 6 0.0000 0.0000 0.0000 4.1728 0.0000 19.5901
#
#
#
# Elastic Compliance Matrix: (Units=1/GPa)
#
#
# Indices 1 2 3 4 5 6 
#
# 1 0.008359 -0.001195 0.003145 0.000000 -0.008686 0.000000
# 2 -0.001195 0.033922 0.000937 0.000000 -0.012771 0.000000
# 3 0.003145 0.000937 0.028545 0.000000 -0.030035 0.000000
# 4 0.000000 0.000000 0.000000 0.065314 0.000000 -0.013912
# 5 -0.008686 -0.012771 -0.030035 0.000000 0.068814 0.000000
# 6 0.000000 0.000000 0.000000 -0.013912 0.000000 0.054009
#
#
# Mechanical properties :
#
#
# Convention : Reuss Voigt Hill
#
# Bulk Modulus (GPa) = 13.05426 35.39619 24.22522
# Shear Modulus (GPa) = 17.93900 28.19561 23.06731
#
# Velocity S-wave (km/s) = 2.98111 3.73740 3.38048
# Velocity P-wave (km/s) = 4.27978 6.01329 5.21901
#
# Compressibility (1/GPa) = 0.07660335
#
# Stress axis : x y z
#
# Youngs Moduli (GPa) = 119.62538 29.47920 35.03214
#
# Poissons Ratio (x) = 0.03521 -0.11019
# Poissons Ratio (y) = 0.14290 -0.03284
# Poissons Ratio (z) = -0.37628 -0.02763
#
# Static dielectric constant tensor:
#      x y z
#    x 1.726510 0.000000 0.022430 
#    y 0.000000 1.722110 0.000000 
#    z 0.022430 0.000000 1.798850 
# 
# From -- ./inp_files/257194.got.cif
#   From: 2010.05.17/outbox.cif.g08.bks.cpg/sg12_129_cif.got.tgz:257194.got - 2010.06.03 13:09:07.
