data_PCOD9197329
_publ_section_title
;
Structure prediction by ZEFSAII (Michael W. Deem and Ramdas Pophale) SiO2 
 PCOD9197329
Probable space group: C 2/M
;
_chemical_formula_sum "Si O2"
_cell_formula_units_Z 48
_cell_length_a 16.458605
_cell_length_b 17.576766
_cell_length_c 8.464749
_cell_angle_alpha 90.000000
_cell_angle_beta 87.061253
_cell_angle_gamma 90.000000
_cell_volume 2445.538859
_symmetry_space_group_name_H-M "C 2/M"
_symmetry_group_IT_number 12
_symmetry_cell_setting 'monoclinic'
loop_
_space_group_symop_operation_xyz
x,y,z
-x,y,-z
-x,-y,-z
x,-y,z
1/2+x,1/2+y,z
1/2-x,1/2+y,-z
1/2-x,1/2-y,-z
1/2+x,1/2-y,z
loop_
_atom_site_type_symbol
_atom_site_label
_atom_site_fract_x
_atom_site_fract_y
_atom_site_fract_z
Si Si1 0.162082 0.415734 0.614105
Si Si2 0.500000 0.135275 0.500000
Si Si3 0.588613 0.210129 0.195423
Si Si4 0.000000 0.836995 0.000000
Si Si5 0.339210 0.411733 0.145280
Si Si6 0.242307 0.691344 0.360868
Si Si7 0.170251 0.409877 0.966920
O O1 0.195318 0.500000 0.625917
O O2 0.067028 0.413309 0.584259
O O3 0.200888 0.379047 0.455774
O O4 0.173979 0.379761 0.786116
O O5 0.542782 0.184641 0.359178
O O6 0.540308 0.279245 0.122841
O O7 0.681024 0.227813 0.240334
O O8 0.605547 0.140081 0.072671
O O9 0.925442 0.889579 0.063118
O O10 0.340094 0.500000 0.200696
O O11 0.321021 0.345483 0.274717
O O12 0.259888 0.405548 0.037958
O O13 0.250000 0.750000 0.500000
O O14 0.147408 0.500000 0.968494
#
# Coordination Sequence:
#
# PCOD9197329 Si02
#       7
#     8   4   8   4   8   8   8
#     4  10  20  35  59  87 119 157 196 243 297 364
#     4  10  21  36  54  86 131 154 194 238 313 366
#     4  10  23  37  57  89 121 159 200 247 306 358
#     4  12  25  38  65  88 126 160 206 256 307 356
#     4  10  23  43  64  88 120 163 208 252 299 358
#     4  10  23  38  64  87 119 156 201 250 298 361
#     4   9  20  39  63  88 119 158 208 250 296 362
#
# _framework density 19.627576000000001
#
# number of rings (size 3 to 8) (size 9 to 14) (size 15 to 20)
#    0.000    2.000    0.000    2.000    9.333    6.000 
#    0.000    2.083    0.000    1.000    0.000    0.000 
#    0.000    0.000    0.000    0.000    0.000    0.000 
#
# Total GULP energy -133734.618843 kJ/mol
# GULP energy per Si atom -5572.275785 kJ/mol
# Density = 1.958290 g / cm^3
# Si number density = 19.627576 Si / 1000 Ang^3
#
#
#
# Elastic Constant Matrix: (Units=GPa)
#
#
# Indices 1 2 3 4 5 6 
#
# 1 70.3910 23.0366 15.8466 0.0000 -18.4356 0.0000
# 2 23.0366 48.9942 6.2076 0.0000 5.4258 0.0000
# 3 15.8466 6.2076 54.2149 0.0000 3.4764 0.0000
# 4 0.0000 0.0000 0.0000 27.8420 0.0000 -2.7265
# 5 -18.4356 5.4258 3.4764 0.0000 26.8077 0.0000
# 6 0.0000 0.0000 0.0000 -2.7265 0.0000 26.7984
#
#
#
# Elastic Compliance Matrix: (Units=1/GPa)
#
#
# Indices 1 2 3 4 5 6 
#
# 1 0.026024 -0.013691 -0.007426 0.000000 0.021630 0.000000
# 2 -0.013691 0.028329 0.001744 0.000000 -0.015375 0.000000
# 3 -0.007426 0.001744 0.020940 0.000000 -0.008175 0.000000
# 4 0.000000 0.000000 0.000000 0.036278 0.000000 0.003691
# 5 0.021630 -0.015375 -0.008175 0.000000 0.056350 0.000000
# 6 0.000000 0.000000 0.000000 0.003691 0.000000 0.037691
#
#
# Mechanical properties :
#
#
# Convention : Reuss Voigt Hill
#
# Bulk Modulus (GPa) = 27.36134 29.30908 28.33521
# Shear Modulus (GPa) = 19.49012 24.85691 22.17351
#
# Velocity S-wave (km/s) = 3.15460 3.56255 3.36477
# Velocity P-wave (km/s) = 5.21912 5.64689 5.43721
#
# Compressibility (1/GPa) = 0.03654791
#
# Stress axis : x y z
#
# Youngs Moduli (GPa) = 38.42676 35.29897 47.75504
#
# Poissons Ratio (x) = 0.48326 0.35462
# Poissons Ratio (y) = 0.52608 -0.08328
# Poissons Ratio (z) = 0.28535 -0.06155
#
# Static dielectric constant tensor:
#      x y z
#    x 1.740920 0.000000 -0.035780 
#    y 0.000000 1.628350 0.000000 
#    z -0.035780 0.000000 1.767340 
# 
# From -- ./inp_files/73671.got.cif
#   From: 2010.05.17/outbox.cif.g08.bks.cpg/sg12_37_cif.got.tgz:73671.got - 2010.06.03 13:09:07.
