data_PCOD9197762
_publ_section_title
;
Structure prediction by ZEFSAII (Michael W. Deem and Ramdas Pophale) SiO2 
 PCOD9197762
Probable space group: C 2/M
;
_chemical_formula_sum "Si O2"
_cell_formula_units_Z 56
_cell_length_a 17.133107
_cell_length_b 26.080323
_cell_length_c 8.912799
_cell_angle_alpha 90.000000
_cell_angle_beta 137.470986
_cell_angle_gamma 90.000000
_cell_volume 2692.070522
_symmetry_space_group_name_H-M "C 2/M"
_symmetry_group_IT_number 12
_symmetry_cell_setting 'monoclinic'
loop_
_space_group_symop_operation_xyz
x,y,z
-x,y,-z
-x,-y,-z
x,-y,z
1/2+x,1/2+y,z
1/2-x,1/2+y,-z
1/2-x,1/2-y,-z
1/2+x,1/2-y,z
loop_
_atom_site_type_symbol
_atom_site_label
_atom_site_fract_x
_atom_site_fract_y
_atom_site_fract_z
Si Si1 0.996465 0.441880 0.656684
Si Si2 0.296671 0.900019 0.516879
Si Si3 0.376607 0.645955 0.251832
Si Si4 0.378021 0.331578 0.907553
Si Si5 0.094558 0.699755 0.263424
Si Si6 0.786474 0.438565 0.840958
Si Si7 0.703785 0.264710 0.647777
O O1 0.038012 0.500000 0.689652
O O2 0.864083 0.442726 0.520148
O O3 0.000000 0.414144 0.500000
O O4 0.086119 0.426202 0.913677
O O5 0.186630 0.875356 0.280569
O O6 0.397123 0.856092 0.654913
O O7 0.276087 0.919637 0.654871
O O8 0.500000 0.637872 0.500000
O O9 0.297064 0.597683 0.180612
O O10 0.327119 0.698733 0.257871
O O11 0.393668 0.650844 0.099333
O O12 0.289790 0.283232 0.796700
O O13 0.500000 0.319309 0.000000
O O14 0.219684 0.702649 0.359806
O O15 0.096510 0.741779 0.399325
O O16 0.000000 0.704537 0.000000
O O17 0.764453 0.500000 0.816610
#
# Coordination Sequence:
#
# PCOD9197762 Si02
#       7
#     8   8   8   8   8   8   8
#     4  10  21  38  63  95 132 168 210 269 324 378
#     4  11  21  39  64  98 125 173 215 262 323 379
#     4  12  26  44  66  96 127 168 219 266 328 387
#     4  11  25  45  68  92 132 172 213 266 317 388
#     4  10  20  35  63  94 130 165 207 258 311 381
#     4  11  23  42  67  95 130 169 216 271 326 384
#     4  10  23  40  63  94 126 172 211 258 316 378
#
# _framework density 20.801832000000001
#
# number of rings (size 3 to 8) (size 9 to 14) (size 15 to 20)
#    0.000    1.286    1.429    4.286    6.000    1.429 
#    0.000    2.143    0.000    3.000    0.000    0.000 
#    0.000    0.000    0.000    0.000    0.000    0.000 
#
# Total GULP energy -156195.892343 kJ/mol
# GULP energy per Si atom -5578.424727 kJ/mol
# Density = 2.075449 g / cm^3
# Si number density = 20.801832 Si / 1000 Ang^3
#
#
#
# Elastic Constant Matrix: (Units=GPa)
#
#
# Indices 1 2 3 4 5 6 
#
# 1 71.8756 28.7601 23.3759 0.0000 -16.7080 0.0000
# 2 28.7601 101.4847 47.1727 0.0000 -0.7291 0.0000
# 3 23.3759 47.1727 131.4469 0.0000 -10.0645 0.0000
# 4 0.0000 0.0000 0.0000 2.5351 0.0000 0.5673
# 5 -16.7080 -0.7291 -10.0645 0.0000 39.8992 0.0000
# 6 0.0000 0.0000 0.0000 0.5673 0.0000 18.3875
#
#
#
# Elastic Compliance Matrix: (Units=1/GPa)
#
#
# Indices 1 2 3 4 5 6 
#
# 1 0.017679 -0.004500 -0.000987 0.000000 0.007072 0.000000
# 2 -0.004500 0.013002 -0.004070 0.000000 -0.002674 0.000000
# 3 -0.000987 -0.004070 0.009388 0.000000 0.001880 0.000000
# 4 0.000000 0.000000 0.000000 0.397206 0.000000 -0.012256
# 5 0.007072 -0.002674 0.001880 0.000000 0.028450 0.000000
# 6 0.000000 0.000000 0.000000 -0.012256 0.000000 0.054763
#
#
# Mechanical properties :
#
#
# Convention : Reuss Voigt Hill
#
# Bulk Modulus (GPa) = 47.72742 55.93606 51.83174
# Shear Modulus (GPa) = 9.14767 25.86425 17.50596
#
# Velocity S-wave (km/s) = 2.09930 3.52996 2.90411
# Velocity P-wave (km/s) = 5.37306 6.60019 6.01798
#
# Compressibility (1/GPa) = 0.02095232
#
# Stress axis : x y z
#
# Youngs Moduli (GPa) = 56.56546 76.91200 106.51939
#
# Poissons Ratio (x) = 0.34612 0.10518
# Poissons Ratio (y) = 0.25456 0.43358
# Poissons Ratio (z) = 0.05585 0.31307
#
# Static dielectric constant tensor:
#      x y z
#    x 1.752710 0.000000 -0.024400 
#    y 0.000000 1.858560 0.000000 
#    z -0.024400 0.000000 1.799060 
# 
# From -- ./inp_files/80093.got.cif
#   From: 2010.05.17/outbox.cif.g08.bks.cpg/sg12_41_cif.got.tgz:80093.got - 2010.06.03 13:09:07.
