data_PCOD9197186
_publ_section_title
;
Structure prediction by ZEFSAII (Michael W. Deem and Ramdas Pophale) SiO2 
 PCOD9197186
Probable space group: C 2/M
;
_chemical_formula_sum "Si O2"
_cell_formula_units_Z 56
_cell_length_a 20.784134
_cell_length_b 8.796446
_cell_length_c 17.781857
_cell_angle_alpha 90.000000
_cell_angle_beta 108.365606
_cell_angle_gamma 90.000000
_cell_volume 3085.406518
_symmetry_space_group_name_H-M "C 2/M"
_symmetry_group_IT_number 12
_symmetry_cell_setting 'monoclinic'
loop_
_space_group_symop_operation_xyz
x,y,z
-x,y,-z
-x,-y,-z
x,-y,z
1/2+x,1/2+y,z
1/2-x,1/2+y,-z
1/2-x,1/2-y,-z
1/2+x,1/2-y,z
loop_
_atom_site_type_symbol
_atom_site_label
_atom_site_fract_x
_atom_site_fract_y
_atom_site_fract_z
Si Si1 0.182560 0.819299 0.669665
Si Si2 0.303821 0.181231 0.914450
Si Si3 0.841652 0.318462 0.096761
Si Si4 0.826447 0.819579 0.766072
Si Si5 0.565593 0.681884 0.746844
Si Si6 0.176636 0.818816 0.492632
Si Si7 0.418109 0.818591 0.668866
O O1 0.250015 0.727826 0.715151
O O2 0.121359 0.782736 0.703217
O O3 0.163528 0.791631 0.576008
O O4 0.197899 0.000000 0.683189
O O5 0.227627 0.245057 0.896904
O O6 0.336525 0.259707 0.854403
O O7 0.300205 0.000000 0.901678
O O8 0.341413 0.211350 0.007262
O O9 0.839065 0.500000 0.107037
O O10 0.903871 0.247558 0.164696
O O11 0.876718 0.740813 0.725915
O O12 0.834145 0.000000 0.765058
O O13 0.558915 0.500000 0.749075
O O14 0.493986 0.755320 0.700983
O O15 0.250000 0.750000 0.500000
O O16 0.121095 0.744442 0.418440
O O17 0.178057 0.000000 0.480255
O O18 0.417780 0.000000 0.667759
#
# Coordination Sequence:
#
# PCOD9197186 Si02
#       7
#     8   8   8   8   8   8   8
#     4  10  22  39  63  90 122 160 199 248 305 360
#     4  10  20  35  58  89 125 160 201 250 301 354
#     4  10  20  35  58  90 124 161 202 248 300 356
#     4  12  23  37  62  92 121 156 207 255 300 362
#     4  11  23  41  63  89 124 163 203 250 308 365
#     4  11  22  39  63  92 123 158 203 252 304 358
#     4  12  26  43  62  86 124 164 203 252 310 367
#
# _framework density 18.149958000000002
#
# number of rings (size 3 to 8) (size 9 to 14) (size 15 to 20)
#    0.000    1.143    2.857    4.286    0.000    3.429 
#    0.000    3.571    0.000    4.286    0.000    0.000 
#    0.000    0.000    0.000    0.000    0.000    0.000 
#
# Total GULP energy -156570.213771 kJ/mol
# GULP energy per Si atom -5591.793349 kJ/mol
# Density = 1.810865 g / cm^3
# Si number density = 18.149958 Si / 1000 Ang^3
#
#
#
# Elastic Constant Matrix: (Units=GPa)
#
#
# Indices 1 2 3 4 5 6 
#
# 1 93.5663 58.9251 57.9270 0.0000 11.6553 0.0000
# 2 58.9251 113.1498 66.7858 0.0000 5.0971 0.0000
# 3 57.9270 66.7858 129.1343 0.0000 8.5331 0.0000
# 4 0.0000 0.0000 0.0000 36.1246 0.0000 2.2991
# 5 11.6553 5.0971 8.5331 0.0000 30.3133 0.0000
# 6 0.0000 0.0000 0.0000 2.2991 0.0000 32.1373
#
#
#
# Elastic Compliance Matrix: (Units=1/GPa)
#
#
# Indices 1 2 3 4 5 6 
#
# 1 0.018189 -0.006662 -0.004408 0.000000 -0.004633 0.000000
# 2 -0.006662 0.015164 -0.004947 0.000000 0.001404 0.000000
# 3 -0.004408 -0.004947 0.012342 0.000000 -0.000948 0.000000
# 4 0.000000 0.000000 0.000000 0.027809 0.000000 -0.001989
# 5 -0.004633 0.001404 -0.000948 0.000000 0.034801 0.000000
# 6 0.000000 0.000000 0.000000 -0.001989 0.000000 0.031259
#
#
# Mechanical properties :
#
#
# Convention : Reuss Voigt Hill
#
# Bulk Modulus (GPa) = 73.19580 78.12512 75.66046
# Shear Modulus (GPa) = 28.38496 29.86254 29.12375
#
# Velocity S-wave (km/s) = 3.95892 4.06066 4.01011
# Velocity P-wave (km/s) = 7.83028 8.06988 7.95098
#
# Compressibility (1/GPa) = 0.01366199
#
# Stress axis : x y z
#
# Youngs Moduli (GPa) = 54.97840 65.94670 81.02401
#
# Poissons Ratio (x) = 0.43934 0.35712
# Poissons Ratio (y) = 0.36627 0.40081
# Poissons Ratio (z) = 0.24232 0.32622
#
# Static dielectric constant tensor:
#      x y z
#    x 1.583890 0.000000 -0.012110 
#    y 0.000000 1.605610 0.000000 
#    z -0.012110 0.000000 1.624910 
# 
# From -- ./inp_files/275524.got.cif
#   From: 2010.05.17/outbox.cif.g08.bks.cpg/sg12_138_cif.got.tgz:275524.got - 2010.06.03 13:09:07.
