data_PCOD9197691
_publ_section_title
;
Structure prediction by ZEFSAII (Michael W. Deem and Ramdas Pophale) SiO2 
 PCOD9197691
Probable space group: C 2/M
;
_chemical_formula_sum "Si O2"
_cell_formula_units_Z 32
_cell_length_a 12.430570
_cell_length_b 30.453960
_cell_length_c 5.279558
_cell_angle_alpha 90.000000
_cell_angle_beta 53.029119
_cell_angle_gamma 90.000000
_cell_volume 1596.787902
_symmetry_space_group_name_H-M "C 2/M"
_symmetry_group_IT_number 12
_symmetry_cell_setting 'monoclinic'
loop_
_space_group_symop_operation_xyz
x,y,z
-x,y,-z
-x,-y,-z
x,-y,z
1/2+x,1/2+y,z
1/2-x,1/2+y,-z
1/2-x,1/2-y,-z
1/2+x,1/2-y,z
loop_
_atom_site_type_symbol
_atom_site_label
_atom_site_fract_x
_atom_site_fract_y
_atom_site_fract_z
Si Si1 0.409462 0.050731 0.378144
Si Si2 0.349209 0.216117 0.225720
Si Si3 0.729961 0.633213 0.585210
Si Si4 0.638815 0.672721 0.221779
O O1 0.500000 0.056540 0.500000
O O2 0.291011 0.086029 0.550292
O O3 0.363489 0.000000 0.436315
O O4 0.500000 0.058442 0.000000
O O5 0.250000 0.250000 0.500000
O O6 0.347753 0.169822 0.379785
O O7 0.270843 0.202690 0.079259
O O8 0.500000 0.233124 0.000000
O O9 0.654977 0.636349 0.421836
O O10 0.643575 0.651796 0.940083
O O11 0.500000 0.696043 0.500000
#
# Coordination Sequence:
#
# PCOD9197691 Si02
#       4
#     8   8   8   8
#     4  10  20  35  61  95 129 160 202 259 316 372
#     4  10  25  41  64  94 122 167 208 265 309 373
#     4  10  22  38  64  86 127 158 209 249 320 362
#     4  10  23  41  63  86 122 166 211 253 308 373
#
# _framework density 20.040230999999999
#
# number of rings (size 3 to 8) (size 9 to 14) (size 15 to 20)
#    1.500    0.500    0.000    3.000    7.000    1.000 
#    0.000    0.000    0.000    4.500    0.000    0.000 
#    0.000    0.000    0.000    0.000    0.000    0.000 
#
# Total GULP energy -89165.334844 kJ/mol
# GULP energy per Si atom -5572.833428 kJ/mol
# Density = 1.999462 g / cm^3
# Si number density = 20.040231 Si / 1000 Ang^3
#
#
#
# Elastic Constant Matrix: (Units=GPa)
#
#
# Indices 1 2 3 4 5 6 
#
# 1 80.8692 26.4458 43.7416 0.0000 -5.5942 0.0000
# 2 26.4458 70.2310 20.8510 0.0000 -2.3191 0.0000
# 3 43.7416 20.8510 105.0954 0.0000 6.4448 0.0000
# 4 0.0000 0.0000 0.0000 -21.6408 0.0000 -23.2526
# 5 -5.5942 -2.3191 6.4448 0.0000 51.0155 0.0000
# 6 0.0000 0.0000 0.0000 -23.2526 0.0000 6.2536
#
#
#
# Elastic Compliance Matrix: (Units=1/GPa)
#
#
# Indices 1 2 3 4 5 6 
#
# 1 0.017597 -0.004592 -0.006569 0.000000 0.002551 0.000000
# 2 -0.004592 0.016387 -0.001365 0.000000 0.000414 0.000000
# 3 -0.006569 -0.001365 0.012666 0.000000 -0.002383 0.000000
# 4 0.000000 0.000000 0.000000 -0.009251 0.000000 -0.034397
# 5 0.002551 0.000414 -0.002383 0.000000 0.020201 0.000000
# 6 0.000000 0.000000 0.000000 -0.034397 0.000000 0.032012
#
#
# Mechanical properties :
#
#
# Convention : Reuss Voigt Hill
#
# Bulk Modulus (GPa) = 46.30234 48.69693 47.49963
# Shear Modulus (GPa) = 41.02888 18.13616 29.58252
#
# Velocity S-wave (km/s) = 4.52965 3.01156 3.84625
# Velocity P-wave (km/s) = 7.10716 6.03697 6.59382
#
# Compressibility (1/GPa) = 0.02159718
#
# Stress axis : x y z
#
# Youngs Moduli (GPa) = 56.82773 61.02484 78.94867
#
# Poissons Ratio (x) = 0.28020 0.51865
# Poissons Ratio (y) = 0.26093 0.10780
# Poissons Ratio (z) = 0.37333 0.08333
#
# Static dielectric constant tensor:
#      x y z
#    x 1.753160 0.000000 -0.004530 
#    y 0.000000 1.694020 0.000000 
#    z -0.004530 0.000000 1.727080 
# 
# From -- ./inp_files/11836.got.cif
#   From: 2010.05.17/outbox.cif.g08.bks.cpg/sg12_6_cif.got.tgz:11836.got - 2010.06.03 13:09:07.
