data_PCOD9197694
_publ_section_title
;
Structure prediction by ZEFSAII (Michael W. Deem and Ramdas Pophale) SiO2 
 PCOD9197694
Probable space group: C 2/M
;
_chemical_formula_sum "Si O2"
_cell_formula_units_Z 56
_cell_length_a 10.515605
_cell_length_b 18.361243
_cell_length_c 12.133180
_cell_angle_alpha 90.000000
_cell_angle_beta 78.712518
_cell_angle_gamma 90.000000
_cell_volume 2297.356074
_symmetry_space_group_name_H-M "C 2/M"
_symmetry_group_IT_number 12
_symmetry_cell_setting 'monoclinic'
loop_
_space_group_symop_operation_xyz
x,y,z
-x,y,-z
-x,-y,-z
x,-y,z
1/2+x,1/2+y,z
1/2-x,1/2+y,-z
1/2-x,1/2-y,-z
1/2+x,1/2-y,z
loop_
_atom_site_type_symbol
_atom_site_label
_atom_site_fract_x
_atom_site_fract_y
_atom_site_fract_z
Si Si1 0.032765 0.584240 0.255338
Si Si2 0.766245 0.583795 0.608020
Si Si3 0.731300 0.583924 0.370387
Si Si4 0.011788 0.760587 0.125872
Si Si5 0.184569 0.583040 0.023369
Si Si6 0.749827 0.309943 0.187589
Si Si7 0.578042 0.421142 0.843480
O O1 0.079264 0.500000 0.244095
O O2 0.115592 0.617901 0.341823
O O3 0.067841 0.607607 0.125074
O O4 0.883063 0.582693 0.309990
O O5 0.805455 0.500000 0.572681
O O6 0.725374 0.612607 0.496272
O O7 0.648806 0.581491 0.713566
O O8 0.681387 0.500000 0.369486
O O9 0.678845 0.642806 0.293560
O O10 0.883085 0.728509 0.204910
O O11 0.002301 0.848641 0.130068
O O12 0.152095 0.749547 0.156246
O O13 0.000000 0.741409 0.000000
O O14 0.161123 0.500000 0.988045
O O15 0.308510 0.581824 0.084040
O O16 0.211386 0.635489 0.917575
O O17 0.510211 0.500000 0.865019
#
# Coordination Sequence:
#
# PCOD9197694 Si02
#       7
#     8   8   8   8   8   8   8
#     4   8  15  28  53  91 132 171 207 254 315 381
#     4   8  15  32  60  95 132 167 207 259 322 383
#     4  10  20  35  61  98 133 168 212 266 319 374
#     4  12  27  46  65  92 126 174 218 263 322 388
#     4   9  18  35  61  95 129 164 209 265 322 374
#     4  12  27  43  64  93 132 174 215 265 321 386
#     4   9  19  38  67  96 123 159 210 266 319 380
#
# _framework density 24.375848000000001
#
# number of rings (size 3 to 8) (size 9 to 14) (size 15 to 20)
#    0.000    2.286    1.429    3.000    2.000    4.286 
#    0.000    3.571    0.000    3.429    0.000    0.000 
#    0.000    0.000    0.000    0.000    0.000    0.000 
#
# Total GULP energy -156601.728717 kJ/mol
# GULP energy per Si atom -5592.918883 kJ/mol
# Density = 2.432037 g / cm^3
# Si number density = 24.375848 Si / 1000 Ang^3
#
#
#
# Elastic Constant Matrix: (Units=GPa)
#
#
# Indices 1 2 3 4 5 6 
#
# 1 65.4679 12.9189 9.8056 0.0000 8.7174 0.0000
# 2 12.9189 91.6179 32.3957 0.0000 4.4276 0.0000
# 3 9.8056 32.3957 142.4388 0.0000 17.0057 0.0000
# 4 0.0000 0.0000 0.0000 23.2645 0.0000 3.9608
# 5 8.7174 4.4276 17.0057 0.0000 23.2423 0.0000
# 6 0.0000 0.0000 0.0000 3.9608 0.0000 24.0809
#
#
#
# Elastic Compliance Matrix: (Units=1/GPa)
#
#
# Indices 1 2 3 4 5 6 
#
# 1 0.016447 -0.002048 0.000026 0.000000 -0.005797 0.000000
# 2 -0.002048 0.012127 -0.002666 0.000000 0.000409 0.000000
# 3 0.000026 -0.002666 0.008290 0.000000 -0.005567 0.000000
# 4 0.000000 0.000000 0.000000 0.044222 0.000000 -0.007274
# 5 -0.005797 0.000409 -0.005567 0.000000 0.049195 0.000000
# 6 0.000000 0.000000 0.000000 -0.007274 0.000000 0.042723
#
#
# Mechanical properties :
#
#
# Convention : Reuss Voigt Hill
#
# Bulk Modulus (GPa) = 36.38094 45.52945 40.95519
# Shear Modulus (GPa) = 26.10394 30.41117 28.25755
#
# Velocity S-wave (km/s) = 3.27600 3.53596 3.40846
# Velocity P-wave (km/s) = 5.40990 5.94889 5.68579
#
# Compressibility (1/GPa) = 0.02748692
#
# Stress axis : x y z
#
# Youngs Moduli (GPa) = 60.80166 82.46358 120.63085
#
# Poissons Ratio (x) = 0.16889 -0.00310
# Poissons Ratio (y) = 0.12453 0.32158
# Poissons Ratio (z) = -0.00156 0.21983
#
# Static dielectric constant tensor:
#      x y z
#    x 1.969910 0.000000 0.036520 
#    y 0.000000 2.014410 0.000000 
#    z 0.036520 0.000000 1.939500 
# 
# From -- ./inp_files/133210.got.cif
#   From: 2010.05.17/outbox.cif.g08.bks.cpg/sg12_67_cif.got.tgz:133210.got - 2010.06.03 13:09:07.
