data_PCOD9197397
_publ_section_title
;
Structure prediction by ZEFSAII (Michael W. Deem and Ramdas Pophale) SiO2 
 PCOD9197397
Probable space group: C 2/M
;
_chemical_formula_sum "Si O2"
_cell_formula_units_Z 48
_cell_length_a 12.346842
_cell_length_b 21.756634
_cell_length_c 12.843503
_cell_angle_alpha 90.000000
_cell_angle_beta 135.838691
_cell_angle_gamma 90.000000
_cell_volume 2403.615220
_symmetry_space_group_name_H-M "C 2/M"
_symmetry_group_IT_number 12
_symmetry_cell_setting 'monoclinic'
loop_
_space_group_symop_operation_xyz
x,y,z
-x,y,-z
-x,-y,-z
x,-y,z
1/2+x,1/2+y,z
1/2-x,1/2+y,-z
1/2-x,1/2-y,-z
1/2+x,1/2-y,z
loop_
_atom_site_type_symbol
_atom_site_label
_atom_site_fract_x
_atom_site_fract_y
_atom_site_fract_z
Si Si1 0.376532 0.070276 0.508463
Si Si2 0.338514 0.684456 0.576357
Si Si3 0.762008 0.162399 0.299455
Si Si4 0.180692 0.568930 0.084808
Si Si5 0.551631 0.870914 0.805239
Si Si6 0.847656 0.245703 0.173495
O O1 0.500000 0.078417 0.500000
O O2 0.256537 0.128382 0.435291
O O3 0.475228 0.076185 0.683570
O O4 0.312033 0.000000 0.456395
O O5 0.250000 0.750000 0.500000
O O6 0.364172 0.665106 0.473580
O O7 0.500301 0.703444 0.739679
O O8 0.780000 0.102201 0.241197
O O9 0.587222 0.159085 0.223716
O O10 0.771238 0.217482 0.223737
O O11 0.231495 0.500000 0.103162
O O12 0.176441 0.605291 0.973581
O O13 0.000000 0.568142 0.000000
O O14 0.608301 0.816019 0.771779
O O15 0.750000 0.250000 0.000000
#
# Coordination Sequence:
#
# PCOD9197397 Si02
#       6
#     8   8   8   8   8   8
#     4  10  22  40  66  96 127 172 228 276 331 398
#     4  11  23  40  62  93 128 167 215 274 326 385
#     4  10  21  36  57  88 122 157 208 262 323 377
#     4   9  17  32  55  83 116 156 202 256 310 377
#     4  10  20  35  59  89 122 163 215 269 317 388
#     4  12  23  37  61  93 128 167 209 263 326 395
#
# _framework density 19.969919999999998
#
# number of rings (size 3 to 8) (size 9 to 14) (size 15 to 20)
#    0.000    1.667    5.000    1.000    2.333    4.000 
#    0.000    0.833    0.000    5.000    0.000    2.333 
#    0.000    0.000    0.000    0.000    0.000    0.000 
#
# Total GULP energy -133749.378159 kJ/mol
# GULP energy per Si atom -5572.890757 kJ/mol
# Density = 1.992447 g / cm^3
# Si number density = 19.969920 Si / 1000 Ang^3
#
#
#
# Elastic Constant Matrix: (Units=GPa)
#
#
# Indices 1 2 3 4 5 6 
#
# 1 82.9517 55.9315 26.4479 0.0000 -16.0318 0.0000
# 2 55.9315 156.6362 41.8049 0.0000 -6.5791 0.0000
# 3 26.4479 41.8049 116.1256 0.0000 0.5957 0.0000
# 4 0.0000 0.0000 0.0000 30.9310 0.0000 -1.5786
# 5 -16.0318 -6.5791 0.5957 0.0000 19.7192 0.0000
# 6 0.0000 0.0000 0.0000 -1.5786 0.0000 22.3328
#
#
#
# Elastic Compliance Matrix: (Units=1/GPa)
#
#
# Indices 1 2 3 4 5 6 
#
# 1 0.019345 -0.005674 -0.002435 0.000000 0.013908 0.000000
# 2 -0.005674 0.008846 -0.001884 0.000000 -0.001605 0.000000
# 3 -0.002435 -0.001884 0.009859 0.000000 -0.002906 0.000000
# 4 0.000000 0.000000 0.000000 0.032447 0.000000 0.002294
# 5 0.013908 -0.001605 -0.002906 0.000000 0.061572 0.000000
# 6 0.000000 0.000000 0.000000 0.002294 0.000000 0.044939
#
#
# Mechanical properties :
#
#
# Convention : Reuss Voigt Hill
#
# Bulk Modulus (GPa) = 55.35605 67.12025 61.23815
# Shear Modulus (GPa) = 24.62880 30.03186 27.33033
#
# Velocity S-wave (km/s) = 3.51564 3.88216 3.70344
# Velocity P-wave (km/s) = 6.65278 7.33339 7.00136
#
# Compressibility (1/GPa) = 0.01806487
#
# Stress axis : x y z
#
# Youngs Moduli (GPa) = 51.69277 113.05042 101.43018
#
# Poissons Ratio (x) = 0.64142 0.24695
# Poissons Ratio (y) = 0.29329 0.19109
# Poissons Ratio (z) = 0.12586 0.21298
#
# Static dielectric constant tensor:
#      x y z
#    x 1.754880 0.000000 0.034330 
#    y 0.000000 1.761550 0.000000 
#    z 0.034330 0.000000 1.744910 
# 
# From -- ./inp_files/134101.got.cif
#   From: 2010.05.17/outbox.cif.g08.bks.cpg/sg12_68_cif.got.tgz:134101.got - 2010.06.03 13:09:07.
