data_PCOD9197843
_publ_section_title
;
Structure prediction by ZEFSAII (Michael W. Deem and Ramdas Pophale) SiO2 
 PCOD9197843
Probable space group: C 2/M
;
_chemical_formula_sum "Si O2"
_cell_formula_units_Z 48
_cell_length_a 14.479995
_cell_length_b 21.216929
_cell_length_c 9.057601
_cell_angle_alpha 90.000000
_cell_angle_beta 73.289134
_cell_angle_gamma 90.000000
_cell_volume 2665.167044
_symmetry_space_group_name_H-M "C 2/M"
_symmetry_group_IT_number 12
_symmetry_cell_setting 'monoclinic'
loop_
_space_group_symop_operation_xyz
x,y,z
-x,y,-z
-x,-y,-z
x,-y,z
1/2+x,1/2+y,z
1/2-x,1/2+y,-z
1/2-x,1/2-y,-z
1/2+x,1/2-y,z
loop_
_atom_site_type_symbol
_atom_site_label
_atom_site_fract_x
_atom_site_fract_y
_atom_site_fract_z
Si Si1 0.995504 0.256295 0.325916
Si Si2 0.288678 0.761460 0.320224
Si Si3 0.048953 0.000000 0.701624
Si Si4 0.274906 0.620705 0.834754
Si Si5 0.164538 0.000000 0.354926
Si Si6 0.300745 0.805587 0.882991
Si Si7 0.990034 0.870114 0.840147
O O1 0.091791 0.285315 0.210679
O O2 0.986967 0.181743 0.294096
O O3 0.000000 0.266518 0.500000
O O4 0.899737 0.280890 0.288483
O O5 0.250000 0.750000 0.500000
O O6 0.232903 0.818975 0.268857
O O7 0.264929 0.698895 0.234340
O O8 0.942803 0.000000 0.671404
O O9 0.048288 0.935064 0.793821
O O10 0.133657 0.000000 0.540756
O O11 0.275527 0.559881 0.730528
O O12 0.377651 0.617128 0.867599
O O13 0.203237 0.634851 0.005192
O O14 0.250000 0.750000 0.000000
O O15 0.000000 0.843258 0.000000
#
# Coordination Sequence:
#
# PCOD9197843 Si02
#       7
#     8   8   4   8   4   8   8
#     4  12  23  35  57  85 119 157 189 237 304 342
#     4  11  21  35  57  85 118 153 191 243 292 347
#     4   9  21  32  56  82 116 152 199 221 289 357
#     4  10  21  38  55  80 119 145 199 235 282 349
#     4   9  20  38  58  81 110 162 189 246 283 346
#     4  10  20  36  53  83 116 146 193 239 283 343
#     4  11  21  34  54  82 119 156 188 232 281 352
#
# _framework density 18.010128000000002
#
# number of rings (size 3 to 8) (size 9 to 14) (size 15 to 20)
#    0.000    1.500    5.000    1.250    9.333    0.000 
#    0.000    0.000    0.000    2.000    0.000    1.167 
#    0.000    0.000    0.000    0.000    0.000    0.000 
#
# Total GULP energy -133640.622673 kJ/mol
# GULP energy per Si atom -5568.359278 kJ/mol
# Density = 1.796914 g / cm^3
# Si number density = 18.010128 Si / 1000 Ang^3
#
#
#
# Elastic Constant Matrix: (Units=GPa)
#
#
# Indices 1 2 3 4 5 6 
#
# 1 79.1937 8.5325 36.9057 0.0000 -8.7946 0.0000
# 2 8.5325 74.5805 39.2527 0.0000 -11.8985 0.0000
# 3 36.9057 39.2527 128.3770 0.0000 -8.9413 0.0000
# 4 0.0000 0.0000 0.0000 20.0018 0.0000 -3.1555
# 5 -8.7946 -11.8985 -8.9413 0.0000 28.6639 0.0000
# 6 0.0000 0.0000 0.0000 -3.1555 0.0000 12.4930
#
#
#
# Elastic Compliance Matrix: (Units=1/GPa)
#
#
# Indices 1 2 3 4 5 6 
#
# 1 0.014966 0.001202 -0.004411 0.000000 0.003715 0.000000
# 2 0.001202 0.016880 -0.005104 0.000000 0.005784 0.000000
# 3 -0.004411 -0.005104 0.010607 0.000000 -0.000163 0.000000
# 4 0.000000 0.000000 0.000000 0.052070 0.000000 0.013152
# 5 0.003715 0.005784 -0.000163 0.000000 0.038377 0.000000
# 6 0.000000 0.000000 0.000000 0.013152 0.000000 0.083366
#
#
# Mechanical properties :
#
#
# Convention : Reuss Voigt Hill
#
# Bulk Modulus (GPa) = 38.71980 50.17034 44.44507
# Shear Modulus (GPa) = 20.70384 25.39577 23.04980
#
# Velocity S-wave (km/s) = 3.39420 3.75918 3.58134
# Velocity P-wave (km/s) = 6.07506 6.83806 6.46783
#
# Compressibility (1/GPa) = 0.02582658
#
# Stress axis : x y z
#
# Youngs Moduli (GPa) = 66.81813 59.24243 94.27821
#
# Poissons Ratio (x) = -0.07122 0.41588
# Poissons Ratio (y) = -0.08033 0.48119
# Poissons Ratio (z) = 0.29475 0.30237
#
# Static dielectric constant tensor:
#      x y z
#    x 1.658820 0.000000 0.024050 
#    y 0.000000 1.687080 0.000000 
#    z 0.024050 0.000000 1.713950 
# 
# From -- ./inp_files/64734.got.cif
#   From: 2010.05.17/outbox.cif.g08.bks.cpg/sg12_33_cif.got.tgz:64734.got - 2010.06.03 13:09:07.
