data_PCOD9197802
_publ_section_title
;
Structure prediction by ZEFSAII (Michael W. Deem and Ramdas Pophale) SiO2 
 PCOD9197802
Probable space group: C 2/M
;
_chemical_formula_sum "Si O2"
_cell_formula_units_Z 48
_cell_length_a 18.248139
_cell_length_b 21.386616
_cell_length_c 22.090163
_cell_angle_alpha 90.000000
_cell_angle_beta 160.275983
_cell_angle_gamma 90.000000
_cell_volume 2909.513085
_symmetry_space_group_name_H-M "C 2/M"
_symmetry_group_IT_number 12
_symmetry_cell_setting 'monoclinic'
loop_
_space_group_symop_operation_xyz
x,y,z
-x,y,-z
-x,-y,-z
x,-y,z
1/2+x,1/2+y,z
1/2-x,1/2+y,-z
1/2-x,1/2-y,-z
1/2+x,1/2-y,z
loop_
_atom_site_type_symbol
_atom_site_label
_atom_site_fract_x
_atom_site_fract_y
_atom_site_fract_z
Si Si1 0.204274 0.000000 0.113780
Si Si2 0.173365 0.244064 0.509831
Si Si3 0.179576 0.132283 0.028106
Si Si4 0.797975 0.739437 0.887978
Si Si5 0.794753 0.634992 0.385358
Si Si6 0.404223 0.192505 0.099174
Si Si7 0.606350 0.000000 0.515801
O O1 0.416903 0.000000 0.320018
O O2 0.199352 0.935830 0.072359
O O3 0.000000 0.000000 0.000000
O O4 0.250000 0.250000 0.500000
O O5 0.173374 0.312590 0.539751
O O6 0.352555 0.205997 0.688076
O O7 0.928046 0.217925 0.318045
O O8 0.926279 0.147840 0.821883
O O9 0.257176 0.190338 0.129957
O O10 0.304011 0.136355 0.060689
O O11 0.870248 0.695838 0.000782
O O12 0.000000 0.743637 0.000000
O O13 0.000000 0.636516 0.500000
O O14 0.769656 0.565243 0.392231
O O15 0.250000 0.250000 0.000000
O O16 0.500000 0.000000 0.500000
#
# Coordination Sequence:
#
# PCOD9197802 Si02
#       7
#     4   8   8   8   8   8   4
#     4  12  22  34  52  74 103 145 185 212 257 314
#     4  12  20  33  55  72 104 148 178 217 273 313
#     4  11  20  36  51  71 108 144 175 218 259 312
#     4  11  21  34  54  82 107 140 183 220 267 318
#     4  11  20  33  50  72 103 140 177 220 260 302
#     4  10  20  36  49  75 106 138 180 222 262 318
#     4  10  22  34  44  72 102 134 180 215 252 306
#
# _framework density 16.497606000000001
#
# number of rings (size 3 to 8) (size 9 to 14) (size 15 to 20)
#    0.000    1.000    6.667    5.000    0.000    0.000 
#    0.000    0.000    0.000    0.000    0.000    0.583 
#    0.000    1.333    0.000    0.083    0.000    0.000 
#
# Total GULP energy -133854.530198 kJ/mol
# GULP energy per Si atom -5577.272092 kJ/mol
# Density = 1.646006 g / cm^3
# Si number density = 16.497606 Si / 1000 Ang^3
#
#
#
# Elastic Constant Matrix: (Units=GPa)
#
#
# Indices 1 2 3 4 5 6 
#
# 1 77.8899 44.1513 17.9681 0.0596 -3.0305 0.0256
# 2 44.1513 69.5653 15.0191 0.0745 -5.0910 0.0257
# 3 17.9681 15.0191 133.2114 0.1454 -3.3603 0.0202
# 4 0.0596 0.0745 0.1454 14.0921 0.0044 -2.5754
# 5 -3.0305 -5.0910 -3.3603 0.0044 26.0280 -0.0174
# 6 0.0256 0.0257 0.0202 -2.5754 -0.0174 29.4510
#
#
#
# Elastic Compliance Matrix: (Units=1/GPa)
#
#
# Indices 1 2 3 4 5 6 
#
# 1 0.020277 -0.012604 -0.001321 -0.000007 -0.000275 -0.000007
# 2 -0.012604 0.022757 -0.000793 -0.000062 0.002881 -0.000012
# 3 -0.001321 -0.000793 0.007792 -0.000073 0.000697 -0.000009
# 4 -0.000007 -0.000062 -0.000073 0.072115 -0.000030 0.006306
# 5 -0.000275 0.002881 0.000697 -0.000030 0.039042 0.000018
# 6 -0.000007 -0.000012 -0.000009 0.006306 0.000018 0.034506
#
#
# Mechanical properties :
#
#
# Convention : Reuss Voigt Hill
#
# Bulk Modulus (GPa) = 46.75121 48.32707 47.53914
# Shear Modulus (GPa) = 21.45407 27.48275 24.46841
#
# Velocity S-wave (km/s) = 3.61007 4.08593 3.85535
# Velocity P-wave (km/s) = 6.76583 7.18448 6.97829
#
# Compressibility (1/GPa) = 0.02138982
#
# Stress axis : x y z
#
# Youngs Moduli (GPa) = 49.31600 43.94291 128.33526
#
# Poissons Ratio (x) = 0.55388 0.16952
# Poissons Ratio (y) = 0.62160 0.10175
# Poissons Ratio (z) = 0.06514 0.03484
#
# Static dielectric constant tensor:
#      x y z
#    x 1.574270 0.000020 -0.018330 
#    y 0.000020 1.585150 -0.000030 
#    z -0.018330 -0.000030 1.595460 
# 
# From -- ./inp_files/317897.got.cif
#   From: 2010.05.17/outbox.cif.g08.bks.cpg/sg12_159_cif.got.tgz:317897.got - 2010.06.03 13:09:07.
