data_PCOD9197674
_publ_section_title
;
Structure prediction by ZEFSAII (Michael W. Deem and Ramdas Pophale) SiO2 
 PCOD9197674
Probable space group: C 2/M
;
_chemical_formula_sum "Si O2"
_cell_formula_units_Z 40
_cell_length_a 22.281372
_cell_length_b 7.971344
_cell_length_c 19.150126
_cell_angle_alpha 90.000000
_cell_angle_beta 30.090401
_cell_angle_gamma 90.000000
_cell_volume 1705.296151
_symmetry_space_group_name_H-M "C 2/M"
_symmetry_group_IT_number 12
_symmetry_cell_setting 'monoclinic'
loop_
_space_group_symop_operation_xyz
x,y,z
-x,y,-z
-x,-y,-z
x,-y,z
1/2+x,1/2+y,z
1/2-x,1/2+y,-z
1/2-x,1/2-y,-z
1/2+x,1/2-y,z
loop_
_atom_site_type_symbol
_atom_site_label
_atom_site_fract_x
_atom_site_fract_y
_atom_site_fract_z
Si Si1 0.250264 0.201207 0.081305
Si Si2 0.485517 0.796668 0.191869
Si Si3 0.986406 0.800596 0.351539
Si Si4 0.881224 0.700873 0.157634
Si Si5 0.123326 0.693321 0.404125
O O1 0.120755 0.263224 0.236920
O O2 0.246744 0.000000 0.092475
O O3 0.250000 0.250000 0.000000
O O4 0.382756 0.256116 0.969903
O O5 0.468572 0.731055 0.287185
O O6 0.390961 0.743335 0.228641
O O7 0.486191 0.000000 0.196146
O O8 0.892783 0.713196 0.496340
O O9 0.979684 0.000000 0.369898
O O10 0.891552 0.500000 0.147766
O O11 0.752649 0.737108 0.253883
O O12 0.000000 0.767242 0.000000
O O13 0.123565 0.500000 0.383635
O O14 0.000000 0.774807 0.500000
#
# Coordination Sequence:
#
# PCOD9197674 Si02
#       5
#     8   8   8   8   8
#     4   8  15  28  50  83 119 153 190 236 292 353
#     4   9  18  35  59  90 127 161 198 250 311 369
#     4  10  20  35  61  93 122 160 208 255 307 363
#     4  10  23  42  67  95 124 163 208 255 311 371
#     4  11  26  45  63  88 124 167 209 255 313 371
#
# _framework density 23.456337000000001
#
# number of rings (size 3 to 8) (size 9 to 14) (size 15 to 20)
#    0.000    2.400    0.000    1.200    2.800    4.400 
#    0.000    0.000    0.000    0.000    0.000    0.000 
#    0.000    0.000    0.000    0.000    0.000    0.000 
#
# Total GULP energy -111630.264164 kJ/mol
# GULP energy per Si atom -5581.513208 kJ/mol
# Density = 2.340295 g / cm^3
# Si number density = 23.456337 Si / 1000 Ang^3
#
#
#
# Elastic Constant Matrix: (Units=GPa)
#
#
# Indices 1 2 3 4 5 6 
#
# 1 117.5942 9.6657 42.3009 -0.0001 -22.6106 0.0002
# 2 9.6657 32.8134 2.8115 0.0000 -2.6201 0.0006
# 3 42.3009 2.8115 129.1270 -0.0010 -13.4093 0.0013
# 4 -0.0001 0.0000 -0.0010 11.0652 0.0001 -9.0995
# 5 -22.6106 -2.6201 -13.4093 0.0001 37.6486 -0.0003
# 6 0.0002 0.0006 0.0013 -9.0995 -0.0003 16.8958
#
#
#
# Elastic Compliance Matrix: (Units=1/GPa)
#
#
# Indices 1 2 3 4 5 6 
#
# 1 0.010773 -0.002503 -0.002929 0.000000 0.005253 0.000000
# 2 -0.002503 0.031254 0.000217 -0.000002 0.000749 -0.000002
# 3 -0.002929 0.000217 0.008845 0.000000 0.001406 0.000000
# 4 0.000000 -0.000002 0.000000 0.162219 0.000000 0.087366
# 5 0.005253 0.000749 0.001406 0.000000 0.030269 0.000000
# 6 0.000000 -0.000002 0.000000 0.087366 0.000000 0.106239
#
#
# Mechanical properties :
#
#
# Convention : Reuss Voigt Hill
#
# Bulk Modulus (GPa) = 24.72656 43.23230 33.97943
# Shear Modulus (GPa) = 13.38652 28.10569 20.74611
#
# Velocity S-wave (km/s) = 2.39152 3.46528 2.97721
# Velocity P-wave (km/s) = 4.26500 5.87212 5.13187
#
# Compressibility (1/GPa) = 0.04044233
#
# Stress axis : x y z
#
# Youngs Moduli (GPa) = 92.82282 31.99600 113.05538
#
# Poissons Ratio (x) = 0.08009 0.33117
# Poissons Ratio (y) = 0.23234 -0.02457
# Poissons Ratio (z) = 0.27190 -0.00695
#
# Static dielectric constant tensor:
#      x y z
#    x 1.927460 0.000000 -0.022810 
#    y 0.000000 1.832060 0.000000 
#    z -0.022810 0.000000 1.910810 
# 
# From -- ./inp_files/323982.got.cif
#   From: 2010.05.17/outbox.cif.g08.bks.cpg/sg12_162_cif.got.tgz:323982.got - 2010.06.03 13:09:07.
