data_PCOD9197360
_publ_section_title
;
Structure prediction by ZEFSAII (Michael W. Deem and Ramdas Pophale) SiO2 
 PCOD9197360
Probable space group: C 2/M
;
_chemical_formula_sum "Si O2"
_cell_formula_units_Z 64
_cell_length_a 21.888255
_cell_length_b 23.651274
_cell_length_c 18.176575
_cell_angle_alpha 90.000000
_cell_angle_beta 161.410106
_cell_angle_gamma 90.000000
_cell_volume 2999.751844
_symmetry_space_group_name_H-M "C 2/M"
_symmetry_group_IT_number 12
_symmetry_cell_setting 'monoclinic'
loop_
_space_group_symop_operation_xyz
x,y,z
-x,y,-z
-x,-y,-z
x,-y,z
1/2+x,1/2+y,z
1/2-x,1/2+y,-z
1/2-x,1/2-y,-z
1/2+x,1/2-y,z
loop_
_atom_site_type_symbol
_atom_site_label
_atom_site_fract_x
_atom_site_fract_y
_atom_site_fract_z
Si Si1 0.134205 0.064853 0.746375
Si Si2 0.903088 0.260972 0.067975
Si Si3 0.366488 0.562929 0.708638
Si Si4 0.804438 0.067318 0.472747
Si Si5 0.904379 0.437826 0.197457
Si Si6 0.571951 0.869738 0.999563
Si Si7 0.614441 0.318537 0.203292
Si Si8 0.557550 0.813199 0.724118
O O1 0.945316 0.088987 0.569754
O O2 0.096591 0.000000 0.685332
O O3 0.290786 0.065254 0.991105
O O4 0.235123 0.094855 0.793787
O O5 0.948125 0.290940 0.197500
O O6 0.889739 0.310089 0.993336
O O7 0.056522 0.217400 0.209366
O O8 0.705079 0.227439 0.851714
O O9 0.434247 0.500000 0.807266
O O10 0.407700 0.572965 0.669358
O O11 0.431241 0.615868 0.830385
O O12 0.133688 0.562070 0.446640
O O13 0.605411 0.099776 0.243884
O O14 0.769529 0.000000 0.422751
O O15 0.855594 0.500000 0.174986
O O16 0.868338 0.378047 0.195697
O O17 0.500000 0.865764 0.000000
O O18 0.840737 0.311903 0.448418
O O19 0.500000 0.300648 0.000000
#
# Coordination Sequence:
#
# PCOD9197360 Si02
#       8
#     8   8   8   8   8   8   8   8
#     4  10  20  35  59  88 121 159 204 256 311 367
#     4  11  24  42  64  90 118 164 222 262 309 358
#     4   9  18  36  64  92 121 161 207 259 315 373
#     4  10  21  37  62  94 124 160 209 263 313 365
#     4   9  16  34  63  94 124 152 194 258 320 362
#     4  12  24  40  59  85 125 169 210 255 313 374
#     4  11  24  41  61  91 129 166 201 255 324 383
#     4  10  22  42  68  93 120 158 214 268 306 369
#
# _framework density 21.335097999999999
#
# number of rings (size 3 to 8) (size 9 to 14) (size 15 to 20)
#    0.000    1.750    2.500    1.875    1.750    3.250 
#    0.000    2.500    0.000    0.000    0.000    4.375 
#    0.000    0.000    0.000    0.000    0.000    0.000 
#
# Total GULP energy -178759.024118 kJ/mol
# GULP energy per Si atom -5586.219504 kJ/mol
# Density = 2.128654 g / cm^3
# Si number density = 21.335098 Si / 1000 Ang^3
#
#
#
# Elastic Constant Matrix: (Units=GPa)
#
#
# Indices 1 2 3 4 5 6 
#
# 1 59.5480 44.0254 16.9141 0.0041 25.8582 -0.0063
# 2 44.0254 106.0885 35.6258 0.0011 13.8728 -0.0016
# 3 16.9141 35.6258 59.6952 0.0165 13.2831 -0.0231
# 4 0.0041 0.0011 0.0165 54.4796 0.0068 -39.4051
# 5 25.8582 13.8728 13.2831 0.0068 29.5458 -0.0098
# 6 -0.0063 -0.0016 -0.0231 -39.4051 -0.0098 107.4805
#
#
#
# Elastic Compliance Matrix: (Units=1/GPa)
#
#
# Indices 1 2 3 4 5 6 
#
# 1 0.037978 -0.013186 0.003475 0.000000 -0.028609 0.000000
# 2 -0.013186 0.016555 -0.007758 0.000001 0.007255 -0.000001
# 3 0.003475 -0.007758 0.022516 -0.000004 -0.009521 0.000003
# 4 0.000000 0.000001 -0.000004 0.024980 -0.000002 0.009158
# 5 -0.028609 0.007255 -0.009521 -0.000002 0.059758 0.000001
# 6 0.000000 -0.000001 0.000003 0.009158 0.000001 0.012662
#
#
# Mechanical properties :
#
#
# Convention : Reuss Voigt Hill
#
# Bulk Modulus (GPa) = 23.74758 46.49583 35.12170
# Shear Modulus (GPa) = 22.37898 46.88560 34.63229
#
# Velocity S-wave (km/s) = 3.24223 4.69292 4.03333
# Velocity P-wave (km/s) = 5.01707 7.15577 6.17965
#
# Compressibility (1/GPa) = 0.04210956
#
# Stress axis : x y z
#
# Youngs Moduli (GPa) = 26.33070 60.40576 44.41343
#
# Poissons Ratio (x) = 0.79653 -0.15432
# Poissons Ratio (y) = 0.34720 0.34456
# Poissons Ratio (z) = -0.09149 0.46863
#
# Static dielectric constant tensor:
#      x y z
#    x 1.781950 0.000000 0.012540 
#    y 0.000000 1.794940 0.000000 
#    z 0.012540 0.000000 1.755760 
# 
# From -- ./inp_files/286469.got.cif
#   From: 2010.05.17/outbox.cif.g08.bks.cpg/sg12_144_cif.got.tgz:286469.got - 2010.06.03 13:09:07.
