data_PCOD9197144
_publ_section_title
;
Structure prediction by ZEFSAII (Michael W. Deem and Ramdas Pophale) SiO2 
 PCOD9197144
Probable space group: C 2/M
;
_chemical_formula_sum "Si O2"
_cell_formula_units_Z 48
_cell_length_a 30.959394
_cell_length_b 8.687534
_cell_length_c 15.165832
_cell_angle_alpha 90.000000
_cell_angle_beta 39.977386
_cell_angle_gamma 90.000000
_cell_volume 2620.706249
_symmetry_space_group_name_H-M "C 2/M"
_symmetry_group_IT_number 12
_symmetry_cell_setting 'monoclinic'
loop_
_space_group_symop_operation_xyz
x,y,z
-x,y,-z
-x,-y,-z
x,-y,z
1/2+x,1/2+y,z
1/2-x,1/2+y,-z
1/2-x,1/2-y,-z
1/2+x,1/2-y,z
loop_
_atom_site_type_symbol
_atom_site_label
_atom_site_fract_x
_atom_site_fract_y
_atom_site_fract_z
Si Si1 0.571385 0.314565 0.845680
Si Si2 0.934326 0.314364 0.340280
Si Si3 0.413880 0.184612 0.852215
Si Si4 0.819556 0.816584 0.852131
Si Si5 0.319563 0.185904 0.656471
Si Si6 0.666857 0.314388 0.854757
O O1 0.570755 0.500000 0.840256
O O2 0.578644 0.247031 0.737307
O O3 0.630165 0.269512 0.821538
O O4 0.500000 0.266612 0.000000
O O5 0.933457 0.500000 0.338533
O O6 0.877373 0.264571 0.498336
O O7 0.008851 0.266949 0.254793
O O8 0.379405 0.257300 0.820625
O O9 0.411167 0.000000 0.849563
O O10 0.371636 0.238336 0.003282
O O11 0.827885 0.758555 0.739545
O O12 0.816204 0.000000 0.860133
O O13 0.750000 0.750000 0.000000
O O14 0.245379 0.225095 0.736422
O O15 0.322657 0.000000 0.660522
O O16 0.660748 0.500000 0.873357
#
# Coordination Sequence:
#
# PCOD9197144 Si02
#       6
#     8   8   8   8   8   8
#     4  10  20  35  58  88 119 155 201 249 298 350
#     4  10  23  40  59  87 122 159 197 246 298 349
#     4  11  22  37  60  88 118 154 200 245 293 349
#     4  12  24  39  62  91 119 152 197 243 294 353
#     4  10  22  41  61  85 121 159 198 243 296 351
#     4  10  20  36  60  86 115 156 202 246 293 349
#
# _framework density 18.315674000000001
#
# number of rings (size 3 to 8) (size 9 to 14) (size 15 to 20)
#    0.000    1.500    3.333    2.000    0.000    3.667 
#    0.000    3.333    0.000    0.000    0.000    0.000 
#    0.000    0.000    0.000    0.000    0.000    0.000 
#
# Total GULP energy -134123.350122 kJ/mol
# GULP energy per Si atom -5588.472922 kJ/mol
# Density = 1.827399 g / cm^3
# Si number density = 18.315674 Si / 1000 Ang^3
#
#
#
# Elastic Constant Matrix: (Units=GPa)
#
#
# Indices 1 2 3 4 5 6 
#
# 1 210.1292 53.9760 108.7998 -0.0001 4.9348 0.0000
# 2 53.9760 35.2333 47.1402 -0.0015 -1.7609 0.0003
# 3 108.7998 47.1402 180.3589 -0.0004 4.0080 0.0001
# 4 -0.0001 -0.0015 -0.0004 25.6273 0.0001 11.1957
# 5 4.9348 -1.7609 4.0080 0.0001 33.0994 0.0000
# 6 0.0000 0.0003 0.0001 11.1957 0.0000 27.0790
#
#
#
# Elastic Compliance Matrix: (Units=1/GPa)
#
#
# Indices 1 2 3 4 5 6 
#
# 1 0.008692 -0.009872 -0.002629 -0.000001 -0.001503 0.000000
# 2 -0.009872 0.055318 -0.008624 0.000004 0.005459 -0.000002
# 3 -0.002629 -0.008624 0.009412 0.000000 -0.001206 0.000000
# 4 -0.000001 0.000004 0.000000 0.047622 0.000000 -0.019689
# 5 -0.001503 0.005459 -0.001206 0.000000 0.030873 0.000000
# 6 0.000000 -0.000002 0.000000 -0.019689 0.000000 0.045069
#
#
# Mechanical properties :
#
#
# Convention : Reuss Voigt Hill
#
# Bulk Modulus (GPa) = 32.08311 93.95039 63.01675
# Shear Modulus (GPa) = 20.02986 31.54818 25.78902
#
# Velocity S-wave (km/s) = 3.31054 4.15477 3.75644
# Velocity P-wave (km/s) = 5.67165 8.62685 7.30035
#
# Compressibility (1/GPa) = 0.03116904
#
# Stress axis : x y z
#
# Youngs Moduli (GPa) = 115.05337 18.07734 106.25149
#
# Poissons Ratio (x) = 0.17846 0.27938
# Poissons Ratio (y) = 1.13584 0.91635
# Poissons Ratio (z) = 0.30253 0.15591
#
# Static dielectric constant tensor:
#      x y z
#    x 1.611930 0.000000 -0.020240 
#    y 0.000000 1.622260 0.000000 
#    z -0.020240 0.000000 1.599710 
# 
# From -- ./inp_files/244704.got.cif
#   From: 2010.05.17/outbox.cif.g08.bks.cpg/sg12_123_cif.got.tgz:244704.got - 2010.06.03 13:09:07.
