data_PCOD9197013
_publ_section_title
;
Structure prediction by ZEFSAII (Michael W. Deem and Ramdas Pophale) SiO2 
 PCOD9197013
Probable space group: C 2/M
;
_chemical_formula_sum "Si O2"
_cell_formula_units_Z 48
_cell_length_a 15.095444
_cell_length_b 16.122328
_cell_length_c 8.888564
_cell_angle_alpha 90.000000
_cell_angle_beta 86.811851
_cell_angle_gamma 90.000000
_cell_volume 2159.894629
_symmetry_space_group_name_H-M "C 2/M"
_symmetry_group_IT_number 12
_symmetry_cell_setting 'monoclinic'
loop_
_space_group_symop_operation_xyz
x,y,z
-x,y,-z
-x,-y,-z
x,-y,z
1/2+x,1/2+y,z
1/2-x,1/2+y,-z
1/2-x,1/2-y,-z
1/2+x,1/2-y,z
loop_
_atom_site_type_symbol
_atom_site_label
_atom_site_fract_x
_atom_site_fract_y
_atom_site_fract_z
Si Si1 0.911309 0.906261 0.344794
Si Si2 0.146110 0.261407 0.510732
Si Si3 0.725777 0.405714 0.923379
Si Si4 0.401316 0.816251 0.821469
Si Si5 0.064328 0.130046 0.124359
Si Si6 0.451031 0.908362 0.340667
O O1 0.895843 0.827528 0.450792
O O2 0.841439 0.891829 0.212027
O O3 0.012129 0.900174 0.275162
O O4 0.895067 0.000000 0.402422
O O5 0.250000 0.250000 0.500000
O O6 0.120284 0.293643 0.349414
O O7 0.114950 0.330841 0.633325
O O8 0.757463 0.500000 0.907887
O O9 0.811358 0.347530 0.907103
O O10 0.664067 0.396268 0.076350
O O11 0.434583 0.729613 0.883217
O O12 0.478255 0.884498 0.794971
O O13 0.000000 0.096843 0.000000
O O14 0.500000 0.912362 0.500000
O O15 0.412141 0.000000 0.318485
#
# Coordination Sequence:
#
# PCOD9197013 Si02
#       6
#     8   8   8   8   8   8
#     4  10  20  37  58  84 116 151 188 233 282 337
#     4  11  21  36  57  85 118 146 185 233 287 344
#     4  10  20  35  58  86 110 148 200 237 269 330
#     4  11  20  35  60  83 116 148 187 231 290 335
#     4  10  21  37  58  82 111 152 193 234 277 334
#     4   9  19  34  56  83 110 145 188 230 274 334
#
# _framework density 22.223307999999999
#
# number of rings (size 3 to 8) (size 9 to 14) (size 15 to 20)
#    0.000    1.833    3.333    1.500    0.000    3.333 
#    0.000    2.500    0.000    4.000    0.000    0.000 
#    0.000    0.000    0.000    0.000    0.000    0.000 
#
# Total GULP energy -134026.447871 kJ/mol
# GULP energy per Si atom -5584.435328 kJ/mol
# Density = 2.217273 g / cm^3
# Si number density = 22.223308 Si / 1000 Ang^3
#
#
#
# Elastic Constant Matrix: (Units=GPa)
#
#
# Indices 1 2 3 4 5 6 
#
# 1 92.7796 53.1405 30.5573 0.0000 -36.4442 0.0000
# 2 53.1405 151.5879 15.9011 0.0000 -23.3317 0.0000
# 3 30.5573 15.9011 23.4728 0.0000 -22.8213 0.0000
# 4 0.0000 0.0000 0.0000 8.7209 0.0000 9.0837
# 5 -36.4442 -23.3317 -22.8213 0.0000 35.5446 0.0000
# 6 0.0000 0.0000 0.0000 9.0837 0.0000 12.2160
#
#
#
# Elastic Compliance Matrix: (Units=1/GPa)
#
#
# Indices 1 2 3 4 5 6 
#
# 1 0.022909 -0.004790 -0.018092 0.000000 0.008729 0.000000
# 2 -0.004790 0.008345 0.003016 0.000000 0.002503 0.000000
# 3 -0.018092 0.003016 0.127742 0.000000 0.065446 0.000000
# 4 0.000000 0.000000 0.000000 0.508558 0.000000 -0.378158
# 5 0.008729 0.002503 0.065446 0.000000 0.080745 0.000000
# 6 0.000000 0.000000 0.000000 -0.378158 0.000000 0.363055
#
#
# Mechanical properties :
#
#
# Convention : Reuss Voigt Hill
#
# Bulk Modulus (GPa) = 8.38480 51.89311 30.13896
# Shear Modulus (GPa) = 4.19872 22.51240 13.35556
#
# Velocity S-wave (km/s) = 1.37602 3.18623 2.45413
# Velocity P-wave (km/s) = 2.51112 6.07763 4.64991
#
# Compressibility (1/GPa) = 0.11926345
#
# Stress axis : x y z
#
# Youngs Moduli (GPa) = 43.65087 119.83523 7.82828
#
# Poissons Ratio (x) = 0.57397 0.14163
# Poissons Ratio (y) = 0.20907 -0.02361
# Poissons Ratio (z) = 0.78975 -0.36140
#
# Static dielectric constant tensor:
#      x y z
#    x 1.856560 0.000000 0.052700 
#    y 0.000000 1.841070 0.000000 
#    z 0.052700 0.000000 1.894800 
# 
# From -- ./inp_files/142739.got.cif
#   From: 2010.05.17/outbox.cif.g08.bks.cpg/sg12_72_cif.got.tgz:142739.got - 2010.06.03 13:09:07.
