data_PCOD9197462
_publ_section_title
;
Structure prediction by ZEFSAII (Michael W. Deem and Ramdas Pophale) SiO2 
 PCOD9197462
Probable space group: C 2/M
;
_chemical_formula_sum "Si O2"
_cell_formula_units_Z 64
_cell_length_a 19.859203
_cell_length_b 13.765217
_cell_length_c 12.610008
_cell_angle_alpha 90.000000
_cell_angle_beta 72.318067
_cell_angle_gamma 90.000000
_cell_volume 3284.297777
_symmetry_space_group_name_H-M "C 2/M"
_symmetry_group_IT_number 12
_symmetry_cell_setting 'monoclinic'
loop_
_space_group_symop_operation_xyz
x,y,z
-x,y,-z
-x,-y,-z
x,-y,z
1/2+x,1/2+y,z
1/2-x,1/2+y,-z
1/2-x,1/2-y,-z
1/2+x,1/2-y,z
loop_
_atom_site_type_symbol
_atom_site_label
_atom_site_fract_x
_atom_site_fract_y
_atom_site_fract_z
Si Si1 0.719844 0.105923 0.992050
Si Si2 0.398702 0.774572 0.847947
Si Si3 0.758168 0.391448 0.268169
Si Si4 0.096575 0.158646 0.356731
Si Si5 0.476577 0.891738 0.133210
Si Si6 0.562673 0.387142 0.606773
Si Si7 0.875537 0.889014 0.014435
Si Si8 0.862947 0.771050 0.238679
O O1 0.674851 0.187213 0.070886
O O2 0.799690 0.104753 0.993653
O O3 0.687792 0.000000 0.031385
O O4 0.720262 0.116986 0.865786
O O5 0.393440 0.747586 0.728159
O O6 0.455847 0.857825 0.834138
O O7 0.419062 0.683169 0.915465
O O8 0.781105 0.500000 0.295387
O O9 0.672937 0.391851 0.312988
O O10 0.792354 0.292460 0.300013
O O11 0.081716 0.168042 0.488449
O O12 0.023258 0.112811 0.346653
O O13 0.416598 0.814589 0.183258
O O14 0.453403 0.000000 0.170040
O O15 0.500000 0.888646 0.000000
O O16 0.584726 0.500000 0.587495
O O17 0.602747 0.333527 0.682865
O O18 0.861282 0.840163 0.135564
O O19 0.903473 0.000000 0.009632
#
# Coordination Sequence:
#
# PCOD9197462 Si02
#       8
#     8   8   8   8   8   8   8   8
#     4  10  20  35  59  93 130 165 201 245 305 379
#     4  12  20  37  60  90 120 157 204 254 303 366
#     4  11  21  37  66  96 125 163 210 260 306 368
#     4  11  23  41  68  90 120 160 219 265 305 359
#     4  11  22  38  59  87 125 163 199 243 303 377
#     4  11  25  45  65  88 123 167 217 263 309 368
#     4  11  22  34  54  89 129 161 194 250 315 374
#     4  12  23  40  59  90 128 164 202 255 319 371
#
# _framework density 19.486661000000002
#
# number of rings (size 3 to 8) (size 9 to 14) (size 15 to 20)
#    0.000    0.875    5.000    3.750    0.000    3.500 
#    0.000    0.625    0.000    3.750    0.000    0.000 
#    0.000    0.000    0.000    0.000    0.000    0.000 
#
# Total GULP energy -178514.604329 kJ/mol
# GULP energy per Si atom -5578.581385 kJ/mol
# Density = 1.944231 g / cm^3
# Si number density = 19.486661 Si / 1000 Ang^3
#
#
#
# Elastic Constant Matrix: (Units=GPa)
#
#
# Indices 1 2 3 4 5 6 
#
# 1 64.1921 16.3047 21.5523 0.0000 8.7302 0.0000
# 2 16.3047 90.4249 31.4096 0.0000 6.1784 0.0000
# 3 21.5523 31.4096 73.3175 0.0000 6.3411 0.0000
# 4 0.0000 0.0000 0.0000 -1.2231 0.0000 6.9383
# 5 8.7302 6.1784 6.3411 0.0000 30.5434 0.0000
# 6 0.0000 0.0000 0.0000 6.9383 0.0000 20.1703
#
#
#
# Elastic Compliance Matrix: (Units=1/GPa)
#
#
# Indices 1 2 3 4 5 6 
#
# 1 0.017931 -0.001470 -0.004301 0.000000 -0.003935 0.000000
# 2 -0.001470 0.013181 -0.005112 0.000000 -0.001185 0.000000
# 3 -0.004301 -0.005112 0.017207 0.000000 -0.001309 0.000000
# 4 0.000000 0.000000 0.000000 -0.277029 0.000000 0.095294
# 5 -0.003935 -0.001185 -0.001309 0.000000 0.034376 0.000000
# 6 0.000000 0.000000 0.000000 0.095294 0.000000 0.016798
#
#
# Mechanical properties :
#
#
# Convention : Reuss Voigt Hill
#
# Bulk Modulus (GPa) = 37.66181 40.71863 39.19022
# Shear Modulus (GPa) = -34.03226 20.47601 -6.77813
#
# Velocity S-wave (km/s) = -4.18358 3.24508 -1.86705
# Velocity P-wave (km/s) = 1.99185 5.91453 3.93791
#
# Compressibility (1/GPa) = 0.02655209
#
# Stress axis : x y z
#
# Youngs Moduli (GPa) = 55.76997 75.86886 58.11688
#
# Poissons Ratio (x) = 0.11156 0.24994
# Poissons Ratio (y) = 0.08201 0.29709
# Poissons Ratio (z) = 0.23985 0.38784
#
# Static dielectric constant tensor:
#      x y z
#    x 1.729340 0.000000 -0.011710 
#    y 0.000000 1.822520 0.000000 
#    z -0.011710 0.000000 1.637070 
# 
# From -- ./inp_files/167235.got.cif
#   From: 2010.05.17/outbox.cif.g08.bks.cpg/sg12_84_cif.got.tgz:167235.got - 2010.06.03 13:09:07.
