data_PCOD9197536
_publ_section_title
;
Structure prediction by ZEFSAII (Michael W. Deem and Ramdas Pophale) SiO2 
 PCOD9197536
Probable space group: C 2/M
;
_chemical_formula_sum "Si O2"
_cell_formula_units_Z 52
_cell_length_a 11.278454
_cell_length_b 25.589287
_cell_length_c 9.179951
_cell_angle_alpha 90.000000
_cell_angle_beta 85.092750
_cell_angle_gamma 90.000000
_cell_volume 2639.692150
_symmetry_space_group_name_H-M "C 2/M"
_symmetry_group_IT_number 12
_symmetry_cell_setting 'monoclinic'
loop_
_space_group_symop_operation_xyz
x,y,z
-x,y,-z
-x,-y,-z
x,-y,z
1/2+x,1/2+y,z
1/2-x,1/2+y,-z
1/2-x,1/2-y,-z
1/2+x,1/2-y,z
loop_
_atom_site_type_symbol
_atom_site_label
_atom_site_fract_x
_atom_site_fract_y
_atom_site_fract_z
Si Si1 0.216453 0.335103 0.928772
Si Si2 0.628724 0.356012 0.648664
Si Si3 0.495336 0.000000 0.821195
Si Si4 0.233577 0.000000 0.301097
Si Si5 0.389428 0.269695 0.120161
Si Si6 0.858507 0.000000 0.018032
Si Si7 0.690907 0.912891 0.169127
Si Si8 0.870145 0.890115 0.664611
O O1 0.141912 0.290894 0.854105
O O2 0.299979 0.366436 0.808711
O O3 0.290752 0.301517 0.038890
O O4 0.151075 0.376809 0.037737
O O5 0.596979 0.302040 0.733075
O O6 0.746647 0.379937 0.710070
O O7 0.511006 0.392138 0.684289
O O8 0.643675 0.352993 0.474218
O O9 0.418692 0.050143 0.780575
O O10 0.624790 0.000000 0.736024
O O11 0.500000 0.000000 0.000000
O O12 0.182649 0.000000 0.143454
O O13 0.183277 0.946463 0.373226
O O14 0.500000 0.271904 0.000000
O O15 0.797549 0.950008 0.099230
O O16 0.000000 0.000000 0.000000
#
# Coordination Sequence:
#
# PCOD9197536 Si02
#       8
#     8   8   4   4   8   4   8   8
#     4  10  20  35  60  89 114 154 198 259 299 367
#     4  10  23  39  61  87 124 159 199 265 299 372
#     4  11  20  39  57  88 126 161 202 245 297 361
#     4  12  23  36  60  93 122 166 200 243 299 378
#     4  10  20  37  61  87 115 149 205 253 314 354
#     4  11  19  31  59  90 117 155 202 253 300 351
#     4  10  21  36  59  88 123 158 204 249 305 351
#     4  11  22  40  61  89 128 162 201 246 317 356
#
# _framework density 19.699268
#
# number of rings (size 3 to 8) (size 9 to 14) (size 15 to 20)
#    0.000    1.538    4.615    0.923    0.000    5.538 
#    0.000    1.538    0.000    0.000    0.000    0.000 
#    0.000    0.000    0.000    0.000    0.000    0.000 
#
# Total GULP energy -145058.196306 kJ/mol
# GULP energy per Si atom -5579.161396 kJ/mol
# Density = 1.965443 g / cm^3
# Si number density = 19.699268 Si / 1000 Ang^3
#
#
#
# Elastic Constant Matrix: (Units=GPa)
#
#
# Indices 1 2 3 4 5 6 
#
# 1 100.1880 34.1616 8.8178 0.0000 -0.7040 0.0000
# 2 34.1616 96.3363 14.4899 0.0000 -6.4485 0.0000
# 3 8.8178 14.4899 63.5535 0.0000 8.3145 0.0000
# 4 0.0000 0.0000 0.0000 1.1334 0.0000 11.4537
# 5 -0.7040 -6.4485 8.3145 0.0000 16.5234 0.0000
# 6 0.0000 0.0000 0.0000 11.4537 0.0000 16.4167
#
#
#
# Elastic Compliance Matrix: (Units=1/GPa)
#
#
# Indices 1 2 3 4 5 6 
#
# 1 0.011392 -0.004008 -0.000563 0.000000 -0.000796 0.000000
# 2 -0.004008 0.012707 -0.003177 0.000000 0.006387 0.000000
# 3 -0.000563 -0.003177 0.017879 0.000000 -0.010260 0.000000
# 4 0.000000 0.000000 0.000000 -0.145823 0.000000 0.101739
# 5 -0.000796 0.006387 -0.010260 0.000000 0.068142 0.000000
# 6 0.000000 0.000000 0.000000 0.101739 0.000000 -0.010068
#
#
# Mechanical properties :
#
#
# Convention : Reuss Voigt Hill
#
# Bulk Modulus (GPa) = 37.75952 41.66849 39.71401
# Shear Modulus (GPa) = -233.11921 20.32194 -106.39863
#
# Velocity S-wave (km/s) = -10.89018 3.21535 -7.35722
# Velocity P-wave (km/s) = 11.78636 5.91463 7.20886
#
# Compressibility (1/GPa) = 0.02648339
#
# Stress axis : x y z
#
# Youngs Moduli (GPa) = 87.78170 78.69695 55.93030
#
# Poissons Ratio (x) = 0.31544 0.03147
# Poissons Ratio (y) = 0.35186 0.17766
# Poissons Ratio (z) = 0.04939 0.24998
#
# Static dielectric constant tensor:
#      x y z
#    x 1.712070 0.000000 0.008680 
#    y 0.000000 1.756950 0.000000 
#    z 0.008680 0.000000 1.669800 
# 
# From -- ./inp_files/52573.got.cif
#   From: 2010.05.17/outbox.cif.g08.bks.cpg/sg12_27_cif.got.tgz:52573.got - 2010.06.03 13:09:07.
