data_PCOD9197770
_publ_section_title
;
Structure prediction by ZEFSAII (Michael W. Deem and Ramdas Pophale) SiO2 
 PCOD9197770
Probable space group: C 2/M
;
_chemical_formula_sum "Si O2"
_cell_formula_units_Z 64
_cell_length_a 11.257573
_cell_length_b 22.708985
_cell_length_c 16.055372
_cell_angle_alpha 90.000000
_cell_angle_beta 50.225065
_cell_angle_gamma 90.000000
_cell_volume 3154.587733
_symmetry_space_group_name_H-M "C 2/M"
_symmetry_group_IT_number 12
_symmetry_cell_setting 'monoclinic'
loop_
_space_group_symop_operation_xyz
x,y,z
-x,y,-z
-x,-y,-z
x,-y,z
1/2+x,1/2+y,z
1/2-x,1/2+y,-z
1/2-x,1/2-y,-z
1/2+x,1/2-y,z
loop_
_atom_site_type_symbol
_atom_site_label
_atom_site_fract_x
_atom_site_fract_y
_atom_site_fract_z
Si Si1 0.658419 0.069381 0.546756
Si Si2 0.366273 0.850821 0.681077
Si Si3 0.564315 0.260752 0.567642
Si Si4 0.837697 0.069484 0.822639
Si Si5 0.886639 0.136219 0.333888
Si Si6 0.096069 0.432600 0.058883
Si Si7 0.803211 0.429429 0.284083
Si Si8 0.172174 0.932476 0.892880
O O1 0.499703 0.102496 0.596988
O O2 0.794890 0.085151 0.423224
O O3 0.710690 0.091653 0.615562
O O4 0.630575 0.000000 0.560011
O O5 0.465739 0.792255 0.653626
O O6 0.247727 0.834579 0.660772
O O7 0.261283 0.885078 0.795875
O O8 0.500000 0.265415 0.500000
O O9 0.750000 0.250000 0.500000
O O10 0.540337 0.319480 0.632372
O O11 0.826299 0.076620 0.727889
O O12 0.983951 0.107354 0.782730
O O13 0.854617 0.000000 0.833584
O O14 0.679415 0.089676 0.938291
O O15 0.045642 0.500000 0.064213
O O16 0.230522 0.435319 0.066114
O O17 0.954974 0.403389 0.171178
O O18 0.824858 0.500000 0.283918
O O19 0.172638 0.000000 0.856701
O O20 0.000000 0.917485 0.000000
#
# Coordination Sequence:
#
# PCOD9197770 Si02
#       8
#     8   8   8   8   8   8   8   8
#     4  11  22  36  59  92 130 164 200 255 325 392
#     4  12  23  42  65  92 126 164 215 270 315 386
#     4  12  25  48  70  91 119 169 227 276 321 375
#     4  10  21  35  57  91 132 167 202 258 324 389
#     4  12  26  40  62  92 125 161 215 267 322 386
#     4   9  16  32  54  83 123 166 209 246 296 380
#     4   9  18  33  53  84 123 169 211 243 300 382
#     4  10  20  35  63  99 134 169 204 252 326 400
#
# _framework density 20.287911999999999
#
# number of rings (size 3 to 8) (size 9 to 14) (size 15 to 20)
#    0.000    1.375    3.750    2.250    1.750    5.000 
#    0.000    1.875    0.000    4.500    0.000    0.000 
#    0.000    0.000    0.000    0.000    0.000    0.000 
#
# Total GULP energy -178350.757898 kJ/mol
# GULP energy per Si atom -5573.461184 kJ/mol
# Density = 2.024174 g / cm^3
# Si number density = 20.287912 Si / 1000 Ang^3
#
#
#
# Elastic Constant Matrix: (Units=GPa)
#
#
# Indices 1 2 3 4 5 6 
#
# 1 68.9173 16.7158 2.9744 0.0000 1.7843 0.0000
# 2 16.7158 75.7226 18.9910 0.0000 -10.2247 0.0000
# 3 2.9744 18.9910 66.0536 0.0000 -7.0008 0.0000
# 4 0.0000 0.0000 0.0000 23.1033 0.0000 -6.4087
# 5 1.7843 -10.2247 -7.0008 0.0000 36.2160 0.0000
# 6 0.0000 0.0000 0.0000 -6.4087 0.0000 24.2974
#
#
#
# Elastic Compliance Matrix: (Units=1/GPa)
#
#
# Indices 1 2 3 4 5 6 
#
# 1 0.015444 -0.003693 0.000179 0.000000 -0.001769 0.000000
# 2 -0.003693 0.015511 -0.003890 0.000000 0.003809 0.000000
# 3 0.000179 -0.003890 0.016470 0.000000 0.002077 0.000000
# 4 0.000000 0.000000 0.000000 0.046701 0.000000 0.012318
# 5 -0.001769 0.003809 0.002077 0.000000 0.029176 0.000000
# 6 0.000000 0.000000 0.000000 0.012318 0.000000 0.044406
#
#
# Mechanical properties :
#
#
# Convention : Reuss Voigt Hill
#
# Bulk Modulus (GPa) = 30.65861 32.00622 31.33241
# Shear Modulus (GPa) = 25.85485 28.19081 27.02283
#
# Velocity S-wave (km/s) = 3.57374 3.73169 3.65357
# Velocity P-wave (km/s) = 5.67216 5.86324 5.76849
#
# Compressibility (1/GPa) = 0.03261726
#
# Stress axis : x y z
#
# Youngs Moduli (GPa) = 64.75029 64.46973 60.71805
#
# Poissons Ratio (x) = 0.23808 -0.01086
# Poissons Ratio (y) = 0.23912 0.23617
# Poissons Ratio (z) = -0.01158 0.25076
#
# Static dielectric constant tensor:
#      x y z
#    x 1.804550 0.000000 0.018280 
#    y 0.000000 1.696220 0.000000 
#    z 0.018280 0.000000 1.763920 
# 
# From -- ./inp_files/265065.got.cif
#   From: 2010.05.17/outbox.cif.g08.bks.cpg/sg12_133_cif.got.tgz:265065.got - 2010.06.03 13:09:07.
