data_PCOD9197551
_publ_section_title
;
Structure prediction by ZEFSAII (Michael W. Deem and Ramdas Pophale) SiO2 
 PCOD9197551
Probable space group: C 2/M
;
_chemical_formula_sum "Si O2"
_cell_formula_units_Z 48
_cell_length_a 20.496526
_cell_length_b 13.308753
_cell_length_c 20.101391
_cell_angle_alpha 90.000000
_cell_angle_beta 25.965313
_cell_angle_gamma 90.000000
_cell_volume 2400.745974
_symmetry_space_group_name_H-M "C 2/M"
_symmetry_group_IT_number 12
_symmetry_cell_setting 'monoclinic'
loop_
_space_group_symop_operation_xyz
x,y,z
-x,y,-z
-x,-y,-z
x,-y,z
1/2+x,1/2+y,z
1/2-x,1/2+y,-z
1/2-x,1/2-y,-z
1/2+x,1/2-y,z
loop_
_atom_site_type_symbol
_atom_site_label
_atom_site_fract_x
_atom_site_fract_y
_atom_site_fract_z
Si Si1 0.178380 0.110425 0.332829
Si Si2 0.210032 0.198551 0.443805
Si Si3 0.865589 0.388819 0.571328
Si Si4 0.503661 0.272899 0.248521
Si Si5 0.329840 0.305430 0.142385
Si Si6 0.758014 0.118605 0.061756
O O1 0.229548 0.128528 0.361920
O O2 0.238536 0.201765 0.233852
O O3 0.000000 0.115650 0.500000
O O4 0.223205 0.000000 0.267842
O O5 0.147648 0.303671 0.471198
O O6 0.368637 0.220527 0.332009
O O7 0.084404 0.168095 0.612238
O O8 0.881042 0.500000 0.528828
O O9 0.722831 0.377251 0.749482
O O10 0.000000 0.371453 0.500000
O O11 0.616169 0.187494 0.172449
O O12 0.603874 0.344785 0.110638
O O13 0.298861 0.356260 0.100529
O O14 0.500000 0.280866 0.000000
O O15 0.730074 0.000000 0.079480
#
# Coordination Sequence:
#
# PCOD9197551 Si02
#       6
#     8   8   8   8   8   8
#     4  10  21  38  61  85 111 148 191 237 288 337
#     4  10  20  38  60  82 115 150 192 242 279 327
#     4  10  20  35  60  90 116 147 188 237 292 340
#     4  10  23  39  57  84 115 154 196 233 275 332
#     4  11  22  37  59  88 118 145 182 236 291 344
#     4  11  23  40  59  82 117 154 187 228 284 345
#
# _framework density 19.993786
#
# number of rings (size 3 to 8) (size 9 to 14) (size 15 to 20)
#    0.000    1.667    0.000    6.500    0.000    7.000 
#    0.000    8.333    0.000    0.000    0.000    0.000 
#    0.000    0.000    0.000    0.000    0.000    0.000 
#
# Total GULP energy -134066.915461 kJ/mol
# GULP energy per Si atom -5586.121478 kJ/mol
# Density = 1.994828 g / cm^3
# Si number density = 19.993786 Si / 1000 Ang^3
#
#
#
# Elastic Constant Matrix: (Units=GPa)
#
#
# Indices 1 2 3 4 5 6 
#
# 1 49.7706 -8.7711 10.9848 0.0002 -0.8939 0.0000
# 2 -8.7711 62.2208 7.4901 0.0004 -3.7185 -0.0002
# 3 10.9848 7.4901 85.6113 0.0006 -2.0028 -0.0001
# 4 0.0002 0.0004 0.0006 -10.2095 -0.0002 7.2396
# 5 -0.8939 -3.7185 -2.0028 -0.0002 34.5557 0.0002
# 6 0.0000 -0.0002 -0.0001 7.2396 0.0002 -1.3679
#
#
#
# Elastic Compliance Matrix: (Units=1/GPa)
#
#
# Indices 1 2 3 4 5 6 
#
# 1 0.021376 0.003422 -0.003025 0.000000 0.000746 -0.000001
# 2 0.003422 0.016887 -0.001874 0.000000 0.001797 -0.000001
# 3 -0.003025 -0.001874 0.012243 0.000000 0.000430 -0.000001
# 4 0.000000 0.000000 0.000000 0.035581 -0.000001 0.188307
# 5 0.000746 0.001797 0.000430 -0.000001 0.029176 0.000000
# 6 -0.000001 -0.000001 -0.000001 0.188307 0.000000 0.265557
#
#
# Mechanical properties :
#
#
# Convention : Reuss Voigt Hill
#
# Bulk Modulus (GPa) = 21.02962 24.11225 22.57093
# Shear Modulus (GPa) = 12.51172 17.12226 14.81699
#
# Velocity S-wave (km/s) = 2.50427 2.92957 2.72523
# Velocity P-wave (km/s) = 4.34773 4.85069 4.60608
#
# Compressibility (1/GPa) = 0.04755198
#
# Stress axis : x y z
#
# Youngs Moduli (GPa) = 46.78092 59.21630 81.68034
#
# Poissons Ratio (x) = -0.20264 0.24706
# Poissons Ratio (y) = -0.16009 0.15311
# Poissons Ratio (z) = 0.14150 0.11100
#
# Static dielectric constant tensor:
#      x y z
#    x 1.693460 0.000000 0.035680 
#    y 0.000000 1.685360 0.000000 
#    z 0.035680 0.000000 1.625990 
# 
# From -- ./inp_files/111474.got.cif
#   From: 2010.05.17/outbox.cif.g08.bks.cpg/sg12_56_cif.got.tgz:111474.got - 2010.06.03 13:09:07.
