data_PCOD9197833
_publ_section_title
;
Structure prediction by ZEFSAII (Michael W. Deem and Ramdas Pophale) SiO2 
 PCOD9197833
Probable space group: C 2/M
;
_chemical_formula_sum "Si O2"
_cell_formula_units_Z 50
_cell_length_a 20.425600
_cell_length_b 7.652899
_cell_length_c 15.812924
_cell_angle_alpha 90.000000
_cell_angle_beta 103.827680
_cell_angle_gamma 90.000000
_cell_volume 2400.162712
_symmetry_space_group_name_H-M "C 2/M"
_symmetry_group_IT_number 12
_symmetry_cell_setting 'monoclinic'
loop_
_space_group_symop_operation_xyz
x,y,z
-x,y,-z
-x,-y,-z
x,-y,z
1/2+x,1/2+y,z
1/2-x,1/2+y,-z
1/2-x,1/2-y,-z
1/2+x,1/2-y,z
loop_
_atom_site_type_symbol
_atom_site_label
_atom_site_fract_x
_atom_site_fract_y
_atom_site_fract_z
Si Si1 0.961165 0.686297 0.877951
Si Si2 0.000000 0.000000 0.000000
Si Si3 0.459063 0.711948 0.690037
Si Si4 0.797989 0.787903 0.129156
Si Si5 0.648825 0.300703 0.033709
Si Si6 0.611812 0.286709 0.688236
Si Si7 0.579249 0.706902 0.499320
O O1 0.996412 0.500000 0.894871
O O2 0.003828 0.845208 0.926980
O O3 0.939148 0.718704 0.775007
O O4 0.895994 0.688960 0.918049
O O5 0.456077 0.500000 0.690409
O O6 0.537281 0.761132 0.698136
O O7 0.416965 0.775345 0.595152
O O8 0.725483 0.703952 0.090593
O O9 0.833019 0.731991 0.226613
O O10 0.789912 0.000000 0.126087
O O11 0.844221 0.748331 0.061705
O O12 0.619407 0.500000 0.032703
O O13 0.612972 0.500000 0.686551
O O14 0.618516 0.223292 0.593380
O O15 0.500000 0.721058 0.500000
O O16 0.594273 0.500000 0.499112
#
# Coordination Sequence:
#
# PCOD9197833 Si02
#       7
#     8   2   8   8   8   8   8
#     4  12  25  39  59  82 111 148 185 223 270 327
#     4  12  26  44  56  82 114 148 182 228 268 322
#     4   9  16  30  53  78 113 148 179 219 275 330
#     4   9  18  31  53  77 103 142 185 231 275 322
#     4  10  20  36  53  73 108 148 185 226 273 323
#     4   8  14  25  49  80 110 140 182 229 273 325
#     4   7  11  22  44  77 106 140 180 218 269 331
#
# _framework density 20.83192
#
# number of rings (size 3 to 8) (size 9 to 14) (size 15 to 20)
#    0.000    2.720    1.600    2.640    2.240    0.640 
#    0.000    0.800    0.000    6.240    0.000    0.000 
#    0.000    0.000    0.000    0.000    0.000    0.000 
#
# Total GULP energy -139289.998036 kJ/mol
# GULP energy per Si atom -5571.599921 kJ/mol
# Density = 2.078451 g / cm^3
# Si number density = 20.831920 Si / 1000 Ang^3
#
#
#
# Elastic Constant Matrix: (Units=GPa)
#
#
# Indices 1 2 3 4 5 6 
#
# 1 32.4456 19.1256 30.3263 0.0000 -0.6975 0.0000
# 2 19.1256 93.8389 44.6928 0.0000 -5.7774 0.0000
# 3 30.3263 44.6928 219.7584 0.0000 10.7114 0.0000
# 4 0.0000 0.0000 0.0000 -69.0038 0.0000 13.2129
# 5 -0.6975 -5.7774 10.7114 0.0000 25.0013 0.0000
# 6 0.0000 0.0000 0.0000 13.2129 0.0000 -3.1749
#
#
#
# Elastic Compliance Matrix: (Units=1/GPa)
#
#
# Indices 1 2 3 4 5 6 
#
# 1 0.038109 -0.005682 -0.004178 0.000000 0.001540 0.000000
# 2 -0.005682 0.013018 -0.002045 0.000000 0.003726 0.000000
# 3 -0.004178 -0.002045 0.005691 0.000000 -0.003027 0.000000
# 4 0.000000 0.000000 0.000000 -0.071350 0.000000 -0.296938
# 5 0.001540 0.003726 -0.003027 0.000000 0.042199 0.000000
# 6 0.000000 0.000000 0.000000 -0.296938 0.000000 -1.550741
#
#
# Mechanical properties :
#
#
# Convention : Reuss Voigt Hill
#
# Bulk Modulus (GPa) = 30.29734 59.37025 44.83380
# Shear Modulus (GPa) = -3.35962 7.35775 1.99907
#
# Velocity S-wave (km/s) = -1.27131 1.88139 0.98066
# Velocity P-wave (km/s) = 3.52425 5.76897 4.78024
#
# Compressibility (1/GPa) = 0.03300620
#
# Stress axis : x y z
#
# Youngs Moduli (GPa) = 26.24062 76.81667 175.73112
#
# Poissons Ratio (x) = 0.43648 0.73428
# Poissons Ratio (y) = 0.14910 0.35937
# Poissons Ratio (z) = 0.10965 0.15709
#
# Static dielectric constant tensor:
#      x y z
#    x 1.607980 0.000000 -0.010170 
#    y 0.000000 1.777450 0.000000 
#    z -0.010170 0.000000 1.771890 
# 
# From -- ./inp_files/230249.got.cif
#   From: 2010.05.17/outbox.cif.g08.bks.cpg/sg12_116_cif.got.tgz:230249.got - 2010.06.03 13:09:07.
