data_PCOD9197077
_publ_section_title
;
Structure prediction by ZEFSAII (Michael W. Deem and Ramdas Pophale) SiO2 
 PCOD9197077
Probable space group: C 2/M
;
_chemical_formula_sum "Si O2"
_cell_formula_units_Z 56
_cell_length_a 15.602740
_cell_length_b 8.978747
_cell_length_c 24.027142
_cell_angle_alpha 90.000000
_cell_angle_beta 126.558249
_cell_angle_gamma 90.000000
_cell_volume 2703.774008
_symmetry_space_group_name_H-M "C 2/M"
_symmetry_group_IT_number 12
_symmetry_cell_setting 'monoclinic'
loop_
_space_group_symop_operation_xyz
x,y,z
-x,y,-z
-x,-y,-z
x,-y,z
1/2+x,1/2+y,z
1/2-x,1/2+y,-z
1/2-x,1/2-y,-z
1/2+x,1/2-y,z
loop_
_atom_site_type_symbol
_atom_site_label
_atom_site_fract_x
_atom_site_fract_y
_atom_site_fract_z
Si Si1 0.847208 0.824931 0.172323
Si Si2 0.176011 0.321452 0.339605
Si Si3 0.069769 0.176389 0.192141
Si Si4 0.994906 0.334109 0.063791
Si Si5 0.100574 0.678882 0.578248
Si Si6 0.040436 0.321545 0.681077
Si Si7 0.298932 0.668542 0.966464
O O1 0.743542 0.753996 0.103827
O O2 0.948443 0.802967 0.169373
O O3 0.882147 0.752324 0.243639
O O4 0.830698 0.000000 0.172343
O O5 0.176519 0.500000 0.332273
O O6 0.143858 0.239136 0.269850
O O7 0.292697 0.262023 0.399980
O O8 0.081148 0.285338 0.346896
O O9 0.081121 0.277416 0.141481
O O10 0.088068 0.000000 0.190292
O O11 0.958307 0.500000 0.070399
O O12 0.920770 0.187810 0.030339
O O13 0.000000 0.358379 0.000000
O O14 0.119269 0.500000 0.584497
O O15 0.000000 0.710524 0.500000
O O16 0.070144 0.721932 0.629868
O O17 0.051284 0.500000 0.689458
O O18 0.266701 0.500000 0.948855
O O19 0.250000 0.750000 0.000000
#
# Coordination Sequence:
#
# PCOD9197077 Si02
#       7
#     8   8   8   8   8   8   8
#     4  10  20  35  58  87 115 150 198 250 297 350
#     4  10  21  38  62  90 121 157 198 247 302 359
#     4  10  20  36  59  83 112 152 195 242 296 356
#     4  11  24  39  55  79 113 152 196 247 300 355
#     4  10  22  41  64  91 125 162 200 244 298 364
#     4   9  20  39  61  88 122 161 203 247 301 365
#     4  12  23  36  57  82 112 152 195 243 297 352
#
# _framework density 20.711790000000001
#
# number of rings (size 3 to 8) (size 9 to 14) (size 15 to 20)
#    0.000    1.714    1.429    3.000    0.000    5.429 
#    0.000    0.000    0.000    0.000    0.000    0.000 
#    0.000    0.000    0.000    0.000    0.000    0.000 
#
# Total GULP energy -156124.880075 kJ/mol
# GULP energy per Si atom -5575.888574 kJ/mol
# Density = 2.066465 g / cm^3
# Si number density = 20.711790 Si / 1000 Ang^3
#
#
#
# Elastic Constant Matrix: (Units=GPa)
#
#
# Indices 1 2 3 4 5 6 
#
# 1 22.0914 16.4040 9.5765 0.0000 -8.4032 0.0000
# 2 16.4040 68.2226 22.6831 0.0000 -3.8397 0.0000
# 3 9.5765 22.6831 82.7747 0.0000 -4.3559 0.0000
# 4 0.0000 0.0000 0.0000 42.0091 0.0000 6.1575
# 5 -8.4032 -3.8397 -4.3559 0.0000 32.5755 0.0000
# 6 0.0000 0.0000 0.0000 6.1575 0.0000 22.7247
#
#
#
# Elastic Compliance Matrix: (Units=1/GPa)
#
#
# Indices 1 2 3 4 5 6 
#
# 1 0.061490 -0.013070 -0.002798 0.000000 0.013947 0.000000
# 2 -0.013070 0.018962 -0.003770 0.000000 -0.001641 0.000000
# 3 -0.002798 -0.003770 0.013471 0.000000 0.000635 0.000000
# 4 0.000000 0.000000 0.000000 0.024789 0.000000 -0.006717
# 5 0.013947 -0.001641 0.000635 0.000000 0.034187 0.000000
# 6 0.000000 0.000000 0.000000 -0.006717 0.000000 0.045825
#
#
# Mechanical properties :
#
#
# Convention : Reuss Voigt Hill
#
# Bulk Modulus (GPa) = 18.29967 30.04620 24.17294
# Shear Modulus (GPa) = 19.51473 27.75686 23.63580
#
# Velocity S-wave (km/s) = 3.07286 3.66477 3.38179
# Velocity P-wave (km/s) = 4.63083 5.69612 5.19087
#
# Compressibility (1/GPa) = 0.05464580
#
# Stress axis : x y z
#
# Youngs Moduli (GPa) = 16.26284 52.73765 74.23135
#
# Poissons Ratio (x) = 0.68927 0.20773
# Poissons Ratio (y) = 0.21255 0.27988
# Poissons Ratio (z) = 0.04551 0.19884
#
# Static dielectric constant tensor:
#      x y z
#    x 1.815950 0.000000 -0.003810 
#    y 0.000000 1.715550 0.000000 
#    z -0.003810 0.000000 1.700560 
# 
# From -- ./inp_files/342520.got.cif
#   From: 2010.05.17/outbox.cif.g08.bks.cpg/sg12_172_cif.got.tgz:342520.got - 2010.06.03 13:09:07.
