data_PCOD9197552
_publ_section_title
;
Structure prediction by ZEFSAII (Michael W. Deem and Ramdas Pophale) SiO2 
 PCOD9197552
Probable space group: C 2/M
;
_chemical_formula_sum "Si O2"
_cell_formula_units_Z 40
_cell_length_a 19.765280
_cell_length_b 11.758412
_cell_length_c 16.276331
_cell_angle_alpha 90.000000
_cell_angle_beta 35.699968
_cell_angle_gamma 90.000000
_cell_volume 2207.391432
_symmetry_space_group_name_H-M "C 2/M"
_symmetry_group_IT_number 12
_symmetry_cell_setting 'monoclinic'
loop_
_space_group_symop_operation_xyz
x,y,z
-x,y,-z
-x,-y,-z
x,-y,z
1/2+x,1/2+y,z
1/2-x,1/2+y,-z
1/2-x,1/2-y,-z
1/2+x,1/2-y,z
loop_
_atom_site_type_symbol
_atom_site_label
_atom_site_fract_x
_atom_site_fract_y
_atom_site_fract_z
Si Si1 0.322427 0.500000 0.137999
Si Si2 0.476943 0.629874 0.619185
Si Si3 0.384072 0.284095 0.370138
Si Si4 0.559036 0.500000 0.802216
Si Si5 0.903495 0.631374 0.887715
Si Si6 0.733522 0.794573 0.135214
O O1 0.367057 0.500000 0.186680
O O2 0.251262 0.386908 0.187950
O O3 0.427593 0.500000 0.967097
O O4 0.500000 0.634387 0.500000
O O5 0.454238 0.500000 0.666046
O O6 0.580669 0.675620 0.573277
O O7 0.365884 0.705082 0.747377
O O8 0.250000 0.250000 0.500000
O O9 0.413436 0.388680 0.279577
O O10 0.471357 0.180411 0.261992
O O11 0.909242 0.500000 0.908455
O O12 0.812783 0.641540 0.900895
O O13 0.849191 0.721552 0.005005
#
# Coordination Sequence:
#
# PCOD9197552 Si02
#       6
#     4   8   8   4   8   8
#     4  11  22  40  64  91 122 158 205 253 301 360
#     4  10  22  40  62  88 120 159 201 251 307 361
#     4  11  24  40  61  86 122 164 204 242 298 369
#     4  11  24  42  62  86 123 170 204 240 304 369
#     4  10  20  35  60  90 116 153 197 247 300 352
#     4  10  20  36  61  89 120 148 201 252 299 353
#
# _framework density 18.120936
#
# number of rings (size 3 to 8) (size 9 to 14) (size 15 to 20)
#    0.000    1.600    4.000    0.600    4.200    0.000 
#    0.000    0.500    0.000    1.200    0.000    0.000 
#    0.000    0.000    0.000    0.000    0.000    0.000 
#
# Total GULP energy -111610.263034 kJ/mol
# GULP energy per Si atom -5580.513152 kJ/mol
# Density = 1.807969 g / cm^3
# Si number density = 18.120936 Si / 1000 Ang^3
#
#
#
# Elastic Constant Matrix: (Units=GPa)
#
#
# Indices 1 2 3 4 5 6 
#
# 1 92.1602 41.4382 36.8362 0.0000 -10.3956 0.0000
# 2 41.4382 123.3470 36.7550 0.0000 -12.1950 0.0000
# 3 36.8362 36.7550 62.2778 0.0000 -17.6045 0.0000
# 4 0.0000 0.0000 0.0000 9.3074 0.0000 1.3434
# 5 -10.3956 -12.1950 -17.6045 0.0000 26.5913 0.0000
# 6 0.0000 0.0000 0.0000 1.3434 0.0000 23.7504
#
#
#
# Elastic Compliance Matrix: (Units=1/GPa)
#
#
# Indices 1 2 3 4 5 6 
#
# 1 0.015027 -0.002916 -0.007239 0.000000 -0.000256 0.000000
# 2 -0.002916 0.010418 -0.004177 0.000000 0.000872 0.000000
# 3 -0.007239 -0.004177 0.026404 0.000000 0.012735 0.000000
# 4 0.000000 0.000000 0.000000 0.108326 0.000000 -0.006127
# 5 -0.000256 0.000872 0.012735 0.000000 0.046337 0.000000
# 6 0.000000 0.000000 0.000000 -0.006127 0.000000 0.042451
#
#
# Mechanical properties :
#
#
# Convention : Reuss Voigt Hill
#
# Bulk Modulus (GPa) = 43.13355 56.42710 49.78033
# Shear Modulus (GPa) = 17.52205 22.78018 20.15112
#
# Velocity S-wave (km/s) = 3.11296 3.54943 3.33834
# Velocity P-wave (km/s) = 6.06428 6.92855 6.51077
#
# Compressibility (1/GPa) = 0.02318381
#
# Stress axis : x y z
#
# Youngs Moduli (GPa) = 66.54889 95.98956 37.87337
#
# Poissons Ratio (x) = 0.27994 0.27417
# Poissons Ratio (y) = 0.19408 0.15819
# Poissons Ratio (z) = 0.48175 0.40093
#
# Static dielectric constant tensor:
#      x y z
#    x 1.620790 0.000000 0.015530 
#    y 0.000000 1.611390 0.000000 
#    z 0.015530 0.000000 1.614780 
# 
# From -- ./inp_files/153909.got.cif
#   From: 2010.05.17/outbox.cif.g08.bks.cpg/sg12_77_cif.got.tgz:153909.got - 2010.06.03 13:09:07.
