data_PCOD9197926
_publ_section_title
;
Structure prediction by ZEFSAII (Michael W. Deem and Ramdas Pophale) SiO2 
 PCOD9197926
Probable space group: C 2/M
;
_chemical_formula_sum "Si O2"
_cell_formula_units_Z 60
_cell_length_a 16.463368
_cell_length_b 32.407156
_cell_length_c 6.059730
_cell_angle_alpha 90.000000
_cell_angle_beta 99.443501
_cell_angle_gamma 90.000000
_cell_volume 3189.238667
_symmetry_space_group_name_H-M "C 2/M"
_symmetry_group_IT_number 12
_symmetry_cell_setting 'monoclinic'
loop_
_space_group_symop_operation_xyz
x,y,z
-x,y,-z
-x,-y,-z
x,-y,z
1/2+x,1/2+y,z
1/2-x,1/2+y,-z
1/2-x,1/2-y,-z
1/2+x,1/2-y,z
loop_
_atom_site_type_symbol
_atom_site_label
_atom_site_fract_x
_atom_site_fract_y
_atom_site_fract_z
Si Si1 0.701031 0.172332 0.331140
Si Si2 0.000000 0.802473 0.500000
Si Si3 0.283910 0.624895 0.750474
Si Si4 0.162492 0.406967 0.075839
Si Si5 0.919165 0.745798 0.835520
Si Si6 0.569425 0.047313 0.695385
Si Si7 0.135792 0.820487 0.891505
Si Si8 0.239946 0.453796 0.492715
O O1 0.740379 0.160280 0.583773
O O2 0.641853 0.211166 0.281728
O O3 0.778681 0.178985 0.203427
O O4 0.651059 0.131436 0.233845
O O5 0.948862 0.773468 0.643578
O O6 0.936992 0.827055 0.316579
O O7 0.221244 0.610277 0.910935
O O8 0.295466 0.584271 0.604494
O O9 0.359418 0.645201 0.914216
O O10 0.084965 0.426148 0.919058
O O11 0.210007 0.442084 0.234417
O O12 0.877622 0.776777 0.993482
O O13 0.000000 0.728733 0.000000
O O14 0.500000 0.063770 0.500000
O O15 0.655967 0.046473 0.600769
O O16 0.547705 0.000000 0.741816
O O17 0.274882 0.500000 0.520795
#
# Coordination Sequence:
#
# PCOD9197926 Si02
#       8
#     8   4   8   8   8   8   8   8
#     4  10  20  36  55  76 104 143 182 223 265 313
#     4  10  22  36  54  80 109 140 171 220 268 326
#     4   9  19  33  52  78 102 131 173 217 263 313
#     4   9  18  32  46  68  99 132 175 217 262 310
#     4  10  22  38  53  78 108 141 183 220 263 313
#     4   9  17  29  45  66  92 128 175 222 267 313
#     4  10  20  36  59  79 105 135 179 224 267 317
#     4   9  17  31  50  71  98 131 170 215 261 312
#
# _framework density 18.813267
#
# number of rings (size 3 to 8) (size 9 to 14) (size 15 to 20)
#    0.000    2.533    0.000    1.600    0.000    7.467 
#    7.200    2.000    0.000    0.000    0.000    0.467 
#    0.000   22.933    0.000    8.400    0.000    8.133 
#
# Total GULP energy -167270.240809 kJ/mol
# GULP energy per Si atom -5575.674694 kJ/mol
# Density = 1.877045 g / cm^3
# Si number density = 18.813267 Si / 1000 Ang^3
#
#
#
# Elastic Constant Matrix: (Units=GPa)
#
#
# Indices 1 2 3 4 5 6 
#
# 1 48.6637 37.4644 35.7604 0.0000 12.6231 0.0000
# 2 37.4644 87.0930 54.6139 0.0000 32.3913 0.0000
# 3 35.7604 54.6139 138.8725 0.0000 35.0233 0.0000
# 4 0.0000 0.0000 0.0000 10.9635 0.0000 7.0869
# 5 12.6231 32.3913 35.0233 0.0000 37.1863 0.0000
# 6 0.0000 0.0000 0.0000 7.0869 0.0000 7.2559
#
#
#
# Elastic Compliance Matrix: (Units=1/GPa)
#
#
# Indices 1 2 3 4 5 6 
#
# 1 0.032563 -0.012829 -0.004420 0.000000 0.004284 0.000000
# 2 -0.012829 0.023784 -0.002523 0.000000 -0.013987 0.000000
# 3 -0.004420 -0.002523 0.011015 0.000000 -0.006676 0.000000
# 4 0.000000 0.000000 0.000000 0.247419 0.000000 -0.241655
# 5 0.004284 -0.013987 -0.006676 0.000000 0.043908 0.000000
# 6 0.000000 0.000000 0.000000 -0.241655 0.000000 0.373845
#
#
# Mechanical properties :
#
#
# Convention : Reuss Voigt Hill
#
# Bulk Modulus (GPa) = 35.94777 58.92293 47.43535
# Shear Modulus (GPa) = 6.39918 20.86717 13.63318
#
# Velocity S-wave (km/s) = 1.84629 3.33404 2.69487
# Velocity P-wave (km/s) = 4.86767 6.79772 5.91199
#
# Compressibility (1/GPa) = 0.02781814
#
# Stress axis : x y z
#
# Youngs Moduli (GPa) = 30.71010 42.04471 90.78553
#
# Poissons Ratio (x) = 0.53938 0.40131
# Poissons Ratio (y) = 0.39397 0.22902
# Poissons Ratio (z) = 0.13575 0.10606
#
# Static dielectric constant tensor:
#      x y z
#    x 1.643260 0.000000 0.001280 
#    y 0.000000 1.673990 0.000000 
#    z 0.001280 0.000000 1.688920 
# 
# From -- ./inp_files/18329.got.cif
#   From: 2010.05.17/outbox.cif.g08.bks.cpg/sg12_10_cif.got.tgz:18329.got - 2010.06.03 13:09:07.
