data_PCOD9197382
_publ_section_title
;
Structure prediction by ZEFSAII (Michael W. Deem and Ramdas Pophale) SiO2 
 PCOD9197382
Probable space group: C 2/M
;
_chemical_formula_sum "Si O2"
_cell_formula_units_Z 40
_cell_length_a 23.378863
_cell_length_b 11.205548
_cell_length_c 10.367999
_cell_angle_alpha 90.000000
_cell_angle_beta 52.305407
_cell_angle_gamma 90.000000
_cell_volume 2149.227070
_symmetry_space_group_name_H-M "C 2/M"
_symmetry_group_IT_number 12
_symmetry_cell_setting 'monoclinic'
loop_
_space_group_symop_operation_xyz
x,y,z
-x,y,-z
-x,-y,-z
x,-y,z
1/2+x,1/2+y,z
1/2-x,1/2+y,-z
1/2-x,1/2-y,-z
1/2+x,1/2-y,z
loop_
_atom_site_type_symbol
_atom_site_label
_atom_site_fract_x
_atom_site_fract_y
_atom_site_fract_z
Si Si1 0.493066 0.630414 0.355015
Si Si2 0.143847 0.205383 0.052332
Si Si3 0.083456 0.360496 0.904700
Si Si4 0.600632 0.861141 0.591104
Si Si5 0.804028 0.367804 0.786407
O O1 0.500000 0.636881 0.500000
O O2 0.458439 0.500000 0.371828
O O3 0.572507 0.631628 0.183324
O O4 0.453645 0.752125 0.365033
O O5 0.162756 0.276441 0.157359
O O6 0.122467 0.290875 0.963939
O O7 0.217661 0.140344 0.912035
O O8 0.080723 0.500000 0.942759
O O9 0.120651 0.348737 0.713622
O O10 0.000000 0.320555 0.000000
O O11 0.664897 0.848169 0.399466
O O12 0.572333 0.000000 0.616378
O O13 0.827360 0.500000 0.794611
#
# Coordination Sequence:
#
# PCOD9197382 Si02
#       5
#     8   8   8   8   8
#     4  11  22  37  58  88 122 154 193 246 299 346
#     4  11  21  37  59  86 117 156 193 240 298 349
#     4  10  20  35  59  89 120 150 194 249 294 344
#     4  10  21  39  61  87 117 154 199 243 289 347
#     4  10  22  38  58  84 115 154 201 243 286 347
#
# _framework density 18.611342
#
# number of rings (size 3 to 8) (size 9 to 14) (size 15 to 20)
#    0.000    1.600    4.000    1.200    0.000    2.000 
#    0.000    4.000    0.000    0.000    0.000    0.000 
#    0.000    0.000    0.000    0.000    0.000    0.000 
#
# Total GULP energy -111476.660507 kJ/mol
# GULP energy per Si atom -5573.833025 kJ/mol
# Density = 1.856898 g / cm^3
# Si number density = 18.611342 Si / 1000 Ang^3
#
#
#
# Elastic Constant Matrix: (Units=GPa)
#
#
# Indices 1 2 3 4 5 6 
#
# 1 33.7973 22.7609 26.7952 0.0000 4.9803 0.0000
# 2 22.7609 91.0224 44.1061 0.0000 1.5527 0.0000
# 3 26.7952 44.1061 133.1695 0.0000 0.8053 0.0000
# 4 0.0000 0.0000 0.0000 18.5059 0.0000 13.8975
# 5 4.9803 1.5527 0.8053 0.0000 30.5258 0.0000
# 6 0.0000 0.0000 0.0000 13.8975 0.0000 105.2866
#
#
#
# Elastic Compliance Matrix: (Units=1/GPa)
#
#
# Indices 1 2 3 4 5 6 
#
# 1 0.039693 -0.007113 -0.005595 0.000000 -0.005967 0.000000
# 2 -0.007113 0.014370 -0.003331 0.000000 0.000517 0.000000
# 3 -0.005595 -0.003331 0.009733 0.000000 0.000825 0.000000
# 4 0.000000 0.000000 0.000000 0.059983 0.000000 -0.007917
# 5 -0.005967 0.000517 0.000825 0.000000 0.033685 0.000000
# 6 0.000000 0.000000 0.000000 -0.007917 0.000000 0.010543
#
#
# Mechanical properties :
#
#
# Convention : Reuss Voigt Hill
#
# Bulk Modulus (GPa) = 31.52705 49.47928 40.50316
# Shear Modulus (GPa) = 23.73511 41.81879 32.77695
#
# Velocity S-wave (km/s) = 3.57501 4.74534 4.20113
# Velocity P-wave (km/s) = 5.83245 7.52779 6.73369
#
# Compressibility (1/GPa) = 0.03171880
#
# Stress axis : x y z
#
# Youngs Moduli (GPa) = 25.19317 69.58745 102.73928
#
# Poissons Ratio (x) = 0.49496 0.57481
# Poissons Ratio (y) = 0.17919 0.34227
# Poissons Ratio (z) = 0.14095 0.23183
#
# Static dielectric constant tensor:
#      x y z
#    x 1.608470 0.000000 -0.022170 
#    y 0.000000 1.676450 0.000000 
#    z -0.022170 0.000000 1.648360 
# 
# From -- ./inp_files/83351.got.cif
#   From: 2010.05.17/outbox.cif.g08.bks.cpg/sg12_42_cif.got.tgz:83351.got - 2010.06.03 13:09:07.
