data_PCOD9197708
_publ_section_title
;
Structure prediction by ZEFSAII (Michael W. Deem and Ramdas Pophale) SiO2 
 PCOD9197708
Probable space group: C 2/M
;
_chemical_formula_sum "Si O2"
_cell_formula_units_Z 64
_cell_length_a 11.649882
_cell_length_b 15.043558
_cell_length_c 24.717807
_cell_angle_alpha 90.000000
_cell_angle_beta 42.084092
_cell_angle_gamma 90.000000
_cell_volume 2903.352659
_symmetry_space_group_name_H-M "C 2/M"
_symmetry_group_IT_number 12
_symmetry_cell_setting 'monoclinic'
loop_
_space_group_symop_operation_xyz
x,y,z
-x,y,-z
-x,-y,-z
x,-y,z
1/2+x,1/2+y,z
1/2-x,1/2+y,-z
1/2-x,1/2-y,-z
1/2+x,1/2-y,z
loop_
_atom_site_type_symbol
_atom_site_label
_atom_site_fract_x
_atom_site_fract_y
_atom_site_fract_z
Si Si1 0.337106 0.183643 0.572413
Si Si2 0.711896 0.602528 0.248089
Si Si3 0.438338 0.601040 0.137257
Si Si4 0.031086 0.600491 0.297131
Si Si5 0.952232 0.895167 0.248184
Si Si6 0.559122 0.106294 0.170641
Si Si7 0.643012 0.283975 0.985265
Si Si8 0.971584 0.236910 0.395965
O O1 0.500000 0.121446 0.500000
O O2 0.199250 0.146655 0.663454
O O3 0.216883 0.205282 0.561530
O O4 0.452101 0.252695 0.569571
O O5 0.688539 0.500000 0.274416
O O6 0.626732 0.611606 0.219744
O O7 0.603715 0.668172 0.322876
O O8 0.911970 0.620888 0.178038
O O9 0.501111 0.500000 0.115987
O O10 0.233166 0.600540 0.212944
O O11 0.482397 0.646114 0.179061
O O12 0.519832 0.645039 0.057434
O O13 0.978093 0.500000 0.329026
O O14 0.964299 0.627331 0.261080
O O15 0.991090 0.668744 0.358242
O O16 0.908284 0.000000 0.257147
O O17 0.717425 0.167863 0.101332
O O18 0.603040 0.000000 0.156751
O O19 0.500000 0.229392 0.000000
O O20 0.750000 0.250000 0.000000
#
# Coordination Sequence:
#
# PCOD9197708 Si02
#       8
#     8   8   8   8   8   8   8   8
#     4  11  23  38  58  88 122 158 196 240 302 364
#     4   9  20  37  60  89 120 157 200 244 297 359
#     4  10  20  38  61  83 111 149 199 249 298 351
#     4  10  20  35  62  91 114 148 202 253 294 346
#     4   9  19  38  62  88 117 152 197 250 303 362
#     4  10  21  38  60  86 118 156 201 250 299 350
#     4  12  27  40  56  85 122 159 201 252 304 357
#     4  11  22  38  63  88 122 160 197 248 295 357
#
# _framework density 22.043482000000001
#
# number of rings (size 3 to 8) (size 9 to 14) (size 15 to 20)
#    0.000    1.750    2.500    1.500    1.750    3.750 
#    0.000    0.000    0.000    6.750    0.000    0.000 
#    0.000    0.000    0.000    0.000    0.000    0.000 
#
# Total GULP energy -178231.536406 kJ/mol
# GULP energy per Si atom -5569.735513 kJ/mol
# Density = 2.199331 g / cm^3
# Si number density = 22.043482 Si / 1000 Ang^3
#
#
#
# Elastic Constant Matrix: (Units=GPa)
#
#
# Indices 1 2 3 4 5 6 
#
# 1 140.7157 34.6267 42.7093 0.0002 -11.7716 0.0000
# 2 34.6267 37.5907 19.3410 0.0000 -6.7801 0.0000
# 3 42.7093 19.3410 49.5866 -0.0013 -6.0520 -0.0002
# 4 0.0002 0.0000 -0.0013 59.6996 0.0001 11.3316
# 5 -11.7716 -6.7801 -6.0520 0.0001 43.3230 0.0000
# 6 0.0000 0.0000 -0.0002 11.3316 0.0000 22.9136
#
#
#
# Elastic Compliance Matrix: (Units=1/GPa)
#
#
# Indices 1 2 3 4 5 6 
#
# 1 0.010774 -0.006295 -0.006701 0.000000 0.001006 0.000000
# 2 -0.006295 0.037475 -0.008839 0.000000 0.002920 0.000000
# 3 -0.006701 -0.008839 0.029498 0.000001 0.000917 0.000000
# 4 0.000000 0.000000 0.000001 0.018486 0.000000 -0.009142
# 5 0.001006 0.002920 0.000917 0.000000 0.023941 0.000000
# 6 0.000000 0.000000 0.000000 -0.009142 0.000000 0.048163
#
#
# Mechanical properties :
#
#
# Convention : Reuss Voigt Hill
#
# Bulk Modulus (GPa) = 29.34547 46.80523 38.07535
# Shear Modulus (GPa) = 22.38481 33.93497 28.15989
#
# Velocity S-wave (km/s) = 3.19012 3.92785 3.57805
# Velocity P-wave (km/s) = 5.18754 6.46915 5.86347
#
# Compressibility (1/GPa) = 0.03407681
#
# Stress axis : x y z
#
# Youngs Moduli (GPa) = 92.81912 26.68434 33.90047
#
# Poissons Ratio (x) = 0.16797 0.22718
# Poissons Ratio (y) = 0.58427 0.29964
# Poissons Ratio (z) = 0.62202 0.23586
#
# Static dielectric constant tensor:
#      x y z
#    x 2.020380 0.000000 0.032150 
#    y 0.000000 1.829770 0.000000 
#    z 0.032150 0.000000 1.842920 
# 
# From -- ./inp_files/358405.got.cif
#   From: 2010.05.17/outbox.cif.g08.bks.cpg/sg12_180_cif.got.tgz:358405.got - 2010.06.03 13:09:07.
