data_PCOD9197313
_publ_section_title
;
Structure prediction by ZEFSAII (Michael W. Deem and Ramdas Pophale) SiO2 
 PCOD9197313
Probable space group: C 2/M
;
_chemical_formula_sum "Si O2"
_cell_formula_units_Z 48
_cell_length_a 20.414570
_cell_length_b 14.788907
_cell_length_c 15.586064
_cell_angle_alpha 90.000000
_cell_angle_beta 28.392244
_cell_angle_gamma 90.000000
_cell_volume 2237.525406
_symmetry_space_group_name_H-M "C 2/M"
_symmetry_group_IT_number 12
_symmetry_cell_setting 'monoclinic'
loop_
_space_group_symop_operation_xyz
x,y,z
-x,y,-z
-x,-y,-z
x,-y,z
1/2+x,1/2+y,z
1/2-x,1/2+y,-z
1/2-x,1/2-y,-z
1/2+x,1/2-y,z
loop_
_atom_site_type_symbol
_atom_site_label
_atom_site_fract_x
_atom_site_fract_y
_atom_site_fract_z
Si Si1 0.797700 0.609788 0.485953
Si Si2 0.388162 0.149669 0.063542
Si Si3 0.393205 0.394920 0.850390
Si Si4 0.518362 0.346680 0.885784
Si Si5 0.169500 0.890672 0.448351
Si Si6 0.897615 0.602829 0.859151
O O1 0.789590 0.500000 0.506211
O O2 0.680160 0.655442 0.678114
O O3 0.759701 0.626934 0.430274
O O4 0.951055 0.643496 0.329545
O O5 0.245092 0.150541 0.279473
O O6 0.500000 0.107171 0.000000
O O7 0.446984 0.249107 0.975711
O O8 0.378284 0.101578 0.984072
O O9 0.377865 0.500000 0.843027
O O10 0.449699 0.391838 0.882062
O O11 0.514968 0.358845 0.649113
O O12 0.240787 0.354367 0.019168
O O13 0.500000 0.391116 0.000000
O O14 0.166824 0.000000 0.440354
O O15 0.907973 0.500000 0.814239
#
# Coordination Sequence:
#
# PCOD9197313 Si02
#       6
#     8   8   8   8   8   8
#     4   9  18  35  60  85 107 143 189 232 278 325
#     4  11  21  33  53  85 120 149 183 220 271 336
#     4   9  20  39  61  84 110 144 188 235 280 325
#     4  10  22  38  56  81 110 149 193 229 275 328
#     4   9  17  33  58  85 113 146 184 226 271 329
#     4  10  20  35  59  87 114 145 182 231 284 329
#
# _framework density 21.452271
#
# number of rings (size 3 to 8) (size 9 to 14) (size 15 to 20)
#    0.000    2.333    1.667    2.000    0.000    4.000 
#    3.000    3.333    7.333    3.000    0.000    0.000 
#    0.000    0.000    0.000    0.000    0.000    0.000 
#
# Total GULP energy -133976.514186 kJ/mol
# GULP energy per Si atom -5582.354758 kJ/mol
# Density = 2.140345 g / cm^3
# Si number density = 21.452271 Si / 1000 Ang^3
#
#
#
# Elastic Constant Matrix: (Units=GPa)
#
#
# Indices 1 2 3 4 5 6 
#
# 1 70.4265 -9.2822 64.5781 0.0001 -25.9418 -0.0001
# 2 -9.2822 68.0920 27.6739 0.0001 -6.3831 -0.0001
# 3 64.5781 27.6739 204.6713 0.0001 -24.7183 -0.0002
# 4 0.0001 0.0001 0.0001 30.0982 -0.0001 6.8169
# 5 -25.9418 -6.3831 -24.7183 -0.0001 46.1228 0.0001
# 6 -0.0001 -0.0001 -0.0002 6.8169 0.0001 24.8768
#
#
#
# Elastic Compliance Matrix: (Units=1/GPa)
#
#
# Indices 1 2 3 4 5 6 
#
# 1 0.027310 0.008215 -0.008271 0.000000 0.012065 0.000000
# 2 0.008215 0.018063 -0.004463 0.000000 0.004728 0.000000
# 3 -0.008271 -0.004463 0.007979 0.000000 -0.000993 0.000000
# 4 0.000000 0.000000 0.000000 0.035423 0.000000 -0.009707
# 5 0.012065 0.004728 -0.000993 0.000000 0.028589 0.000000
# 6 0.000000 0.000000 0.000000 -0.009707 0.000000 0.042858
#
#
# Mechanical properties :
#
#
# Convention : Reuss Voigt Hill
#
# Bulk Modulus (GPa) = 22.56594 56.56993 39.56794
# Shear Modulus (GPa) = 27.16928 37.56755 32.36842
#
# Velocity S-wave (km/s) = 3.56265 4.18929 3.88862
# Velocity P-wave (km/s) = 5.24073 7.05887 6.21663
#
# Compressibility (1/GPa) = 0.04431458
#
# Stress axis : x y z
#
# Youngs Moduli (GPa) = 36.61676 55.36132 125.32997
#
# Poissons Ratio (x) = -0.45480 1.03655
# Poissons Ratio (y) = -0.30081 0.55939
# Poissons Ratio (z) = 0.30284 0.24710
#
# Static dielectric constant tensor:
#      x y z
#    x 1.774290 0.000000 -0.038470 
#    y 0.000000 1.830960 0.000000 
#    z -0.038470 0.000000 1.794290 
# 
# From -- ./inp_files/74625.got.cif
#   From: 2010.05.17/outbox.cif.g08.bks.cpg/sg12_38_cif.got.tgz:74625.got - 2010.06.03 13:09:07.
