data_PCOD9197021
_publ_section_title
;
Structure prediction by ZEFSAII (Michael W. Deem and Ramdas Pophale) SiO2 
 PCOD9197021
Probable space group: C 2/M
;
_chemical_formula_sum "Si O2"
_cell_formula_units_Z 48
_cell_length_a 18.271517
_cell_length_b 17.538438
_cell_length_c 14.216398
_cell_angle_alpha 90.000000
_cell_angle_beta 154.454846
_cell_angle_gamma 90.000000
_cell_volume 1964.519214
_symmetry_space_group_name_H-M "C 2/M"
_symmetry_group_IT_number 12
_symmetry_cell_setting 'monoclinic'
loop_
_space_group_symop_operation_xyz
x,y,z
-x,y,-z
-x,-y,-z
x,-y,z
1/2+x,1/2+y,z
1/2-x,1/2+y,-z
1/2-x,1/2-y,-z
1/2+x,1/2-y,z
loop_
_atom_site_type_symbol
_atom_site_label
_atom_site_fract_x
_atom_site_fract_y
_atom_site_fract_z
Si Si1 0.148601 0.749655 0.101995
Si Si2 0.865200 0.915771 0.949810
Si Si3 0.130566 0.088661 0.417011
Si Si4 0.386038 0.628877 0.292080
Si Si5 0.104087 0.417323 0.818965
Si Si6 0.402901 0.807451 0.674316
O O1 0.312627 0.698268 0.271677
O O2 0.171097 0.838938 0.149654
O O3 0.000000 0.720518 0.000000
O O4 0.056110 0.739869 0.894971
O O5 0.044648 0.908730 0.213539
O O6 0.853214 0.000000 0.890945
O O7 0.728103 0.915401 0.874641
O O8 0.320713 0.120956 0.635150
O O9 0.014156 0.138443 0.352504
O O10 0.121148 0.000000 0.434952
O O11 0.500000 0.584216 0.500000
O O12 0.221971 0.592626 0.049361
O O13 0.019486 0.500000 0.723584
O O14 0.974780 0.347517 0.665572
O O15 0.250000 0.750000 0.500000
#
# Coordination Sequence:
#
# PCOD9197021 Si02
#       6
#     8   8   8   8   8   8
#     4  11  23  38  56  83 118 151 190 241 286 334
#     4   9  19  37  58  81 109 148 191 234 284 336
#     4  10  20  35  58  86 113 146 189 230 277 344
#     4  10  21  36  58  83 115 150 193 228 283 339
#     4   9  20  36  58  86 117 147 186 235 283 339
#     4  11  21  34  58  86 117 149 186 230 289 335
#
# _framework density 24.433458999999999
#
# number of rings (size 3 to 8) (size 9 to 14) (size 15 to 20)
#    0.000    2.000    1.667    3.000    2.333    3.667 
#    0.000    0.000    0.000    7.500    0.000    0.000 
#    0.000    0.000    0.000    0.000    0.000    0.000 
#
# Total GULP energy -133758.363770 kJ/mol
# GULP energy per Si atom -5573.265157 kJ/mol
# Density = 2.437785 g / cm^3
# Si number density = 24.433459 Si / 1000 Ang^3
#
#
#
# Elastic Constant Matrix: (Units=GPa)
#
#
# Indices 1 2 3 4 5 6 
#
# 1 87.5885 40.9185 2.5601 0.0000 20.8420 0.0000
# 2 40.9185 130.5823 22.5761 0.0000 20.3537 0.0000
# 3 2.5601 22.5761 62.5004 0.0000 10.2535 0.0000
# 4 0.0000 0.0000 0.0000 13.5313 0.0000 17.0340
# 5 20.8420 20.3537 10.2535 0.0000 24.5646 0.0000
# 6 0.0000 0.0000 0.0000 17.0340 0.0000 20.8941
#
#
#
# Elastic Compliance Matrix: (Units=1/GPa)
#
#
# Indices 1 2 3 4 5 6 
#
# 1 0.015740 -0.003586 0.002527 0.000000 -0.011438 0.000000
# 2 -0.003586 0.009882 -0.002768 0.000000 -0.003990 0.000000
# 3 0.002527 -0.002768 0.018112 0.000000 -0.007411 0.000000
# 4 0.000000 0.000000 0.000000 -2.811462 0.000000 2.292054
# 5 -0.011438 -0.003990 -0.007411 0.000000 0.056813 0.000000
# 6 0.000000 0.000000 0.000000 2.292054 0.000000 -1.820745
#
#
# Mechanical properties :
#
#
# Convention : Reuss Voigt Hill
#
# Bulk Modulus (GPa) = 27.71614 45.86453 36.79033
# Shear Modulus (GPa) = -1.10816 26.10576 12.49880
#
# Velocity S-wave (km/s) = -0.67419 3.27225 2.26419
# Velocity P-wave (km/s) = 3.28056 5.75228 4.68246
#
# Compressibility (1/GPa) = 0.03608007
#
# Stress axis : x y z
#
# Youngs Moduli (GPa) = 63.53096 101.19102 55.21183
#
# Poissons Ratio (x) = 0.36291 -0.13953
# Poissons Ratio (y) = 0.22784 0.15284
# Poissons Ratio (z) = -0.16056 0.28011
#
# Static dielectric constant tensor:
#      x y z
#    x 2.000070 0.000000 -0.013340 
#    y 0.000000 2.015460 0.000000 
#    z -0.013340 0.000000 1.980770 
# 
# From -- ./inp_files/74611.got.cif
#   From: 2010.05.17/outbox.cif.g08.bks.cpg/sg12_38_cif.got.tgz:74611.got - 2010.06.03 13:09:07.
