data_PCOD9197640
_publ_section_title
;
Structure prediction by ZEFSAII (Michael W. Deem and Ramdas Pophale) SiO2 
 PCOD9197640
Probable space group: C 2/M
;
_chemical_formula_sum "Si O2"
_cell_formula_units_Z 64
_cell_length_a 20.127017
_cell_length_b 8.813555
_cell_length_c 32.154386
_cell_angle_alpha 90.000000
_cell_angle_beta 36.064800
_cell_angle_gamma 90.000000
_cell_volume 3357.876203
_symmetry_space_group_name_H-M "C 2/M"
_symmetry_group_IT_number 12
_symmetry_cell_setting 'monoclinic'
loop_
_space_group_symop_operation_xyz
x,y,z
-x,y,-z
-x,-y,-z
x,-y,z
1/2+x,1/2+y,z
1/2-x,1/2+y,-z
1/2-x,1/2-y,-z
1/2+x,1/2-y,z
loop_
_atom_site_type_symbol
_atom_site_label
_atom_site_fract_x
_atom_site_fract_y
_atom_site_fract_z
Si Si1 0.971180 0.181483 0.234188
Si Si2 0.846365 0.180353 0.980940
Si Si3 0.432423 0.184752 0.493474
Si Si4 0.985367 0.318397 0.374147
Si Si5 0.826432 0.817185 0.388532
Si Si6 0.265448 0.318305 0.884477
Si Si7 0.924999 0.319078 0.170598
Si Si8 0.788102 0.817623 0.777831
O O1 0.908971 0.222206 0.308434
O O2 0.919797 0.265131 0.220701
O O3 0.104449 0.214713 0.169371
O O4 0.959174 0.000000 0.234748
O O5 0.816291 0.233291 0.042639
O O6 0.843393 0.000000 0.978821
O O7 0.750000 0.250000 0.000000
O O8 0.966622 0.241783 0.905165
O O9 0.500000 0.238682 0.500000
O O10 0.485357 0.230859 0.422433
O O11 0.300839 0.229233 0.558385
O O12 0.434494 0.000000 0.493739
O O13 0.983096 0.500000 0.374250
O O14 0.876709 0.256195 0.404576
O O15 0.095874 0.257952 0.294916
O O16 0.828151 0.000000 0.392530
O O17 0.248469 0.500000 0.897256
O O18 0.253523 0.275985 0.842268
O O19 0.939246 0.500000 0.161439
O O20 0.811919 0.278323 0.203036
O O21 0.805047 0.000000 0.769186
#
# Coordination Sequence:
#
# PCOD9197640 Si02
#       8
#     8   8   8   8   8   8   8   8
#     4  10  20  35  61  89 114 154 202 246 293 350
#     4  12  24  39  61  88 120 156 197 244 296 351
#     4   9  20  37  58  88 122 158 201 244 293 351
#     4  11  22  36  61  91 119 154 199 252 294 343
#     4  10  20  38  63  85 117 163 202 242 294 356
#     4  10  20  39  63  86 115 153 202 244 288 351
#     4  11  24  40  61  88 120 156 195 244 299 353
#     4  10  23  43  63  86 120 161 197 237 297 362
#
# _framework density 19.059667000000001
#
# number of rings (size 3 to 8) (size 9 to 14) (size 15 to 20)
#    0.000    1.625    2.500    2.250    1.750    2.500 
#    0.000    3.125    0.000    1.875    0.000    0.000 
#    0.000    0.000    0.000    0.000    0.000    0.000 
#
# Total GULP energy -178830.684201 kJ/mol
# GULP energy per Si atom -5588.458881 kJ/mol
# Density = 1.901629 g / cm^3
# Si number density = 19.059667 Si / 1000 Ang^3
#
#
#
# Elastic Constant Matrix: (Units=GPa)
#
#
# Indices 1 2 3 4 5 6 
#
# 1 155.4654 40.0681 40.4981 0.0029 12.9405 0.0244
# 2 40.0681 24.0072 19.6108 -0.0017 0.4632 0.0034
# 3 40.4981 19.6108 78.3824 -0.0006 11.3914 0.0001
# 4 0.0029 -0.0017 -0.0006 13.3254 -0.0019 1.3488
# 5 12.9405 0.4632 11.3914 -0.0019 31.9426 0.0003
# 6 0.0244 0.0034 0.0001 1.3488 0.0003 29.1440
#
#
#
# Elastic Compliance Matrix: (Units=1/GPa)
#
#
# Indices 1 2 3 4 5 6 
#
# 1 0.011942 -0.019253 -0.000728 -0.000005 -0.004299 -0.000007
# 2 -0.019253 0.083916 -0.012660 0.000016 0.011098 0.000005
# 3 -0.000728 -0.012660 0.017119 -0.000002 -0.005627 0.000002
# 4 -0.000005 0.000016 -0.000002 0.075398 0.000007 -0.003489
# 5 -0.004299 0.011098 -0.005627 0.000007 0.034893 0.000002
# 6 -0.000007 0.000005 0.000002 -0.003489 0.000002 0.034474
#
#
# Mechanical properties :
#
#
# Convention : Reuss Voigt Hill
#
# Bulk Modulus (GPa) = 20.96733 50.91211 35.93972
# Shear Modulus (GPa) = 14.75257 25.39428 20.07343
#
# Velocity S-wave (km/s) = 2.78514 3.65411 3.24881
# Velocity P-wave (km/s) = 4.62249 6.67632 5.74198
#
# Compressibility (1/GPa) = 0.04769325
#
# Stress axis : x y z
#
# Youngs Moduli (GPa) = 83.73780 11.91671 58.41294
#
# Poissons Ratio (x) = 0.22944 0.04254
# Poissons Ratio (y) = 1.61224 0.73953
# Poissons Ratio (z) = 0.06098 0.15087
#
# Static dielectric constant tensor:
#      x y z
#    x 1.655100 0.000000 0.011470 
#    y 0.000000 1.640940 0.000000 
#    z 0.011470 0.000000 1.643210 
# 
# From -- ./inp_files/378249.got.cif
#   From: 2010.05.17/outbox.cif.g08.bks.cpg/sg12_190_cif.got.tgz:378249.got - 2010.06.03 13:09:07.
