data_PCOD9197565
_publ_section_title
;
Structure prediction by ZEFSAII (Michael W. Deem and Ramdas Pophale) SiO2 
 PCOD9197565
Probable space group: C 2/M
;
_chemical_formula_sum "Si O2"
_cell_formula_units_Z 50
_cell_length_a 14.461112
_cell_length_b 9.127346
_cell_length_c 25.576088
_cell_angle_alpha 90.000000
_cell_angle_beta 139.627140
_cell_angle_gamma 90.000000
_cell_volume 2186.723363
_symmetry_space_group_name_H-M "C 2/M"
_symmetry_group_IT_number 12
_symmetry_cell_setting 'monoclinic'
loop_
_space_group_symop_operation_xyz
x,y,z
-x,y,-z
-x,-y,-z
x,-y,z
1/2+x,1/2+y,z
1/2-x,1/2+y,-z
1/2-x,1/2-y,-z
1/2+x,1/2-y,z
loop_
_atom_site_type_symbol
_atom_site_label
_atom_site_fract_x
_atom_site_fract_y
_atom_site_fract_z
Si Si1 0.969510 0.170103 0.925256
Si Si2 0.085253 0.331749 0.881304
Si Si3 0.694112 0.667715 0.829099
Si Si4 0.268634 0.832525 0.694626
Si Si5 0.996201 0.660978 0.604992
Si Si6 0.500000 0.000000 0.500000
Si Si7 0.877676 0.167924 0.642966
O O1 0.811314 0.235149 0.850922
O O2 0.075005 0.260578 0.933743
O O3 0.975215 0.000000 0.912951
O O4 0.000000 0.184076 0.000000
O O5 0.136069 0.500000 0.903846
O O6 0.169829 0.235719 0.875828
O O7 0.922134 0.330807 0.789044
O O8 0.744861 0.500000 0.853453
O O9 0.540911 0.668024 0.734815
O O10 0.152968 0.731688 0.672812
O O11 0.293267 0.767693 0.647418
O O12 0.217796 0.000000 0.671781
O O13 0.995373 0.500000 0.631264
O O14 0.891055 0.766771 0.591049
O O15 0.970115 0.625434 0.532986
O O16 0.824065 0.000000 0.622447
#
# Coordination Sequence:
#
# PCOD9197565 Si02
#       7
#     8   8   8   8   8   2   8
#     4  11  24  39  55  78 113 156 199 233 281 346
#     4  10  21  37  58  86 116 144 187 240 290 339
#     4  10  21  37  58  86 116 144 187 240 290 339
#     4  10  20  35  60  91 115 144 187 237 288 337
#     4  10  20  38  59  78 119 150 187 229 274 330
#     4   8  24  40  58  80 120 154 196 220 272 332
#     4  10  20  35  60  91 115 144 187 237 288 337
#
# _framework density 22.865261
#
# number of rings (size 3 to 8) (size 9 to 14) (size 15 to 20)
#    0.480    1.440    0.000    3.840    0.000    9.600 
#    0.000    2.400    0.000    0.000    0.000    0.000 
#    0.000    0.000    0.000    0.000    0.000    0.000 
#
# Total GULP energy -139611.244590 kJ/mol
# GULP energy per Si atom -5584.449784 kJ/mol
# Density = 2.281322 g / cm^3
# Si number density = 22.865261 Si / 1000 Ang^3
#
#
#
# Elastic Constant Matrix: (Units=GPa)
#
#
# Indices 1 2 3 4 5 6 
#
# 1 58.7366 -1.6278 18.7249 0.0000 -29.4574 0.0000
# 2 -1.6278 100.5961 36.1169 0.0000 -22.1099 0.0000
# 3 18.7249 36.1169 69.4598 0.0000 -6.4984 0.0000
# 4 0.0000 0.0000 0.0000 25.2477 0.0000 -9.3293
# 5 -29.4574 -22.1099 -6.4984 0.0000 40.8485 0.0000
# 6 0.0000 0.0000 0.0000 -9.3293 0.0000 34.3570
#
#
#
# Elastic Compliance Matrix: (Units=1/GPa)
#
#
# Indices 1 2 3 4 5 6 
#
# 1 0.037648 0.012495 -0.013677 0.000000 0.031737 0.000000
# 2 0.012495 0.017827 -0.011057 0.000000 0.016901 0.000000
# 3 -0.013677 -0.011057 0.022688 0.000000 -0.012238 0.000000
# 4 0.000000 0.000000 0.000000 0.044025 0.000000 0.011954
# 5 0.031737 0.016901 -0.012238 0.000000 0.054568 0.000000
# 6 0.000000 0.000000 0.000000 0.011954 0.000000 0.032352
#
#
# Mechanical properties :
#
#
# Convention : Reuss Voigt Hill
#
# Bulk Modulus (GPa) = 18.62688 37.24675 27.93681
# Shear Modulus (GPa) = 19.88216 31.79587 25.83902
#
# Velocity S-wave (km/s) = 2.95199 3.73309 3.36528
# Velocity P-wave (km/s) = 4.44781 5.90815 5.22921
#
# Compressibility (1/GPa) = 0.05368586
#
# Stress axis : x y z
#
# Youngs Moduli (GPa) = 26.56179 56.09379 44.07603
#
# Poissons Ratio (x) = -0.70089 0.60283
# Poissons Ratio (y) = -0.33189 0.48734
# Poissons Ratio (z) = 0.36328 0.62022
#
# Static dielectric constant tensor:
#      x y z
#    x 1.839820 0.000000 0.036020 
#    y 0.000000 1.773580 0.000000 
#    z 0.036020 0.000000 1.929670 
# 
# From -- ./inp_files/308369.got.cif
#   From: 2010.05.17/outbox.cif.g08.bks.cpg/sg12_155_cif.got.tgz:308369.got - 2010.06.03 13:09:07.
