data_PCOD9197485
_publ_section_title
;
Structure prediction by ZEFSAII (Michael W. Deem and Ramdas Pophale) SiO2 
 PCOD9197485
Probable space group: C 2/M
;
_chemical_formula_sum "Si O2"
_cell_formula_units_Z 48
_cell_length_a 28.045492
_cell_length_b 23.725844
_cell_length_c 12.094383
_cell_angle_alpha 90.000000
_cell_angle_beta 160.745346
_cell_angle_gamma 90.000000
_cell_volume 2653.848212
_symmetry_space_group_name_H-M "C 2/M"
_symmetry_group_IT_number 12
_symmetry_cell_setting 'monoclinic'
loop_
_space_group_symop_operation_xyz
x,y,z
-x,y,-z
-x,-y,-z
x,-y,z
1/2+x,1/2+y,z
1/2-x,1/2+y,-z
1/2-x,1/2-y,-z
1/2+x,1/2-y,z
loop_
_atom_site_type_symbol
_atom_site_label
_atom_site_fract_x
_atom_site_fract_y
_atom_site_fract_z
Si Si1 0.763722 0.000000 0.498439
Si Si2 0.591177 0.380198 0.448804
Si Si3 0.818303 0.620751 0.748818
Si Si4 0.548138 0.788700 0.279959
Si Si5 0.160586 0.808571 0.215273
Si Si6 0.890116 0.223013 0.359660
Si Si7 0.510831 0.500000 0.215672
O O1 0.676593 0.941953 0.291026
O O2 0.879223 0.000000 0.649202
O O3 0.855300 0.000000 0.813136
O O4 0.725107 0.379799 0.656966
O O5 0.630739 0.339522 0.636281
O O6 0.544272 0.444655 0.359995
O O7 0.451221 0.351193 0.086689
O O8 0.726290 0.659771 0.463901
O O9 0.971475 0.650656 0.104448
O O10 0.706365 0.791223 0.572599
O O11 0.559451 0.762702 0.427820
O O12 0.437198 0.746116 0.976362
O O13 0.000000 0.219994 0.500000
O O14 0.750000 0.250000 0.000000
#
# Coordination Sequence:
#
# PCOD9197485 Si02
#       7
#     4   8   8   8   8   8   4
#     4   9  18  32  56  82 115 156 176 205 262 330
#     4  10  20  35  60  83 108 146 187 229 272 324
#     4  11  20  35  55  83 117 148 179 213 264 339
#     4  11  23  36  54  81 109 147 185 227 280 331
#     4  11  21  35  52  82 117 147 176 218 272 339
#     4  11  22  39  57  77 105 141 189 242 288 319
#     4   9  16  34  56  85 112 143 187 218 259 331
#
# _framework density 18.086942000000001
#
# number of rings (size 3 to 8) (size 9 to 14) (size 15 to 20)
#    0.000    1.500    1.667    6.500    0.000    2.667 
#    0.000    2.917    0.000    1.000    0.000    4.667 
#    0.000    0.000    0.000    0.000    0.000    0.000 
#
# Total GULP energy -133997.042075 kJ/mol
# GULP energy per Si atom -5583.210086 kJ/mol
# Density = 1.804578 g / cm^3
# Si number density = 18.086942 Si / 1000 Ang^3
#
#
#
# Elastic Constant Matrix: (Units=GPa)
#
#
# Indices 1 2 3 4 5 6 
#
# 1 77.8847 27.7107 23.4229 0.0000 -0.4952 0.0000
# 2 27.7107 145.7384 47.2218 0.0000 -9.9117 0.0000
# 3 23.4229 47.2218 70.1758 0.0000 2.1339 0.0000
# 4 0.0000 0.0000 0.0000 23.5429 0.0000 -0.7106
# 5 -0.4952 -9.9117 2.1339 0.0000 34.1347 0.0000
# 6 0.0000 0.0000 0.0000 -0.7106 0.0000 22.8179
#
#
#
# Elastic Compliance Matrix: (Units=1/GPa)
#
#
# Indices 1 2 3 4 5 6 
#
# 1 0.014532 -0.001523 -0.003826 0.000000 0.000008 0.000000
# 2 -0.001523 0.009235 -0.005798 0.000000 0.003022 0.000000
# 3 -0.003826 -0.005798 0.019519 0.000000 -0.002959 0.000000
# 4 0.000000 0.000000 0.000000 0.042516 0.000000 0.001324
# 5 0.000008 0.003022 -0.002959 0.000000 0.030358 0.000000
# 6 0.000000 0.000000 0.000000 0.001324 0.000000 0.043866
#
#
# Mechanical properties :
#
#
# Convention : Reuss Voigt Hill
#
# Bulk Modulus (GPa) = 47.63714 54.50107 51.06910
# Shear Modulus (GPa) = 26.41066 29.12866 27.76966
#
# Velocity S-wave (km/s) = 3.82541 4.01743 3.92260
# Velocity P-wave (km/s) = 6.77545 7.19152 6.98658
#
# Compressibility (1/GPa) = 0.02099202
#
# Stress axis : x y z
#
# Youngs Moduli (GPa) = 68.81386 108.27872 51.23340
#
# Poissons Ratio (x) = 0.16490 0.19601
# Poissons Ratio (y) = 0.10480 0.29706
# Poissons Ratio (z) = 0.26327 0.62782
#
# Static dielectric constant tensor:
#      x y z
#    x 1.617950 0.000000 -0.005410 
#    y 0.000000 1.654650 0.000000 
#    z -0.005410 0.000000 1.608660 
# 
# From -- ./inp_files/122483.got.cif
#   From: 2010.05.17/outbox.cif.g08.bks.cpg/sg12_62_cif.got.tgz:122483.got - 2010.06.03 13:09:07.
