data_PCOD9197466
_publ_section_title
;
Structure prediction by ZEFSAII (Michael W. Deem and Ramdas Pophale) SiO2 
 PCOD9197466
Probable space group: C 2/M
;
_chemical_formula_sum "Si O2"
_cell_formula_units_Z 64
_cell_length_a 9.644800
_cell_length_b 17.830256
_cell_length_c 34.325118
_cell_angle_alpha 90.000000
_cell_angle_beta 146.295245
_cell_angle_gamma 90.000000
_cell_volume 3275.579245
_symmetry_space_group_name_H-M "C 2/M"
_symmetry_group_IT_number 12
_symmetry_cell_setting 'monoclinic'
loop_
_space_group_symop_operation_xyz
x,y,z
-x,y,-z
-x,-y,-z
x,-y,z
1/2+x,1/2+y,z
1/2-x,1/2+y,-z
1/2-x,1/2-y,-z
1/2+x,1/2-y,z
loop_
_atom_site_type_symbol
_atom_site_label
_atom_site_fract_x
_atom_site_fract_y
_atom_site_fract_z
Si Si1 0.444376 0.416252 0.204090
Si Si2 0.089082 0.809921 0.563287
Si Si3 0.789647 0.700653 0.795372
Si Si4 0.271029 0.344184 0.567041
Si Si5 0.217919 0.080668 0.919100
Si Si6 0.762918 0.413964 0.720095
Si Si7 0.564673 0.137306 0.718365
Si Si8 0.714558 0.734578 0.946767
O O1 0.397066 0.500000 0.208745
O O2 0.397715 0.348236 0.222149
O O3 0.278632 0.405794 0.126364
O O4 0.721875 0.409005 0.252742
O O5 0.192727 0.726721 0.576162
O O6 0.329964 0.852592 0.635286
O O7 0.000000 0.838934 0.500000
O O8 0.887797 0.816529 0.552197
O O9 0.834464 0.647588 0.768988
O O10 0.674807 0.780391 0.755480
O O11 0.036302 0.713411 0.879209
O O12 0.490881 0.390578 0.639069
O O13 0.000000 0.384131 0.500000
O O14 0.101936 0.151584 0.913156
O O15 0.094683 0.000000 0.897122
O O16 0.500000 0.076367 0.000000
O O17 0.758116 0.500000 0.732520
O O18 0.962303 0.403650 0.732394
O O19 0.750000 0.750000 0.000000
O O20 0.000000 0.736317 0.000000
#
# Coordination Sequence:
#
# PCOD9197466 Si02
#       8
#     8   8   8   8   8   8   8   8
#     4  11  23  39  62  90 121 162 207 257 309 370
#     4  10  20  35  59  94 123 156 207 263 308 360
#     4  12  23  40  65  93 125 160 211 261 309 370
#     4  10  20  36  60  89 123 164 208 257 308 371
#     4   9  18  35  58  85 117 154 197 249 304 359
#     4  11  25  42  61  93 132 168 203 259 325 376
#     4  11  23  39  66  90 123 165 211 254 306 372
#     4  11  24  40  64  93 123 162 210 262 308 371
#
# _framework density 19.538529
#
# number of rings (size 3 to 8) (size 9 to 14) (size 15 to 20)
#    0.000    1.375    2.500    4.500    3.500    1.250 
#    0.000    0.625    0.000   11.250    0.000    0.000 
#    0.000    0.500    0.000    0.000    0.000    0.000 
#
# Total GULP energy -178432.332149 kJ/mol
# GULP energy per Si atom -5576.010380 kJ/mol
# Density = 1.949406 g / cm^3
# Si number density = 19.538529 Si / 1000 Ang^3
#
#
#
# Elastic Constant Matrix: (Units=GPa)
#
#
# Indices 1 2 3 4 5 6 
#
# 1 87.4245 25.1079 27.7328 0.0004 -2.2752 -0.0001
# 2 25.1079 91.4204 23.0326 -0.0001 -13.8958 -0.0004
# 3 27.7328 23.0326 97.2048 0.0017 -4.6967 -0.0016
# 4 0.0004 -0.0001 0.0017 38.7839 0.0007 -21.2355
# 5 -2.2752 -13.8958 -4.6967 0.0007 30.6926 -0.0001
# 6 -0.0001 -0.0004 -0.0016 -21.2355 -0.0001 43.0432
#
#
#
# Elastic Compliance Matrix: (Units=1/GPa)
#
#
# Indices 1 2 3 4 5 6 
#
# 1 0.013263 -0.002986 -0.003117 0.000000 -0.000846 0.000000
# 2 -0.002986 0.013079 -0.001987 0.000000 0.005396 0.000000
# 3 -0.003117 -0.001987 0.011679 0.000000 0.000657 0.000000
# 4 0.000000 0.000000 0.000000 0.035327 -0.000001 0.017429
# 5 -0.000846 0.005396 0.000657 -0.000001 0.035062 0.000000
# 6 0.000000 0.000000 0.000000 0.017429 0.000000 0.031831
#
#
# Mechanical properties :
#
#
# Convention : Reuss Voigt Hill
#
# Bulk Modulus (GPa) = 45.78277 47.53290 46.65783
# Shear Modulus (GPa) = 30.54355 35.84903 33.19629
#
# Velocity S-wave (km/s) = 3.95808 4.28809 4.12638
# Velocity P-wave (km/s) = 6.66119 6.99268 6.82894
#
# Compressibility (1/GPa) = 0.02184228
#
# Stress axis : x y z
#
# Youngs Moduli (GPa) = 75.39900 76.45738 85.62099
#
# Poissons Ratio (x) = 0.22828 0.26691
# Poissons Ratio (y) = 0.22512 0.17009
# Poissons Ratio (z) = 0.23504 0.15189
#
# Static dielectric constant tensor:
#      x y z
#    x 1.653290 0.000000 0.046710 
#    y 0.000000 2.388660 0.000010 
#    z 0.046710 0.000010 1.612870 
# 
# From -- ./inp_files/372977.got.cif
#   From: 2010.05.17/outbox.cif.g08.bks.cpg/sg12_187_cif.got.tgz:372977.got - 2010.06.03 13:09:07.
