data_PCOD9197945
_publ_section_title
;
Structure prediction by ZEFSAII (Michael W. Deem and Ramdas Pophale) SiO2 
 PCOD9197945
Probable space group: C 2/M
;
_chemical_formula_sum "Si O2"
_cell_formula_units_Z 56
_cell_length_a 19.409451
_cell_length_b 8.716894
_cell_length_c 26.456400
_cell_angle_alpha 90.000000
_cell_angle_beta 139.640951
_cell_angle_gamma 90.000000
_cell_volume 2898.652373
_symmetry_space_group_name_H-M "C 2/M"
_symmetry_group_IT_number 12
_symmetry_cell_setting 'monoclinic'
loop_
_space_group_symop_operation_xyz
x,y,z
-x,y,-z
-x,-y,-z
x,-y,z
1/2+x,1/2+y,z
1/2-x,1/2+y,-z
1/2-x,1/2-y,-z
1/2+x,1/2-y,z
loop_
_atom_site_type_symbol
_atom_site_label
_atom_site_fract_x
_atom_site_fract_y
_atom_site_fract_z
Si Si1 0.920073 0.683488 0.227844
Si Si2 0.708575 0.683574 0.749595
Si Si3 0.034854 0.186306 0.574988
Si Si4 0.142568 0.814706 0.916367
Si Si5 0.312300 0.317581 0.487851
Si Si6 0.358106 0.319353 0.674336
Si Si7 0.415103 0.680686 0.823983
O O1 0.921738 0.500000 0.227924
O O2 0.848623 0.743379 0.233966
O O3 0.875209 0.747741 0.149609
O O4 0.040839 0.746800 0.297928
O O5 0.699822 0.500000 0.748222
O O6 0.642397 0.736752 0.662650
O O7 0.830933 0.731150 0.811234
O O8 0.935235 0.228236 0.554739
O O9 0.000000 0.242125 0.500000
O O10 0.040690 0.000000 0.574781
O O11 0.038821 0.771646 0.892025
O O12 0.144210 0.000000 0.914137
O O13 0.250000 0.750000 0.000000
O O14 0.308132 0.500000 0.487103
O O15 0.250000 0.250000 0.500000
O O16 0.249786 0.260166 0.403580
O O17 0.353587 0.500000 0.660409
O O18 0.379094 0.299588 0.745468
O O19 0.409443 0.500000 0.832864
#
# Coordination Sequence:
#
# PCOD9197945 Si02
#       7
#     8   8   8   8   8   8   8
#     4  11  22  37  59  85 115 152 192 233 284 341
#     4  11  21  35  57  83 114 151 193 240 286 338
#     4   9  19  34  51  74 105 143 188 237 285 332
#     4  10  21  40  65  92 121 149 183 227 277 335
#     4  11  21  33  51  74 103 141 186 238 294 344
#     4  10  20  36  55  77 108 144 189 241 288 338
#     4   9  20  37  57  82 113 147 181 225 278 333
#
# _framework density 19.319322
#
# number of rings (size 3 to 8) (size 9 to 14) (size 15 to 20)
#    0.000    1.857    0.000    5.571    0.000    5.714 
#    0.000    2.857    0.000    9.429    0.000    0.000 
#    0.000    0.000    0.000    0.000    0.000    0.000 
#
# Total GULP energy -156398.104244 kJ/mol
# GULP energy per Si atom -5585.646580 kJ/mol
# Density = 1.927535 g / cm^3
# Si number density = 19.319322 Si / 1000 Ang^3
#
#
#
# Elastic Constant Matrix: (Units=GPa)
#
#
# Indices 1 2 3 4 5 6 
#
# 1 102.4432 37.0649 20.8371 0.0000 20.1182 0.0000
# 2 37.0649 59.5479 8.3158 0.0000 12.7534 0.0000
# 3 20.8371 8.3158 78.4720 0.0000 24.0496 0.0000
# 4 0.0000 0.0000 0.0000 28.0535 0.0000 0.2878
# 5 20.1182 12.7534 24.0496 0.0000 29.0736 0.0000
# 6 0.0000 0.0000 0.0000 0.2878 0.0000 29.2464
#
#
#
# Elastic Compliance Matrix: (Units=1/GPa)
#
#
# Indices 1 2 3 4 5 6 
#
# 1 0.013652 -0.007198 -0.001252 0.000000 -0.005254 0.000000
# 2 -0.007198 0.022358 0.001368 0.000000 -0.005959 0.000000
# 3 -0.001252 0.001368 0.017213 0.000000 -0.013972 0.000000
# 4 0.000000 0.000000 0.000000 0.035650 0.000000 -0.000351
# 5 -0.005254 -0.005959 -0.013972 0.000000 0.052203 0.000000
# 6 0.000000 0.000000 0.000000 -0.000351 0.000000 0.034196
#
#
# Mechanical properties :
#
#
# Convention : Reuss Voigt Hill
#
# Bulk Modulus (GPa) = 25.60151 41.43320 33.51735
# Shear Modulus (GPa) = 24.69684 28.89106 26.79395
#
# Velocity S-wave (km/s) = 3.57928 3.87130 3.72815
# Velocity P-wave (km/s) = 5.51019 6.44016 5.99324
#
# Compressibility (1/GPa) = 0.03906020
#
# Stress axis : x y z
#
# Youngs Moduli (GPa) = 73.24882 44.72600 58.09547
#
# Poissons Ratio (x) = 0.32192 0.07275
# Poissons Ratio (y) = 0.52721 -0.07948
# Poissons Ratio (z) = 0.09172 -0.06119
#
# Static dielectric constant tensor:
#      x y z
#    x 1.681220 0.000000 -0.002790 
#    y 0.000000 1.649020 0.000000 
#    z -0.002790 0.000000 1.637740 
# 
# From -- ./inp_files/363168.got.cif
#   From: 2010.05.17/outbox.cif.g08.bks.cpg/sg12_182_cif.got.tgz:363168.got - 2010.06.03 13:09:07.
