data_PCOD9197757
_publ_section_title
;
Structure prediction by ZEFSAII (Michael W. Deem and Ramdas Pophale) SiO2 
 PCOD9197757
Probable space group: C 2/M
;
_chemical_formula_sum "Si O2"
_cell_formula_units_Z 64
_cell_length_a 8.764993
_cell_length_b 19.910424
_cell_length_c 18.292591
_cell_angle_alpha 90.000000
_cell_angle_beta 98.076682
_cell_angle_gamma 90.000000
_cell_volume 3160.661579
_symmetry_space_group_name_H-M "C 2/M"
_symmetry_group_IT_number 12
_symmetry_cell_setting 'monoclinic'
loop_
_space_group_symop_operation_xyz
x,y,z
-x,y,-z
-x,-y,-z
x,-y,z
1/2+x,1/2+y,z
1/2-x,1/2+y,-z
1/2-x,1/2-y,-z
1/2+x,1/2-y,z
loop_
_atom_site_type_symbol
_atom_site_label
_atom_site_fract_x
_atom_site_fract_y
_atom_site_fract_z
Si Si1 0.253799 0.919409 0.216784
Si Si2 0.724716 0.808837 0.222931
Si Si3 0.271186 0.337596 0.928733
Si Si4 0.557206 0.196392 0.706784
Si Si5 0.434344 0.422344 0.272831
Si Si6 0.373189 0.575961 0.429321
Si Si7 0.361522 0.194131 0.546930
Si Si8 0.107046 0.202817 0.917481
O O1 0.276057 0.893144 0.134397
O O2 0.363740 0.876481 0.278283
O O3 0.079430 0.902420 0.232652
O O4 0.273913 0.000000 0.222951
O O5 0.548520 0.797472 0.228231
O O6 0.792759 0.808361 0.147138
O O7 0.814224 0.752881 0.275946
O O8 0.777988 0.881550 0.253060
O O9 0.143372 0.280906 0.935854
O O10 0.424443 0.306129 0.901378
O O11 0.333244 0.348607 0.015441
O O12 0.452824 0.210549 0.628771
O O13 0.407854 0.500000 0.256229
O O14 0.466244 0.411826 0.360476
O O15 0.500000 0.577823 0.500000
O O16 0.307519 0.500000 0.420031
O O17 0.245674 0.631246 0.438769
O O18 0.500000 0.178575 0.500000
O O19 0.250000 0.250000 0.500000
#
# Coordination Sequence:
#
# PCOD9197757 Si02
#       8
#     8   8   8   8   8   8   8   8
#     4  11  24  43  65  94 132 171 218 269 323 383
#     4  12  21  39  64  94 125 159 217 263 315 385
#     4  10  20  38  59  95 127 168 210 261 321 377
#     4  12  26  40  65  95 124 171 212 271 325 381
#     4  10  22  41  65  90 125 166 209 260 317 382
#     4  10  23  44  67  91 123 167 210 257 321 391
#     4  12  27  44  64  95 133 166 212 271 325 383
#     4  10  20  35  63  93 127 163 212 262 316 377
#
# _framework density 20.248926000000001
#
# number of rings (size 3 to 8) (size 9 to 14) (size 15 to 20)
#    0.000    1.125    3.750    2.625    3.500    1.250 
#    0.000    1.875    0.000    0.750    0.000    0.000 
#    0.000    0.000    0.000    0.000    0.000    0.000 
#
# Total GULP energy -178360.565627 kJ/mol
# GULP energy per Si atom -5573.767676 kJ/mol
# Density = 2.020284 g / cm^3
# Si number density = 20.248926 Si / 1000 Ang^3
#
#
#
# Elastic Constant Matrix: (Units=GPa)
#
#
# Indices 1 2 3 4 5 6 
#
# 1 70.0811 37.0808 3.2712 0.0000 -7.7481 0.0000
# 2 37.0808 74.1297 35.3946 0.0000 -0.3565 0.0000
# 3 3.2712 35.3946 86.3776 0.0000 -4.7192 0.0000
# 4 0.0000 0.0000 0.0000 27.1231 0.0000 1.4317
# 5 -7.7481 -0.3565 -4.7192 0.0000 29.5177 0.0000
# 6 0.0000 0.0000 0.0000 1.4317 0.0000 30.6151
#
#
#
# Elastic Compliance Matrix: (Units=1/GPa)
#
#
# Indices 1 2 3 4 5 6 
#
# 1 0.021714 -0.013183 0.004925 0.000000 0.006328 0.000000
# 2 -0.013183 0.024799 -0.009922 0.000000 -0.004747 0.000000
# 3 0.004925 -0.009922 0.015657 0.000000 0.003676 0.000000
# 4 0.000000 0.000000 0.000000 0.036960 0.000000 -0.001728
# 5 0.006328 -0.004747 0.003676 0.000000 0.036069 0.000000
# 6 0.000000 0.000000 0.000000 -0.001728 0.000000 0.032744
#
#
# Mechanical properties :
#
#
# Convention : Reuss Voigt Hill
#
# Bulk Modulus (GPa) = 38.74317 42.45351 40.59834
# Shear Modulus (GPa) = 23.48447 27.77395 25.62921
#
# Velocity S-wave (km/s) = 3.40926 3.70756 3.56154
# Velocity P-wave (km/s) = 5.88833 6.27211 6.08325
#
# Compressibility (1/GPa) = 0.02581100
#
# Stress axis : x y z
#
# Youngs Moduli (GPa) = 46.05281 40.32466 63.86920
#
# Poissons Ratio (x) = 0.53160 -0.31458
# Poissons Ratio (y) = 0.60712 0.63370
# Poissons Ratio (z) = -0.22683 0.40009
#
# Static dielectric constant tensor:
#      x y z
#    x 1.697220 0.000000 0.023120 
#    y 0.000000 1.740180 0.000000 
#    z 0.023120 0.000000 1.811990 
# 
# From -- ./inp_files/258135.got.cif
#   From: 2010.05.17/outbox.cif.g08.bks.cpg/sg12_130_cif.got.tgz:258135.got - 2010.06.03 13:09:07.
