data_PCOD9197076
_publ_section_title
;
Structure prediction by ZEFSAII (Michael W. Deem and Ramdas Pophale) SiO2 
 PCOD9197076
Probable space group: C 2/M
;
_chemical_formula_sum "Si O2"
_cell_formula_units_Z 64
_cell_length_a 28.304771
_cell_length_b 14.020763
_cell_length_c 17.464923
_cell_angle_alpha 90.000000
_cell_angle_beta 30.922918
_cell_angle_gamma 90.000000
_cell_volume 3561.749978
_symmetry_space_group_name_H-M "C 2/M"
_symmetry_group_IT_number 12
_symmetry_cell_setting 'monoclinic'
loop_
_space_group_symop_operation_xyz
x,y,z
-x,y,-z
-x,-y,-z
x,-y,z
1/2+x,1/2+y,z
1/2-x,1/2+y,-z
1/2-x,1/2-y,-z
1/2+x,1/2-y,z
loop_
_atom_site_type_symbol
_atom_site_label
_atom_site_fract_x
_atom_site_fract_y
_atom_site_fract_z
Si Si1 0.004991 0.218127 0.840491
Si Si2 0.106127 0.787644 0.156513
Si Si3 0.621977 0.112074 0.710934
Si Si4 0.237176 0.107817 0.233376
Si Si5 0.315681 0.387591 0.354881
Si Si6 0.727945 0.110130 0.994197
Si Si7 0.359177 0.239382 0.167413
Si Si8 0.474871 0.393614 0.445945
O O1 0.047944 0.323806 0.768862
O O2 0.093288 0.149606 0.727242
O O3 0.936715 0.193691 0.866893
O O4 0.946830 0.221385 0.999607
O O5 0.141001 0.679809 0.117334
O O6 0.027476 0.815121 0.325415
O O7 0.194669 0.851492 0.055363
O O8 0.723211 0.127098 0.533341
O O9 0.620490 0.157421 0.797882
O O10 0.601959 0.000000 0.738898
O O11 0.296701 0.188618 0.190611
O O12 0.134337 0.112910 0.408593
O O13 0.273075 0.000000 0.198681
O O14 0.234215 0.118886 0.145634
O O15 0.323353 0.500000 0.328218
O O16 0.313664 0.323686 0.280774
O O17 0.707031 0.000000 0.037417
O O18 0.500000 0.386829 0.500000
O O19 0.504424 0.500000 0.378618
#
# Coordination Sequence:
#
# PCOD9197076 Si02
#       8
#     8   8   8   8   8   8   8   8
#     4  11  23  36  58  89 113 150 193 236 284 345
#     4  11  22  36  60  90 118 156 189 237 295 339
#     4  10  22  39  59  85 115 149 188 239 294 342
#     4  10  20  35  59  88 115 145 186 242 295 337
#     4  10  23  41  58  79 116 158 193 236 285 337
#     4  10  21  40  60  86 123 154 188 234 292 346
#     4  11  21  37  59  84 114 148 194 235 287 344
#     4  10  20  35  58  87 115 148 192 243 289 334
#
# _framework density 17.968696000000001
#
# number of rings (size 3 to 8) (size 9 to 14) (size 15 to 20)
#    0.000    1.625    2.500    3.750    3.500    4.000 
#    0.000    0.000    0.000    0.375    0.000    0.000 
#    0.000    0.000    0.000    0.000    0.000    0.000 
#
# Total GULP energy -178586.758315 kJ/mol
# GULP energy per Si atom -5580.836197 kJ/mol
# Density = 1.792780 g / cm^3
# Si number density = 17.968696 Si / 1000 Ang^3
#
#
#
# Elastic Constant Matrix: (Units=GPa)
#
#
# Indices 1 2 3 4 5 6 
#
# 1 94.9791 23.7155 15.9181 0.0000 2.7642 0.0000
# 2 23.7155 94.8985 26.5484 0.0000 13.0057 0.0000
# 3 15.9181 26.5484 72.7453 0.0000 11.9062 0.0000
# 4 0.0000 0.0000 0.0000 27.5201 0.0000 6.7090
# 5 2.7642 13.0057 11.9062 0.0000 13.8934 0.0000
# 6 0.0000 0.0000 0.0000 6.7090 0.0000 16.4474
#
#
#
# Elastic Compliance Matrix: (Units=1/GPa)
#
#
# Indices 1 2 3 4 5 6 
#
# 1 0.011431 -0.002577 -0.001842 0.000000 0.001716 0.000000
# 2 -0.002577 0.013250 -0.002705 0.000000 -0.009573 0.000000
# 3 -0.001842 -0.002705 0.017054 0.000000 -0.011716 0.000000
# 4 0.000000 0.000000 0.000000 0.040350 0.000000 -0.016459
# 5 0.001716 -0.009573 -0.011716 0.000000 0.090637 0.000000
# 6 0.000000 0.000000 0.000000 -0.016459 0.000000 0.067513
#
#
# Mechanical properties :
#
#
# Convention : Reuss Voigt Hill
#
# Bulk Modulus (GPa) = 36.37884 43.88742 40.13313
# Shear Modulus (GPa) = 18.96490 24.66823 21.81657
#
# Velocity S-wave (km/s) = 3.25228 3.70921 3.48824
# Velocity P-wave (km/s) = 5.86453 6.54383 6.21347
#
# Compressibility (1/GPa) = 0.02748850
#
# Stress axis : x y z
#
# Youngs Moduli (GPa) = 87.48365 75.47074 58.63565
#
# Poissons Ratio (x) = 0.19445 0.10800
# Poissons Ratio (y) = 0.22540 0.15861
# Poissons Ratio (z) = 0.16113 0.20415
#
# Static dielectric constant tensor:
#      x y z
#    x 1.641780 0.000000 -0.016680 
#    y 0.000000 1.616290 0.000000 
#    z -0.016680 0.000000 1.614360 
# 
# From -- ./inp_files/296667.got.cif
#   From: 2010.05.17/outbox.cif.g08.bks.cpg/sg12_149_cif.got.tgz:296667.got - 2010.06.03 13:09:07.
