data_PCOD9197962
_publ_section_title
;
Structure prediction by ZEFSAII (Michael W. Deem and Ramdas Pophale) SiO2 
 PCOD9197962
Probable space group: C 2/M
;
_chemical_formula_sum "Si O2"
_cell_formula_units_Z 56
_cell_length_a 8.965276
_cell_length_b 16.795354
_cell_length_c 28.159624
_cell_angle_alpha 90.000000
_cell_angle_beta 35.874847
_cell_angle_gamma 90.000000
_cell_volume 2484.789840
_symmetry_space_group_name_H-M "C 2/M"
_symmetry_group_IT_number 12
_symmetry_cell_setting 'monoclinic'
loop_
_space_group_symop_operation_xyz
x,y,z
-x,y,-z
-x,-y,-z
x,-y,z
1/2+x,1/2+y,z
1/2-x,1/2+y,-z
1/2-x,1/2-y,-z
1/2+x,1/2-y,z
loop_
_atom_site_type_symbol
_atom_site_label
_atom_site_fract_x
_atom_site_fract_y
_atom_site_fract_z
Si Si1 0.716177 0.726269 0.662532
Si Si2 0.615442 0.414780 0.843464
Si Si3 0.790953 0.412227 0.308898
Si Si4 0.765872 0.714582 0.442818
Si Si5 0.685263 0.141005 0.801845
Si Si6 0.646611 0.295659 0.917168
Si Si7 0.129922 0.388769 0.916906
O O1 0.768777 0.820938 0.659330
O O2 0.732231 0.721973 0.600959
O O3 0.437023 0.693975 0.748173
O O4 0.946780 0.680123 0.629546
O O5 0.562951 0.500000 0.880947
O O6 0.564867 0.344508 0.892701
O O7 0.426223 0.405683 0.849058
O O8 0.910406 0.414332 0.755341
O O9 0.684554 0.500000 0.352342
O O10 0.759868 0.408843 0.259810
O O11 0.500000 0.668459 0.500000
O O12 0.750000 0.750000 0.500000
O O13 0.447661 0.195918 0.847555
O O14 0.590367 0.090829 0.871905
O O15 0.572318 0.204775 0.930792
O O16 0.500000 0.329547 0.000000
O O17 0.000000 0.417256 0.000000
#
# Coordination Sequence:
#
# PCOD9197962 Si02
#       7
#     8   8   8   8   8   8   8
#     4  11  19  36  65  95 115 159 193 243 274 348
#     4  10  22  37  52  75 111 150 191 241 293 350
#     4  10  22  38  56  86 122 153 192 244 294 339
#     4   9  20  36  61  99 127 148 185 233 283 338
#     4  11  21  34  59  87 110 153 210 242 290 356
#     4  10  20  36  55  78 111 150 193 248 299 347
#     4  11  22  35  55  81 113 147 196 263 307 341
#
# _framework density 22.537116999999999
#
# number of rings (size 3 to 8) (size 9 to 14) (size 15 to 20)
#    0.000    1.714    1.429    4.286    2.000    3.429 
#    0.000    2.857    0.000    4.286    0.000    0.000 
#    0.000    0.000    0.000    0.000    0.000    0.000 
#
# Total GULP energy -155899.264002 kJ/mol
# GULP energy per Si atom -5567.830857 kJ/mol
# Density = 2.248582 g / cm^3
# Si number density = 22.537117 Si / 1000 Ang^3
#
#
#
# Elastic Constant Matrix: (Units=GPa)
#
#
# Indices 1 2 3 4 5 6 
#
# 1 119.7265 13.9742 26.9413 -0.0006 -5.2572 0.0093
# 2 13.9742 109.1723 13.7252 0.0067 4.6276 0.0178
# 3 26.9413 13.7252 69.9357 -0.0204 -0.1861 -0.0129
# 4 -0.0006 0.0067 -0.0204 -4.0005 0.0053 5.4645
# 5 -5.2572 4.6276 -0.1861 0.0053 49.6556 0.0099
# 6 0.0093 0.0178 -0.0129 5.4645 0.0099 48.4828
#
#
#
# Elastic Compliance Matrix: (Units=1/GPa)
#
#
# Indices 1 2 3 4 5 6 
#
# 1 0.009258 -0.000801 -0.003407 0.000011 0.001042 -0.000004
# 2 -0.000801 0.009500 -0.001558 0.000016 -0.000976 -0.000005
# 3 -0.003407 -0.001558 0.015917 -0.000066 -0.000156 0.000013
# 4 0.000011 0.000016 -0.000066 -0.216621 0.000018 0.024415
# 5 0.001042 -0.000976 -0.000156 0.000018 0.020339 -0.000006
# 6 -0.000004 -0.000005 0.000013 0.024415 -0.000006 0.017874
#
#
# Mechanical properties :
#
#
# Convention : Reuss Voigt Hill
#
# Bulk Modulus (GPa) = 43.21040 45.34621 44.27830
# Shear Modulus (GPa) = -40.16491 35.10717 -2.52887
#
# Velocity S-wave (km/s) = -4.22615 3.95111 -1.06044
# Velocity P-wave (km/s) = 2.14457 6.40152 4.26499
#
# Compressibility (1/GPa) = 0.02314258
#
# Stress axis : x y z
#
# Youngs Moduli (GPa) = 108.01269 105.26704 62.82766
#
# Poissons Ratio (x) = 0.08431 0.21403
# Poissons Ratio (y) = 0.08651 0.09791
# Poissons Ratio (z) = 0.36795 0.16405
#
# Static dielectric constant tensor:
#      x y z
#    x 1.865130 0.000000 -0.002130 
#    y 0.000000 1.880650 0.000010 
#    z -0.002130 0.000010 1.947810 
# 
# From -- ./inp_files/372784.got.cif
#   From: 2010.05.17/outbox.cif.g08.bks.cpg/sg12_187_cif.got.tgz:372784.got - 2010.06.03 13:09:07.
