data_PCOD9197271
_publ_section_title
;
Structure prediction by ZEFSAII (Michael W. Deem and Ramdas Pophale) SiO2 
 PCOD9197271
Probable space group: C 2/M
;
_chemical_formula_sum "Si O2"
_cell_formula_units_Z 42
_cell_length_a 19.008004
_cell_length_b 7.684778
_cell_length_c 14.116191
_cell_angle_alpha 90.000000
_cell_angle_beta 103.949003
_cell_angle_gamma 90.000000
_cell_volume 2001.177818
_symmetry_space_group_name_H-M "C 2/M"
_symmetry_group_IT_number 12
_symmetry_cell_setting 'monoclinic'
loop_
_space_group_symop_operation_xyz
x,y,z
-x,y,-z
-x,-y,-z
x,-y,z
1/2+x,1/2+y,z
1/2-x,1/2+y,-z
1/2-x,1/2-y,-z
1/2+x,1/2-y,z
loop_
_atom_site_type_symbol
_atom_site_label
_atom_site_fract_x
_atom_site_fract_y
_atom_site_fract_z
Si Si1 0.572180 0.204388 0.633461
Si Si2 0.226618 0.706171 0.598273
Si Si3 0.801533 0.702426 0.811311
Si Si4 0.651400 0.288140 0.849042
Si Si5 0.420423 0.702793 0.983517
Si Si6 0.500000 0.500000 0.500000
O O1 0.644571 0.262231 0.597357
O O2 0.596480 0.224758 0.750198
O O3 0.512670 0.343847 0.584010
O O4 0.556176 0.000000 0.609747
O O5 0.227081 0.500000 0.610510
O O6 0.250000 0.750000 0.500000
O O7 0.281095 0.779629 0.694717
O O8 0.808774 0.500000 0.835896
O O9 0.731540 0.773854 0.845242
O O10 0.874441 0.786773 0.872813
O O11 0.653534 0.500000 0.845259
O O12 0.626468 0.226721 0.943958
O O13 0.430522 0.500000 0.011042
O O14 0.500000 0.782371 0.000000
#
# Coordination Sequence:
#
# PCOD9197271 Si02
#       6
#     8   8   8   8   8   2
#     4  10  22  39  61  91 119 161 207 248 299 363
#     4  10  21  38  62  88 119 154 201 253 298 355
#     4  10  20  35  59  85 112 153 202 244 294 354
#     4   9  18  37  61  82 113 158 200 246 299 350
#     4  10  21  37  56  84 120 154 191 241 303 364
#     4  12  22  40  64  86 130 160 200 254 296 366
#
# _framework density 20.987641
#
# number of rings (size 3 to 8) (size 9 to 14) (size 15 to 20)
#    0.000    2.095    0.952    2.000    2.667    1.905 
#    3.429    0.000    0.000    0.000    0.000    0.000 
#    0.000    0.000    0.000    0.000    0.000    0.000 
#
# Total GULP energy -116971.329619 kJ/mol
# GULP energy per Si atom -5570.063315 kJ/mol
# Density = 2.093987 g / cm^3
# Si number density = 20.987641 Si / 1000 Ang^3
#
#
#
# Elastic Constant Matrix: (Units=GPa)
#
#
# Indices 1 2 3 4 5 6 
#
# 1 47.8473 2.5731 50.1342 0.0000 -0.1988 0.0000
# 2 2.5731 74.0558 -1.2414 0.0000 4.3809 0.0000
# 3 50.1342 -1.2414 98.0457 0.0000 -1.9284 0.0000
# 4 0.0000 0.0000 0.0000 23.8427 0.0000 -1.0518
# 5 -0.1988 4.3809 -1.9284 0.0000 31.5850 0.0000
# 6 0.0000 0.0000 0.0000 -1.0518 0.0000 2.0685
#
#
#
# Elastic Compliance Matrix: (Units=1/GPa)
#
#
# Indices 1 2 3 4 5 6 
#
# 1 0.045328 -0.001913 -0.023219 0.000000 -0.000867 0.000000
# 2 -0.001913 0.013698 0.001115 0.000000 -0.001844 0.000000
# 3 -0.023219 0.001115 0.022107 0.000000 0.001049 0.000000
# 4 0.000000 0.000000 0.000000 0.042904 0.000000 0.021816
# 5 -0.000867 -0.001844 0.001049 0.000000 0.031975 0.000000
# 6 0.000000 0.000000 0.000000 0.021816 0.000000 0.494531
#
#
# Mechanical properties :
#
#
# Convention : Reuss Voigt Hill
#
# Bulk Modulus (GPa) = 30.21239 35.87563 33.04401
# Shear Modulus (GPa) = 7.04615 22.73143 14.88879
#
# Velocity S-wave (km/s) = 1.83428 3.29460 2.66636
# Velocity P-wave (km/s) = 4.34887 5.62168 5.02573
#
# Compressibility (1/GPa) = 0.03309900
#
# Stress axis : x y z
#
# Youngs Moduli (GPa) = 22.06152 73.00570 45.23506
#
# Poissons Ratio (x) = 0.13965 1.05031
# Poissons Ratio (y) = 0.04220 -0.05045
# Poissons Ratio (z) = 0.51225 -0.08142
#
# Static dielectric constant tensor:
#      x y z
#    x 1.782110 0.000000 0.066090 
#    y 0.000000 1.756700 0.000000 
#    z 0.066090 0.000000 1.550460 
# 
# From -- ./inp_files/221171.got.cif
#   From: 2010.05.17/outbox.cif.g08.bks.cpg/sg12_111_cif.got.tgz:221171.got - 2010.06.03 13:09:07.
