data_PCOD9197327
_publ_section_title
;
Structure prediction by ZEFSAII (Michael W. Deem and Ramdas Pophale) SiO2 
 PCOD9197327
Probable space group: C 2/M
;
_chemical_formula_sum "Si O2"
_cell_formula_units_Z 64
_cell_length_a 25.436248
_cell_length_b 8.841753
_cell_length_c 14.539095
_cell_angle_alpha 90.000000
_cell_angle_beta 79.084527
_cell_angle_gamma 90.000000
_cell_volume 3210.697794
_symmetry_space_group_name_H-M "C 2/M"
_symmetry_group_IT_number 12
_symmetry_cell_setting 'monoclinic'
loop_
_space_group_symop_operation_xyz
x,y,z
-x,y,-z
-x,-y,-z
x,-y,z
1/2+x,1/2+y,z
1/2-x,1/2+y,-z
1/2-x,1/2-y,-z
1/2+x,1/2-y,z
loop_
_atom_site_type_symbol
_atom_site_label
_atom_site_fract_x
_atom_site_fract_y
_atom_site_fract_z
Si Si1 0.577593 0.678304 0.609289
Si Si2 0.640680 0.181794 0.078786
Si Si3 0.135177 0.179378 0.414710
Si Si4 0.203545 0.319794 0.239645
Si Si5 0.087673 0.821820 0.824805
Si Si6 0.309039 0.821668 0.123323
Si Si7 0.966244 0.679150 0.653124
Si Si8 0.967887 0.180993 0.856171
O O1 0.435631 0.500000 0.399623
O O2 0.626578 0.715064 0.525311
O O3 0.588841 0.698013 0.713497
O O4 0.525498 0.775175 0.600565
O O5 0.662735 0.228632 0.171378
O O6 0.584815 0.263032 0.074575
O O7 0.632583 0.000000 0.081434
O O8 0.684328 0.217998 0.986528
O O9 0.182995 0.255693 0.342953
O O10 0.080364 0.235928 0.385579
O O11 0.140030 0.000000 0.402846
O O12 0.202296 0.500000 0.243242
O O13 0.261748 0.264831 0.189949
O O14 0.133860 0.721805 0.852495
O O15 0.026906 0.784512 0.875743
O O16 0.097202 0.000000 0.841359
O O17 0.299273 0.000000 0.134109
O O18 0.957830 0.500000 0.650986
O O19 0.964484 0.735967 0.758952
O O20 0.966060 0.000000 0.843701
#
# Coordination Sequence:
#
# PCOD9197327 Si02
#       8
#     8   8   8   8   8   8   8   8
#     4   9  20  37  57  82 115 154 194 236 285 339
#     4  10  22  39  60  88 120 149 187 238 295 350
#     4  11  21  35  57  85 116 151 192 237 286 344
#     4  11  23  40  61  86 117 152 191 240 292 345
#     4   9  20  40  60  83 116 154 197 240 283 336
#     4  11  24  41  61  85 113 153 197 240 291 346
#     4  11  20  31  51  83 122 156 189 231 285 344
#     4  10  20  35  59  87 118 156 193 235 289 343
#
# _framework density 19.93336
#
# number of rings (size 3 to 8) (size 9 to 14) (size 15 to 20)
#    0.000    1.750    1.250    4.125    0.000    7.000 
#    0.000    3.125    0.000    0.000    0.000    0.000 
#    0.000    0.000    0.000    0.000    0.000    0.000 
#
# Total GULP energy -178790.724181 kJ/mol
# GULP energy per Si atom -5587.210131 kJ/mol
# Density = 1.988799 g / cm^3
# Si number density = 19.933360 Si / 1000 Ang^3
#
#
#
# Elastic Constant Matrix: (Units=GPa)
#
#
# Indices 1 2 3 4 5 6 
#
# 1 65.8138 19.8003 23.9337 0.0000 -24.7109 0.0000
# 2 19.8003 39.5672 27.1611 0.0000 -15.1022 0.0000
# 3 23.9337 27.1611 70.5093 0.0000 -35.0349 0.0000
# 4 0.0000 0.0000 0.0000 24.0446 0.0000 -5.9332
# 5 -24.7109 -15.1022 -35.0349 0.0000 32.9181 0.0000
# 6 0.0000 0.0000 0.0000 -5.9332 0.0000 31.4759
#
#
#
# Elastic Compliance Matrix: (Units=1/GPa)
#
#
# Indices 1 2 3 4 5 6 
#
# 1 0.022657 -0.007245 0.004032 0.000000 0.017975 0.000000
# 2 -0.007245 0.036873 -0.012823 0.000000 -0.002169 0.000000
# 3 0.004032 -0.012823 0.034668 0.000000 0.034041 0.000000
# 4 0.000000 0.000000 0.000000 0.043618 0.000000 0.008222
# 5 0.017975 -0.002169 0.034041 0.000000 0.079107 0.000000
# 6 0.000000 0.000000 0.000000 0.008222 0.000000 0.033320
#
#
# Mechanical properties :
#
#
# Convention : Reuss Voigt Hill
#
# Bulk Modulus (GPa) = 16.09619 35.29786 25.69703
# Shear Modulus (GPa) = 16.50038 24.68741 20.59390
#
# Velocity S-wave (km/s) = 2.88023 3.52305 3.21773
# Velocity P-wave (km/s) = 4.37647 5.85624 5.16958
#
# Compressibility (1/GPa) = 0.06212650
#
# Stress axis : x y z
#
# Youngs Moduli (GPa) = 44.13662 27.11993 28.84522
#
# Poissons Ratio (x) = 0.19648 -0.11630
# Poissons Ratio (y) = 0.31976 0.36987
# Poissons Ratio (z) = -0.17795 0.34775
#
# Static dielectric constant tensor:
#      x y z
#    x 1.686160 0.000000 -0.013750 
#    y 0.000000 1.661240 0.000000 
#    z -0.013750 0.000000 1.755640 
# 
# From -- ./inp_files/243885.got.cif
#   From: 2010.05.17/outbox.cif.g08.bks.cpg/sg12_122_cif.got.tgz:243885.got - 2010.06.03 13:09:07.
