data_PCOD9197999
_publ_section_title
;
Structure prediction by ZEFSAII (Michael W. Deem and Ramdas Pophale) SiO2 
 PCOD9197999
Probable space group: C 2/M
;
_chemical_formula_sum "Si O2"
_cell_formula_units_Z 56
_cell_length_a 14.207424
_cell_length_b 25.993220
_cell_length_c 21.847281
_cell_angle_alpha 90.000000
_cell_angle_beta 157.100456
_cell_angle_gamma 90.000000
_cell_volume 3139.442969
_symmetry_space_group_name_H-M "C 2/M"
_symmetry_group_IT_number 12
_symmetry_cell_setting 'monoclinic'
loop_
_space_group_symop_operation_xyz
x,y,z
-x,y,-z
-x,-y,-z
x,-y,z
1/2+x,1/2+y,z
1/2-x,1/2+y,-z
1/2-x,1/2-y,-z
1/2+x,1/2-y,z
loop_
_atom_site_type_symbol
_atom_site_label
_atom_site_fract_x
_atom_site_fract_y
_atom_site_fract_z
Si Si1 0.883649 0.184023 0.991400
Si Si2 0.701661 0.810651 0.570282
Si Si3 0.288968 0.560111 0.163472
Si Si4 0.643596 0.791003 0.182035
Si Si5 0.180494 0.300083 0.348676
Si Si6 0.833308 0.143138 0.091696
Si Si7 0.923758 0.143001 0.593227
O O1 0.866605 0.145842 0.038843
O O2 0.043580 0.234516 0.105387
O O3 0.607042 0.200305 0.813049
O O4 0.000000 0.161770 0.000000
O O5 0.500000 0.822223 0.500000
O O6 0.699318 0.750981 0.551249
O O7 0.713978 0.844450 0.516677
O O8 0.955156 0.821516 0.754969
O O9 0.348874 0.500000 0.198591
O O10 0.348133 0.589065 0.135187
O O11 0.440828 0.590881 0.306228
O O12 0.000000 0.565173 0.000000
O O13 0.713973 0.794900 0.295883
O O14 0.863689 0.813731 0.274694
O O15 0.418201 0.829871 0.041511
O O16 0.304131 0.348885 0.455235
#
# Coordination Sequence:
#
# PCOD9197999 Si02
#       7
#     8   8   8   8   8   8   8
#     4  11  22  33  56  82 123 165 201 225 275 353
#     4  11  21  32  48  78 119 159 193 225 273 345
#     4  10  21  40  66  88 109 144 198 257 304 345
#     4  11  19  36  53  82 120 157 193 226 284 347
#     4  11  21  34  49  80 122 159 188 232 280 344
#     4  10  20  36  55  82 116 153 194 244 283 338
#     4  11  23  33  58  84 116 153 191 243 296 341
#
# _framework density 17.837558000000001
#
# number of rings (size 3 to 8) (size 9 to 14) (size 15 to 20)
#    0.000    1.286    4.286    3.429    4.000    0.000 
#    0.000    0.000    0.000   12.429    0.000    0.000 
#    0.000    0.000    0.000    0.000    0.000    0.000 
#
# Total GULP energy -156267.159481 kJ/mol
# GULP energy per Si atom -5580.969981 kJ/mol
# Density = 1.779696 g / cm^3
# Si number density = 17.837558 Si / 1000 Ang^3
#
#
#
# Elastic Constant Matrix: (Units=GPa)
#
#
# Indices 1 2 3 4 5 6 
#
# 1 94.8801 29.6193 38.3439 0.0002 12.1641 0.0013
# 2 29.6193 105.8185 38.6138 0.0011 -6.2639 -0.0006
# 3 38.3439 38.6138 68.8367 -0.0155 -5.2530 0.0074
# 4 0.0002 0.0011 -0.0155 21.1729 -0.0150 -0.5243
# 5 12.1641 -6.2639 -5.2530 -0.0150 30.8572 0.0022
# 6 0.0013 -0.0006 0.0074 -0.5243 0.0022 17.1072
#
#
#
# Elastic Compliance Matrix: (Units=1/GPa)
#
#
# Indices 1 2 3 4 5 6 
#
# 1 0.015406 -0.001793 -0.008173 -0.000012 -0.007829 0.000003
# 2 -0.001793 0.012142 -0.005644 -0.000003 0.002211 0.000003
# 3 -0.008173 -0.005644 0.022699 0.000021 0.005940 -0.000010
# 4 -0.000012 -0.000003 0.000021 0.047266 0.000030 0.001449
# 5 -0.007829 0.002211 0.005940 0.000030 0.036954 -0.000006
# 6 0.000003 0.000003 -0.000010 0.001449 -0.000006 0.058499
#
#
# Mechanical properties :
#
#
# Convention : Reuss Voigt Hill
#
# Bulk Modulus (GPa) = 52.55584 53.63215 53.09400
# Shear Modulus (GPa) = 21.68929 24.69135 23.19032
#
# Velocity S-wave (km/s) = 3.49081 3.72457 3.60958
# Velocity P-wave (km/s) = 6.76574 6.97343 6.87037
#
# Compressibility (1/GPa) = 0.01902738
#
# Stress axis : x y z
#
# Youngs Moduli (GPa) = 64.90945 82.35639 44.05505
#
# Poissons Ratio (x) = 0.14769 0.36007
# Poissons Ratio (y) = 0.11640 0.24863
# Poissons Ratio (z) = 0.53051 0.46479
#
# Static dielectric constant tensor:
#      x y z
#    x 1.666860 0.000000 -0.013600 
#    y 0.000000 1.573950 -0.000030 
#    z -0.013600 -0.000030 1.660440 
# 
# From -- ./inp_files/149490.got.cif
#   From: 2010.05.17/outbox.cif.g08.bks.cpg/sg12_75_cif.got.tgz:149490.got - 2010.06.03 13:09:07.
