data_PCOD9197797
_publ_section_title
;
Structure prediction by ZEFSAII (Michael W. Deem and Ramdas Pophale) SiO2 
 PCOD9197797
Probable space group: C 2/M
;
_chemical_formula_sum "Si O2"
_cell_formula_units_Z 52
_cell_length_a 20.305505
_cell_length_b 25.187150
_cell_length_c 9.025821
_cell_angle_alpha 90.000000
_cell_angle_beta 142.996342
_cell_angle_gamma 90.000000
_cell_volume 2778.301398
_symmetry_space_group_name_H-M "C 2/M"
_symmetry_group_IT_number 12
_symmetry_cell_setting 'monoclinic'
loop_
_space_group_symop_operation_xyz
x,y,z
-x,y,-z
-x,-y,-z
x,-y,z
1/2+x,1/2+y,z
1/2-x,1/2+y,-z
1/2-x,1/2-y,-z
1/2+x,1/2-y,z
loop_
_atom_site_type_symbol
_atom_site_label
_atom_site_fract_x
_atom_site_fract_y
_atom_site_fract_z
Si Si1 0.297161 0.902820 0.051318
Si Si2 0.500000 0.167421 0.500000
Si Si3 0.380269 0.000000 0.714614
Si Si4 0.846926 0.745127 0.382402
Si Si5 0.061394 0.165157 0.267192
Si Si6 0.645838 0.314505 0.903630
Si Si7 0.115695 0.500000 0.624465
Si Si8 0.707386 0.560208 0.575290
O O1 0.406490 0.867179 0.252990
O O2 0.319059 0.949483 0.203925
O O3 0.200950 0.867253 0.941651
O O4 0.265081 0.925275 0.834065
O O5 0.441454 0.201546 0.524435
O O6 0.397989 0.000000 0.573397
O O7 0.305468 0.950283 0.634123
O O8 0.500000 0.000000 0.000000
O O9 0.861533 0.785235 0.545476
O O10 0.859556 0.777949 0.251597
O O11 0.730148 0.715543 0.165382
O O12 0.126506 0.108961 0.391804
O O13 0.966623 0.170740 0.220730
O O14 0.000000 0.170593 0.000000
O O15 0.000000 0.500000 0.500000
O O16 0.656439 0.500000 0.495349
#
# Coordination Sequence:
#
# PCOD9197797 Si02
#       8
#     8   4   4   8   8   8   4   8
#     4  11  21  37  67  97 126 166 230 276 319 396
#     4  10  20  35  68  96 127 160 218 284 336 372
#     4  10  24  44  66  90 142 173 202 269 343 386
#     4  10  20  41  65  91 122 170 224 270 334 376
#     4  12  25  41  65  92 137 176 222 270 334 399
#     4  10  22  39  65  91 124 170 221 280 317 385
#     4  12  22  40  69  97 127 165 222 268 315 395
#     4  10  24  44  62  94 133 177 211 271 338 390
#
# _framework density 18.716472
#
# number of rings (size 3 to 8) (size 9 to 14) (size 15 to 20)
#    0.462    0.923    4.615    0.923    2.154    0.923 
#    1.385    0.769    0.000    0.000    0.000    0.000 
#    0.000    0.000    0.000    0.000    0.000    0.000 
#
# Total GULP energy -144971.321067 kJ/mol
# GULP energy per Si atom -5575.820041 kJ/mol
# Density = 1.867387 g / cm^3
# Si number density = 18.716472 Si / 1000 Ang^3
#
#
#
# Elastic Constant Matrix: (Units=GPa)
#
#
# Indices 1 2 3 4 5 6 
#
# 1 82.1493 33.3564 39.5451 0.0000 -0.3458 0.0000
# 2 33.3564 107.2255 38.1061 0.0000 -1.2806 0.0000
# 3 39.5451 38.1061 89.0018 0.0000 -19.1633 0.0000
# 4 0.0000 0.0000 0.0000 -86.5289 0.0000 -36.0879
# 5 -0.3458 -1.2806 -19.1633 0.0000 37.2708 0.0000
# 6 0.0000 0.0000 0.0000 -36.0879 0.0000 5.0744
#
#
#
# Elastic Compliance Matrix: (Units=1/GPa)
#
#
# Indices 1 2 3 4 5 6 
#
# 1 0.016627 -0.002735 -0.006976 0.000000 -0.003526 0.000000
# 2 -0.002735 0.011628 -0.004141 0.000000 -0.001755 0.000000
# 3 -0.006976 -0.004141 0.018063 0.000000 0.009080 0.000000
# 4 0.000000 0.000000 0.000000 -0.002914 0.000000 -0.020723
# 5 -0.003526 -0.001755 0.009080 0.000000 0.031406 0.000000
# 6 0.000000 0.000000 0.000000 -0.020723 0.000000 0.049689
#
#
# Mechanical properties :
#
#
# Convention : Reuss Voigt Hill
#
# Bulk Modulus (GPa) = 53.72374 55.59910 54.66142
# Shear Modulus (GPa) = 31.56413 2.32119 16.94266
#
# Velocity S-wave (km/s) = 4.11108 1.11484 3.01196
# Velocity P-wave (km/s) = 7.16247 5.60604 6.43151
#
# Compressibility (1/GPa) = 0.01861374
#
# Stress axis : x y z
#
# Youngs Moduli (GPa) = 60.14392 86.00128 55.36114
#
# Poissons Ratio (x) = 0.23525 0.38618
# Poissons Ratio (y) = 0.16452 0.22924
# Poissons Ratio (z) = 0.41954 0.35612
#
# Static dielectric constant tensor:
#      x y z
#    x 1.628700 0.000000 0.019920 
#    y 0.000000 1.650580 0.000000 
#    z 0.019920 0.000000 1.655150 
# 
# From -- ./inp_files/90735.got.cif
#   From: 2010.05.17/outbox.cif.g08.bks.cpg/sg12_46_cif.got.tgz:90735.got - 2010.06.03 13:09:07.
