data_PCOD9197585
_publ_section_title
;
Structure prediction by ZEFSAII (Michael W. Deem and Ramdas Pophale) SiO2 
 PCOD9197585
Probable space group: C 2/M
;
_chemical_formula_sum "Si O2"
_cell_formula_units_Z 50
_cell_length_a 5.473469
_cell_length_b 27.742072
_cell_length_c 18.552879
_cell_angle_alpha 90.000000
_cell_angle_beta 52.861159
_cell_angle_gamma 90.000000
_cell_volume 2245.776053
_symmetry_space_group_name_H-M "C 2/M"
_symmetry_group_IT_number 12
_symmetry_cell_setting 'monoclinic'
loop_
_space_group_symop_operation_xyz
x,y,z
-x,y,-z
-x,-y,-z
x,-y,z
1/2+x,1/2+y,z
1/2-x,1/2+y,-z
1/2-x,1/2-y,-z
1/2+x,1/2-y,z
loop_
_atom_site_type_symbol
_atom_site_label
_atom_site_fract_x
_atom_site_fract_y
_atom_site_fract_z
Si Si1 0.806192 0.722519 0.243768
Si Si2 0.044446 0.383682 0.201127
Si Si3 0.348578 0.312966 0.447945
Si Si4 0.929935 0.078415 0.384825
Si Si5 0.829730 0.947627 0.251815
Si Si6 0.000000 0.000000 0.500000
Si Si7 0.973286 0.446233 0.923821
O O1 0.586177 0.743723 0.220760
O O2 0.953256 0.670455 0.200559
O O3 0.578179 0.713012 0.351759
O O4 0.750309 0.411020 0.287317
O O5 0.175757 0.411477 0.108459
O O6 0.264922 0.395400 0.228214
O O7 0.500000 0.311134 0.500000
O O8 0.331056 0.369196 0.428729
O O9 0.000000 0.294375 0.500000
O O10 0.738850 0.056721 0.351844
O O11 0.960758 0.041882 0.444041
O O12 0.184291 0.952186 0.167874
O O13 0.692583 0.000000 0.250467
O O14 0.837066 0.500000 0.951773
O O15 0.000000 0.427041 0.000000
#
# Coordination Sequence:
#
# PCOD9197585 Si02
#       7
#     8   8   8   8   8   2   8
#     4  11  26  44  69  94 120 167 224 279 341 401
#     4  10  23  39  63  88 130 163 214 269 324 389
#     4  11  24  41  62  88 124 163 213 283 342 386
#     4  10  23  36  55  84 126 173 219 263 314 381
#     4  10  20  35  60  91 125 173 212 256 314 387
#     4  12  20  40  54  88 124 180 226 268 314 380
#     4   9  19  37  63  99 136 168 205 252 314 392
#
# _framework density 22.264016999999999
#
# number of rings (size 3 to 8) (size 9 to 14) (size 15 to 20)
#    0.000    1.760    1.600    1.440   13.440    2.560 
#    0.000    3.600    0.000    0.960    0.000    0.000 
#    0.000    0.000    0.000    0.000    0.000    0.000 
#
# Total GULP energy -139210.929157 kJ/mol
# GULP energy per Si atom -5568.437166 kJ/mol
# Density = 2.221334 g / cm^3
# Si number density = 22.264017 Si / 1000 Ang^3
#
#
#
# Elastic Constant Matrix: (Units=GPa)
#
#
# Indices 1 2 3 4 5 6 
#
# 1 84.9392 25.3297 25.5143 0.0000 10.6736 0.0000
# 2 25.3297 112.3405 23.3081 0.0000 13.5611 0.0000
# 3 25.5143 23.3081 82.8759 0.0000 36.3399 0.0000
# 4 0.0000 0.0000 0.0000 -24.2385 0.0000 -19.7967
# 5 10.6736 13.5611 36.3399 0.0000 33.8487 0.0000
# 6 0.0000 0.0000 0.0000 -19.7967 0.0000 8.1652
#
#
#
# Elastic Compliance Matrix: (Units=1/GPa)
#
#
# Indices 1 2 3 4 5 6 
#
# 1 0.013531 -0.002348 -0.003868 0.000000 0.000826 0.000000
# 2 -0.002348 0.009917 -0.001226 0.000000 -0.001917 0.000000
# 3 -0.003868 -0.001226 0.024283 0.000000 -0.024359 0.000000
# 4 0.000000 0.000000 0.000000 -0.013843 0.000000 -0.033564
# 5 0.000826 -0.001917 -0.024359 0.000000 0.056203 0.000000
# 6 0.000000 0.000000 0.000000 -0.033564 0.000000 0.041095
#
#
# Mechanical properties :
#
#
# Convention : Reuss Voigt Hill
#
# Bulk Modulus (GPa) = 30.44333 47.60666 39.02499
# Shear Modulus (GPa) = 31.84370 17.28865 24.56618
#
# Velocity S-wave (km/s) = 3.78600 2.78965 3.32535
# Velocity P-wave (km/s) = 5.72846 5.63963 5.68422
#
# Compressibility (1/GPa) = 0.03284792
#
# Stress axis : x y z
#
# Youngs Moduli (GPa) = 73.90248 100.84077 41.18127
#
# Poissons Ratio (x) = 0.23680 0.15928
# Poissons Ratio (y) = 0.17354 0.05047
# Poissons Ratio (z) = 0.28583 0.12359
#
# Static dielectric constant tensor:
#      x y z
#    x 2.242990 0.000000 -0.022550 
#    y 0.000000 1.818870 0.000000 
#    z -0.022550 0.000000 1.799630 
# 
# From -- ./inp_files/192633.got.cif
#   From: 2010.05.17/outbox.cif.g08.bks.cpg/sg12_97_cif.got.tgz:192633.got - 2010.06.03 13:09:07.
