data_PCOD9197543
_publ_section_title
;
Structure prediction by ZEFSAII (Michael W. Deem and Ramdas Pophale) SiO2 
 PCOD9197543
Probable space group: C 2/M
;
_chemical_formula_sum "Si O2"
_cell_formula_units_Z 48
_cell_length_a 10.039673
_cell_length_b 24.277979
_cell_length_c 9.543024
_cell_angle_alpha 90.000000
_cell_angle_beta 96.840332
_cell_angle_gamma 90.000000
_cell_volume 2309.488028
_symmetry_space_group_name_H-M "C 2/M"
_symmetry_group_IT_number 12
_symmetry_cell_setting 'monoclinic'
loop_
_space_group_symop_operation_xyz
x,y,z
-x,y,-z
-x,-y,-z
x,-y,z
1/2+x,1/2+y,z
1/2-x,1/2+y,-z
1/2-x,1/2-y,-z
1/2+x,1/2-y,z
loop_
_atom_site_type_symbol
_atom_site_label
_atom_site_fract_x
_atom_site_fract_y
_atom_site_fract_z
Si Si1 0.770633 0.566602 0.587449
Si Si2 0.925493 0.148681 0.278789
Si Si3 0.863189 0.264451 0.400681
Si Si4 0.648012 0.415011 0.992098
Si Si5 0.086844 0.438787 0.131383
Si Si6 0.235664 0.125920 0.301077
O O1 0.752986 0.500000 0.593283
O O2 0.647191 0.601790 0.636582
O O3 0.891564 0.583147 0.709192
O O4 0.788050 0.586089 0.430593
O O5 0.880045 0.209281 0.313364
O O6 0.083605 0.143144 0.321215
O O7 0.890203 0.136484 0.112446
O O8 0.750000 0.250000 0.500000
O O9 0.820868 0.318370 0.310018
O O10 0.000000 0.275645 0.500000
O O11 0.717244 0.402274 0.148453
O O12 0.500000 0.559288 0.000000
O O13 0.763293 0.443150 0.913962
O O14 0.027661 0.500000 0.141807
O O15 0.000000 0.409377 0.000000
#
# Coordination Sequence:
#
# PCOD9197543 Si02
#       6
#     8   8   8   8   8   8
#     4  10  20  35  60  89 119 157 197 241 295 352
#     4  10  20  40  60  83 121 156 198 242 291 357
#     4  12  22  38  63  89 117 156 195 246 299 352
#     4   9  21  38  58  82 116 154 194 245 294 343
#     4   9  19  37  58  80 116 161 197 236 292 353
#     4  11  22  37  59  92 119 149 197 253 294 342
#
# _framework density 20.783826999999999
#
# number of rings (size 3 to 8) (size 9 to 14) (size 15 to 20)
#    0.000    1.833    3.333    0.500    0.000    4.333 
#    0.000    3.333    0.000    3.500    0.000    0.000 
#    0.000    0.000    0.000    0.000    0.000    0.000 
#
# Total GULP energy -133813.178457 kJ/mol
# GULP energy per Si atom -5575.549102 kJ/mol
# Density = 2.073652 g / cm^3
# Si number density = 20.783827 Si / 1000 Ang^3
#
#
#
# Elastic Constant Matrix: (Units=GPa)
#
#
# Indices 1 2 3 4 5 6 
#
# 1 44.4088 5.7418 25.4014 0.0000 15.9206 0.0000
# 2 5.7418 108.2177 57.4751 0.0000 8.6867 0.0000
# 3 25.4014 57.4751 191.0879 0.0000 20.3516 0.0000
# 4 0.0000 0.0000 0.0000 3.5439 0.0000 12.6623
# 5 15.9206 8.6867 20.3516 0.0000 33.6936 0.0000
# 6 0.0000 0.0000 0.0000 12.6623 0.0000 -20.5689
#
#
#
# Elastic Compliance Matrix: (Units=1/GPa)
#
#
# Indices 1 2 3 4 5 6 
#
# 1 0.028253 0.000926 -0.002765 0.000000 -0.011918 0.000000
# 2 0.000926 0.011053 -0.003310 0.000000 -0.001288 0.000000
# 3 -0.002765 -0.003310 0.006804 0.000000 -0.001950 0.000000
# 4 0.000000 0.000000 0.000000 0.088193 0.000000 0.054292
# 5 -0.011918 -0.001288 -0.001950 0.000000 0.036821 0.000000
# 6 0.000000 0.000000 0.000000 0.054292 0.000000 -0.015195
#
#
# Mechanical properties :
#
#
# Convention : Reuss Voigt Hill
#
# Bulk Modulus (GPa) = 27.92416 57.88346 42.90381
# Shear Modulus (GPa) = 28.06409 20.34012 24.20210
#
# Velocity S-wave (km/s) = 3.67861 3.13173 3.41613
# Velocity P-wave (km/s) = 5.61316 6.40216 6.02060
#
# Compressibility (1/GPa) = 0.03581128
#
# Stress axis : x y z
#
# Youngs Moduli (GPa) = 35.39504 90.47251 146.96967
#
# Poissons Ratio (x) = -0.08378 0.40634
# Poissons Ratio (y) = -0.03278 0.48654
# Poissons Ratio (z) = 0.09786 0.29951
#
# Static dielectric constant tensor:
#      x y z
#    x 1.778000 0.000000 0.002740 
#    y 0.000000 1.712190 0.000000 
#    z 0.002740 0.000000 1.783990 
# 
# From -- ./inp_files/51463.got.cif
#   From: 2010.05.17/outbox.cif.g08.bks.cpg/sg12_26_cif.got.tgz:51463.got - 2010.06.03 13:09:07.
