data_PCOD9197606
_publ_section_title
;
Structure prediction by ZEFSAII (Michael W. Deem and Ramdas Pophale) SiO2 
 PCOD9197606
Probable space group: C 2/M
;
_chemical_formula_sum "Si O2"
_cell_formula_units_Z 58
_cell_length_a 25.832451
_cell_length_b 7.577858
_cell_length_c 23.673628
_cell_angle_alpha 90.000000
_cell_angle_beta 35.087528
_cell_angle_gamma 90.000000
_cell_volume 2663.876982
_symmetry_space_group_name_H-M "C 2/M"
_symmetry_group_IT_number 12
_symmetry_cell_setting 'monoclinic'
loop_
_space_group_symop_operation_xyz
x,y,z
-x,y,-z
-x,-y,-z
x,-y,z
1/2+x,1/2+y,z
1/2-x,1/2+y,-z
1/2-x,1/2-y,-z
1/2+x,1/2-y,z
loop_
_atom_site_type_symbol
_atom_site_label
_atom_site_fract_x
_atom_site_fract_y
_atom_site_fract_z
Si Si1 0.493153 0.712017 0.678322
Si Si2 0.332118 0.800026 0.967434
Si Si3 0.433493 0.285176 0.142466
Si Si4 0.000000 0.500000 0.000000
Si Si5 0.208011 0.289288 0.176389
Si Si6 0.732308 0.788398 0.281761
Si Si7 0.972084 0.801912 0.231741
Si Si8 0.057620 0.793908 0.500763
O O1 0.505064 0.500000 0.669886
O O2 0.386324 0.745047 0.769111
O O3 0.533299 0.782598 0.701351
O O4 0.535368 0.781575 0.582205
O O5 0.421013 0.689912 0.876845
O O6 0.358372 0.000000 0.932304
O O7 0.250000 0.750000 0.000000
O O8 0.291155 0.782318 0.066319
O O9 0.451661 0.500000 0.122501
O O10 0.335331 0.247976 0.203603
O O11 0.431533 0.229959 0.210030
O O12 0.499818 0.158036 0.049166
O O13 0.217086 0.500000 0.169261
O O14 0.207401 0.223172 0.241272
O O15 0.661079 0.718948 0.390506
O O16 0.723343 0.000000 0.289929
O O17 0.934753 0.000000 0.269602
O O18 0.000000 0.715772 0.500000
O O19 0.031588 0.000000 0.527541
#
# Coordination Sequence:
#
# PCOD9197606 Si02
#       8
#     8   8   8   2   8   8   8   8
#     4  10  20  37  59  88 120 161 204 252 315 374
#     4  12  24  36  55  85 122 160 204 252 311 381
#     4  10  25  46  66  95 132 172 217 269 320 379
#     4  12  26  44  72  98 122 172 224 264 316 380
#     4  11  22  35  55  85 118 157 201 250 311 375
#     4  10  23  41  61  87 126 163 205 264 324 381
#     4  10  22  41  63  84 124 169 208 259 316 378
#     4  10  20  35  60  93 125 160 207 263 321 377
#
# _framework density 21.772777000000001
#
# number of rings (size 3 to 8) (size 9 to 14) (size 15 to 20)
#    0.000    1.517    2.759    1.862    3.862    1.379 
#    0.000    0.690    0.000    0.000    0.000    0.000 
#    0.000    0.000    0.000    0.000    0.000    0.000 
#
# Total GULP energy -161722.859738 kJ/mol
# GULP energy per Si atom -5576.650336 kJ/mol
# Density = 2.172322 g / cm^3
# Si number density = 21.772777 Si / 1000 Ang^3
#
#
#
# Elastic Constant Matrix: (Units=GPa)
#
#
# Indices 1 2 3 4 5 6 
#
# 1 121.4648 17.1215 15.3331 0.0006 36.7706 0.0011
# 2 17.1215 81.0835 0.6718 -0.0230 9.6341 0.0356
# 3 15.3331 0.6718 65.0874 -0.0046 33.1783 0.0117
# 4 0.0006 -0.0230 -0.0046 20.5740 0.0079 0.6907
# 5 36.7706 9.6341 33.1783 0.0079 43.6596 -0.0165
# 6 0.0011 0.0356 0.0117 0.6907 -0.0165 6.6366
#
#
#
# Elastic Compliance Matrix: (Units=1/GPa)
#
#
# Indices 1 2 3 4 5 6 
#
# 1 0.011642 -0.001033 0.003510 0.000005 -0.012244 -0.000034
# 2 -0.001033 0.012937 0.001831 0.000019 -0.003377 -0.000083
# 3 0.003510 0.001831 0.026494 0.000021 -0.023494 -0.000118
# 4 0.000005 0.000019 0.000021 0.048776 -0.000035 -0.005076
# 5 -0.012244 -0.003377 -0.023494 -0.000035 0.051816 0.000194
# 6 -0.000034 -0.000083 -0.000118 -0.005076 0.000194 0.151208
#
#
# Mechanical properties :
#
#
# Convention : Reuss Voigt Hill
#
# Bulk Modulus (GPa) = 16.75344 37.09873 26.92608
# Shear Modulus (GPa) = 15.91581 29.80798 22.86190
#
# Velocity S-wave (km/s) = 2.70663 3.70408 3.24392
# Velocity P-wave (km/s) = 4.18081 5.94724 5.14047
#
# Compressibility (1/GPa) = 0.05968923
#
# Stress axis : x y z
#
# Youngs Moduli (GPa) = 85.89576 77.29729 37.74409
#
# Poissons Ratio (x) = 0.07981 -0.13247
# Poissons Ratio (y) = 0.08869 -0.06911
# Poissons Ratio (z) = -0.30146 -0.14153
#
# Static dielectric constant tensor:
#      x y z
#    x 1.798610 0.000000 0.085000 
#    y 0.000000 1.813340 -0.000020 
#    z 0.085000 -0.000020 1.673190 
# 
# From -- ./inp_files/351423.got.cif
#   From: 2010.05.17/outbox.cif.g08.bks.cpg/sg12_176_cif.got.tgz:351423.got - 2010.06.03 13:09:07.
