data_PCOD9197591
_publ_section_title
;
Structure prediction by ZEFSAII (Michael W. Deem and Ramdas Pophale) SiO2 
 PCOD9197591
Probable space group: C 2/M
;
_chemical_formula_sum "Si O2"
_cell_formula_units_Z 40
_cell_length_a 17.880533
_cell_length_b 17.453181
_cell_length_c 5.267911
_cell_angle_alpha 90.000000
_cell_angle_beta 94.858740
_cell_angle_gamma 90.000000
_cell_volume 1638.060943
_symmetry_space_group_name_H-M "C 2/M"
_symmetry_group_IT_number 12
_symmetry_cell_setting 'monoclinic'
loop_
_space_group_symop_operation_xyz
x,y,z
-x,y,-z
-x,-y,-z
x,-y,z
1/2+x,1/2+y,z
1/2-x,1/2+y,-z
1/2-x,1/2-y,-z
1/2+x,1/2-y,z
loop_
_atom_site_type_symbol
_atom_site_label
_atom_site_fract_x
_atom_site_fract_y
_atom_site_fract_z
Si Si1 0.549583 0.411719 0.770837
Si Si2 0.286018 0.918031 0.211663
Si Si3 0.322935 0.343642 0.511782
Si Si4 0.172836 0.700291 0.166617
Si Si5 0.927432 0.585052 0.630041
O O1 0.500000 0.411979 0.500000
O O2 0.572914 0.500000 0.828240
O O3 0.620291 0.361785 0.699267
O O4 0.500000 0.386795 0.000000
O O5 0.206191 0.915113 0.331431
O O6 0.356979 0.921351 0.419134
O O7 0.288494 0.000000 0.061246
O O8 0.294870 0.833604 0.087215
O O9 0.244730 0.319338 0.360862
O O10 0.351782 0.281118 0.722593
O O11 0.101223 0.644806 0.174829
O O12 0.943271 0.500000 0.736530
O O13 0.000000 0.611715 0.500000
#
# Coordination Sequence:
#
# PCOD9197591 Si02
#       5
#     8   8   8   8   8
#     4  10  23  43  66  96 129 168 217 266 325 391
#     4  10  20  35  60  92 122 166 215 259 319 382
#     4  10  22  39  60  88 127 163 207 269 323 383
#     4  10  21  37  60  87 121 163 211 258 321 384
#     4   9  19  36  56  84 123 161 210 262 312 378
#
# _framework density 24.419115999999999
#
# number of rings (size 3 to 8) (size 9 to 14) (size 15 to 20)
#    0.000    2.200    0.000    1.800    2.800    4.000 
#    0.000    3.000    0.000    0.000    0.000    0.000 
#    0.000    0.000    0.000    0.000    0.000    0.000 
#
# Total GULP energy -111451.245292 kJ/mol
# GULP energy per Si atom -5572.562265 kJ/mol
# Density = 2.436354 g / cm^3
# Si number density = 24.419116 Si / 1000 Ang^3
#
#
#
# Elastic Constant Matrix: (Units=GPa)
#
#
# Indices 1 2 3 4 5 6 
#
# 1 107.7413 29.7412 38.8408 0.0000 -54.4685 0.0000
# 2 29.7412 70.6097 37.8700 0.0000 -25.3465 0.0000
# 3 38.8408 37.8700 105.0602 0.0000 -37.8894 0.0000
# 4 0.0000 0.0000 0.0000 30.4479 0.0000 -15.9556
# 5 -54.4685 -25.3465 -37.8894 0.0000 55.5755 0.0000
# 6 0.0000 0.0000 0.0000 -15.9556 0.0000 6.7804
#
#
#
# Elastic Compliance Matrix: (Units=1/GPa)
#
#
# Indices 1 2 3 4 5 6 
#
# 1 0.018535 -0.001538 0.000001 0.000000 0.017465 0.000000
# 2 -0.001538 0.018750 -0.004840 0.000000 0.003744 0.000000
# 3 0.000001 -0.004840 0.013879 0.000000 0.007256 0.000000
# 4 0.000000 0.000000 0.000000 -0.140873 0.000000 -0.331501
# 5 0.017465 0.003744 0.007256 0.000000 0.041765 0.000000
# 6 0.000000 0.000000 0.000000 -0.331501 0.000000 -0.632599
#
#
# Mechanical properties :
#
#
# Convention : Reuss Voigt Hill
#
# Bulk Modulus (GPa) = 26.03464 55.14615 40.59039
# Shear Modulus (GPa) = -7.63376 30.35804 11.36214
#
# Velocity S-wave (km/s) = -1.77001 3.52974 2.15941
# Velocity P-wave (km/s) = 2.55098 6.26453 4.78288
#
# Compressibility (1/GPa) = 0.03841037
#
# Stress axis : x y z
#
# Youngs Moduli (GPa) = 53.95125 53.33344 72.04936
#
# Poissons Ratio (x) = 0.08203 -0.00004
# Poissons Ratio (y) = 0.08298 0.34869
# Poissons Ratio (z) = -0.00003 0.25811
#
# Static dielectric constant tensor:
#      x y z
#    x 1.921990 0.000000 -0.071410 
#    y 0.000000 2.055720 0.000000 
#    z -0.071410 0.000000 2.103670 
# 
# From -- ./inp_files/15112.got.cif
#   From: 2010.05.17/outbox.cif.g08.bks.cpg/sg12_8_cif.got.tgz:15112.got - 2010.06.03 13:09:07.
