data_PCOD9197435
_publ_section_title
;
Structure prediction by ZEFSAII (Michael W. Deem and Ramdas Pophale) SiO2 
 PCOD9197435
Probable space group: C 2/M
;
_chemical_formula_sum "Si O2"
_cell_formula_units_Z 56
_cell_length_a 18.704270
_cell_length_b 13.499122
_cell_length_c 21.783103
_cell_angle_alpha 90.000000
_cell_angle_beta 30.506167
_cell_angle_gamma 90.000000
_cell_volume 2791.992533
_symmetry_space_group_name_H-M "C 2/M"
_symmetry_group_IT_number 12
_symmetry_cell_setting 'monoclinic'
loop_
_space_group_symop_operation_xyz
x,y,z
-x,y,-z
-x,-y,-z
x,-y,z
1/2+x,1/2+y,z
1/2-x,1/2+y,-z
1/2-x,1/2-y,-z
1/2+x,1/2-y,z
loop_
_atom_site_type_symbol
_atom_site_label
_atom_site_fract_x
_atom_site_fract_y
_atom_site_fract_z
Si Si1 0.210323 0.747345 0.670240
Si Si2 0.987694 0.614988 0.259743
Si Si3 0.238790 0.384613 0.823196
Si Si4 0.722604 0.387712 0.544469
Si Si5 0.752346 0.247895 0.071227
Si Si6 0.444097 0.711176 0.101607
Si Si7 0.550886 0.384792 0.548682
O O1 0.211700 0.817382 0.610041
O O2 0.170741 0.808894 0.760335
O O3 0.357630 0.687817 0.561283
O O4 0.088296 0.667014 0.742662
O O5 0.016284 0.500000 0.224806
O O6 0.126674 0.671787 0.178901
O O7 0.872107 0.619735 0.399401
O O8 0.198046 0.500000 0.853334
O O9 0.267311 0.344982 0.871446
O O10 0.125350 0.311564 0.875954
O O11 0.384324 0.373905 0.677910
O O12 0.701094 0.500000 0.580690
O O13 0.611215 0.367103 0.572844
O O14 0.750000 0.250000 0.000000
O O15 0.910197 0.217652 0.970404
O O16 0.500000 0.651978 0.000000
O O17 0.583174 0.500000 0.509087
#
# Coordination Sequence:
#
# PCOD9197435 Si02
#       7
#     8   8   8   8   8   8   8
#     4  11  18  34  60  86 124 162 194 246 305 364
#     4  10  20  35  59  91 122 154 199 255 309 359
#     4  10  22  40  61  88 126 163 195 248 313 369
#     4   9  18  32  57  94 124 149 192 252 314 365
#     4  11  21  38  57  84 115 158 215 254 288 349
#     4  10  24  39  54  81 121 162 204 244 291 357
#     4   9  18  32  55  90 123 152 192 241 304 374
#
# _framework density 20.057359999999999
#
# number of rings (size 3 to 8) (size 9 to 14) (size 15 to 20)
#    0.000    2.000    1.429    4.714    0.000    4.857 
#    0.000    2.143    0.000    7.714    0.000    9.000 
#    0.000    0.000    0.000    0.000    0.000    0.000 
#
# Total GULP energy -155994.625745 kJ/mol
# GULP energy per Si atom -5571.236634 kJ/mol
# Density = 2.001171 g / cm^3
# Si number density = 20.057360 Si / 1000 Ang^3
#
#
#
# Elastic Constant Matrix: (Units=GPa)
#
#
# Indices 1 2 3 4 5 6 
#
# 1 96.4294 11.6560 18.5397 -0.0001 5.6376 0.0000
# 2 11.6560 38.3517 -12.1424 -0.0002 -4.1388 0.0002
# 3 18.5397 -12.1424 61.1882 -0.0003 -7.0378 0.0002
# 4 -0.0001 -0.0002 -0.0003 13.7721 0.0001 -12.5231
# 5 5.6376 -4.1388 -7.0378 0.0001 44.2847 0.0000
# 6 0.0000 0.0002 0.0002 -12.5231 0.0000 13.9049
#
#
#
# Elastic Compliance Matrix: (Units=1/GPa)
#
#
# Indices 1 2 3 4 5 6 
#
# 1 0.012216 -0.005659 -0.005158 0.000000 -0.002904 0.000000
# 2 -0.005659 0.031001 0.008437 0.000000 0.004959 0.000000
# 3 -0.005158 0.008437 0.020114 0.000001 0.004642 0.000000
# 4 0.000000 0.000000 0.000001 0.401047 0.000000 0.361194
# 5 -0.002904 0.004959 0.004642 0.000000 0.024152 0.000000
# 6 0.000000 0.000000 0.000000 0.361194 0.000000 0.397218
#
#
# Mechanical properties :
#
#
# Convention : Reuss Voigt Hill
#
# Bulk Modulus (GPa) = 17.07375 25.78620 21.42998
# Shear Modulus (GPa) = 5.49431 26.25341 15.87386
#
# Velocity S-wave (km/s) = 1.65688 3.62182 2.81628
# Velocity P-wave (km/s) = 3.49160 5.51128 4.61332
#
# Compressibility (1/GPa) = 0.05856944
#
# Stress axis : x y z
#
# Youngs Moduli (GPa) = 81.86067 32.25728 49.71624
#
# Poissons Ratio (x) = 0.18255 0.25646
# Poissons Ratio (y) = 0.46327 -0.41945
# Poissons Ratio (z) = 0.42227 -0.27215
#
# Static dielectric constant tensor:
#      x y z
#    x 1.729770 0.000000 0.030420 
#    y 0.000000 1.719430 0.000000 
#    z 0.030420 0.000000 1.786300 
# 
# From -- ./inp_files/316676.got.cif
#   From: 2010.05.17/outbox.cif.g08.bks.cpg/sg12_159_cif.got.tgz:316676.got - 2010.06.03 13:09:07.
