data_PCOD9197015
_publ_section_title
;
Structure prediction by ZEFSAII (Michael W. Deem and Ramdas Pophale) SiO2 
 PCOD9197015
Probable space group: C 2/M
;
_chemical_formula_sum "Si O2"
_cell_formula_units_Z 48
_cell_length_a 25.341704
_cell_length_b 7.411278
_cell_length_c 15.359839
_cell_angle_alpha 90.000000
_cell_angle_beta 132.658296
_cell_angle_gamma 90.000000
_cell_volume 2121.504414
_symmetry_space_group_name_H-M "C 2/M"
_symmetry_group_IT_number 12
_symmetry_cell_setting 'monoclinic'
loop_
_space_group_symop_operation_xyz
x,y,z
-x,y,-z
-x,-y,-z
x,-y,z
1/2+x,1/2+y,z
1/2-x,1/2+y,-z
1/2-x,1/2-y,-z
1/2+x,1/2-y,z
loop_
_atom_site_type_symbol
_atom_site_label
_atom_site_fract_x
_atom_site_fract_y
_atom_site_fract_z
Si Si1 0.034434 0.709540 0.128012
Si Si2 0.189671 0.214404 0.863077
Si Si3 0.788940 0.220079 0.305846
Si Si4 0.949959 0.780527 0.524402
Si Si5 0.456653 0.718365 0.212675
Si Si6 0.692834 0.215993 0.356946
O O1 0.050026 0.500000 0.125176
O O2 0.109538 0.782366 0.254899
O O3 0.974534 0.718898 0.136283
O O4 0.000000 0.787170 0.000000
O O5 0.215677 0.282816 0.798695
O O6 0.115766 0.283472 0.821500
O O7 0.178351 0.000000 0.838411
O O8 0.250000 0.250000 0.000000
O O9 0.868421 0.274925 0.423485
O O10 0.731094 0.280640 0.310995
O O11 0.785564 0.000000 0.303016
O O12 0.000000 0.720926 0.500000
O O13 0.981078 0.724895 0.651485
O O14 0.951317 0.000000 0.523249
O O15 0.454353 0.500000 0.206982
O O16 0.750000 0.250000 0.500000
O O17 0.688084 0.000000 0.351990
#
# Coordination Sequence:
#
# PCOD9197015 Si02
#       6
#     8   8   8   8   8   8
#     4  10  23  40  58  82 113 153 196 234 281 344
#     4  10  21  35  54  82 112 144 183 225 274 333
#     4   9  17  31  54  80 107 140 178 222 271 328
#     4   9  14  26  50  81 109 131 167 219 270 322
#     4  10  20  35  58  86 111 139 183 235 282 328
#     4  10  21  38  59  84 113 149 193 235 281 336
#
# _framework density 22.625451999999999
#
# number of rings (size 3 to 8) (size 9 to 14) (size 15 to 20)
#    0.000    2.333    1.667    1.000    2.333    3.000 
#    0.000    0.833    0.000    1.500    0.000    0.000 
#    0.000    0.000    0.000    0.000    0.000    0.000 
#
# Total GULP energy -133917.832708 kJ/mol
# GULP energy per Si atom -5579.909696 kJ/mol
# Density = 2.257396 g / cm^3
# Si number density = 22.625452 Si / 1000 Ang^3
#
#
#
# Elastic Constant Matrix: (Units=GPa)
#
#
# Indices 1 2 3 4 5 6 
#
# 1 118.1360 0.0596 52.7712 0.0000 -23.5823 0.0000
# 2 0.0596 74.2515 2.6156 0.0000 2.9455 0.0000
# 3 52.7712 2.6156 164.2160 0.0000 -23.1483 0.0000
# 4 0.0000 0.0000 0.0000 6.9038 0.0000 6.8236
# 5 -23.5823 2.9455 -23.1483 0.0000 39.5228 0.0000
# 6 0.0000 0.0000 0.0000 6.8236 0.0000 2.0937
#
#
#
# Elastic Compliance Matrix: (Units=1/GPa)
#
#
# Indices 1 2 3 4 5 6 
#
# 1 0.010640 -0.000100 -0.002749 0.000000 0.004746 0.000000
# 2 -0.000100 0.013531 -0.000364 0.000000 -0.001281 0.000000
# 3 -0.002749 -0.000364 0.007359 0.000000 0.002697 0.000000
# 4 0.000000 0.000000 0.000000 -0.065208 0.000000 0.212523
# 5 0.004746 -0.001281 0.002697 0.000000 0.029809 0.000000
# 6 0.000000 0.000000 0.000000 0.212523 0.000000 -0.215020
#
#
# Mechanical properties :
#
#
# Convention : Reuss Voigt Hill
#
# Bulk Modulus (GPa) = 39.83237 51.94403 45.88820
# Shear Modulus (GPa) = -24.49844 29.78122 2.64139
#
# Velocity S-wave (km/s) = -3.29414 3.63198 1.08165
# Velocity P-wave (km/s) = 1.78182 6.37153 4.67821
#
# Compressibility (1/GPa) = 0.02510521
#
# Stress axis : x y z
#
# Youngs Moduli (GPa) = 93.98398 73.90183 135.89189
#
# Poissons Ratio (x) = 0.00739 0.37351
# Poissons Ratio (y) = 0.00940 0.04947
# Poissons Ratio (z) = 0.25832 0.02690
#
# Static dielectric constant tensor:
#      x y z
#    x 1.851960 0.000000 0.023120 
#    y 0.000000 1.867780 0.000000 
#    z 0.023120 0.000000 1.856930 
# 
# From -- ./inp_files/174853.got.cif
#   From: 2010.05.17/outbox.cif.g08.bks.cpg/sg12_88_cif.got.tgz:174853.got - 2010.06.03 13:09:07.
