data_PCOD9197544
_publ_section_title
;
Structure prediction by ZEFSAII (Michael W. Deem and Ramdas Pophale) SiO2 
 PCOD9197544
Probable space group: C 2/M
;
_chemical_formula_sum "Si O2"
_cell_formula_units_Z 48
_cell_length_a 11.347533
_cell_length_b 25.250826
_cell_length_c 7.943421
_cell_angle_alpha 90.000000
_cell_angle_beta 96.454144
_cell_angle_gamma 90.000000
_cell_volume 2261.639426
_symmetry_space_group_name_H-M "C 2/M"
_symmetry_group_IT_number 12
_symmetry_cell_setting 'monoclinic'
loop_
_space_group_symop_operation_xyz
x,y,z
-x,y,-z
-x,-y,-z
x,-y,z
1/2+x,1/2+y,z
1/2-x,1/2+y,-z
1/2-x,1/2-y,-z
1/2+x,1/2-y,z
loop_
_atom_site_type_symbol
_atom_site_label
_atom_site_fract_x
_atom_site_fract_y
_atom_site_fract_z
Si Si1 0.315471 0.000000 0.886773
Si Si2 0.234990 0.439627 0.592544
Si Si3 0.446380 0.388919 0.808176
Si Si4 0.771152 0.222080 0.184919
Si Si5 0.692761 0.398322 0.739246
Si Si6 0.551511 0.000000 0.737476
Si Si7 0.969675 0.236211 0.800040
O O1 0.241143 0.053086 0.854870
O O2 0.413948 0.000000 0.753546
O O3 0.382849 0.000000 0.073333
O O4 0.274981 0.500000 0.554370
O O5 0.324900 0.417304 0.745409
O O6 0.246053 0.403024 0.432243
O O7 0.104605 0.449703 0.646815
O O8 0.551731 0.404601 0.698546
O O9 0.434585 0.325641 0.793298
O O10 0.500000 0.401321 0.000000
O O11 0.784273 0.158623 0.172996
O O12 0.901634 0.241321 0.269364
O O13 0.650835 0.233803 0.268838
O O14 0.750000 0.250000 0.000000
O O15 0.000000 0.250479 0.000000
#
# Coordination Sequence:
#
# PCOD9197544 Si02
#       7
#     4   8   8   8   8   4   8
#     4  11  21  42  61  90 125 161 215 261 326 377
#     4  10  22  39  57  88 127 169 204 253 325 386
#     4  10  20  35  60  89 120 160 212 268 311 376
#     4   9  18  36  58  90 118 162 212 265 321 377
#     4  11  22  36  63  89 125 169 206 258 327 393
#     4   9  23  40  57  84 125 161 213 271 298 387
#     4   8  16  33  54  82 117 150 204 268 317 361
#
# _framework density 21.223542999999999
#
# number of rings (size 3 to 8) (size 9 to 14) (size 15 to 20)
#    0.500    1.833    0.833    2.500    1.167    2.333 
#   12.000    0.833    0.000    0.000    0.000    0.000 
#    0.000    0.000    0.000    0.000    0.000    0.000 
#
# Total GULP energy -133801.212392 kJ/mol
# GULP energy per Si atom -5575.050516 kJ/mol
# Density = 2.117524 g / cm^3
# Si number density = 21.223543 Si / 1000 Ang^3
#
#
#
# Elastic Constant Matrix: (Units=GPa)
#
#
# Indices 1 2 3 4 5 6 
#
# 1 152.9705 48.2546 9.6832 0.0000 -3.6407 0.0000
# 2 48.2546 77.6934 22.2738 0.0000 7.7302 0.0000
# 3 9.6832 22.2738 58.1864 0.0000 2.1406 0.0000
# 4 0.0000 0.0000 0.0000 9.4274 0.0000 -3.7574
# 5 -3.6407 7.7302 2.1406 0.0000 32.1745 0.0000
# 6 0.0000 0.0000 0.0000 -3.7574 0.0000 25.4883
#
#
#
# Elastic Compliance Matrix: (Units=1/GPa)
#
#
# Indices 1 2 3 4 5 6 
#
# 1 0.008306 -0.005573 0.000669 0.000000 0.002234 0.000000
# 2 -0.005573 0.018515 -0.005988 0.000000 -0.004681 0.000000
# 3 0.000669 -0.005988 0.019359 0.000000 0.000226 0.000000
# 4 0.000000 0.000000 0.000000 0.112695 0.000000 0.016613
# 5 0.002234 -0.004681 0.000226 0.000000 0.032443 0.000000
# 6 0.000000 0.000000 0.000000 0.016613 0.000000 0.041683
#
#
# Mechanical properties :
#
#
# Convention : Reuss Voigt Hill
#
# Bulk Modulus (GPa) = 40.99089 49.91929 45.45509
# Shear Modulus (GPa) = 19.01751 27.32730 23.17240
#
# Velocity S-wave (km/s) = 2.99667 3.59220 3.30786
# Velocity P-wave (km/s) = 5.59725 6.38568 6.00442
#
# Compressibility (1/GPa) = 0.02439567
#
# Stress axis : x y z
#
# Youngs Moduli (GPa) = 120.39504 54.01127 51.65648
#
# Poissons Ratio (x) = 0.30099 -0.03455
# Poissons Ratio (y) = 0.67094 0.30931
# Poissons Ratio (z) = -0.08052 0.32341
#
# Static dielectric constant tensor:
#      x y z
#    x 1.810390 0.000000 -0.054840 
#    y 0.000000 1.735420 0.000000 
#    z -0.054840 0.000000 1.826550 
# 
# From -- ./inp_files/50757.got.cif
#   From: 2010.05.17/outbox.cif.g08.bks.cpg/sg12_26_cif.got.tgz:50757.got - 2010.06.03 13:09:07.
