data_PCOD9197713
_publ_section_title
;
Structure prediction by ZEFSAII (Michael W. Deem and Ramdas Pophale) SiO2 
 PCOD9197713
Probable space group: C 2/M
;
_chemical_formula_sum "Si O2"
_cell_formula_units_Z 48
_cell_length_a 29.259525
_cell_length_b 16.842642
_cell_length_c 9.702248
_cell_angle_alpha 90.000000
_cell_angle_beta 147.295154
_cell_angle_gamma 90.000000
_cell_volume 2583.414338
_symmetry_space_group_name_H-M "C 2/M"
_symmetry_group_IT_number 12
_symmetry_cell_setting 'monoclinic'
loop_
_space_group_symop_operation_xyz
x,y,z
-x,y,-z
-x,-y,-z
x,-y,z
1/2+x,1/2+y,z
1/2-x,1/2+y,-z
1/2-x,1/2-y,-z
1/2+x,1/2-y,z
loop_
_atom_site_type_symbol
_atom_site_label
_atom_site_fract_x
_atom_site_fract_y
_atom_site_fract_z
Si Si1 0.000534 0.792578 0.167031
Si Si2 0.184377 0.261179 0.212587
Si Si3 0.899737 0.591863 0.116095
Si Si4 0.419590 0.142852 0.478683
Si Si5 0.260987 0.675188 0.925644
Si Si6 0.065539 0.094344 0.547515
O O1 0.057125 0.725310 0.387160
O O2 0.034675 0.872800 0.322183
O O3 0.905629 0.775728 0.975350
O O4 0.000000 0.789168 0.000000
O O5 0.250000 0.250000 0.500000
O O6 0.219595 0.214546 0.171014
O O7 0.165383 0.353947 0.132890
O O8 0.876168 0.500000 0.078627
O O9 0.907994 0.638046 0.283439
O O10 0.993160 0.593708 0.282962
O O11 0.325811 0.124217 0.295728
O O12 0.250000 0.750000 0.000000
O O13 0.341634 0.625969 0.180513
O O14 0.000000 0.123568 0.500000
O O15 0.065083 0.000000 0.547535
#
# Coordination Sequence:
#
# PCOD9197713 Si02
#       6
#     8   8   8   8   8   8
#     4  11  22  39  64  88 122 165 208 253 309 372
#     4  11  23  39  62  91 123 162 207 256 302 375
#     4  10  21  39  63  92 126 162 203 259 314 363
#     4  10  20  35  62  92 118 156 208 250 302 367
#     4  12  21  38  65  91 122 159 212 255 306 367
#     4  11  24  42  62  90 127 164 205 260 314 363
#
# _framework density 18.580062999999999
#
# number of rings (size 3 to 8) (size 9 to 14) (size 15 to 20)
#    0.000    1.167    5.000    2.000    2.333    1.667 
#    0.000    1.667    0.000   25.500    0.000    0.000 
#    0.000    0.000    0.000    0.000    0.000    0.000 
#
# Total GULP energy -133832.540410 kJ/mol
# GULP energy per Si atom -5576.355850 kJ/mol
# Density = 1.853777 g / cm^3
# Si number density = 18.580063 Si / 1000 Ang^3
#
#
#
# Elastic Constant Matrix: (Units=GPa)
#
#
# Indices 1 2 3 4 5 6 
#
# 1 128.6319 38.4059 54.0821 0.0000 -0.0857 0.0000
# 2 38.4059 84.5796 58.3389 0.0000 -12.6592 0.0000
# 3 54.0821 58.3389 146.3160 0.0000 -0.8406 0.0000
# 4 0.0000 0.0000 0.0000 13.5984 0.0000 3.6275
# 5 -0.0857 -12.6592 -0.8406 0.0000 40.3542 0.0000
# 6 0.0000 0.0000 0.0000 3.6275 0.0000 15.4079
#
#
#
# Elastic Compliance Matrix: (Units=1/GPa)
#
#
# Indices 1 2 3 4 5 6 
#
# 1 0.009646 -0.002834 -0.002441 0.000000 -0.000919 0.000000
# 2 -0.002834 0.018208 -0.006180 0.000000 0.005577 0.000000
# 3 -0.002441 -0.006180 0.010191 0.000000 -0.001732 0.000000
# 4 0.000000 0.000000 0.000000 0.078466 0.000000 -0.018473
# 5 -0.000919 0.005577 -0.001732 0.000000 0.026492 0.000000
# 6 0.000000 0.000000 0.000000 -0.018473 0.000000 0.069251
#
#
# Mechanical properties :
#
#
# Convention : Reuss Voigt Hill
#
# Bulk Modulus (GPa) = 66.07420 73.46459 69.76940
# Shear Modulus (GPa) = 20.81531 27.78547 24.30039
#
# Velocity S-wave (km/s) = 3.35072 3.87129 3.62038
# Velocity P-wave (km/s) = 7.11399 7.72061 7.42350
#
# Compressibility (1/GPa) = 0.01513450
#
# Stress axis : x y z
#
# Youngs Moduli (GPa) = 103.67164 54.92219 98.12798
#
# Poissons Ratio (x) = 0.15566 0.23949
# Poissons Ratio (y) = 0.29383 0.60644
# Poissons Ratio (z) = 0.25302 0.33942
#
# Static dielectric constant tensor:
#      x y z
#    x 1.667950 0.000000 0.020230 
#    y 0.000000 1.637020 0.000000 
#    z 0.020230 0.000000 1.648980 
# 
# From -- ./inp_files/112950.got.cif
#   From: 2010.05.17/outbox.cif.g08.bks.cpg/sg12_57_cif.got.tgz:112950.got - 2010.06.03 13:09:07.
