data_PCOD9197522
_publ_section_title
;
Structure prediction by ZEFSAII (Michael W. Deem and Ramdas Pophale) SiO2 
 PCOD9197522
Probable space group: C 2/M
;
_chemical_formula_sum "Si O2"
_cell_formula_units_Z 50
_cell_length_a 23.828288
_cell_length_b 11.672953
_cell_length_c 11.996434
_cell_angle_alpha 90.000000
_cell_angle_beta 142.031366
_cell_angle_gamma 90.000000
_cell_volume 2052.878503
_symmetry_space_group_name_H-M "C 2/M"
_symmetry_group_IT_number 12
_symmetry_cell_setting 'monoclinic'
loop_
_space_group_symop_operation_xyz
x,y,z
-x,y,-z
-x,-y,-z
x,-y,z
1/2+x,1/2+y,z
1/2-x,1/2+y,-z
1/2-x,1/2-y,-z
1/2+x,1/2-y,z
loop_
_atom_site_type_symbol
_atom_site_label
_atom_site_fract_x
_atom_site_fract_y
_atom_site_fract_z
Si Si1 0.916457 0.709598 0.027148
Si Si2 0.111043 0.227120 0.248321
Si Si3 0.000000 0.000000 0.000000
Si Si4 0.184333 0.744247 0.791843
Si Si5 0.948261 0.500000 0.232347
Si Si6 0.168614 0.130781 0.554589
Si Si7 0.951008 0.868522 0.268886
Si Si8 0.869584 0.500000 0.358745
O O1 0.911351 0.608061 0.107091
O O2 0.906621 0.826751 0.082850
O O3 0.022545 0.705598 0.155190
O O4 0.862552 0.713324 0.826754
O O5 0.175080 0.207981 0.454633
O O6 0.071439 0.101676 0.153097
O O7 0.213159 0.830082 0.739650
O O8 0.088874 0.787113 0.697316
O O9 0.180975 0.621371 0.726308
O O10 0.250000 0.750000 0.000000
O O11 0.913214 0.500000 0.303276
O O12 0.057242 0.500000 0.426302
O O13 0.059179 0.136936 0.415330
O O14 0.191889 0.000000 0.565994
O O15 0.927201 0.000000 0.257980
#
# Coordination Sequence:
#
# PCOD9197522 Si02
#       8
#     8   8   2   8   4   8   8   4
#     4   9  18  30  52  86 119 150 179 228 287 345
#     4   9  17  27  51  86 122 145 176 227 298 339
#     4   8  12  24  42  76 116 140 164 216 284 342
#     4  12  26  40  57  80 116 156 199 238 291 347
#     4  11  20  37  58  84 122 156 195 231 284 348
#     4  10  20  36  61  90 120 146 190 246 294 337
#     4  10  20  35  60  88 113 145 186 245 294 339
#     4  11  24  38  57  81 116 159 196 235 288 350
#
# _framework density 24.356045000000002
#
# number of rings (size 3 to 8) (size 9 to 14) (size 15 to 20)
#    0.000    2.080    2.400    2.880   11.200    2.560 
#    0.000    0.800    0.000    0.960    0.000    0.000 
#    0.000    0.000    0.000    0.000    0.000    0.000 
#
# Total GULP energy -139448.272371 kJ/mol
# GULP energy per Si atom -5577.930895 kJ/mol
# Density = 2.430061 g / cm^3
# Si number density = 24.356045 Si / 1000 Ang^3
#
#
#
# Elastic Constant Matrix: (Units=GPa)
#
#
# Indices 1 2 3 4 5 6 
#
# 1 86.0176 14.8772 24.9504 0.0000 -21.0415 0.0000
# 2 14.8772 89.7678 37.7369 0.0000 -7.1902 0.0000
# 3 24.9504 37.7369 207.4971 0.0000 -30.0929 0.0000
# 4 0.0000 0.0000 0.0000 12.8662 0.0000 -14.1173
# 5 -21.0415 -7.1902 -30.0929 0.0000 43.8331 0.0000
# 6 0.0000 0.0000 0.0000 -14.1173 0.0000 6.6766
#
#
#
# Elastic Compliance Matrix: (Units=1/GPa)
#
#
# Indices 1 2 3 4 5 6 
#
# 1 0.013474 -0.001559 -0.000484 0.000000 0.005880 0.000000
# 2 -0.001559 0.012253 -0.002064 0.000000 -0.000155 0.000000
# 3 -0.000484 -0.002064 0.005742 0.000000 0.003371 0.000000
# 4 0.000000 0.000000 0.000000 -0.058879 0.000000 -0.124496
# 5 0.005880 -0.000155 0.003371 0.000000 0.027925 0.000000
# 6 0.000000 0.000000 0.000000 -0.124496 0.000000 -0.113464
#
#
# Mechanical properties :
#
#
# Convention : Reuss Voigt Hill
#
# Bulk Modulus (GPa) = 42.99838 59.82349 51.41094
# Shear Modulus (GPa) = -51.55500 33.05637 -9.24931
#
# Velocity S-wave (km/s) = -4.60578 3.68804 -1.95084
# Velocity P-wave (km/s) = 3.25451 6.53842 4.00993
#
# Compressibility (1/GPa) = 0.02325669
#
# Stress axis : x y z
#
# Youngs Moduli (GPa) = 74.21791 81.61119 174.16387
#
# Poissons Ratio (x) = 0.12720 0.08428
# Poissons Ratio (y) = 0.11568 0.35939
# Poissons Ratio (z) = 0.03592 0.16841
#
# Static dielectric constant tensor:
#      x y z
#    x 2.028700 0.000000 0.073370 
#    y 0.000000 1.890730 0.000000 
#    z 0.073370 0.000000 1.982510 
# 
# From -- ./inp_files/188810.got.cif
#   From: 2010.05.17/outbox.cif.g08.bks.cpg/sg12_95_cif.got.tgz:188810.got - 2010.06.03 13:09:07.
