data_PCOD9197785
_publ_section_title
;
Structure prediction by ZEFSAII (Michael W. Deem and Ramdas Pophale) SiO2 
 PCOD9197785
Probable space group: C 2/M
;
_chemical_formula_sum "Si O2"
_cell_formula_units_Z 54
_cell_length_a 8.494951
_cell_length_b 20.992755
_cell_length_c 19.153385
_cell_angle_alpha 90.000000
_cell_angle_beta 126.659425
_cell_angle_gamma 90.000000
_cell_volume 2740.045579
_symmetry_space_group_name_H-M "C 2/M"
_symmetry_group_IT_number 12
_symmetry_cell_setting 'monoclinic'
loop_
_space_group_symop_operation_xyz
x,y,z
-x,y,-z
-x,-y,-z
x,-y,z
1/2+x,1/2+y,z
1/2-x,1/2+y,-z
1/2-x,1/2-y,-z
1/2+x,1/2-y,z
loop_
_atom_site_type_symbol
_atom_site_label
_atom_site_fract_x
_atom_site_fract_y
_atom_site_fract_z
Si Si1 0.727961 0.307148 0.793198
Si Si2 0.929671 0.595261 0.111767
Si Si3 0.000000 0.500000 0.000000
Si Si4 0.987348 0.811255 0.602991
Si Si5 0.074464 0.181536 0.169483
Si Si6 0.000000 0.852534 0.000000
Si Si7 0.331691 0.831555 0.582163
Si Si8 0.380441 0.926780 0.261611
O O1 0.569854 0.336807 0.697870
O O2 0.770883 0.237092 0.774862
O O3 0.618641 0.307828 0.837345
O O4 0.934373 0.342394 0.851726
O O5 0.697172 0.606873 0.041615
O O6 0.949102 0.572277 0.197988
O O7 0.994863 0.554189 0.062278
O O8 0.795251 0.846062 0.521102
O O9 0.933277 0.736511 0.594857
O O10 0.166546 0.818912 0.597018
O O11 0.029707 0.188254 0.076420
O O12 0.176894 0.113227 0.207867
O O13 0.473072 0.885812 0.650587
O O14 0.359528 0.000000 0.278429
#
# Coordination Sequence:
#
# PCOD9197785 Si02
#       8
#     8   8   2   8   8   4   8   8
#     4  12  22  41  66  99 131 166 218 277 334 388
#     4  11  24  42  66  90 132 171 225 268 322 395
#     4  12  24  44  64 100 124 186 214 276 330 392
#     4  10  20  35  64  99 127 163 215 268 326 389
#     4  11  24  39  66  94 131 171 216 280 333 388
#     4  10  24  44  60  96 121 177 220 266 330 386
#     4  10  20  37  64  98 129 168 214 268 327 391
#     4  11  22  43  63  93 131 181 216 263 326 401
#
# _framework density 19.707699999999999
#
# number of rings (size 3 to 8) (size 9 to 14) (size 15 to 20)
#    0.000    1.185    3.704    3.556    0.000    3.259 
#    8.000    1.481    1.630    0.889    0.000    0.000 
#    0.000    0.000    0.000    0.000    0.000    0.000 
#
# Total GULP energy -150307.562234 kJ/mol
# GULP energy per Si atom -5566.946749 kJ/mol
# Density = 1.966284 g / cm^3
# Si number density = 19.707700 Si / 1000 Ang^3
#
#
#
# Elastic Constant Matrix: (Units=GPa)
#
#
# Indices 1 2 3 4 5 6 
#
# 1 58.4930 33.9115 13.3539 0.0000 11.2019 0.0000
# 2 33.9115 86.0313 23.6395 0.0000 10.7292 0.0000
# 3 13.3539 23.6395 114.0099 0.0000 11.8066 0.0000
# 4 0.0000 0.0000 0.0000 10.8441 0.0000 -8.4416
# 5 11.2019 10.7292 11.8066 0.0000 23.7481 0.0000
# 6 0.0000 0.0000 0.0000 -8.4416 0.0000 8.0107
#
#
#
# Elastic Compliance Matrix: (Units=1/GPa)
#
#
# Indices 1 2 3 4 5 6 
#
# 1 0.023288 -0.008211 -0.000286 0.000000 -0.007133 0.000000
# 2 -0.008211 0.015702 -0.002067 0.000000 -0.002193 0.000000
# 3 -0.000286 -0.002067 0.009618 0.000000 -0.003713 0.000000
# 4 0.000000 0.000000 0.000000 0.513250 0.000000 0.540859
# 5 -0.007133 -0.002193 -0.003713 0.000000 0.048310 0.000000
# 6 0.000000 0.000000 0.000000 0.540859 0.000000 0.694788
#
#
# Mechanical properties :
#
#
# Convention : Reuss Voigt Hill
#
# Bulk Modulus (GPa) = 36.39233 44.48267 40.43750
# Shear Modulus (GPa) = 3.74463 21.02919 12.38691
#
# Velocity S-wave (km/s) = 1.37993 3.27012 2.50977
# Velocity P-wave (km/s) = 4.58749 6.07277 5.38162
#
# Compressibility (1/GPa) = 0.02747832
#
# Stress axis : x y z
#
# Youngs Moduli (GPa) = 42.94063 63.68686 103.97455
#
# Poissons Ratio (x) = 0.52295 0.02979
# Poissons Ratio (y) = 0.35260 0.21489
# Poissons Ratio (z) = 0.01230 0.13163
#
# Static dielectric constant tensor:
#      x y z
#    x 1.695720 0.000000 -0.018520 
#    y 0.000000 1.686030 0.000000 
#    z -0.018520 0.000000 1.763850 
# 
# From -- ./inp_files/301811.got.cif
#   From: 2010.05.17/outbox.cif.g08.bks.cpg/sg12_151_cif.got.tgz:301811.got - 2010.06.03 13:09:07.
