data_PCOD9197729
_publ_section_title
;
Structure prediction by ZEFSAII (Michael W. Deem and Ramdas Pophale) SiO2 
 PCOD9197729
Probable space group: C 2/M
;
_chemical_formula_sum "Si O2"
_cell_formula_units_Z 64
_cell_length_a 12.360020
_cell_length_b 23.979660
_cell_length_c 9.151421
_cell_angle_alpha 90.000000
_cell_angle_beta 108.720010
_cell_angle_gamma 90.000000
_cell_volume 2568.891509
_symmetry_space_group_name_H-M "C 2/M"
_symmetry_group_IT_number 12
_symmetry_cell_setting 'monoclinic'
loop_
_space_group_symop_operation_xyz
x,y,z
-x,y,-z
-x,-y,-z
x,-y,z
1/2+x,1/2+y,z
1/2-x,1/2+y,-z
1/2-x,1/2-y,-z
1/2+x,1/2-y,z
loop_
_atom_site_type_symbol
_atom_site_label
_atom_site_fract_x
_atom_site_fract_y
_atom_site_fract_z
Si Si1 0.365149 0.175614 0.299050
Si Si2 0.630664 0.337508 0.014316
Si Si3 0.836176 0.561209 0.450578
Si Si4 0.165693 0.440712 0.203785
Si Si5 0.404554 0.436175 0.803151
Si Si6 0.580760 0.591949 0.652349
Si Si7 0.320032 0.704210 0.297392
Si Si8 0.567582 0.175406 0.159564
O O1 0.242849 0.179588 0.159701
O O2 0.372390 0.120206 0.399494
O O3 0.370879 0.237333 0.369270
O O4 0.472655 0.169717 0.240099
O O5 0.630604 0.403530 0.065300
O O6 0.500000 0.321001 0.000000
O O7 0.658371 0.311992 0.865620
O O8 0.877509 0.500000 0.410373
O O9 0.857492 0.561407 0.632287
O O10 0.702800 0.561713 0.352325
O O11 0.126193 0.500000 0.126359
O O12 0.302541 0.437385 0.252459
O O13 0.111838 0.384689 0.118567
O O14 0.439368 0.500000 0.840443
O O15 0.500847 0.402127 0.758340
O O16 0.500000 0.562699 0.500000
O O17 0.623146 0.650537 0.602418
O O18 0.184001 0.703636 0.261876
O O19 0.500000 0.204400 0.000000
#
# Coordination Sequence:
#
# PCOD9197729 Si02
#       8
#     8   8   8   8   8   8   8   8
#     4  11  25  42  69  93 128 176 217 273 336 394
#     4  11  22  39  65  96 128 166 221 270 326 385
#     4   9  20  41  66  95 125 165 221 274 327 391
#     4  10  22  41  67  96 132 178 225 271 329 399
#     4  10  20  35  62  95 132 171 212 270 333 389
#     4  11  21  39  62  97 136 175 217 269 335 396
#     4  11  25  43  64  94 130 175 219 275 326 399
#     4  11  25  44  63  94 132 175 229 270 328 392
#
# _framework density 24.913471000000001
#
# number of rings (size 3 to 8) (size 9 to 14) (size 15 to 20)
#    0.000    1.500    3.750    0.750    1.750    2.000 
#    2.250    3.125    0.000    0.000    0.000    0.000 
#    0.000    0.000    0.000    0.000    0.000    0.000 
#
# Total GULP energy -178712.394770 kJ/mol
# GULP energy per Si atom -5584.762337 kJ/mol
# Density = 2.485677 g / cm^3
# Si number density = 24.913471 Si / 1000 Ang^3
#
#
#
# Elastic Constant Matrix: (Units=GPa)
#
#
# Indices 1 2 3 4 5 6 
#
# 1 149.1636 34.1969 19.1649 0.0000 23.8481 0.0000
# 2 34.1969 194.2464 -5.1757 0.0000 -1.2318 0.0000
# 3 19.1649 -5.1757 57.8915 0.0000 17.6573 0.0000
# 4 0.0000 0.0000 0.0000 -26.2831 0.0000 -27.0760
# 5 23.8481 -1.2318 17.6573 0.0000 43.8817 0.0000
# 6 0.0000 0.0000 0.0000 -27.0760 0.0000 0.0889
#
#
#
# Elastic Compliance Matrix: (Units=1/GPa)
#
#
# Indices 1 2 3 4 5 6 
#
# 1 0.007824 -0.001443 -0.001607 0.000000 -0.003646 0.000000
# 2 -0.001443 0.005427 0.000772 0.000000 0.000626 0.000000
# 3 -0.001607 0.000772 0.020064 0.000000 -0.007178 0.000000
# 4 0.000000 0.000000 0.000000 -0.000121 0.000000 -0.036816
# 5 -0.003646 0.000626 -0.007178 0.000000 0.027676 0.000000
# 6 0.000000 0.000000 0.000000 -0.036816 0.000000 0.035738
#
#
# Mechanical properties :
#
#
# Convention : Reuss Voigt Hill
#
# Bulk Modulus (GPa) = 34.77274 55.29707 45.03491
# Shear Modulus (GPa) = 45.14607 27.07853 36.11230
#
# Velocity S-wave (km/s) = 4.26151 3.30040 3.81137
# Velocity P-wave (km/s) = 6.18075 6.06361 6.12246
#
# Compressibility (1/GPa) = 0.02875816
#
# Stress axis : x y z
#
# Youngs Moduli (GPa) = 127.80547 184.27216 49.83996
#
# Poissons Ratio (x) = 0.26598 0.08010
# Poissons Ratio (y) = 0.18448 -0.03848
# Poissons Ratio (z) = 0.20541 -0.14226
#
# Static dielectric constant tensor:
#      x y z
#    x 1.950280 0.000000 -0.036040 
#    y 0.000000 2.029460 0.000000 
#    z -0.036040 0.000000 2.064500 
# 
# From -- ./inp_files/136002.got.cif
#   From: 2010.05.17/outbox.cif.g08.bks.cpg/sg12_69_cif.got.tgz:136002.got - 2010.06.03 13:09:07.
