data_PCOD9197464
_publ_section_title
;
Structure prediction by ZEFSAII (Michael W. Deem and Ramdas Pophale) SiO2 
 PCOD9197464
Probable space group: C 2/M
;
_chemical_formula_sum "Si O2"
_cell_formula_units_Z 58
_cell_length_a 28.643721
_cell_length_b 15.034736
_cell_length_c 21.243583
_cell_angle_alpha 90.000000
_cell_angle_beta 160.655684
_cell_angle_gamma 90.000000
_cell_volume 3030.410101
_symmetry_space_group_name_H-M "C 2/M"
_symmetry_group_IT_number 12
_symmetry_cell_setting 'monoclinic'
loop_
_space_group_symop_operation_xyz
x,y,z
-x,y,-z
-x,-y,-z
x,-y,z
1/2+x,1/2+y,z
1/2-x,1/2+y,-z
1/2-x,1/2-y,-z
1/2+x,1/2-y,z
loop_
_atom_site_type_symbol
_atom_site_label
_atom_site_fract_x
_atom_site_fract_y
_atom_site_fract_z
Si Si1 0.474463 0.392579 0.796568
Si Si2 0.398007 0.836073 0.455307
Si Si3 0.500000 0.000000 0.500000
Si Si4 0.143271 0.106357 0.217278
Si Si5 0.699609 0.237531 0.109873
Si Si6 0.602004 0.394257 0.441430
Si Si7 0.855785 0.786265 0.185983
Si Si8 0.643608 0.896755 0.144023
O O1 0.513594 0.500000 0.845787
O O2 0.377124 0.378975 0.734220
O O3 0.401614 0.369369 0.637232
O O4 0.605176 0.324339 0.972299
O O5 0.279851 0.853045 0.358253
O O6 0.329281 0.771967 0.316278
O O7 0.536525 0.792221 0.659681
O O8 0.438920 0.923723 0.470187
O O9 0.150197 0.000000 0.216043
O O10 0.000000 0.138406 0.000000
O O11 0.763005 0.191959 0.128801
O O12 0.625953 0.165958 0.061169
O O13 0.610616 0.500000 0.452751
O O14 0.455843 0.362639 0.286045
O O15 0.731534 0.363782 0.650241
O O16 0.750000 0.750000 0.000000
O O17 0.674007 0.000000 0.164918
O O18 0.500000 0.895686 0.000000
#
# Coordination Sequence:
#
# PCOD9197464 Si02
#       8
#     8   8   2   8   8   8   8   8
#     4  10  22  38  64  99 133 170 207 258 327 401
#     4  12  24  40  63  95 133 171 215 260 324 381
#     4  12  24  40  66  96 138 176 206 260 330 398
#     4  10  20  35  59  93 134 168 209 254 309 393
#     4  12  23  38  68  94 128 168 215 270 322 384
#     4  10  22  45  69  90 126 173 214 264 328 382
#     4  12  25  44  59  92 131 169 219 266 311 388
#     4  10  24  46  71  94 123 166 224 280 326 380
#
# _framework density 19.139323999999998
#
# number of rings (size 3 to 8) (size 9 to 14) (size 15 to 20)
#    0.000    1.103    6.207    0.000    2.897    0.552 
#    3.724    2.759    0.000    0.000    0.000    0.000 
#    0.000    0.000    0.000    0.000    0.000    0.000 
#
# Total GULP energy -161628.072659 kJ/mol
# GULP energy per Si atom -5573.381816 kJ/mol
# Density = 1.909576 g / cm^3
# Si number density = 19.139324 Si / 1000 Ang^3
#
#
#
# Elastic Constant Matrix: (Units=GPa)
#
#
# Indices 1 2 3 4 5 6 
#
# 1 141.2498 22.4065 22.3245 0.0000 -0.9642 0.0000
# 2 22.4065 41.4828 2.9124 -0.0003 -9.1733 -0.0002
# 3 22.3245 2.9124 68.0029 -0.0002 -7.0400 -0.0001
# 4 0.0000 -0.0003 -0.0002 37.1262 -0.0003 11.5048
# 5 -0.9642 -9.1733 -7.0400 -0.0003 25.4366 -0.0002
# 6 0.0000 -0.0002 -0.0001 11.5048 -0.0002 33.7865
#
#
#
# Elastic Compliance Matrix: (Units=1/GPa)
#
#
# Indices 1 2 3 4 5 6 
#
# 1 0.008248 -0.004739 -0.002727 0.000000 -0.002151 0.000000
# 2 -0.004739 0.028920 0.001419 0.000000 0.010643 0.000000
# 3 -0.002727 0.001419 0.016042 0.000000 0.004848 0.000000
# 4 0.000000 0.000000 0.000000 0.030113 0.000000 -0.010254
# 5 -0.002151 0.010643 0.004848 0.000000 0.044412 0.000000
# 6 0.000000 0.000000 0.000000 -0.010254 0.000000 0.033089
#
#
# Mechanical properties :
#
#
# Convention : Reuss Voigt Hill
#
# Bulk Modulus (GPa) = 24.32236 38.44693 31.38464
# Shear Modulus (GPa) = 26.79197 32.80936 29.80066
#
# Velocity S-wave (km/s) = 3.74550 4.14483 3.95021
# Velocity P-wave (km/s) = 5.60720 6.56031 6.10239
#
# Compressibility (1/GPa) = 0.04111443
#
# Stress axis : x y z
#
# Youngs Moduli (GPa) = 121.24425 34.57805 62.33736
#
# Poissons Ratio (x) = 0.16387 0.17002
# Poissons Ratio (y) = 0.57460 -0.08846
# Poissons Ratio (z) = 0.33068 -0.04907
#
# Static dielectric constant tensor:
#      x y z
#    x 1.664560 0.000000 -0.001800 
#    y 0.000000 1.680260 0.000000 
#    z -0.001800 0.000000 1.649010 
# 
# From -- ./inp_files/328407.got.cif
#   From: 2010.05.17/outbox.cif.g08.bks.cpg/sg12_165_cif.got.tgz:328407.got - 2010.06.03 13:09:07.
