data_PCOD9197494
_publ_section_title
;
Structure prediction by ZEFSAII (Michael W. Deem and Ramdas Pophale) SiO2 
 PCOD9197494
Probable space group: C 2/M
;
_chemical_formula_sum "Si O2"
_cell_formula_units_Z 52
_cell_length_a 21.166427
_cell_length_b 20.948167
_cell_length_c 5.325050
_cell_angle_alpha 90.000000
_cell_angle_beta 84.115068
_cell_angle_gamma 90.000000
_cell_volume 2348.672193
_symmetry_space_group_name_H-M "C 2/M"
_symmetry_group_IT_number 12
_symmetry_cell_setting 'monoclinic'
loop_
_space_group_symop_operation_xyz
x,y,z
-x,y,-z
-x,-y,-z
x,-y,z
1/2+x,1/2+y,z
1/2-x,1/2+y,-z
1/2-x,1/2-y,-z
1/2+x,1/2-y,z
loop_
_atom_site_type_symbol
_atom_site_label
_atom_site_fract_x
_atom_site_fract_y
_atom_site_fract_z
Si Si1 0.028468 0.574909 0.236521
Si Si2 0.324631 0.929729 0.947086
Si Si3 0.854827 0.111597 0.775314
Si Si4 0.957501 0.000000 0.766223
Si Si5 0.827573 0.754336 0.525897
Si Si6 0.797350 0.069565 0.295214
Si Si7 0.313608 0.792631 0.029964
O O1 0.007318 0.500000 0.246090
O O2 0.103604 0.574407 0.174628
O O3 0.000000 0.603801 0.500000
O O4 0.000000 0.606031 0.000000
O O5 0.276615 0.928611 0.732882
O O6 0.316472 0.000000 0.073762
O O7 0.305624 0.866482 0.109894
O O8 0.854015 0.181068 0.642455
O O9 0.812199 0.077350 0.579489
O O10 0.915667 0.065286 0.771390
O O11 0.827686 0.115793 0.070760
O O12 0.000000 0.000000 0.500000
O O13 0.000000 0.000000 0.000000
O O14 0.750000 0.750000 0.500000
O O15 0.852456 0.739634 0.238444
O O16 0.842625 0.704596 0.739547
O O17 0.822473 0.000000 0.206554
O O18 0.250000 0.750000 0.000000
#
# Coordination Sequence:
#
# PCOD9197494 Si02
#       7
#     8   8   8   4   8   8   8
#     4   9  19  36  56  82 122 168 212 262 322 392
#     4  10  22  37  63  98 134 174 225 285 352 421
#     4  12  22  41  63  94 131 176 228 284 354 426
#     4  12  26  44  68  98 138 186 238 292 350 406
#     4  10  20  35  60  85 124 170 209 259 336 419
#     4  11  20  34  56  93 133 162 207 283 354 410
#     4  10  20  37  55  86 128 170 210 262 338 418
#
# _framework density 22.140167999999999
#
# number of rings (size 3 to 8) (size 9 to 14) (size 15 to 20)
#    0.000    1.538    1.538    5.538    0.000    2.462 
#    0.000    6.923    0.000    3.692    0.000    0.000 
#    0.000    0.000    0.000    0.000    0.000    0.000 
#
# Total GULP energy -144774.350876 kJ/mol
# GULP energy per Si atom -5568.244264 kJ/mol
# Density = 2.208978 g / cm^3
# Si number density = 22.140168 Si / 1000 Ang^3
#
#
#
# Elastic Constant Matrix: (Units=GPa)
#
#
# Indices 1 2 3 4 5 6 
#
# 1 78.8183 18.3549 41.6623 0.0000 8.3826 0.0000
# 2 18.3549 152.9832 32.7734 0.0000 10.8745 0.0000
# 3 41.6623 32.7734 160.9335 0.0000 19.3322 0.0000
# 4 0.0000 0.0000 0.0000 28.1601 0.0000 4.5270
# 5 8.3826 10.8745 19.3322 0.0000 25.5571 0.0000
# 6 0.0000 0.0000 0.0000 4.5270 0.0000 15.0012
#
#
#
# Elastic Compliance Matrix: (Units=1/GPa)
#
#
# Indices 1 2 3 4 5 6 
#
# 1 0.014926 -0.000917 -0.003449 0.000000 -0.001896 0.000000
# 2 -0.000917 0.006989 -0.000951 0.000000 -0.001954 0.000000
# 3 -0.003449 -0.000951 0.007827 0.000000 -0.004385 0.000000
# 4 0.000000 0.000000 0.000000 0.037322 0.000000 -0.011263
# 5 -0.001896 -0.001954 -0.004385 0.000000 0.043898 0.000000
# 6 0.000000 0.000000 0.000000 -0.011263 0.000000 0.070060
#
#
# Mechanical properties :
#
#
# Convention : Reuss Voigt Hill
#
# Bulk Modulus (GPa) = 52.33718 64.25734 58.29726
# Shear Modulus (GPa) = 25.24909 33.73997 29.49453
#
# Velocity S-wave (km/s) = 3.38067 3.90798 3.65385
# Velocity P-wave (km/s) = 6.23931 7.03200 6.64748
#
# Compressibility (1/GPa) = 0.01910687
#
# Stress axis : x y z
#
# Youngs Moduli (GPa) = 66.99720 143.07480 127.76025
#
# Poissons Ratio (x) = 0.13121 0.44071
# Poissons Ratio (y) = 0.06144 0.12153
# Poissons Ratio (z) = 0.23111 0.13610
#
# Static dielectric constant tensor:
#      x y z
#    x 1.732590 0.000000 -0.045170 
#    y 0.000000 2.006770 0.000000 
#    z -0.045170 0.000000 1.905070 
# 
# From -- ./inp_files/21233.got.cif
#   From: 2010.05.17/outbox.cif.g08.bks.cpg/sg12_11_cif.got.tgz:21233.got - 2010.06.03 13:09:07.
