data_PCOD9197918
_publ_section_title
;
Structure prediction by ZEFSAII (Michael W. Deem and Ramdas Pophale) SiO2 
 PCOD9197918
Probable space group: C 2/M
;
_chemical_formula_sum "Si O2"
_cell_formula_units_Z 56
_cell_length_a 8.327242
_cell_length_b 11.506465
_cell_length_c 31.409045
_cell_angle_alpha 90.000000
_cell_angle_beta 63.328412
_cell_angle_gamma 90.000000
_cell_volume 2689.293025
_symmetry_space_group_name_H-M "C 2/M"
_symmetry_group_IT_number 12
_symmetry_cell_setting 'monoclinic'
loop_
_space_group_symop_operation_xyz
x,y,z
-x,y,-z
-x,-y,-z
x,-y,z
1/2+x,1/2+y,z
1/2-x,1/2+y,-z
1/2-x,1/2-y,-z
1/2+x,1/2-y,z
loop_
_atom_site_type_symbol
_atom_site_label
_atom_site_fract_x
_atom_site_fract_y
_atom_site_fract_z
Si Si1 0.442912 0.376071 0.819458
Si Si2 0.162922 0.315974 0.236408
Si Si3 0.390882 0.625509 0.365531
Si Si4 0.213973 0.369501 0.479062
Si Si5 0.787059 0.686804 0.307296
Si Si6 0.159313 0.631113 0.928056
Si Si7 0.456621 0.630947 0.955128
O O1 0.392875 0.500000 0.805271
O O2 0.656409 0.376296 0.801270
O O3 0.387895 0.276300 0.793695
O O4 0.330527 0.364994 0.875973
O O5 0.227314 0.254479 0.271991
O O6 0.974006 0.374376 0.271991
O O7 0.327400 0.500000 0.356619
O O8 0.306436 0.643093 0.421942
O O9 0.606677 0.623021 0.342713
O O10 0.333450 0.723806 0.339451
O O11 0.269777 0.500000 0.489278
O O12 0.250000 0.250000 0.500000
O O13 0.000000 0.374837 0.500000
O O14 0.078145 0.500000 0.932879
O O15 0.248945 0.638487 0.964400
O O16 0.046094 0.746239 0.930669
O O17 0.515946 0.500000 0.932183
O O18 0.500000 0.627511 0.000000
#
# Coordination Sequence:
#
# PCOD9197918 Si02
#       7
#     8   8   8   8   8   8   8
#     4  10  20  36  55  75 106 143 179 225 274 324
#     4   9  19  34  53  78 105 137 178 220 269 327
#     4  10  20  36  56  78 109 144 179 227 279 328
#     4  10  21  37  58  83 113 150 189 231 282 337
#     4   9  19  34  53  79 106 136 179 222 266 329
#     4  10  21  36  56  82 111 147 189 230 277 334
#     4  10  21  37  57  83 115 148 185 233 284 334
#
# _framework density 20.823315000000001
#
# number of rings (size 3 to 8) (size 9 to 14) (size 15 to 20)
#    0.000    2.286    0.000    2.143    0.000    6.857 
#    0.000    5.714    0.000    0.000    0.000    0.000 
#    0.000    0.000    0.000    0.000    0.000    0.000 
#
# Total GULP energy -155874.795028 kJ/mol
# GULP energy per Si atom -5566.956965 kJ/mol
# Density = 2.077592 g / cm^3
# Si number density = 20.823315 Si / 1000 Ang^3
#
#
#
# Elastic Constant Matrix: (Units=GPa)
#
#
# Indices 1 2 3 4 5 6 
#
# 1 57.9203 41.1509 3.0253 0.0000 -2.3214 0.0000
# 2 41.1509 173.7146 36.1517 0.0000 4.9961 0.0000
# 3 3.0253 36.1517 66.1429 0.0000 -12.2894 0.0000
# 4 0.0000 0.0000 0.0000 76.0998 0.0000 -5.2944
# 5 -2.3214 4.9961 -12.2894 0.0000 31.1589 0.0000
# 6 0.0000 0.0000 0.0000 -5.2944 0.0000 24.0507
#
#
#
# Elastic Compliance Matrix: (Units=1/GPa)
#
#
# Indices 1 2 3 4 5 6 
#
# 1 0.021350 -0.005754 0.002844 0.000000 0.003635 0.000000
# 2 -0.005754 0.008253 -0.004935 0.000000 -0.003698 0.000000
# 3 0.002844 -0.004935 0.019286 0.000000 0.008610 0.000000
# 4 0.000000 0.000000 0.000000 0.013345 0.000000 0.002938
# 5 0.003635 -0.003698 0.008610 0.000000 0.036353 0.000000
# 6 0.000000 0.000000 0.000000 0.002938 0.000000 0.042226
#
#
# Mechanical properties :
#
#
# Convention : Reuss Voigt Hill
#
# Bulk Modulus (GPa) = 30.12151 50.93707 40.52929
# Shear Modulus (GPa) = 29.83848 40.75854 35.29851
#
# Velocity S-wave (km/s) = 3.78952 4.42900 4.12168
# Velocity P-wave (km/s) = 5.80034 7.11824 6.49282
#
# Compressibility (1/GPa) = 0.03319886
#
# Stress axis : x y z
#
# Youngs Moduli (GPa) = 46.83774 121.16861 51.85220
#
# Poissons Ratio (x) = 0.69720 -0.14746
# Poissons Ratio (y) = 0.26950 0.25588
# Poissons Ratio (z) = -0.13320 0.59794
#
# Static dielectric constant tensor:
#      x y z
#    x 1.735460 0.000000 -0.033200 
#    y 0.000000 1.788230 0.000000 
#    z -0.033200 0.000000 1.754250 
# 
# From -- ./inp_files/372087.got.cif
#   From: 2010.05.17/outbox.cif.g08.bks.cpg/sg12_187_cif.got.tgz:372087.got - 2010.06.03 13:09:07.
