data_PCOD9197593
_publ_section_title
;
Structure prediction by ZEFSAII (Michael W. Deem and Ramdas Pophale) SiO2 
 PCOD9197593
Probable space group: C 2/M
;
_chemical_formula_sum "Si O2"
_cell_formula_units_Z 64
_cell_length_a 31.135504
_cell_length_b 8.055323
_cell_length_c 18.422701
_cell_angle_alpha 90.000000
_cell_angle_beta 141.581830
_cell_angle_gamma 90.000000
_cell_volume 2871.182586
_symmetry_space_group_name_H-M "C 2/M"
_symmetry_group_IT_number 12
_symmetry_cell_setting 'monoclinic'
loop_
_space_group_symop_operation_xyz
x,y,z
-x,y,-z
-x,-y,-z
x,-y,z
1/2+x,1/2+y,z
1/2-x,1/2+y,-z
1/2-x,1/2-y,-z
1/2+x,1/2-y,z
loop_
_atom_site_type_symbol
_atom_site_label
_atom_site_fract_x
_atom_site_fract_y
_atom_site_fract_z
Si Si1 0.182448 0.193387 0.867476
Si Si2 0.168947 0.299198 0.389430
Si Si3 0.094896 0.298349 0.882484
Si Si4 0.181663 0.301257 0.136262
Si Si5 0.448522 0.196486 0.665406
Si Si6 0.923497 0.700280 0.872832
Si Si7 0.329004 0.816799 0.306848
Si Si8 0.033727 0.814108 0.471879
O O1 0.119752 0.224513 0.839367
O O2 0.176922 0.298387 0.787376
O O3 0.188034 0.000000 0.855568
O O4 0.250000 0.250000 0.000000
O O5 0.170439 0.500000 0.388687
O O6 0.250000 0.250000 0.500000
O O7 0.124308 0.239539 0.400560
O O8 0.119950 0.243714 0.256323
O O9 0.096713 0.500000 0.879627
O O10 0.016990 0.245628 0.798860
O O11 0.147870 0.248853 0.015315
O O12 0.192983 0.500000 0.147968
O O13 0.127899 0.267831 0.128489
O O14 0.254714 0.214616 0.242644
O O15 0.468428 0.228587 0.608608
O O16 0.444762 0.000000 0.670673
O O17 0.931391 0.500000 0.873666
O O18 0.000000 0.760877 0.000000
O O19 0.385012 0.684664 0.404789
O O20 0.354551 0.000000 0.360553
O O21 0.000000 0.736671 0.500000
O O22 0.004453 0.000000 0.426698
#
# Coordination Sequence:
#
# PCOD9197593 Si02
#       8
#     8   8   8   8   8   8   8   8
#     4  12  23  37  57  85 122 163 206 252 304 367
#     4  10  22  40  63  94 130 169 214 265 320 380
#     4  10  20  36  60  89 124 163 205 255 310 368
#     4  10  20  35  60  92 123 159 204 255 306 367
#     4  10  22  40  63  92 126 167 211 255 310 376
#     4   9  18  36  64  94 123 160 211 263 312 371
#     4  12  25  40  60  87 122 162 202 252 309 372
#     4  11  25  44  65  90 120 159 208 262 315 372
#
# _framework density 22.290465999999999
#
# number of rings (size 3 to 8) (size 9 to 14) (size 15 to 20)
#    0.000    1.500    1.250    4.125    1.750    7.000 
#    0.000    0.000    0.000    3.000    0.000    0.000 
#    0.000    0.000    0.000    0.000    0.000    0.000 
#
# Total GULP energy -178678.108437 kJ/mol
# GULP energy per Si atom -5583.690889 kJ/mol
# Density = 2.223973 g / cm^3
# Si number density = 22.290466 Si / 1000 Ang^3
#
#
#
# Elastic Constant Matrix: (Units=GPa)
#
#
# Indices 1 2 3 4 5 6 
#
# 1 103.0238 19.6119 45.9875 0.0000 25.1159 0.0000
# 2 19.6119 39.8652 4.6808 0.0000 8.7271 0.0000
# 3 45.9875 4.6808 109.0625 0.0000 25.6769 0.0000
# 4 0.0000 0.0000 0.0000 74.3572 0.0000 -4.4329
# 5 25.1159 8.7271 25.6769 0.0000 34.8589 0.0000
# 6 0.0000 0.0000 0.0000 -4.4329 0.0000 24.5908
#
#
#
# Elastic Compliance Matrix: (Units=1/GPa)
#
#
# Indices 1 2 3 4 5 6 
#
# 1 0.013997 -0.005152 -0.004368 0.000000 -0.005578 0.000000
# 2 -0.005152 0.028459 0.002123 0.000000 -0.004976 0.000000
# 3 -0.004368 0.002123 0.012466 0.000000 -0.006567 0.000000
# 4 0.000000 0.000000 0.000000 0.013595 0.000000 0.002451
# 5 -0.005578 -0.004976 -0.006567 0.000000 0.038789 0.000000
# 6 0.000000 0.000000 0.000000 0.002451 0.000000 0.041107
#
#
# Mechanical properties :
#
#
# Convention : Reuss Voigt Hill
#
# Bulk Modulus (GPa) = 24.92045 43.61242 34.26643
# Shear Modulus (GPa) = 28.31551 38.87281 33.59416
#
# Velocity S-wave (km/s) = 3.56799 4.18056 3.88636
# Velocity P-wave (km/s) = 5.30831 6.55063 5.96192
#
# Compressibility (1/GPa) = 0.04012769
#
# Stress axis : x y z
#
# Youngs Moduli (GPa) = 71.44617 35.13802 80.22075
#
# Poissons Ratio (x) = 0.18103 0.35037
# Poissons Ratio (y) = 0.36808 -0.17027
# Poissons Ratio (z) = 0.31204 -0.07458
#
# Static dielectric constant tensor:
#      x y z
#    x 1.838510 0.000000 -0.011720 
#    y 0.000000 1.803930 0.000000 
#    z -0.011720 0.000000 1.863200 
# 
# From -- ./inp_files/295839.got.cif
#   From: 2010.05.17/outbox.cif.g08.bks.cpg/sg12_148_cif.got.tgz:295839.got - 2010.06.03 13:09:07.
