data_PCOD9197317
_publ_section_title
;
Structure prediction by ZEFSAII (Michael W. Deem and Ramdas Pophale) SiO2 
 PCOD9197317
Probable space group: C 2/M
;
_chemical_formula_sum "Si O2"
_cell_formula_units_Z 56
_cell_length_a 19.502875
_cell_length_b 8.784978
_cell_length_c 16.408498
_cell_angle_alpha 90.000000
_cell_angle_beta 94.589256
_cell_angle_gamma 90.000000
_cell_volume 2802.292829
_symmetry_space_group_name_H-M "C 2/M"
_symmetry_group_IT_number 12
_symmetry_cell_setting 'monoclinic'
loop_
_space_group_symop_operation_xyz
x,y,z
-x,y,-z
-x,-y,-z
x,-y,z
1/2+x,1/2+y,z
1/2-x,1/2+y,-z
1/2-x,1/2-y,-z
1/2+x,1/2-y,z
loop_
_atom_site_type_symbol
_atom_site_label
_atom_site_fract_x
_atom_site_fract_y
_atom_site_fract_z
Si Si1 0.152956 0.320378 0.309769
Si Si2 0.680920 0.317115 0.032400
Si Si3 0.250120 0.818457 0.199266
Si Si4 0.674837 0.820688 0.499244
Si Si5 0.551530 0.681571 0.579407
Si Si6 0.997766 0.317406 0.743149
Si Si7 0.611693 0.317196 0.866572
O O1 0.162633 0.500000 0.294751
O O2 0.219446 0.234554 0.281911
O O3 0.143921 0.301579 0.405555
O O4 0.081811 0.267572 0.262305
O O5 0.683051 0.500000 0.029911
O O6 0.690297 0.274424 0.127586
O O7 0.750000 0.250000 0.000000
O O8 0.622113 0.270735 0.962724
O O9 0.321051 0.741413 0.176896
O O10 0.259953 0.000000 0.198651
O O11 0.750000 0.750000 0.500000
O O12 0.626551 0.736340 0.558792
O O13 0.677917 0.000000 0.518058
O O14 0.500000 0.721132 0.500000
O O15 0.550041 0.500000 0.590305
O O16 0.528847 0.760836 0.660429
O O17 0.999398 0.500000 0.745080
O O18 0.044278 0.251089 0.819309
O O19 0.609975 0.500000 0.861488
#
# Coordination Sequence:
#
# PCOD9197317 Si02
#       7
#     8   8   8   8   8   8   8
#     4  10  23  41  58  80 115 154 189 233 288 337
#     4   8  16  32  54  82 113 147 186 231 281 333
#     4  10  20  35  59  87 115 150 192 234 282 340
#     4  11  24  42  62  85 116 152 193 239 286 336
#     4  11  23  40  63  88 114 148 191 234 284 342
#     4  11  23  40  60  83 114 152 194 235 280 338
#     4  10  20  36  59  86 117 149 188 237 285 335
#
# _framework density 19.983637000000002
#
# number of rings (size 3 to 8) (size 9 to 14) (size 15 to 20)
#    0.000    1.857    1.429    2.143    2.000    4.000 
#    0.000    0.714    0.000    4.286    0.000    0.000 
#    0.000    0.000    0.000    0.000    0.000    0.000 
#
# Total GULP energy -156309.014473 kJ/mol
# GULP energy per Si atom -5582.464803 kJ/mol
# Density = 1.993815 g / cm^3
# Si number density = 19.983637 Si / 1000 Ang^3
#
#
#
# Elastic Constant Matrix: (Units=GPa)
#
#
# Indices 1 2 3 4 5 6 
#
# 1 75.3234 11.1691 -7.3096 0.0000 13.8114 0.0000
# 2 11.1691 28.2436 7.5549 0.0000 8.9380 0.0000
# 3 -7.3096 7.5549 12.3515 0.0000 6.7194 0.0000
# 4 0.0000 0.0000 0.0000 21.5734 0.0000 4.3330
# 5 13.8114 8.9380 6.7194 0.0000 39.1476 0.0000
# 6 0.0000 0.0000 0.0000 4.3330 0.0000 26.9263
#
#
#
# Elastic Compliance Matrix: (Units=1/GPa)
#
#
# Indices 1 2 3 4 5 6 
#
# 1 0.018358 -0.010568 0.021551 0.000000 -0.007763 0.000000
# 2 -0.010568 0.049626 -0.035817 0.000000 -0.001454 0.000000
# 3 0.021551 -0.035817 0.127187 0.000000 -0.021256 0.000000
# 4 0.000000 0.000000 0.000000 0.047902 0.000000 -0.007708
# 5 -0.007763 -0.001454 -0.021256 0.000000 0.032264 0.000000
# 6 0.000000 0.000000 0.000000 -0.007708 0.000000 0.038379
#
#
# Mechanical properties :
#
#
# Convention : Reuss Voigt Hill
#
# Bulk Modulus (GPa) = 6.87267 15.41639 11.14453
# Shear Modulus (GPa) = 12.13932 24.49638 18.31785
#
# Velocity S-wave (km/s) = 2.46735 3.50497 3.03090
# Velocity P-wave (km/s) = 3.40054 4.91030 4.22343
#
# Compressibility (1/GPa) = 0.14550386
#
# Stress axis : x y z
#
# Youngs Moduli (GPa) = 54.47228 20.15055 7.86244
#
# Poissons Ratio (x) = 0.21295 -0.16945
# Poissons Ratio (y) = 0.57566 0.28161
# Poissons Ratio (z) = -1.17395 0.72174
#
# Static dielectric constant tensor:
#      x y z
#    x 1.682810 0.000000 0.050330 
#    y 0.000000 1.667480 0.000000 
#    z 0.050330 0.000000 1.738660 
# 
# From -- ./inp_files/230933.got.cif
#   From: 2010.05.17/outbox.cif.g08.bks.cpg/sg12_116_cif.got.tgz:230933.got - 2010.06.03 13:09:07.
