data_PCOD9197197
_publ_section_title
;
Structure prediction by ZEFSAII (Michael W. Deem and Ramdas Pophale) SiO2 
 PCOD9197197
Probable space group: C 2/M
;
_chemical_formula_sum "Si O2"
_cell_formula_units_Z 56
_cell_length_a 22.238912
_cell_length_b 14.750104
_cell_length_c 9.649666
_cell_angle_alpha 90.000000
_cell_angle_beta 63.152319
_cell_angle_gamma 90.000000
_cell_volume 2824.152405
_symmetry_space_group_name_H-M "C 2/M"
_symmetry_group_IT_number 12
_symmetry_cell_setting 'monoclinic'
loop_
_space_group_symop_operation_xyz
x,y,z
-x,y,-z
-x,-y,-z
x,-y,z
1/2+x,1/2+y,z
1/2-x,1/2+y,-z
1/2-x,1/2-y,-z
1/2+x,1/2-y,z
loop_
_atom_site_type_symbol
_atom_site_label
_atom_site_fract_x
_atom_site_fract_y
_atom_site_fract_z
Si Si1 0.502362 0.603001 0.158552
Si Si2 0.211969 0.100483 0.311593
Si Si3 0.670846 0.278049 0.575726
Si Si4 0.158617 0.098564 0.071756
Si Si5 0.042811 0.393929 0.097642
Si Si6 0.666405 0.233325 0.886879
Si Si7 0.962738 0.271481 0.390092
O O1 0.474192 0.500000 0.200631
O O2 0.474022 0.677927 0.292631
O O3 0.500000 0.631203 0.000000
O O4 0.581309 0.597944 0.109534
O O5 0.175370 0.127406 0.490727
O O6 0.271928 0.167788 0.211347
O O7 0.239976 0.000000 0.292183
O O8 0.162451 0.106730 0.232818
O O9 0.750000 0.250000 0.500000
O O10 0.645556 0.275191 0.759633
O O11 0.618979 0.218728 0.535889
O O12 0.188661 0.185183 0.963528
O O13 0.189357 0.000000 0.002940
O O14 0.060546 0.500000 0.102535
O O15 0.997698 0.351990 0.267086
O O16 0.106868 0.327639 0.012325
O O17 0.000000 0.389539 0.000000
O O18 0.000000 0.265843 0.500000
#
# Coordination Sequence:
#
# PCOD9197197 Si02
#       7
#     8   8   8   8   8   8   8
#     4  10  20  35  59  89 120 158 203 250 302 364
#     4  10  22  39  59  89 127 164 205 251 309 376
#     4  10  23  39  59  87 121 164 206 249 309 371
#     4  10  20  35  58  90 124 158 200 254 310 368
#     4  11  23  41  67  92 118 160 213 262 311 371
#     4  11  20  39  65  90 121 162 211 255 311 367
#     4  12  23  39  64  91 127 162 206 260 319 372
#
# _framework density 19.828958
#
# number of rings (size 3 to 8) (size 9 to 14) (size 15 to 20)
#    0.000    1.429    2.857    3.000    0.000    1.714 
#    0.000    0.000    0.000    0.857    0.000    0.000 
#    0.000    0.000    0.000    0.000    0.000    0.000 
#
# Total GULP energy -156140.141046 kJ/mol
# GULP energy per Si atom -5576.433609 kJ/mol
# Density = 1.978383 g / cm^3
# Si number density = 19.828958 Si / 1000 Ang^3
#
#
#
# Elastic Constant Matrix: (Units=GPa)
#
#
# Indices 1 2 3 4 5 6 
#
# 1 90.7327 20.4143 42.4779 0.0000 14.5865 0.0000
# 2 20.4143 140.6888 63.1157 0.0000 10.9576 0.0000
# 3 42.4779 63.1157 73.5968 0.0000 15.1595 0.0000
# 4 0.0000 0.0000 0.0000 26.4572 0.0000 4.4730
# 5 14.5865 10.9576 15.1595 0.0000 38.5485 0.0000
# 6 0.0000 0.0000 0.0000 4.4730 0.0000 18.8527
#
#
#
# Elastic Compliance Matrix: (Units=1/GPa)
#
#
# Indices 1 2 3 4 5 6 
#
# 1 0.016023 0.002906 -0.011231 0.000000 -0.002472 0.000000
# 2 0.002906 0.012095 -0.012095 0.000000 0.000219 0.000000
# 3 -0.011231 -0.012095 0.031402 0.000000 -0.004661 0.000000
# 4 0.000000 0.000000 0.000000 0.039376 0.000000 -0.009342
# 5 -0.002472 0.000219 -0.004661 0.000000 0.028648 0.000000
# 6 0.000000 0.000000 0.000000 -0.009342 0.000000 0.055259
#
#
# Mechanical properties :
#
#
# Convention : Reuss Voigt Hill
#
# Bulk Modulus (GPa) = 53.53096 61.89267 57.71181
# Shear Modulus (GPa) = 21.75135 28.70571 25.22853
#
# Velocity S-wave (km/s) = 3.31561 3.80895 3.57081
# Velocity P-wave (km/s) = 6.45854 7.11514 6.79477
#
# Compressibility (1/GPa) = 0.01868078
#
# Stress axis : x y z
#
# Youngs Moduli (GPa) = 62.41060 82.67706 31.84473
#
# Poissons Ratio (x) = -0.24026 0.35764
# Poissons Ratio (y) = -0.18136 0.38516
# Poissons Ratio (z) = 0.70092 0.99998
#
# Static dielectric constant tensor:
#      x y z
#    x 1.758770 0.000000 -0.009360 
#    y 0.000000 1.732530 0.000000 
#    z -0.009360 0.000000 1.708760 
# 
# From -- ./inp_files/96267.got.cif
#   From: 2010.05.17/outbox.cif.g08.bks.cpg/sg12_49_cif.got.tgz:96267.got - 2010.06.03 13:09:07.
