data_PCOD9197368
_publ_section_title
;
Structure prediction by ZEFSAII (Michael W. Deem and Ramdas Pophale) SiO2 
 PCOD9197368
Probable space group: C 2/M
;
_chemical_formula_sum "Si O2"
_cell_formula_units_Z 58
_cell_length_a 24.689588
_cell_length_b 7.805403
_cell_length_c 21.401494
_cell_angle_alpha 90.000000
_cell_angle_beta 39.990227
_cell_angle_gamma 90.000000
_cell_volume 2650.528414
_symmetry_space_group_name_H-M "C 2/M"
_symmetry_group_IT_number 12
_symmetry_cell_setting 'monoclinic'
loop_
_space_group_symop_operation_xyz
x,y,z
-x,y,-z
-x,-y,-z
x,-y,z
1/2+x,1/2+y,z
1/2-x,1/2+y,-z
1/2-x,1/2-y,-z
1/2+x,1/2-y,z
loop_
_atom_site_type_symbol
_atom_site_label
_atom_site_fract_x
_atom_site_fract_y
_atom_site_fract_z
Si Si1 0.183401 0.295415 0.504790
Si Si2 0.989355 0.798743 0.685717
Si Si3 0.068860 0.307387 0.855242
Si Si4 0.239304 0.708893 0.317871
Si Si5 0.500000 0.500000 0.000000
Si Si6 0.159171 0.298144 0.261717
Si Si7 0.459475 0.292111 0.848859
Si Si8 0.220895 0.206127 0.955601
O O1 0.179217 0.500000 0.505976
O O2 0.250000 0.250000 0.500000
O O3 0.088832 0.230756 0.599777
O O4 0.211557 0.232922 0.411160
O O5 0.936920 0.721762 0.675024
O O6 0.951247 0.732523 0.784789
O O7 0.973348 0.000000 0.696892
O O8 0.046963 0.500000 0.894150
O O9 0.167202 0.274811 0.778093
O O10 0.042441 0.284806 0.806375
O O11 0.021193 0.151898 0.930494
O O12 0.241856 0.500000 0.316841
O O13 0.181028 0.766789 0.311496
O O14 0.177856 0.500000 0.247530
O O15 0.219747 0.226432 0.152672
O O16 0.464577 0.500000 0.843382
O O17 0.376877 0.239104 0.961024
O O18 0.221006 0.000000 0.951257
O O19 0.250000 0.250000 0.000000
#
# Coordination Sequence:
#
# PCOD9197368 Si02
#       8
#     8   8   8   8   2   8   8   8
#     4  11  24  43  70  98 128 169 220 277 348 413
#     4  11  23  40  64  95 134 174 219 279 345 395
#     4  12  26  42  70 101 131 184 231 275 341 403
#     4  10  23  45  68  93 135 181 219 282 348 406
#     4  12  26  48  64  90 152 174 226 282 332 400
#     4  10  22  39  64  92 128 178 222 270 338 404
#     4  10  21  39  62  91 134 180 218 280 344 398
#     4  10  20  35  59  88 125 172 217 265 328 393
#
# _framework density 21.882428999999998
#
# number of rings (size 3 to 8) (size 9 to 14) (size 15 to 20)
#    0.000    1.379    2.759    1.862    1.931    7.172 
#    0.000    2.759    0.000    0.000    0.000    0.000 
#    0.000    0.000    0.000    0.000    0.000    0.000 
#
# Total GULP energy -161759.793035 kJ/mol
# GULP energy per Si atom -5577.923898 kJ/mol
# Density = 2.183262 g / cm^3
# Si number density = 21.882429 Si / 1000 Ang^3
#
#
#
# Elastic Constant Matrix: (Units=GPa)
#
#
# Indices 1 2 3 4 5 6 
#
# 1 472.3499 46.8922 -394.1893 0.2588 124.5091 -0.2575
# 2 46.8922 78.8086 -46.9837 0.0346 26.9948 -0.0407
# 3 -394.1893 -46.9837 730.9115 -0.4055 -163.6458 0.3927
# 4 0.2588 0.0346 -0.4055 -11.8432 0.1037 -3.4162
# 5 124.5091 26.9948 -163.6458 0.1037 81.1625 -0.0994
# 6 -0.2575 -0.0407 0.3927 -3.4162 -0.0994 17.4429
#
#
#
# Elastic Compliance Matrix: (Units=1/GPa)
#
#
# Indices 1 2 3 4 5 6 
#
# 1 0.004361 -0.000509 0.001566 0.000008 -0.003363 0.000010
# 2 -0.000509 0.014408 -0.000449 0.000001 -0.004917 0.000008
# 3 0.001566 -0.000449 0.003062 -0.000029 0.003919 -0.000030
# 4 0.000008 0.000001 -0.000029 -0.079920 0.000013 -0.015652
# 5 -0.003363 -0.004917 0.003919 0.000013 0.027018 0.000007
# 6 0.000010 0.000008 -0.000030 -0.015652 0.000007 0.054265
#
#
# Mechanical properties :
#
#
# Convention : Reuss Voigt Hill
#
# Bulk Modulus (GPa) = 43.38979 54.83429 49.11204
# Shear Modulus (GPa) = 168.57442 129.10916 148.84179
#
# Velocity S-wave (km/s) = 8.78656 7.68956 8.25630
# Velocity P-wave (km/s) = 11.08196 10.19569 10.64805
#
# Compressibility (1/GPa) = 0.02304690
#
# Stress axis : x y z
#
# Youngs Moduli (GPa) = 229.28961 69.40423 326.62436
#
# Poissons Ratio (x) = 0.03535 -0.51165
# Poissons Ratio (y) = 0.11678 0.14677
# Poissons Ratio (z) = -0.35918 0.03119
#
# Static dielectric constant tensor:
#      x y z
#    x 1.798460 0.000010 0.049200 
#    y 0.000010 1.797390 0.000000 
#    z 0.049200 0.000000 1.810450 
# 
# From -- ./inp_files/324533.got.cif
#   From: 2010.05.17/outbox.cif.g08.bks.cpg/sg12_163_cif.got.tgz:324533.got - 2010.06.03 13:09:07.
