data_PCOD9197639
_publ_section_title
;
Structure prediction by ZEFSAII (Michael W. Deem and Ramdas Pophale) SiO2 
 PCOD9197639
Probable space group: C 2/M
;
_chemical_formula_sum "Si O2"
_cell_formula_units_Z 64
_cell_length_a 23.056266
_cell_length_b 9.254372
_cell_length_c 17.027321
_cell_angle_alpha 90.000000
_cell_angle_beta 96.029018
_cell_angle_gamma 90.000000
_cell_volume 3613.045452
_symmetry_space_group_name_H-M "C 2/M"
_symmetry_group_IT_number 12
_symmetry_cell_setting 'monoclinic'
loop_
_space_group_symop_operation_xyz
x,y,z
-x,y,-z
-x,-y,-z
x,-y,z
1/2+x,1/2+y,z
1/2-x,1/2+y,-z
1/2-x,1/2-y,-z
1/2+x,1/2-y,z
loop_
_atom_site_type_symbol
_atom_site_label
_atom_site_fract_x
_atom_site_fract_y
_atom_site_fract_z
Si Si1 0.230520 0.672439 0.120760
Si Si2 0.327267 0.325919 0.738792
Si Si3 0.483984 0.165129 0.368238
Si Si4 0.164768 0.672440 0.948631
Si Si5 0.964466 0.172146 0.768816
Si Si6 0.700496 0.671793 0.443271
Si Si7 0.905506 0.665681 0.499085
Si Si8 0.471633 0.172204 0.080593
O O1 0.235464 0.500000 0.131464
O O2 0.205591 0.746488 0.195241
O O3 0.291956 0.740940 0.102288
O O4 0.186646 0.699712 0.040978
O O5 0.322830 0.500000 0.747933
O O6 0.396158 0.287467 0.749768
O O7 0.301764 0.288156 0.649361
O O8 0.498908 0.269797 0.299779
O O9 0.429040 0.201280 0.415537
O O10 0.539161 0.165928 0.434906
O O11 0.476887 0.000000 0.338386
O O12 0.171255 0.500000 0.935619
O O13 0.096950 0.710797 0.929328
O O14 0.992161 0.243234 0.849361
O O15 0.967417 0.000000 0.773304
O O16 0.706901 0.500000 0.448744
O O17 0.750000 0.750000 0.500000
O O18 0.640461 0.723467 0.473781
O O19 0.882649 0.500000 0.494823
O O20 0.475745 0.000000 0.096036
O O21 0.500000 0.200201 0.000000
#
# Coordination Sequence:
#
# PCOD9197639 Si02
#       8
#     8   8   8   8   8   8   8   8
#     4  10  20  35  61  89 110 145 194 237 274 326
#     4  10  22  39  57  81 114 148 184 230 286 340
#     4   9  18  34  58  85 112 145 185 227 276 335
#     4   9  19  37  58  83 118 152 184 229 282 331
#     4  11  22  36  56  85 117 148 187 234 285 335
#     4  11  23  40  59  82 113 149 189 235 288 341
#     4   9  18  35  59  85 111 143 185 230 278 335
#     4  10  21  38  59  84 116 154 192 228 277 337
#
# _framework density 17.713588000000001
#
# number of rings (size 3 to 8) (size 9 to 14) (size 15 to 20)
#    0.000    2.125    1.250    2.625    0.000    4.750 
#    2.250    1.250    0.000    0.000    0.000    0.000 
#    0.000    0.000    0.000    0.000    0.000    0.000 
#
# Total GULP energy -178597.383454 kJ/mol
# GULP energy per Si atom -5581.168233 kJ/mol
# Density = 1.767327 g / cm^3
# Si number density = 17.713588 Si / 1000 Ang^3
#
#
#
# Elastic Constant Matrix: (Units=GPa)
#
#
# Indices 1 2 3 4 5 6 
#
# 1 72.7039 47.4405 69.2649 0.0000 -2.1673 0.0000
# 2 47.4405 59.8224 78.5793 0.0000 -5.4138 0.0000
# 3 69.2649 78.5793 146.9110 0.0000 -11.8778 0.0000
# 4 0.0000 0.0000 0.0000 30.1895 0.0000 -0.8288
# 5 -2.1673 -5.4138 -11.8778 0.0000 26.8713 0.0000
# 6 0.0000 0.0000 0.0000 -0.8288 0.0000 30.0349
#
#
#
# Elastic Compliance Matrix: (Units=1/GPa)
#
#
# Indices 1 2 3 4 5 6 
#
# 1 0.029713 -0.017180 -0.005087 0.000000 -0.003314 0.000000
# 2 -0.017180 0.066246 -0.027344 0.000000 -0.000125 0.000000
# 3 -0.005087 -0.027344 0.024218 0.000000 0.004786 0.000000
# 4 0.000000 0.000000 0.000000 0.033149 0.000000 0.000915
# 5 -0.003314 -0.000125 0.004786 0.000000 0.039037 0.000000
# 6 0.000000 0.000000 0.000000 0.000915 0.000000 0.033320
#
#
# Mechanical properties :
#
#
# Convention : Reuss Voigt Hill
#
# Bulk Modulus (GPa) = 47.72317 74.44520 61.08418
# Shear Modulus (GPa) = 15.06522 23.02932 19.04727
#
# Velocity S-wave (km/s) = 2.91948 3.60959 3.28272
# Velocity P-wave (km/s) = 6.19391 7.71302 6.99482
#
# Compressibility (1/GPa) = 0.02095418
#
# Stress axis : x y z
#
# Youngs Moduli (GPa) = 33.65545 15.09523 41.29194
#
# Poissons Ratio (x) = 0.25934 0.21007
# Poissons Ratio (y) = 0.57821 1.12907
# Poissons Ratio (z) = 0.17122 0.41276
#
# Static dielectric constant tensor:
#      x y z
#    x 1.620600 0.000000 0.024110 
#    y 0.000000 1.589580 0.000000 
#    z 0.024110 0.000000 1.606850 
# 
# From -- ./inp_files/238571.got.cif
#   From: 2010.05.17/outbox.cif.g08.bks.cpg/sg12_120_cif.got.tgz:238571.got - 2010.06.03 13:09:07.
