data_PCOD9197946
_publ_section_title
;
Structure prediction by ZEFSAII (Michael W. Deem and Ramdas Pophale) SiO2 
 PCOD9197946
Probable space group: C 2/M
;
_chemical_formula_sum "Si O2"
_cell_formula_units_Z 56
_cell_length_a 33.232415
_cell_length_b 8.586439
_cell_length_c 13.075143
_cell_angle_alpha 90.000000
_cell_angle_beta 124.644778
_cell_angle_gamma 90.000000
_cell_volume 3069.438169
_symmetry_space_group_name_H-M "C 2/M"
_symmetry_group_IT_number 12
_symmetry_cell_setting 'monoclinic'
loop_
_space_group_symop_operation_xyz
x,y,z
-x,y,-z
-x,-y,-z
x,-y,z
1/2+x,1/2+y,z
1/2-x,1/2+y,-z
1/2-x,1/2-y,-z
1/2+x,1/2-y,z
loop_
_atom_site_type_symbol
_atom_site_label
_atom_site_fract_x
_atom_site_fract_y
_atom_site_fract_z
Si Si1 0.120496 0.686989 0.971627
Si Si2 0.352988 0.811070 0.766971
Si Si3 0.934506 0.187466 0.497657
Si Si4 0.773924 0.814021 0.931748
Si Si5 0.358041 0.186246 0.549719
Si Si6 0.953878 0.188162 0.297298
Si Si7 0.744009 0.313209 0.672583
O O1 0.125297 0.500000 0.975992
O O2 0.074813 0.739433 0.838469
O O3 0.119423 0.737253 0.089504
O O4 0.169751 0.760384 0.995867
O O5 0.372000 0.757690 0.684368
O O6 0.295986 0.765595 0.698236
O O7 0.353892 0.000000 0.767355
O O8 0.893427 0.251013 0.513069
O O9 0.930482 0.236151 0.372899
O O10 0.988944 0.231961 0.614063
O O11 0.932354 0.000000 0.495225
O O12 0.747005 0.742029 0.794222
O O13 0.771026 0.000000 0.924328
O O14 0.750000 0.750000 0.000000
O O15 0.302778 0.239599 0.448285
O O16 0.359935 0.000000 0.550918
O O17 0.951231 0.000000 0.287436
O O18 0.740662 0.500000 0.663995
#
# Coordination Sequence:
#
# PCOD9197946 Si02
#       7
#     8   8   8   8   8   8   8
#     4  10  20  36  58  81 108 143 181 223 275 327
#     4   8  18  36  54  77 110 147 184 223 268 322
#     4   9  20  38  57  79 108 141 180 227 278 329
#     4  11  22  36  53  78 111 145 183 224 266 320
#     4  11  21  34  55  82 111 143 185 229 272 326
#     4   9  19  38  60  79 105 142 182 225 277 333
#     4  10  20  36  55  77 109 148 185 224 271 320
#
# _framework density 18.244381000000001
#
# number of rings (size 3 to 8) (size 9 to 14) (size 15 to 20)
#    0.000    2.286    0.000    4.714    2.000    1.143 
#    0.000   10.000    0.000    4.286    0.000    0.000 
#    0.000    0.000    0.000    0.000    0.000    0.000 
#
# Total GULP energy -156266.701342 kJ/mol
# GULP energy per Si atom -5580.953619 kJ/mol
# Density = 1.820286 g / cm^3
# Si number density = 18.244381 Si / 1000 Ang^3
#
#
#
# Elastic Constant Matrix: (Units=GPa)
#
#
# Indices 1 2 3 4 5 6 
#
# 1 56.6870 17.2385 49.7681 0.0000 -15.3595 0.0000
# 2 17.2385 26.9467 9.3217 0.0000 -0.3374 0.0000
# 3 49.7681 9.3217 115.0229 0.0000 -0.5594 0.0000
# 4 0.0000 0.0000 0.0000 28.8161 0.0000 4.6166
# 5 -15.3595 -0.3374 -0.5594 0.0000 19.1748 0.0000
# 6 0.0000 0.0000 0.0000 4.6166 0.0000 20.3229
#
#
#
# Elastic Compliance Matrix: (Units=1/GPa)
#
#
# Indices 1 2 3 4 5 6 
#
# 1 0.059509 -0.029485 -0.023133 0.000000 0.046475 0.000000
# 2 -0.029485 0.052796 0.008370 0.000000 -0.022445 0.000000
# 3 -0.023133 0.008370 0.017938 0.000000 -0.017859 0.000000
# 4 0.000000 0.000000 0.000000 0.036013 0.000000 -0.008181
# 5 0.046475 -0.022445 -0.017859 0.000000 0.088463 0.000000
# 6 0.000000 0.000000 0.000000 -0.008181 0.000000 0.051064
#
#
# Mechanical properties :
#
#
# Convention : Reuss Voigt Hill
#
# Bulk Modulus (GPa) = 23.95393 39.03479 31.49436
# Shear Modulus (GPa) = 12.24902 21.81797 17.03350
#
# Velocity S-wave (km/s) = 2.59392 3.46189 3.05885
# Velocity P-wave (km/s) = 4.70417 6.11732 5.45668
#
# Compressibility (1/GPa) = 0.04174680
#
# Stress axis : x y z
#
# Youngs Moduli (GPa) = 16.80422 18.94067 55.74798
#
# Poissons Ratio (x) = 0.55847 1.28961
# Poissons Ratio (y) = 0.49548 -0.46660
# Poissons Ratio (z) = 0.38873 -0.15853
#
# Static dielectric constant tensor:
#      x y z
#    x 1.630450 0.000000 -0.029410 
#    y 0.000000 1.617730 0.000000 
#    z -0.029410 0.000000 1.643350 
# 
# From -- ./inp_files/187169.got.cif
#   From: 2010.05.17/outbox.cif.g08.bks.cpg/sg12_94_cif.got.tgz:187169.got - 2010.06.03 13:09:07.
