data_PCOD9197344
_publ_section_title
;
Structure prediction by ZEFSAII (Michael W. Deem and Ramdas Pophale) SiO2 
 PCOD9197344
Probable space group: C 2/M
;
_chemical_formula_sum "Si O2"
_cell_formula_units_Z 42
_cell_length_a 9.946247
_cell_length_b 14.223477
_cell_length_c 12.175174
_cell_angle_alpha 90.000000
_cell_angle_beta 76.531332
_cell_angle_gamma 90.000000
_cell_volume 1675.053395
_symmetry_space_group_name_H-M "C 2/M"
_symmetry_group_IT_number 12
_symmetry_cell_setting 'monoclinic'
loop_
_space_group_symop_operation_xyz
x,y,z
-x,y,-z
-x,-y,-z
x,-y,z
1/2+x,1/2+y,z
1/2-x,1/2+y,-z
1/2-x,1/2-y,-z
1/2+x,1/2-y,z
loop_
_atom_site_type_symbol
_atom_site_label
_atom_site_fract_x
_atom_site_fract_y
_atom_site_fract_z
Si Si1 0.063850 0.611170 0.317577
Si Si2 0.493368 0.727850 0.822930
Si Si3 0.500000 0.000000 0.000000
Si Si4 0.095019 0.108582 0.350925
Si Si5 0.784695 0.345014 0.120515
Si Si6 0.779970 0.612928 0.505381
O O1 0.075851 0.500000 0.293349
O O2 0.060790 0.671154 0.209153
O O3 0.183218 0.643814 0.378836
O O4 0.919786 0.627919 0.408908
O O5 0.507269 0.668629 0.706308
O O6 0.628502 0.752190 0.864111
O O7 0.363048 0.678705 0.905793
O O8 0.618492 0.917955 0.957479
O O9 0.148856 0.145206 0.458779
O O10 0.050965 0.000000 0.367574
O O11 0.232758 0.112181 0.247658
O O12 0.765977 0.500000 0.514305
#
# Coordination Sequence:
#
# PCOD9197344 Si02
#       6
#     8   8   2   8   8   8
#     4   9  15  25  48  84 120 151 192 242 275 314
#     4  10  20  35  59  88 117 148 193 234 287 343
#     4  12  24  44  72  82 104 150 200 232 296 366
#     4   9  17  34  54  79 113 159 194 222 273 341
#     4  10  22  38  61  87 108 145 187 242 288 351
#     4   8  14  25  48  79 114 158 202 233 260 322
#
# _framework density 25.073827999999999
#
# number of rings (size 3 to 8) (size 9 to 14) (size 15 to 20)
#    1.143    1.524    2.857    1.143    1.333    1.524 
#    0.000    0.952    0.000    1.143    0.000    6.667 
#    0.000    0.000    0.000    0.000    0.000    0.000 
#
# Total GULP energy -117035.159133 kJ/mol
# GULP energy per Si atom -5573.102816 kJ/mol
# Density = 2.501676 g / cm^3
# Si number density = 25.073828 Si / 1000 Ang^3
#
#
#
# Elastic Constant Matrix: (Units=GPa)
#
#
# Indices 1 2 3 4 5 6 
#
# 1 122.9607 9.6103 10.7838 0.0000 -15.5082 0.0000
# 2 9.6103 79.7328 13.8072 0.0000 3.1847 0.0000
# 3 10.7838 13.8072 76.0027 0.0000 2.5180 0.0000
# 4 0.0000 0.0000 0.0000 45.1490 0.0000 -35.0626
# 5 -15.5082 3.1847 2.5180 0.0000 42.9171 0.0000
# 6 0.0000 0.0000 0.0000 -35.0626 0.0000 31.5897
#
#
#
# Elastic Compliance Matrix: (Units=1/GPa)
#
#
# Indices 1 2 3 4 5 6 
#
# 1 0.008727 -0.000981 -0.001169 0.000000 0.003295 0.000000
# 2 -0.000981 0.013089 -0.002199 0.000000 -0.001197 0.000000
# 3 -0.001169 -0.002199 0.013758 0.000000 -0.001067 0.000000
# 4 0.000000 0.000000 0.000000 0.160470 0.000000 0.178112
# 5 0.003295 -0.001197 -0.001067 0.000000 0.024643 0.000000
# 6 0.000000 0.000000 0.000000 0.178112 0.000000 0.229349
#
#
# Mechanical properties :
#
#
# Convention : Reuss Voigt Hill
#
# Bulk Modulus (GPa) = 37.20817 38.56653 37.88735
# Shear Modulus (GPa) = 10.69076 40.23082 25.46079
#
# Velocity S-wave (km/s) = 2.06712 4.00996 3.19004
# Velocity P-wave (km/s) = 4.53530 6.07077 5.35832
#
# Compressibility (1/GPa) = 0.02687582
#
# Stress axis : x y z
#
# Youngs Moduli (GPa) = 114.58040 76.40159 72.68421
#
# Poissons Ratio (x) = 0.07496 0.08499
# Poissons Ratio (y) = 0.11241 0.15983
# Poissons Ratio (z) = 0.13397 0.16800
#
# Static dielectric constant tensor:
#      x y z
#    x 2.000060 0.000000 -0.004440 
#    y 0.000000 1.943190 0.000000 
#    z -0.004440 0.000000 2.058140 
# 
# From -- ./inp_files/154719.got.cif
#   From: 2010.05.17/outbox.cif.g08.bks.cpg/sg12_78_cif.got.tgz:154719.got - 2010.06.03 13:09:07.
