data_PCOD9197442
_publ_section_title
;
Structure prediction by ZEFSAII (Michael W. Deem and Ramdas Pophale) SiO2 
 PCOD9197442
Probable space group: C 2/M
;
_chemical_formula_sum "Si O2"
_cell_formula_units_Z 48
_cell_length_a 24.569514
_cell_length_b 19.568168
_cell_length_c 14.651233
_cell_angle_alpha 90.000000
_cell_angle_beta 161.073589
_cell_angle_gamma 90.000000
_cell_volume 2284.754203
_symmetry_space_group_name_H-M "C 2/M"
_symmetry_group_IT_number 12
_symmetry_cell_setting 'monoclinic'
loop_
_space_group_symop_operation_xyz
x,y,z
-x,y,-z
-x,-y,-z
x,-y,z
1/2+x,1/2+y,z
1/2-x,1/2+y,-z
1/2-x,1/2-y,-z
1/2+x,1/2-y,z
loop_
_atom_site_type_symbol
_atom_site_label
_atom_site_fract_x
_atom_site_fract_y
_atom_site_fract_z
Si Si1 0.107326 0.925068 0.747728
Si Si2 0.917386 0.381567 0.965706
Si Si3 0.553004 0.220585 0.688541
Si Si4 0.053995 0.229439 0.183626
Si Si5 0.455902 0.346314 0.649899
Si Si6 0.479744 0.075125 0.266077
O O1 0.000000 0.886638 0.500000
O O2 0.104687 0.888692 0.839997
O O3 0.030920 0.000000 0.639942
O O4 0.286658 0.931505 0.988949
O O5 0.716825 0.387152 0.638833
O O6 0.986893 0.415968 0.167718
O O7 0.000000 0.402542 0.000000
O O8 0.955453 0.300687 0.037814
O O9 0.500000 0.216525 0.500000
O O10 0.451511 0.277232 0.584092
O O11 0.493967 0.148709 0.642613
O O12 0.750000 0.250000 0.000000
O O13 0.250000 0.250000 0.500000
O O14 0.018826 0.175942 0.207015
O O15 0.000000 0.201409 0.000000
O O16 0.558414 0.000000 0.415489
#
# Coordination Sequence:
#
# PCOD9197442 Si02
#       6
#     8   8   8   8   8   8
#     4  10  20  35  59  91 125 164 209 257 320 383
#     4  11  22  38  60  94 124 164 216 261 316 369
#     4  12  25  40  63  99 131 162 212 263 317 382
#     4  11  22  38  59  89 126 162 205 261 316 372
#     4  12  21  36  66  92 127 160 210 266 318 368
#     4  11  23  40  60  89 132 170 205 260 324 383
#
# _framework density 21.008825000000002
#
# number of rings (size 3 to 8) (size 9 to 14) (size 15 to 20)
#    0.000    0.833    8.333    1.500    0.000    0.667 
#    0.000    0.000    0.000    0.500    0.000    0.000 
#    0.000    0.667    0.000    0.000    0.000    0.000 
#
# Total GULP energy -133748.674298 kJ/mol
# GULP energy per Si atom -5572.861429 kJ/mol
# Density = 2.096101 g / cm^3
# Si number density = 21.008825 Si / 1000 Ang^3
#
#
#
# Elastic Constant Matrix: (Units=GPa)
#
#
# Indices 1 2 3 4 5 6 
#
# 1 162.3979 46.6634 27.5015 0.0000 -28.6130 0.0000
# 2 46.6634 91.6182 -6.0054 0.0000 -13.3462 0.0000
# 3 27.5015 -6.0054 38.5144 0.0000 -4.8361 0.0000
# 4 0.0000 0.0000 0.0000 -72.3860 0.0000 -173.1692
# 5 -28.6130 -13.3462 -4.8361 0.0000 35.3134 0.0000
# 6 0.0000 0.0000 0.0000 -173.1692 0.0000 -303.0880
#
#
#
# Elastic Compliance Matrix: (Units=1/GPa)
#
#
# Indices 1 2 3 4 5 6 
#
# 1 0.009524 -0.004566 -0.006879 0.000000 0.005049 0.000000
# 2 -0.004566 0.013960 0.005734 0.000000 0.002361 0.000000
# 3 -0.006879 0.005734 0.031891 0.000000 0.000961 0.000000
# 4 0.000000 0.000000 0.000000 0.037659 0.000000 -0.021516
# 5 0.005049 0.002361 0.000961 0.000000 0.033433 0.000000
# 6 0.000000 0.000000 0.000000 -0.021516 0.000000 0.008994
#
#
# Mechanical properties :
#
#
# Convention : Reuss Voigt Hill
#
# Bulk Modulus (GPa) = 22.75146 47.64994 35.20070
# Shear Modulus (GPa) = 30.95289 -53.07406 -11.06058
#
# Velocity S-wave (km/s) = 3.84256 -5.03166 -2.29699
# Velocity P-wave (km/s) = 5.52630 3.32064 3.12357
#
# Compressibility (1/GPa) = 0.04395323
#
# Stress axis : x y z
#
# Youngs Moduli (GPa) = 104.99343 71.63077 31.35675
#
# Poissons Ratio (x) = 0.32709 0.21570
# Poissons Ratio (y) = 0.47944 -0.17980
# Poissons Ratio (z) = 0.72225 -0.41073
#
# Static dielectric constant tensor:
#      x y z
#    x 1.765470 0.000000 0.018040 
#    y 0.000000 1.910360 0.000000 
#    z 0.018040 0.000000 1.763380 
# 
# From -- ./inp_files/241880.got.cif
#   From: 2010.05.17/outbox.cif.g08.bks.cpg/sg12_121_cif.got.tgz:241880.got - 2010.06.03 13:09:07.
