data_PCOD9197421
_publ_section_title
;
Structure prediction by ZEFSAII (Michael W. Deem and Ramdas Pophale) SiO2 
 PCOD9197421
Probable space group: C 2/M
;
_chemical_formula_sum "Si O2"
_cell_formula_units_Z 56
_cell_length_a 27.538422
_cell_length_b 8.523470
_cell_length_c 12.983352
_cell_angle_alpha 90.000000
_cell_angle_beta 67.949152
_cell_angle_gamma 90.000000
_cell_volume 2824.569470
_symmetry_space_group_name_H-M "C 2/M"
_symmetry_group_IT_number 12
_symmetry_cell_setting 'monoclinic'
loop_
_space_group_symop_operation_xyz
x,y,z
-x,y,-z
-x,-y,-z
x,-y,z
1/2+x,1/2+y,z
1/2-x,1/2+y,-z
1/2-x,1/2-y,-z
1/2+x,1/2-y,z
loop_
_atom_site_type_symbol
_atom_site_label
_atom_site_fract_x
_atom_site_fract_y
_atom_site_fract_z
Si Si1 0.960356 0.689311 0.621702
Si Si2 0.496151 0.189347 0.821638
Si Si3 0.197165 0.189407 0.092764
Si Si4 0.154139 0.811196 0.339730
Si Si5 0.615176 0.188317 0.773985
Si Si6 0.191147 0.811269 0.534747
Si Si7 0.391213 0.687745 0.998637
O O1 0.956291 0.500000 0.624394
O O2 0.981770 0.736706 0.716404
O O3 0.904136 0.760503 0.643047
O O4 0.000000 0.736260 0.500000
O O5 0.555054 0.240333 0.801033
O O6 0.450096 0.253536 0.930416
O O7 0.494995 0.000000 0.829123
O O8 0.190406 0.243352 0.216086
O O9 0.147022 0.239180 0.064075
O O10 0.197856 0.000000 0.091755
O O11 0.250000 0.250000 0.000000
O O12 0.169919 0.754936 0.440371
O O13 0.156551 0.000000 0.339894
O O14 0.653831 0.252188 0.655935
O O15 0.616564 0.000000 0.769944
O O16 0.629157 0.246145 0.876978
O O17 0.250000 0.750000 0.500000
O O18 0.191307 0.000000 0.535554
O O19 0.391242 0.500000 0.001979
#
# Coordination Sequence:
#
# PCOD9197421 Si02
#       7
#     8   8   8   8   8   8   8
#     4  10  20  35  59  90 123 160 204 249 296 357
#     4  10  21  38  60  90 125 164 207 251 306 364
#     4  10  23  41  62  91 123 158 202 252 307 363
#     4  10  22  42  63  89 123 158 200 250 304 362
#     4  11  24  42  64  90 126 166 208 255 304 365
#     4  11  25  44  66  92 123 162 209 256 308 366
#     4  11  23  40  63  93 127 161 204 255 308 369
#
# _framework density 19.826031
#
# number of rings (size 3 to 8) (size 9 to 14) (size 15 to 20)
#    0.000    1.571    1.429    2.571    2.000    7.143 
#    0.000    0.000    0.000    0.000    0.000    0.000 
#    0.000    0.000    0.000    0.000    0.000    0.000 
#
# Total GULP energy -156527.655386 kJ/mol
# GULP energy per Si atom -5590.273407 kJ/mol
# Density = 1.978091 g / cm^3
# Si number density = 19.826031 Si / 1000 Ang^3
#
#
#
# Elastic Constant Matrix: (Units=GPa)
#
#
# Indices 1 2 3 4 5 6 
#
# 1 63.6013 15.0835 41.1633 0.0000 -7.3848 0.0000
# 2 15.0835 19.5063 27.4423 0.0000 1.3279 0.0000
# 3 41.1633 27.4423 181.7306 0.0000 -6.1750 0.0000
# 4 0.0000 0.0000 0.0000 32.6585 0.0000 -6.5054
# 5 -7.3848 1.3279 -6.1750 0.0000 41.4449 0.0000
# 6 0.0000 0.0000 0.0000 -6.5054 0.0000 30.7597
#
#
#
# Elastic Compliance Matrix: (Units=1/GPa)
#
#
# Indices 1 2 3 4 5 6 
#
# 1 0.020895 -0.012609 -0.002702 0.000000 0.003724 0.000000
# 2 -0.012609 0.073233 -0.008401 0.000000 -0.005845 0.000000
# 3 -0.002702 -0.008401 0.007414 0.000000 0.000892 0.000000
# 4 0.000000 0.000000 0.000000 0.031967 0.000000 0.006761
# 5 0.003724 -0.005845 0.000892 0.000000 0.025112 0.000000
# 6 0.000000 0.000000 0.000000 0.006761 0.000000 0.033940
#
#
# Mechanical properties :
#
#
# Convention : Reuss Voigt Hill
#
# Bulk Modulus (GPa) = 18.47874 48.02404 33.25139
# Shear Modulus (GPa) = 19.37811 33.04921 26.21366
#
# Velocity S-wave (km/s) = 3.12974 4.08727 3.64013
# Velocity P-wave (km/s) = 4.73298 6.82273 5.87157
#
# Compressibility (1/GPa) = 0.05411625
#
# Stress axis : x y z
#
# Youngs Moduli (GPa) = 47.85922 13.65511 134.88631
#
# Poissons Ratio (x) = 0.17218 0.36449
# Poissons Ratio (y) = 0.60346 1.13319
# Poissons Ratio (z) = 0.12932 0.11472
#
# Static dielectric constant tensor:
#      x y z
#    x 1.669520 0.000000 0.022010 
#    y 0.000000 1.677370 0.000000 
#    z 0.022010 0.000000 1.691600 
# 
# From -- ./inp_files/180694.got.cif
#   From: 2010.05.17/outbox.cif.g08.bks.cpg/sg12_91_cif.got.tgz:180694.got - 2010.06.03 13:09:07.
