data_PCOD9197939
_publ_section_title
;
Structure prediction by ZEFSAII (Michael W. Deem and Ramdas Pophale) SiO2 
 PCOD9197939
Probable space group: C 2/M
;
_chemical_formula_sum "Si O2"
_cell_formula_units_Z 56
_cell_length_a 15.813977
_cell_length_b 7.645089
_cell_length_c 24.978575
_cell_angle_alpha 90.000000
_cell_angle_beta 118.206058
_cell_angle_gamma 90.000000
_cell_volume 2661.289704
_symmetry_space_group_name_H-M "C 2/M"
_symmetry_group_IT_number 12
_symmetry_cell_setting 'monoclinic'
loop_
_space_group_symop_operation_xyz
x,y,z
-x,y,-z
-x,-y,-z
x,-y,z
1/2+x,1/2+y,z
1/2-x,1/2+y,-z
1/2-x,1/2-y,-z
1/2+x,1/2-y,z
loop_
_atom_site_type_symbol
_atom_site_label
_atom_site_fract_x
_atom_site_fract_y
_atom_site_fract_z
Si Si1 0.925772 0.796878 0.697032
Si Si2 0.399681 0.709797 0.308093
Si Si3 0.178641 0.789006 0.229678
Si Si4 0.079079 0.213711 0.566138
Si Si5 0.068042 0.786259 0.090992
Si Si6 0.773757 0.292163 0.568317
Si Si7 0.852039 0.209755 0.000268
O O1 0.867106 0.719564 0.728746
O O2 0.866290 0.788567 0.623936
O O3 0.028851 0.718103 0.715171
O O4 0.939348 0.000000 0.714998
O O5 0.412228 0.500000 0.313972
O O6 0.289944 0.743705 0.262945
O O7 0.429675 0.776234 0.375853
O O8 0.121290 0.727061 0.160514
O O9 0.173730 0.000000 0.227934
O O10 0.182777 0.266420 0.575712
O O11 0.000000 0.273564 0.500000
O O12 0.075654 0.000000 0.565237
O O13 0.955100 0.732505 0.056825
O O14 0.067070 0.000000 0.089759
O O15 0.128940 0.732439 0.056109
O O16 0.783566 0.500000 0.575944
O O17 0.750000 0.250000 0.500000
O O18 0.854101 0.000000 0.000310
O O19 0.750000 0.250000 0.000000
#
# Coordination Sequence:
#
# PCOD9197939 Si02
#       7
#     8   8   8   8   8   8   8
#     4  10  21  36  55  77 105 139 177 221 269 324
#     4  10  20  36  55  77 106 141 178 219 273 328
#     4  10  20  36  56  79 110 145 184 225 266 320
#     4   9  17  31  51  72  97 131 168 208 263 325
#     4   8  17  34  54  77 111 154 183 212 271 333
#     4  11  21  34  54  77 104 137 174 220 273 330
#     4   9  17  33  57  82 111 146 187 226 265 316
#
# _framework density 21.042428999999998
#
# number of rings (size 3 to 8) (size 9 to 14) (size 15 to 20)
#    0.000    2.429    1.429    2.143    0.000    4.000 
#    0.000    4.286    0.000    2.143    0.000    0.000 
#    0.000    0.000    0.000    0.000    0.000    0.000 
#
# Total GULP energy -156150.885163 kJ/mol
# GULP energy per Si atom -5576.817327 kJ/mol
# Density = 2.099454 g / cm^3
# Si number density = 21.042429 Si / 1000 Ang^3
#
#
#
# Elastic Constant Matrix: (Units=GPa)
#
#
# Indices 1 2 3 4 5 6 
#
# 1 208.3955 4.5382 78.9456 0.0000 10.1434 0.0000
# 2 4.5382 39.1377 -9.0572 0.0000 -1.2162 0.0000
# 3 78.9456 -9.0572 129.7147 0.0000 11.2517 0.0000
# 4 0.0000 0.0000 0.0000 8.2215 0.0000 2.0417
# 5 10.1434 -1.2162 11.2517 0.0000 20.3897 0.0000
# 6 0.0000 0.0000 0.0000 2.0417 0.0000 16.0163
#
#
#
# Elastic Compliance Matrix: (Units=1/GPa)
#
#
# Indices 1 2 3 4 5 6 
#
# 1 0.006364 -0.001674 -0.003893 0.000000 -0.001117 0.000000
# 2 -0.001674 0.026417 0.002788 0.000000 0.000870 0.000000
# 3 -0.003893 0.002788 0.010598 0.000000 -0.003745 0.000000
# 4 0.000000 0.000000 0.000000 0.125609 0.000000 -0.016012
# 5 -0.001117 0.000870 -0.003745 0.000000 0.051719 0.000000
# 6 0.000000 0.000000 0.000000 -0.016012 0.000000 0.064478
#
#
# Mechanical properties :
#
#
# Convention : Reuss Voigt Hill
#
# Bulk Modulus (GPa) = 26.44031 58.45568 42.44800
# Shear Modulus (GPa) = 16.48258 29.11359 22.79808
#
# Velocity S-wave (km/s) = 2.80179 3.72367 3.29513
# Velocity P-wave (km/s) = 4.80200 6.80645 5.89012
#
# Compressibility (1/GPa) = 0.03782104
#
# Stress axis : x y z
#
# Youngs Moduli (GPa) = 157.12681 37.85433 94.35520
#
# Poissons Ratio (x) = 0.06336 0.36735
# Poissons Ratio (y) = 0.26298 -0.26303
# Poissons Ratio (z) = 0.61174 -0.10553
#
# Static dielectric constant tensor:
#      x y z
#    x 1.780130 0.000000 -0.016600 
#    y 0.000000 1.784730 0.000000 
#    z -0.016600 0.000000 1.759660 
# 
# From -- ./inp_files/339052.got.cif
#   From: 2010.05.17/outbox.cif.g08.bks.cpg/sg12_170_cif.got.tgz:339052.got - 2010.06.03 13:09:07.
