data_PCOD9197110
_publ_section_title
;
Structure prediction by ZEFSAII (Michael W. Deem and Ramdas Pophale) SiO2 
 PCOD9197110
Probable space group: C 2/M
;
_chemical_formula_sum "Si O2"
_cell_formula_units_Z 56
_cell_length_a 7.753715
_cell_length_b 18.655137
_cell_length_c 25.148604
_cell_angle_alpha 90.000000
_cell_angle_beta 134.794425
_cell_angle_gamma 90.000000
_cell_volume 2581.426803
_symmetry_space_group_name_H-M "C 2/M"
_symmetry_group_IT_number 12
_symmetry_cell_setting 'monoclinic'
loop_
_space_group_symop_operation_xyz
x,y,z
-x,y,-z
-x,-y,-z
x,-y,z
1/2+x,1/2+y,z
1/2-x,1/2+y,-z
1/2-x,1/2-y,-z
1/2+x,1/2-y,z
loop_
_atom_site_type_symbol
_atom_site_label
_atom_site_fract_x
_atom_site_fract_y
_atom_site_fract_z
Si Si1 0.729145 0.085045 0.440925
Si Si2 0.370232 0.800148 0.217331
Si Si3 0.466403 0.691525 0.051413
Si Si4 0.244372 0.415755 0.320381
Si Si5 0.259179 0.583225 0.618973
Si Si6 0.008353 0.148774 0.231394
Si Si7 0.744410 0.580696 0.913978
O O1 0.663092 0.088418 0.364152
O O2 0.511598 0.114891 0.430599
O O3 0.000000 0.116892 0.500000
O O4 0.752404 0.000000 0.459738
O O5 0.218258 0.780597 0.130887
O O6 0.573577 0.860447 0.251762
O O7 0.199240 0.829952 0.226820
O O8 0.469513 0.722481 0.254910
O O9 0.405768 0.628481 0.078123
O O10 0.500000 0.663289 0.000000
O O11 0.250000 0.750000 0.000000
O O12 0.223571 0.500000 0.299642
O O13 0.527711 0.393349 0.375023
O O14 0.221075 0.500000 0.598073
O O15 0.386202 0.592270 0.704206
O O16 0.778274 0.117004 0.148886
O O17 0.651368 0.500000 0.888572
O O18 0.000000 0.579103 0.000000
#
# Coordination Sequence:
#
# PCOD9197110 Si02
#       7
#     8   8   8   8   8   8   8
#     4   9  18  35  60  89 123 161 199 245 299 355
#     4  11  22  35  58  84 113 157 199 250 302 359
#     4  11  22  38  58  82 117 156 203 252 300 358
#     4  10  21  37  58  91 125 154 202 252 298 364
#     4  10  20  35  58  87 121 160 198 247 301 353
#     4  11  21  36  56  82 114 151 199 246 299 362
#     4  10  22  38  57  81 114 155 195 244 302 357
#
# _framework density 21.693428999999998
#
# number of rings (size 3 to 8) (size 9 to 14) (size 15 to 20)
#    0.000    1.714    1.429    4.286    0.000    4.286 
#    0.000    4.286    0.000    0.857    0.000    0.000 
#    0.000    0.000    0.000    0.000    0.000    0.000 
#
# Total GULP energy -156061.889613 kJ/mol
# GULP energy per Si atom -5573.638915 kJ/mol
# Density = 2.164405 g / cm^3
# Si number density = 21.693429 Si / 1000 Ang^3
#
#
#
# Elastic Constant Matrix: (Units=GPa)
#
#
# Indices 1 2 3 4 5 6 
#
# 1 79.1006 15.8192 -2.5528 0.0001 15.8216 0.0000
# 2 15.8192 82.6052 25.0421 0.0001 8.1632 0.0000
# 3 -2.5528 25.0421 60.0077 0.0005 18.0264 0.0000
# 4 0.0001 0.0001 0.0005 0.9778 0.0002 -1.3308
# 5 15.8216 8.1632 18.0264 0.0002 34.7772 0.0000
# 6 0.0000 0.0000 0.0000 -1.3308 0.0000 26.1335
#
#
#
# Elastic Compliance Matrix: (Units=1/GPa)
#
#
# Indices 1 2 3 4 5 6 
#
# 1 0.015189 -0.003479 0.004653 -0.000002 -0.008505 0.000000
# 2 -0.003479 0.014659 -0.006760 0.000002 0.001646 0.000000
# 3 0.004653 -0.006760 0.023502 -0.000011 -0.012712 -0.000001
# 4 -0.000002 0.000002 -0.000011 1.098850 0.000001 0.055955
# 5 -0.008505 0.001646 -0.012712 0.000001 0.038827 0.000000
# 6 0.000000 0.000000 -0.000001 0.055955 0.000000 0.041114
#
#
# Mechanical properties :
#
#
# Convention : Reuss Voigt Hill
#
# Bulk Modulus (GPa) = 23.70845 33.14784 28.42814
# Shear Modulus (GPa) = 3.97655 24.60471 14.29063
#
# Velocity S-wave (km/s) = 1.35538 3.37144 2.56940
# Velocity P-wave (km/s) = 3.66087 5.51986 4.68352
#
# Compressibility (1/GPa) = 0.04217906
#
# Stress axis : x y z
#
# Youngs Moduli (GPa) = 65.83589 68.21948 42.54940
#
# Poissons Ratio (x) = 0.23733 -0.19798
# Poissons Ratio (y) = 0.22903 0.28762
# Poissons Ratio (z) = -0.30633 0.46114
#
# Static dielectric constant tensor:
#      x y z
#    x 1.835100 0.000000 0.090970 
#    y 0.000000 1.805330 0.000000 
#    z 0.090970 0.000000 2.001930 
# 
# From -- ./inp_files/372803.got.cif
#   From: 2010.05.17/outbox.cif.g08.bks.cpg/sg12_187_cif.got.tgz:372803.got - 2010.06.03 13:09:07.
