data_PCOD9197860
_publ_section_title
;
Structure prediction by ZEFSAII (Michael W. Deem and Ramdas Pophale) SiO2 
 PCOD9197860
Probable space group: C 2/M
;
_chemical_formula_sum "Si O2"
_cell_formula_units_Z 56
_cell_length_a 11.548437
_cell_length_b 14.958879
_cell_length_c 32.090333
_cell_angle_alpha 90.000000
_cell_angle_beta 151.026237
_cell_angle_gamma 90.000000
_cell_volume 2685.398496
_symmetry_space_group_name_H-M "C 2/M"
_symmetry_group_IT_number 12
_symmetry_cell_setting 'monoclinic'
loop_
_space_group_symop_operation_xyz
x,y,z
-x,y,-z
-x,-y,-z
x,-y,z
1/2+x,1/2+y,z
1/2-x,1/2+y,-z
1/2-x,1/2-y,-z
1/2+x,1/2-y,z
loop_
_atom_site_type_symbol
_atom_site_label
_atom_site_fract_x
_atom_site_fract_y
_atom_site_fract_z
Si Si1 0.690049 0.725339 0.695366
Si Si2 0.512091 0.601274 0.433296
Si Si3 0.402277 0.102150 0.628019
Si Si4 0.878182 0.841817 0.026581
Si Si5 0.825445 0.773275 0.167573
Si Si6 0.287184 0.594012 0.086705
Si Si7 0.920436 0.394628 0.840339
O O1 0.499777 0.672642 0.607334
O O2 0.584161 0.815063 0.682781
O O3 0.806705 0.657593 0.765652
O O4 0.912042 0.749046 0.734830
O O5 0.505856 0.500000 0.414268
O O6 0.740762 0.608661 0.535375
O O7 0.282431 0.610151 0.391652
O O8 0.503203 0.000000 0.661515
O O9 0.851474 0.809957 0.894963
O O10 0.707027 0.881559 0.937251
O O11 0.750000 0.750000 0.000000
O O12 0.862045 0.901786 0.062536
O O13 0.871830 0.820206 0.137876
O O14 0.699193 0.846369 0.157140
O O15 0.367999 0.500000 0.131011
O O16 0.000000 0.597291 0.000000
O O17 0.870658 0.500000 0.823440
#
# Coordination Sequence:
#
# PCOD9197860 Si02
#       7
#     8   8   8   8   8   8   8
#     4  12  23  36  58  90 120 151 186 233 290 350
#     4   9  19  40  65  87 116 152 188 228 279 344
#     4   9  20  40  65  89 114 148 191 234 277 337
#     4  10  20  36  54  75 105 147 196 238 281 329
#     4  11  23  37  56  79 114 152 192 244 288 331
#     4  11  20  34  58  78  97 141 200 245 281 324
#     4  11  23  38  55  80 116 155 193 240 293 341
#
# _framework density 20.853517
#
# number of rings (size 3 to 8) (size 9 to 14) (size 15 to 20)
#    0.000    1.571    2.857    5.143    0.000    1.143 
#    0.000    5.000    0.000    0.000    0.000    9.000 
#    0.000    0.000    0.000    0.000    0.000    0.000 
#
# Total GULP energy -156274.721542 kJ/mol
# GULP energy per Si atom -5581.240055 kJ/mol
# Density = 2.080605 g / cm^3
# Si number density = 20.853517 Si / 1000 Ang^3
#
#
#
# Elastic Constant Matrix: (Units=GPa)
#
#
# Indices 1 2 3 4 5 6 
#
# 1 48.1016 36.1286 6.0460 0.0000 6.0679 -0.0001
# 2 36.1286 135.7502 34.4184 0.0001 -0.4725 0.0000
# 3 6.0460 34.4184 37.7060 0.0006 3.9555 -0.0002
# 4 0.0000 0.0001 0.0006 33.2442 0.0001 -14.3046
# 5 6.0679 -0.4725 3.9555 0.0001 30.9229 0.0000
# 6 -0.0001 0.0000 -0.0002 -14.3046 0.0000 53.2051
#
#
#
# Elastic Compliance Matrix: (Units=1/GPa)
#
#
# Indices 1 2 3 4 5 6 
#
# 1 0.027246 -0.008227 0.003765 0.000000 -0.005954 0.000000
# 2 -0.008227 0.012119 -0.010067 0.000000 0.003087 0.000000
# 3 0.003765 -0.010067 0.035679 -0.000001 -0.005456 0.000000
# 4 0.000000 0.000000 -0.000001 0.034016 0.000000 0.009145
# 5 -0.005954 0.003087 -0.005456 0.000000 0.034252 0.000000
# 6 0.000000 0.000000 0.000000 0.009145 0.000000 0.021254
#
#
# Mechanical properties :
#
#
# Convention : Reuss Voigt Hill
#
# Bulk Modulus (GPa) = 21.74533 41.63819 31.69176
# Shear Modulus (GPa) = 23.92894 33.13876 28.53385
#
# Velocity S-wave (km/s) = 3.39112 3.99070 3.70307
# Velocity P-wave (km/s) = 5.07772 6.42220 5.78912
#
# Compressibility (1/GPa) = 0.04598688
#
# Stress axis : x y z
#
# Youngs Moduli (GPa) = 36.70260 82.51434 28.02759
#
# Poissons Ratio (x) = 0.67881 -0.10553
# Poissons Ratio (y) = 0.30194 0.28216
# Poissons Ratio (z) = -0.13819 0.83069
#
# Static dielectric constant tensor:
#      x y z
#    x 1.766760 0.000000 -0.006360 
#    y 0.000000 1.867770 0.000000 
#    z -0.006360 0.000000 1.812960 
# 
# From -- ./inp_files/373992.got.cif
#   From: 2010.05.17/outbox.cif.g08.bks.cpg/sg12_187_cif.got.tgz:373992.got - 2010.06.03 13:09:07.
