data_PCOD9197280
_publ_section_title
;
Structure prediction by ZEFSAII (Michael W. Deem and Ramdas Pophale) SiO2 
 PCOD9197280
Probable space group: C 2/M
;
_chemical_formula_sum "Si O2"
_cell_formula_units_Z 58
_cell_length_a 23.418542
_cell_length_b 7.756377
_cell_length_c 19.248075
_cell_angle_alpha 90.000000
_cell_angle_beta 128.684940
_cell_angle_gamma 90.000000
_cell_volume 2729.176835
_symmetry_space_group_name_H-M "C 2/M"
_symmetry_group_IT_number 12
_symmetry_cell_setting 'monoclinic'
loop_
_space_group_symop_operation_xyz
x,y,z
-x,y,-z
-x,-y,-z
x,-y,z
1/2+x,1/2+y,z
1/2-x,1/2+y,-z
1/2-x,1/2-y,-z
1/2+x,1/2-y,z
loop_
_atom_site_type_symbol
_atom_site_label
_atom_site_fract_x
_atom_site_fract_y
_atom_site_fract_z
Si Si1 0.000257 0.795340 0.577261
Si Si2 0.427911 0.198150 0.015423
Si Si3 0.653654 0.791236 0.759102
Si Si4 0.000000 0.000000 0.000000
Si Si5 0.809825 0.797224 0.814389
Si Si6 0.858645 0.209040 0.550968
Si Si7 0.287253 0.796610 0.639614
Si Si8 0.166396 0.705671 0.923402
O O1 0.081373 0.769253 0.666347
O O2 0.000000 0.719343 0.500000
O O3 0.935529 0.729300 0.577838
O O4 0.985778 0.000000 0.560808
O O5 0.487016 0.345243 0.047500
O O6 0.371511 0.204848 0.907179
O O7 0.454133 0.000000 0.042936
O O8 0.382619 0.255420 0.048830
O O9 0.729943 0.739815 0.781114
O O10 0.648051 0.725179 0.833574
O O11 0.654407 0.000000 0.759553
O O12 0.810533 0.777997 0.731727
O O13 0.821339 0.000000 0.839766
O O14 0.791296 0.267932 0.450045
O O15 0.842284 0.266290 0.617216
O O16 0.856690 0.000000 0.550384
O O17 0.279880 0.000000 0.645419
O O18 0.159815 0.500000 0.914764
O O19 0.250000 0.750000 0.000000
#
# Coordination Sequence:
#
# PCOD9197280 Si02
#       8
#     8   8   8   2   8   8   8   8
#     4  10  21  38  58  85 122 161 201 251 313 382
#     4  11  24  44  69  97 130 175 221 266 328 395
#     4  10  22  38  60  92 126 159 204 261 323 387
#     4  12  26  48  68  94 136 176 214 270 320 394
#     4  11  21  38  62  91 123 159 207 262 318 381
#     4   9  19  37  56  81 117 160 205 256 315 379
#     4  10  20  35  59  85 115 156 209 262 312 373
#     4  10  21  39  66  95 128 164 212 274 330 391
#
# _framework density 21.251829000000001
#
# number of rings (size 3 to 8) (size 9 to 14) (size 15 to 20)
#    0.000    1.793    2.069    1.862    0.966    4.138 
#    2.483    0.000    0.000    0.000    0.000    0.000 
#    0.000    0.000    0.000    0.000    0.000    0.000 
#
# Total GULP energy -161698.639903 kJ/mol
# GULP energy per Si atom -5575.815169 kJ/mol
# Density = 2.120346 g / cm^3
# Si number density = 21.251829 Si / 1000 Ang^3
#
#
#
# Elastic Constant Matrix: (Units=GPa)
#
#
# Indices 1 2 3 4 5 6 
#
# 1 94.4622 17.0937 13.6850 0.0000 -19.8509 0.0000
# 2 17.0937 66.5871 -5.6357 0.0000 -4.4227 0.0000
# 3 13.6850 -5.6357 95.7973 0.0000 -28.6328 0.0000
# 4 0.0000 0.0000 0.0000 -12.4389 0.0000 13.9553
# 5 -19.8509 -4.4227 -28.6328 0.0000 31.4341 0.0000
# 6 0.0000 0.0000 0.0000 13.9553 0.0000 21.4332
#
#
#
# Elastic Compliance Matrix: (Units=1/GPa)
#
#
# Indices 1 2 3 4 5 6 
#
# 1 0.012699 -0.002690 0.000428 0.000000 0.008031 0.000000
# 2 -0.002690 0.016044 0.002054 0.000000 0.002430 0.000000
# 3 0.000428 0.002054 0.014656 0.000000 0.013909 0.000000
# 4 0.000000 0.000000 0.000000 -0.046457 0.000000 0.030248
# 5 0.008031 0.002430 0.013909 0.000000 0.049895 0.000000
# 6 0.000000 0.000000 0.000000 0.030248 0.000000 0.026962
#
#
# Mechanical properties :
#
#
# Convention : Reuss Voigt Hill
#
# Bulk Modulus (GPa) = 23.26548 34.12587 28.69567
# Shear Modulus (GPa) = 56.47069 23.53257 40.00163
#
# Velocity S-wave (km/s) = 5.16041 3.33125 4.34322
# Velocity P-wave (km/s) = 6.81746 5.55779 6.21960
#
# Compressibility (1/GPa) = 0.04298214
#
# Stress axis : x y z
#
# Youngs Moduli (GPa) = 78.74825 62.32939 68.23305
#
# Poissons Ratio (x) = 0.16768 -0.02920
# Poissons Ratio (y) = 0.21186 -0.14018
# Poissons Ratio (z) = -0.03370 -0.12805
#
# Static dielectric constant tensor:
#      x y z
#    x 1.797710 0.000000 0.014300 
#    y 0.000000 1.776570 0.000000 
#    z 0.014300 0.000000 1.690030 
# 
# From -- ./inp_files/282256.got.cif
#   From: 2010.05.17/outbox.cif.g08.bks.cpg/sg12_142_cif.got.tgz:282256.got - 2010.06.03 13:09:07.
