data_PCOD9197807
_publ_section_title
;
Structure prediction by ZEFSAII (Michael W. Deem and Ramdas Pophale) SiO2 
 PCOD9197807
Probable space group: C 2/M
;
_chemical_formula_sum "Si O2"
_cell_formula_units_Z 40
_cell_length_a 28.509533
_cell_length_b 17.530074
_cell_length_c 5.226462
_cell_angle_alpha 90.000000
_cell_angle_beta 67.782617
_cell_angle_gamma 90.000000
_cell_volume 2418.121635
_symmetry_space_group_name_H-M "C 2/M"
_symmetry_group_IT_number 12
_symmetry_cell_setting 'monoclinic'
loop_
_space_group_symop_operation_xyz
x,y,z
-x,y,-z
-x,-y,-z
x,-y,z
1/2+x,1/2+y,z
1/2-x,1/2+y,-z
1/2-x,1/2-y,-z
1/2+x,1/2-y,z
loop_
_atom_site_type_symbol
_atom_site_label
_atom_site_fract_x
_atom_site_fract_y
_atom_site_fract_z
Si Si1 0.214268 0.823785 0.605627
Si Si2 0.251667 0.589414 0.963465
Si Si3 0.140612 0.412595 0.400865
Si Si4 0.386045 0.767699 0.263988
Si Si5 0.440227 0.809577 0.641149
O O1 0.250000 0.750000 0.500000
O O2 0.222741 0.861316 0.864472
O O3 0.157083 0.794459 0.687638
O O4 0.230431 0.881407 0.348181
O O5 0.262875 0.500000 0.972338
O O6 0.191193 0.599048 0.130085
O O7 0.139078 0.500000 0.490244
O O8 0.140973 0.349979 0.626073
O O9 0.090703 0.388233 0.345570
O O10 0.418831 0.757344 0.453890
O O11 0.422054 0.776567 0.947298
O O12 0.500000 0.819303 0.500000
#
# Coordination Sequence:
#
# PCOD9197807 Si02
#       5
#     8   8   8   8   8
#     4  12  20  36  57  78 111 145 187 217 275 322
#     4  11  23  36  54  82 115 148 182 221 263 324
#     4   9  21  34  50  75 110 148 184 216 258 306
#     4  10  21  34  53  77  99 142 182 223 261 316
#     4  10  20  36  51  74 105 139 184 229 265 304
#
# _framework density 16.541765000000002
#
# number of rings (size 3 to 8) (size 9 to 14) (size 15 to 20)
#    1.200    0.400    2.000    4.200    0.000    1.200 
#    0.000    1.000    0.000    0.000    0.000    0.000 
#    0.000   56.000    0.000    0.000    0.000    0.000 
#
# Total GULP energy -111486.259079 kJ/mol
# GULP energy per Si atom -5574.312954 kJ/mol
# Density = 1.650411 g / cm^3
# Si number density = 16.541765 Si / 1000 Ang^3
#
#
#
# Elastic Constant Matrix: (Units=GPa)
#
#
# Indices 1 2 3 4 5 6 
#
# 1 53.1003 5.0233 0.7703 0.0000 -22.6029 0.0000
# 2 5.0233 32.3148 -2.7635 0.0000 -15.5508 0.0000
# 3 0.7703 -2.7635 67.1508 0.0000 -7.7786 0.0000
# 4 0.0000 0.0000 0.0000 19.7344 0.0000 4.7726
# 5 -22.6029 -15.5508 -7.7786 0.0000 31.1394 0.0000
# 6 0.0000 0.0000 0.0000 4.7726 0.0000 12.3237
#
#
#
# Elastic Compliance Matrix: (Units=1/GPa)
#
#
# Indices 1 2 3 4 5 6 
#
# 1 0.029058 0.008231 0.003012 0.000000 0.025955 0.000000
# 2 0.008231 0.044223 0.005124 0.000000 0.029339 0.000000
# 3 0.003012 0.005124 0.016083 0.000000 0.008763 0.000000
# 4 0.000000 0.000000 0.000000 0.055909 0.000000 -0.021652
# 5 0.025955 0.029339 0.008763 0.000000 0.067794 0.000000
# 6 0.000000 0.000000 0.000000 -0.021652 0.000000 0.089530
#
#
# Mechanical properties :
#
#
# Convention : Reuss Voigt Hill
#
# Bulk Modulus (GPa) = 8.19012 17.62512 12.90762
# Shear Modulus (GPa) = 16.09979 22.60856 19.35417
#
# Velocity S-wave (km/s) = 3.12313 3.70098 3.42426
# Velocity P-wave (km/s) = 4.23877 5.37969 4.84294
#
# Compressibility (1/GPa) = 0.12209837
#
# Stress axis : x y z
#
# Youngs Moduli (GPa) = 34.41389 22.61257 62.17645
#
# Poissons Ratio (x) = -0.18612 -0.18728
# Poissons Ratio (y) = -0.28325 -0.31860
# Poissons Ratio (z) = -0.10365 -0.11587
#
# Static dielectric constant tensor:
#      x y z
#    x 1.563310 0.000000 0.020590 
#    y 0.000000 1.541460 0.000000 
#    z 0.020590 0.000000 1.545200 
# 
# From -- ./inp_files/24053.got.cif
#   From: 2010.05.17/outbox.cif.g08.bks.cpg/sg12_13_cif.got.tgz:24053.got - 2010.06.03 13:09:07.
