data_PCOD9197158
_publ_section_title
;
Structure prediction by ZEFSAII (Michael W. Deem and Ramdas Pophale) SiO2 
 PCOD9197158
Probable space group: C 2/M
;
_chemical_formula_sum "Si O2"
_cell_formula_units_Z 48
_cell_length_a 11.734675
_cell_length_b 15.354713
_cell_length_c 19.600340
_cell_angle_alpha 90.000000
_cell_angle_beta 142.726653
_cell_angle_gamma 90.000000
_cell_volume 2138.825533
_symmetry_space_group_name_H-M "C 2/M"
_symmetry_group_IT_number 12
_symmetry_cell_setting 'monoclinic'
loop_
_space_group_symop_operation_xyz
x,y,z
-x,y,-z
-x,-y,-z
x,-y,z
1/2+x,1/2+y,z
1/2-x,1/2+y,-z
1/2-x,1/2-y,-z
1/2+x,1/2-y,z
loop_
_atom_site_type_symbol
_atom_site_label
_atom_site_fract_x
_atom_site_fract_y
_atom_site_fract_z
Si Si1 0.982012 0.769628 0.838309
Si Si2 0.963852 0.907937 0.316315
Si Si3 0.656871 0.895580 0.632500
Si Si4 0.313643 0.151873 0.544581
Si Si5 0.691658 0.097292 0.304990
Si Si6 0.313805 0.209377 0.895305
O O1 0.845085 0.838165 0.732290
O O2 0.928028 0.672041 0.788628
O O3 0.919738 0.774950 0.889866
O O4 0.193754 0.778433 0.908162
O O5 0.884361 0.907064 0.354892
O O6 0.851570 0.831698 0.227997
O O7 0.185540 0.900747 0.429857
O O8 0.912903 0.000000 0.259104
O O9 0.500000 0.869879 0.500000
O O10 0.530817 0.869980 0.638099
O O11 0.689104 0.000000 0.645621
O O12 0.250000 0.250000 0.500000
O O13 0.270780 0.125826 0.600755
O O14 0.607399 0.000000 0.262711
O O15 0.500000 0.152160 0.000000
#
# Coordination Sequence:
#
# PCOD9197158 Si02
#       6
#     8   8   8   8   8   8
#     4  11  23  42  65  92 124 161 207 258 317 381
#     4  10  21  36  57  87 121 158 205 258 309 367
#     4  11  23  37  57  89 129 168 204 249 311 382
#     4  12  21  33  55  87 127 170 209 245 302 380
#     4  10  20  35  58  88 123 162 202 249 308 377
#     4  11  24  42  65  88 116 159 210 266 322 371
#
# _framework density 22.442222999999998
#
# number of rings (size 3 to 8) (size 9 to 14) (size 15 to 20)
#    0.000    1.167    0.000    8.500    0.000    3.667 
#    0.000    0.000    0.000    4.000    0.000    0.000 
#    0.000    0.000    0.000    0.000    0.000    0.000 
#
# Total GULP energy -133630.272813 kJ/mol
# GULP energy per Si atom -5567.928034 kJ/mol
# Density = 2.239114 g / cm^3
# Si number density = 22.442223 Si / 1000 Ang^3
#
#
#
# Elastic Constant Matrix: (Units=GPa)
#
#
# Indices 1 2 3 4 5 6 
#
# 1 169.0284 26.2415 62.9566 0.0000 21.1654 0.0000
# 2 26.2415 101.8029 4.3707 0.0000 5.6310 0.0000
# 3 62.9566 4.3707 58.3748 0.0000 17.6214 0.0000
# 4 0.0000 0.0000 0.0000 -10.8554 0.0000 5.6026
# 5 21.1654 5.6310 17.6214 0.0000 57.9006 0.0000
# 6 0.0000 0.0000 0.0000 5.6026 0.0000 19.9051
#
#
#
# Elastic Compliance Matrix: (Units=1/GPa)
#
#
# Indices 1 2 3 4 5 6 
#
# 1 0.010359 -0.002187 -0.010934 0.000000 -0.000246 0.000000
# 2 -0.002187 0.010351 0.001813 0.000000 -0.000759 0.000000
# 3 -0.010934 0.001813 0.030429 0.000000 -0.005440 0.000000
# 4 0.000000 0.000000 0.000000 -0.080436 0.000000 0.022640
# 5 -0.000246 -0.000759 -0.005440 0.000000 0.019091 0.000000
# 6 0.000000 0.000000 0.000000 0.022640 0.000000 0.043866
#
#
# Mechanical properties :
#
#
# Convention : Reuss Voigt Hill
#
# Bulk Modulus (GPa) = 35.05972 57.37151 46.21561
# Shear Modulus (GPa) = 76.00606 29.09922 52.55264
#
# Velocity S-wave (km/s) = 5.82589 3.60478 4.84435
# Velocity P-wave (km/s) = 7.80453 6.55328 7.20612
#
# Compressibility (1/GPa) = 0.02852276
#
# Stress axis : x y z
#
# Youngs Moduli (GPa) = 96.53369 96.61061 32.86298
#
# Poissons Ratio (x) = 0.21130 0.35932
# Poissons Ratio (y) = 0.21114 -0.05958
# Poissons Ratio (z) = 1.05550 -0.17515
#
# Static dielectric constant tensor:
#      x y z
#    x 0.364510 0.000000 0.115810 
#    y 0.000000 1.851930 0.000000 
#    z 0.115810 0.000000 1.822420 
# 
# From -- ./inp_files/204289.got.cif
#   From: 2010.05.17/outbox.cif.g08.bks.cpg/sg12_103_cif.got.tgz:204289.got - 2010.06.03 13:09:07.
