data_PCOD9197345
_publ_section_title
;
Structure prediction by ZEFSAII (Michael W. Deem and Ramdas Pophale) SiO2 
 PCOD9197345
Probable space group: C 2/M
;
_chemical_formula_sum "Si O2"
_cell_formula_units_Z 56
_cell_length_a 11.732851
_cell_length_b 16.230072
_cell_length_c 14.597666
_cell_angle_alpha 90.000000
_cell_angle_beta 72.439139
_cell_angle_gamma 90.000000
_cell_volume 2650.215585
_symmetry_space_group_name_H-M "C 2/M"
_symmetry_group_IT_number 12
_symmetry_cell_setting 'monoclinic'
loop_
_space_group_symop_operation_xyz
x,y,z
-x,y,-z
-x,-y,-z
x,-y,z
1/2+x,1/2+y,z
1/2-x,1/2+y,-z
1/2-x,1/2-y,-z
1/2+x,1/2-y,z
loop_
_atom_site_type_symbol
_atom_site_label
_atom_site_fract_x
_atom_site_fract_y
_atom_site_fract_z
Si Si1 0.318959 0.399651 0.322869
Si Si2 0.093442 0.900201 0.237630
Si Si3 0.624529 0.101076 0.516158
Si Si4 0.183498 0.598524 0.704500
Si Si5 0.871282 0.803080 0.955685
Si Si6 0.228156 0.904740 0.868889
Si Si7 0.980598 0.634459 0.900945
O O1 0.315224 0.500000 0.325611
O O2 0.457734 0.375829 0.293609
O O3 0.234842 0.371975 0.425768
O O4 0.268524 0.373089 0.235951
O O5 0.187676 0.872217 0.291544
O O6 0.132803 0.861309 0.131609
O O7 0.097398 0.000000 0.229342
O O8 0.500000 0.126451 0.500000
O O9 0.640795 0.130498 0.616439
O O10 0.623344 0.000000 0.517700
O O11 0.193150 0.500000 0.692031
O O12 0.088346 0.614161 0.807619
O O13 0.967941 0.732969 0.912636
O O14 0.750000 0.750000 0.000000
O O15 0.869278 0.857975 0.046957
O O16 0.357303 0.897251 0.885981
O O17 0.194233 0.000000 0.873377
O O18 0.000000 0.602963 0.000000
#
# Coordination Sequence:
#
# PCOD9197345 Si02
#       7
#     8   8   8   8   8   8   8
#     4   9  19  34  56  87 117 149 188 237 290 344
#     4  10  21  38  58  84 117 153 196 239 286 343
#     4   9  17  32  57  90 122 147 183 234 293 349
#     4  10  20  35  59  88 117 150 188 239 290 339
#     4  10  22  37  54  81 113 157 192 233 288 342
#     4  10  20  36  58  84 114 149 193 240 288 338
#     4  11  23  36  55  85 116 153 191 238 293 349
#
# _framework density 21.130355000000002
#
# number of rings (size 3 to 8) (size 9 to 14) (size 15 to 20)
#    0.000    2.143    0.000    3.429    2.000    5.143 
#    0.000    5.000    0.000    0.857    7.429    0.000 
#    0.000    0.000    0.000    0.000    0.000    0.000 
#
# Total GULP energy -156395.402510 kJ/mol
# GULP energy per Si atom -5585.550090 kJ/mol
# Density = 2.108226 g / cm^3
# Si number density = 21.130355 Si / 1000 Ang^3
#
#
#
# Elastic Constant Matrix: (Units=GPa)
#
#
# Indices 1 2 3 4 5 6 
#
# 1 118.0987 -4.4005 81.5514 0.0000 5.9294 0.0000
# 2 -4.4005 23.8091 4.9261 0.0000 2.7081 0.0000
# 3 81.5514 4.9261 179.5940 0.0000 13.4620 0.0000
# 4 0.0000 0.0000 0.0000 -16.2506 0.0000 -5.8197
# 5 5.9294 2.7081 13.4620 0.0000 37.8024 0.0000
# 6 0.0000 0.0000 0.0000 -5.8197 0.0000 19.3267
#
#
#
# Elastic Compliance Matrix: (Units=1/GPa)
#
#
# Indices 1 2 3 4 5 6 
#
# 1 0.012626 0.003556 -0.005819 0.000000 -0.000163 0.000000
# 2 0.003556 0.043509 -0.002602 0.000000 -0.002748 0.000000
# 3 -0.005819 -0.002602 0.008424 0.000000 -0.001901 0.000000
# 4 0.000000 0.000000 0.000000 -0.055546 0.000000 -0.016726
# 5 -0.000163 -0.002748 -0.001901 0.000000 0.027353 0.000000
# 6 0.000000 0.000000 0.000000 -0.016726 0.000000 0.046705
#
#
# Mechanical properties :
#
#
# Convention : Reuss Voigt Hill
#
# Bulk Modulus (GPa) = 18.23828 53.96173 36.10001
# Shear Modulus (GPa) = 45.01366 24.13736 34.57551
#
# Velocity S-wave (km/s) = 4.62051 3.38347 4.04950
# Velocity P-wave (km/s) = 6.09225 6.39193 6.24389
#
# Compressibility (1/GPa) = 0.05482973
#
# Stress axis : x y z
#
# Youngs Moduli (GPa) = 79.20024 22.98376 118.70581
#
# Poissons Ratio (x) = -0.08173 0.69072
# Poissons Ratio (y) = -0.28164 0.30890
# Poissons Ratio (z) = 0.46084 0.05981
#
# Static dielectric constant tensor:
#      x y z
#    x 1.821700 0.000000 0.014870 
#    y 0.000000 1.789170 0.000000 
#    z 0.014870 0.000000 1.735690 
# 
# From -- ./inp_files/206550.got.cif
#   From: 2010.05.17/outbox.cif.g08.bks.cpg/sg12_104_cif.got.tgz:206550.got - 2010.06.03 13:09:07.
