data_PCOD9197506
_publ_section_title
;
Structure prediction by ZEFSAII (Michael W. Deem and Ramdas Pophale) SiO2 
 PCOD9197506
Probable space group: C 2/M
;
_chemical_formula_sum "Si O2"
_cell_formula_units_Z 40
_cell_length_a 15.649132
_cell_length_b 24.038799
_cell_length_c 7.680559
_cell_angle_alpha 90.000000
_cell_angle_beta 142.568674
_cell_angle_gamma 90.000000
_cell_volume 1756.158677
_symmetry_space_group_name_H-M "C 2/M"
_symmetry_group_IT_number 12
_symmetry_cell_setting 'monoclinic'
loop_
_space_group_symop_operation_xyz
x,y,z
-x,y,-z
-x,-y,-z
x,-y,z
1/2+x,1/2+y,z
1/2-x,1/2+y,-z
1/2-x,1/2-y,-z
1/2+x,1/2-y,z
loop_
_atom_site_type_symbol
_atom_site_label
_atom_site_fract_x
_atom_site_fract_y
_atom_site_fract_z
Si Si1 0.338172 0.354815 0.791320
Si Si2 0.720315 0.316324 0.664964
Si Si3 0.343642 0.440253 0.321336
Si Si4 0.542699 0.256731 0.861349
Si Si5 0.644632 0.937542 0.666719
O O1 0.261704 0.319859 0.515572
O O2 0.363413 0.313059 0.993134
O O3 0.236249 0.404142 0.677137
O O4 0.500000 0.371803 0.000000
O O5 0.680743 0.380414 0.633285
O O6 0.854737 0.295463 0.989071
O O7 0.591816 0.272130 0.472261
O O8 0.500000 0.439806 0.500000
O O9 0.325751 0.500000 0.390722
O O10 0.240184 0.441899 0.991230
O O11 0.500000 0.254919 0.000000
O O12 0.500000 0.910953 0.500000
O O13 0.611874 0.000000 0.548420
#
# Coordination Sequence:
#
# PCOD9197506 Si02
#       5
#     8   8   8   8   8
#     4   9  18  35  59  85 112 152 203 240 279 352
#     4  10  20  35  60  87 112 149 197 241 286 346
#     4  10  21  39  60  83 117 158 198 243 295 349
#     4   9  18  34  54  83 116 147 185 239 297 340
#     4  10  22  39  57  83 122 158 190 243 310 351
#
# _framework density 22.776985
#
# number of rings (size 3 to 8) (size 9 to 14) (size 15 to 20)
#    0.000    2.800    0.000    4.800    0.000    4.400 
#    0.000    5.000    0.000    4.800    0.000    0.000 
#    0.000    0.000    0.000    0.000    0.000    0.000 
#
# Total GULP energy -111434.549756 kJ/mol
# GULP energy per Si atom -5571.727488 kJ/mol
# Density = 2.272514 g / cm^3
# Si number density = 22.776985 Si / 1000 Ang^3
#
#
#
# Elastic Constant Matrix: (Units=GPa)
#
#
# Indices 1 2 3 4 5 6 
#
# 1 48.5211 42.7732 14.7294 0.0000 26.0653 0.0000
# 2 42.7732 142.8411 41.8535 0.0000 29.5370 0.0000
# 3 14.7294 41.8535 94.3280 0.0000 20.6958 0.0000
# 4 0.0000 0.0000 0.0000 31.7371 0.0000 -4.4105
# 5 26.0653 29.5370 20.6958 0.0000 25.2921 0.0000
# 6 0.0000 0.0000 0.0000 -4.4105 0.0000 -29.2850
#
#
#
# Elastic Compliance Matrix: (Units=1/GPa)
#
#
# Indices 1 2 3 4 5 6 
#
# 1 0.051922 -0.006890 0.006002 0.000000 -0.050374 0.000000
# 2 -0.006890 0.010501 -0.002987 0.000000 -0.002719 0.000000
# 3 0.006002 -0.002987 0.014115 0.000000 -0.014247 0.000000
# 4 0.000000 0.000000 0.000000 0.030863 0.000000 -0.004648
# 5 -0.050374 -0.002719 -0.014247 0.000000 0.106286 0.000000
# 6 0.000000 0.000000 0.000000 -0.004648 0.000000 -0.033447
#
#
# Mechanical properties :
#
#
# Convention : Reuss Voigt Hill
#
# Bulk Modulus (GPa) = 14.53736 53.82249 34.17992
# Shear Modulus (GPa) = 23.70556 17.97109 20.83832
#
# Velocity S-wave (km/s) = 3.22959 2.81197 3.02799
# Velocity P-wave (km/s) = 4.50593 5.85016 5.22148
#
# Compressibility (1/GPa) = 0.06878829
#
# Stress axis : x y z
#
# Youngs Moduli (GPa) = 19.25954 95.22482 70.84512
#
# Poissons Ratio (x) = 0.65609 -0.42518
# Poissons Ratio (y) = 0.13270 0.21162
# Poissons Ratio (z) = -0.11559 0.28444
#
# Static dielectric constant tensor:
#      x y z
#    x 1.947360 0.000000 -0.005820 
#    y 0.000000 1.956130 0.000000 
#    z -0.005820 0.000000 1.836950 
# 
# From -- ./inp_files/79315.got.cif
#   From: 2010.05.17/outbox.cif.g08.bks.cpg/sg12_40_cif.got.tgz:79315.got - 2010.06.03 13:09:07.
