data_PCOD9197476
_publ_section_title
;
Structure prediction by ZEFSAII (Michael W. Deem and Ramdas Pophale) SiO2 
 PCOD9197476
Probable space group: C 2/M
;
_chemical_formula_sum "Si O2"
_cell_formula_units_Z 58
_cell_length_a 14.418598
_cell_length_b 21.070326
_cell_length_c 26.090907
_cell_angle_alpha 90.000000
_cell_angle_beta 158.523689
_cell_angle_gamma 90.000000
_cell_volume 2902.035917
_symmetry_space_group_name_H-M "C 2/M"
_symmetry_group_IT_number 12
_symmetry_cell_setting 'monoclinic'
loop_
_space_group_symop_operation_xyz
x,y,z
-x,y,-z
-x,-y,-z
x,-y,z
1/2+x,1/2+y,z
1/2-x,1/2+y,-z
1/2-x,1/2-y,-z
1/2+x,1/2-y,z
loop_
_atom_site_type_symbol
_atom_site_label
_atom_site_fract_x
_atom_site_fract_y
_atom_site_fract_z
Si Si1 0.840967 0.074836 0.368926
Si Si2 0.774750 0.383462 0.083102
Si Si3 0.991796 0.796092 0.123302
Si Si4 0.803420 0.800311 0.656099
Si Si5 0.380660 0.193424 0.233743
Si Si6 0.850105 0.427589 0.577937
Si Si7 0.000000 0.000000 0.000000
Si Si8 0.767781 0.568990 0.419616
O O1 0.572797 0.107847 0.224844
O O2 0.000000 0.098475 0.500000
O O3 0.048557 0.080006 0.431232
O O4 0.790084 0.000000 0.351227
O O5 0.758001 0.327188 0.116540
O O6 0.653341 0.444637 0.046530
O O7 0.619190 0.363526 0.952999
O O8 0.107810 0.795749 0.239494
O O9 0.199543 0.781398 0.185932
O O10 0.750000 0.750000 0.000000
O O11 0.500000 0.796365 0.500000
O O12 0.883606 0.868737 0.674338
O O13 0.915346 0.745656 0.677604
O O14 0.503087 0.127285 0.317025
O O15 0.920312 0.500000 0.631446
O O16 0.890725 0.422128 0.538687
O O17 0.635724 0.500000 0.351857
O O18 0.000000 0.565576 0.500000
#
# Coordination Sequence:
#
# PCOD9197476 Si02
#       8
#     8   8   8   8   8   8   2   8
#     4  10  20  35  59  98 143 177 210 272 348 415
#     4  12  24  42  66 100 144 181 230 284 347 418
#     4  12  27  47  64  93 136 186 228 278 351 410
#     4  11  26  45  68  98 129 174 233 283 344 422
#     4  12  24  40  69  98 136 177 228 284 342 418
#     4  10  22  37  66 105 141 176 219 287 363 405
#     4  12  24  44  70 104 138 190 240 288 340 432
#     4   9  19  41  63  90 128 168 216 279 338 403
#
# _framework density 19.985969999999998
#
# number of rings (size 3 to 8) (size 9 to 14) (size 15 to 20)
#    0.000    1.103    4.828    1.655    2.897    3.310 
#    1.241    0.000    0.000    0.000    0.000    3.862 
#    0.000    0.000    0.000    0.000    0.000    0.000 
#
# Total GULP energy -161648.619884 kJ/mol
# GULP energy per Si atom -5574.090341 kJ/mol
# Density = 1.994048 g / cm^3
# Si number density = 19.985970 Si / 1000 Ang^3
#
#
#
# Elastic Constant Matrix: (Units=GPa)
#
#
# Indices 1 2 3 4 5 6 
#
# 1 110.6883 46.6392 49.5037 -0.0026 -5.9478 0.0010
# 2 46.6392 118.9113 39.0192 0.0011 2.4542 -0.0023
# 3 49.5037 39.0192 103.2988 0.0293 -3.5889 -0.0037
# 4 -0.0026 0.0011 0.0293 26.6400 -0.0099 7.9443
# 5 -5.9478 2.4542 -3.5889 -0.0099 32.5568 -0.0009
# 6 0.0010 -0.0023 -0.0037 7.9443 -0.0009 28.6582
#
#
#
# Elastic Compliance Matrix: (Units=1/GPa)
#
#
# Indices 1 2 3 4 5 6 
#
# 1 0.012720 -0.003487 -0.004707 0.000008 0.002068 -0.000004
# 2 -0.003487 0.010597 -0.002391 0.000001 -0.001699 0.000000
# 3 -0.004707 -0.002391 0.012865 -0.000016 0.000739 0.000006
# 4 0.000008 0.000001 -0.000016 0.040920 0.000012 -0.011343
# 5 0.002068 -0.001699 0.000739 0.000012 0.031303 -0.000002
# 6 -0.000004 0.000000 0.000006 -0.011343 -0.000002 0.038038
#
#
# Mechanical properties :
#
#
# Convention : Reuss Voigt Hill
#
# Bulk Modulus (GPa) = 66.61056 67.02472 66.81764
# Shear Modulus (GPa) = 28.96596 30.75343 29.85970
#
# Velocity S-wave (km/s) = 3.81112 3.92695 3.86947
# Velocity P-wave (km/s) = 7.26410 7.36002 7.31222
#
# Compressibility (1/GPa) = 0.01501263
#
# Stress axis : x y z
#
# Youngs Moduli (GPa) = 78.61745 94.36712 77.73086
#
# Poissons Ratio (x) = 0.32908 0.36585
# Poissons Ratio (y) = 0.27415 0.18583
# Poissons Ratio (z) = 0.37002 0.22560
#
# Static dielectric constant tensor:
#      x y z
#    x 1.745240 0.000010 0.003760 
#    y 0.000010 1.754790 -0.000010 
#    z 0.003760 -0.000010 1.728940 
# 
# From -- ./inp_files/362110.got.cif
#   From: 2010.05.17/outbox.cif.g08.bks.cpg/sg12_182_cif.got.tgz:362110.got - 2010.06.03 13:09:07.
