data_PCOD9197155
_publ_section_title
;
Structure prediction by ZEFSAII (Michael W. Deem and Ramdas Pophale) SiO2 
 PCOD9197155
Probable space group: C 2/M
;
_chemical_formula_sum "Si O2"
_cell_formula_units_Z 56
_cell_length_a 19.837656
_cell_length_b 8.486273
_cell_length_c 14.448841
_cell_angle_alpha 90.000000
_cell_angle_beta 87.525452
_cell_angle_gamma 90.000000
_cell_volume 2430.161840
_symmetry_space_group_name_H-M "C 2/M"
_symmetry_group_IT_number 12
_symmetry_cell_setting 'monoclinic'
loop_
_space_group_symop_operation_xyz
x,y,z
-x,y,-z
-x,-y,-z
x,-y,z
1/2+x,1/2+y,z
1/2-x,1/2+y,-z
1/2-x,1/2-y,-z
1/2+x,1/2-y,z
loop_
_atom_site_type_symbol
_atom_site_label
_atom_site_fract_x
_atom_site_fract_y
_atom_site_fract_z
Si Si1 0.297945 0.681242 0.136595
Si Si2 0.527824 0.186856 0.704333
Si Si3 0.989482 0.811565 0.895568
Si Si4 0.763212 0.679197 0.323994
Si Si5 0.865961 0.819487 0.445663
Si Si6 0.878037 0.316768 0.644124
Si Si7 0.837998 0.813454 0.932975
O O1 0.307811 0.500000 0.164024
O O2 0.302498 0.788708 0.226185
O O3 0.221995 0.708340 0.102571
O O4 0.342887 0.713830 0.043573
O O5 0.531650 0.232933 0.811727
O O6 0.579440 0.277964 0.635858
O O7 0.451790 0.227668 0.676201
O O8 0.537888 0.000000 0.691824
O O9 0.909813 0.784300 0.882887
O O10 0.001961 0.000000 0.893073
O O11 0.000000 0.756137 0.000000
O O12 0.771952 0.500000 0.352408
O O13 0.794263 0.788746 0.401257
O O14 0.684779 0.717780 0.313569
O O15 0.876824 0.711124 0.533957
O O16 0.871808 0.000000 0.475038
O O17 0.866526 0.500000 0.667062
O O18 0.820605 0.000000 0.923004
#
# Coordination Sequence:
#
# PCOD9197155 Si02
#       7
#     8   8   8   8   8   8   8
#     4  10  20  35  58  88 121 162 209 259 316 375
#     4  11  25  44  67  97 131 171 216 267 322 383
#     4  10  22  39  61  89 123 166 212 261 314 372
#     4  12  25  41  64  95 132 170 214 264 322 384
#     4  12  26  44  68  97 131 170 215 267 325 387
#     4  11  24  45  70  97 132 170 213 266 322 384
#     4   9  19  36  57  84 120 161 210 260 314 375
#
# _framework density 23.043731000000001
#
# number of rings (size 3 to 8) (size 9 to 14) (size 15 to 20)
#    0.000    1.286    0.000    5.571    2.000    7.714 
#    0.000    0.000    0.000    0.000    0.000    0.000 
#    0.000    0.000    0.000    0.000    0.000    0.000 
#
# Total GULP energy -156809.699926 kJ/mol
# GULP energy per Si atom -5600.346426 kJ/mol
# Density = 2.299128 g / cm^3
# Si number density = 23.043731 Si / 1000 Ang^3
#
#
#
# Elastic Constant Matrix: (Units=GPa)
#
#
# Indices 1 2 3 4 5 6 
#
# 1 66.0935 14.9705 5.7647 0.0000 -7.4872 0.0000
# 2 14.9705 29.3898 -6.8453 0.0000 -8.6838 0.0000
# 3 5.7647 -6.8453 77.1110 0.0000 -11.2024 0.0000
# 4 0.0000 0.0000 0.0000 35.9166 0.0000 -1.4324
# 5 -7.4872 -8.6838 -11.2024 0.0000 40.2404 0.0000
# 6 0.0000 0.0000 0.0000 -1.4324 0.0000 26.0584
#
#
#
# Elastic Compliance Matrix: (Units=1/GPa)
#
#
# Indices 1 2 3 4 5 6 
#
# 1 0.017459 -0.009152 -0.002014 0.000000 0.000713 0.000000
# 2 -0.009152 0.042739 0.005805 0.000000 0.009136 0.000000
# 3 -0.002014 0.005805 0.014342 0.000000 0.004871 0.000000
# 4 0.000000 0.000000 0.000000 0.027903 0.000000 0.001534
# 5 0.000713 0.009136 0.004871 0.000000 0.028311 0.000000
# 6 0.000000 0.000000 0.000000 0.001534 0.000000 0.038460
#
#
# Mechanical properties :
#
#
# Convention : Reuss Voigt Hill
#
# Bulk Modulus (GPa) = 15.66931 22.26378 18.96655
# Shear Modulus (GPa) = 24.84990 31.02340 27.93665
#
# Velocity S-wave (km/s) = 3.28743 3.67315 3.48563
# Velocity P-wave (km/s) = 4.60697 5.26041 4.94450
#
# Compressibility (1/GPa) = 0.06381900
#
# Stress axis : x y z
#
# Youngs Moduli (GPa) = 57.27556 23.39794 69.72607
#
# Poissons Ratio (x) = 0.21414 0.14044
# Poissons Ratio (y) = 0.52418 -0.40479
# Poissons Ratio (z) = 0.11536 -0.13584
#
# Static dielectric constant tensor:
#      x y z
#    x 1.869660 0.000000 0.009750 
#    y 0.000000 1.781060 0.000000 
#    z 0.009750 0.000000 1.860120 
# 
# From -- ./inp_files/231064.got.cif
#   From: 2010.05.17/outbox.cif.g08.bks.cpg/sg12_116_cif.got.tgz:231064.got - 2010.06.03 13:09:07.
