data_PCOD9197072
_publ_section_title
;
Structure prediction by ZEFSAII (Michael W. Deem and Ramdas Pophale) SiO2 
 PCOD9197072
Probable space group: C 2/M
;
_chemical_formula_sum "Si O2"
_cell_formula_units_Z 64
_cell_length_a 25.976275
_cell_length_b 16.199716
_cell_length_c 11.883887
_cell_angle_alpha 90.000000
_cell_angle_beta 41.635525
_cell_angle_gamma 90.000000
_cell_volume 3322.505477
_symmetry_space_group_name_H-M "C 2/M"
_symmetry_group_IT_number 12
_symmetry_cell_setting 'monoclinic'
loop_
_space_group_symop_operation_xyz
x,y,z
-x,y,-z
-x,-y,-z
x,-y,z
1/2+x,1/2+y,z
1/2-x,1/2+y,-z
1/2-x,1/2-y,-z
1/2+x,1/2-y,z
loop_
_atom_site_type_symbol
_atom_site_label
_atom_site_fract_x
_atom_site_fract_y
_atom_site_fract_z
Si Si1 0.434816 0.091824 0.182242
Si Si2 0.186706 0.752932 0.876071
Si Si3 0.085834 0.910424 0.409435
Si Si4 0.338736 0.236460 0.327578
Si Si5 0.630077 0.255545 0.475918
Si Si6 0.461783 0.907559 0.403611
Si Si7 0.638936 0.903296 0.104504
Si Si8 0.206659 0.905989 0.006634
O O1 0.355520 0.139302 0.298428
O O2 0.462221 0.088848 0.265923
O O3 0.424371 0.000000 0.155717
O O4 0.500000 0.134453 0.000000
O O5 0.145496 0.768654 0.823184
O O6 0.278225 0.742083 0.699611
O O7 0.155053 0.669434 0.987424
O O8 0.182960 0.832850 0.961846
O O9 0.093133 0.833891 0.478570
O O10 0.148721 0.901890 0.207432
O O11 0.000000 0.910857 0.500000
O O12 0.100159 0.000000 0.440826
O O13 0.250000 0.250000 0.500000
O O14 0.383734 0.262687 0.366862
O O15 0.593632 0.170602 0.486918
O O16 0.550957 0.893475 0.293397
O O17 0.436528 0.000000 0.483093
O O18 0.644058 0.000000 0.055614
O O19 0.706455 0.893564 0.086954
O O20 0.202110 0.000000 0.967596
#
# Coordination Sequence:
#
# PCOD9197072 Si02
#       8
#     8   8   8   8   8   8   8   8
#     4   9  16  30  52  79 110 144 183 225 271 323
#     4  11  21  35  59  82 114 152 189 229 282 332
#     4  10  22  40  61  83 106 140 192 248 291 330
#     4   9  20  36  50  81 119 149 185 224 269 341
#     4  10  21  36  58  83 118 152 186 226 280 340
#     4   9  19  33  52  82 118 150 178 217 277 348
#     4  10  20  35  58  87 115 143 186 238 284 333
#     4  10  22  39  58  83 111 144 192 243 288 336
#
# _framework density 19.262571000000001
#
# number of rings (size 3 to 8) (size 9 to 14) (size 15 to 20)
#    0.000    2.250    1.250    1.125    1.750    2.000 
#    0.000    4.375    0.000    2.625    0.000    2.625 
#    0.000    0.000    0.000    0.000    0.000    0.000 
#
# Total GULP energy -178378.331606 kJ/mol
# GULP energy per Si atom -5574.322863 kJ/mol
# Density = 1.921873 g / cm^3
# Si number density = 19.262571 Si / 1000 Ang^3
#
#
#
# Elastic Constant Matrix: (Units=GPa)
#
#
# Indices 1 2 3 4 5 6 
#
# 1 76.7812 61.3014 23.3640 0.0000 0.1965 0.0000
# 2 61.3014 142.8298 44.1935 0.0000 14.0288 0.0000
# 3 23.3640 44.1935 38.9399 0.0000 -4.6377 0.0000
# 4 0.0000 0.0000 0.0000 32.5902 0.0000 -10.4616
# 5 0.1965 14.0288 -4.6377 0.0000 32.6800 0.0000
# 6 0.0000 0.0000 0.0000 -10.4616 0.0000 2.8578
#
#
#
# Elastic Compliance Matrix: (Units=1/GPa)
#
#
# Indices 1 2 3 4 5 6 
#
# 1 0.020383 -0.008294 -0.002449 0.000000 0.003090 0.000000
# 2 -0.008294 0.015707 -0.013881 0.000000 -0.008663 0.000000
# 3 -0.002449 -0.013881 0.044365 0.000000 0.012270 0.000000
# 4 0.000000 0.000000 0.000000 -0.175240 0.000000 -0.641500
# 5 0.003090 -0.008663 0.012270 0.000000 0.036041 0.000000
# 6 0.000000 0.000000 0.000000 -0.641500 0.000000 -1.998418
#
#
# Mechanical properties :
#
#
# Convention : Reuss Voigt Hill
#
# Bulk Modulus (GPa) = 32.04404 57.36319 44.70362
# Shear Modulus (GPa) = -2.50312 22.27175 9.88432
#
# Velocity S-wave (km/s) = -1.14118 3.40401 2.26771
# Velocity P-wave (km/s) = 3.86460 6.73008 5.48767
#
# Compressibility (1/GPa) = 0.03120705
#
# Stress axis : x y z
#
# Youngs Moduli (GPa) = 49.05985 63.66546 22.54014
#
# Poissons Ratio (x) = 0.52806 0.05519
# Poissons Ratio (y) = 0.40691 0.31289
# Poissons Ratio (z) = 0.12013 0.88377
#
# Static dielectric constant tensor:
#      x y z
#    x 1.691570 0.000000 0.051000 
#    y 0.000000 1.679340 0.000000 
#    z 0.051000 0.000000 1.688590 
# 
# From -- ./inp_files/183750.got.cif
#   From: 2010.05.17/outbox.cif.g08.bks.cpg/sg12_92_cif.got.tgz:183750.got - 2010.06.03 13:09:07.
