data_PCOD9197223
_publ_section_title
;
Structure prediction by ZEFSAII (Michael W. Deem and Ramdas Pophale) SiO2 
 PCOD9197223
Probable space group: C 2/M
;
_chemical_formula_sum "Si O2"
_cell_formula_units_Z 56
_cell_length_a 8.930902
_cell_length_b 21.078915
_cell_length_c 18.752879
_cell_angle_alpha 90.000000
_cell_angle_beta 43.851946
_cell_angle_gamma 90.000000
_cell_volume 2445.781681
_symmetry_space_group_name_H-M "C 2/M"
_symmetry_group_IT_number 12
_symmetry_cell_setting 'monoclinic'
loop_
_space_group_symop_operation_xyz
x,y,z
-x,y,-z
-x,-y,-z
x,-y,z
1/2+x,1/2+y,z
1/2-x,1/2+y,-z
1/2-x,1/2-y,-z
1/2+x,1/2-y,z
loop_
_atom_site_type_symbol
_atom_site_label
_atom_site_fract_x
_atom_site_fract_y
_atom_site_fract_z
Si Si1 0.714771 0.929290 0.891906
Si Si2 0.989372 0.865363 0.588543
Si Si3 0.627325 0.000000 0.381651
Si Si4 0.388786 0.367814 0.306589
Si Si5 0.352411 0.707189 0.174356
Si Si6 0.975574 0.663937 0.198029
Si Si7 0.669563 0.500000 0.504446
Si Si8 0.152487 0.103238 0.008262
O O1 0.853945 0.934352 0.916578
O O2 0.861425 0.888886 0.789913
O O3 0.667370 0.000000 0.880765
O O4 0.500000 0.899431 0.000000
O O5 0.734583 0.862830 0.690863
O O6 0.000000 0.848614 0.500000
O O7 0.110917 0.833046 0.615597
O O8 0.100606 0.934156 0.563554
O O9 0.500000 0.000000 0.500000
O O10 0.759005 0.065876 0.336836
O O11 0.422794 0.000000 0.398046
O O12 0.326173 0.322374 0.262671
O O13 0.407697 0.779853 0.168156
O O14 0.549465 0.671119 0.066912
O O15 0.142749 0.693288 0.198547
O O16 0.113687 0.612256 0.107166
O O17 0.500000 0.500000 0.500000
O O18 0.000000 0.076115 0.000000
#
# Coordination Sequence:
#
# PCOD9197223 Si02
#       8
#     8   8   4   8   8   8   4   8
#     4  10  20  35  58  92 132 168 206 252 313 381
#     4  11  24  42  63  92 127 163 218 265 317 376
#     4  12  22  40  67  90 122 165 214 264 317 372
#     4  11  22  40  65  94 125 170 217 264 321 378
#     4  10  23  39  67  94 126 165 214 258 322 385
#     4  11  22  42  63  93 129 169 210 265 319 375
#     4  10  24  42  64  90 121 162 214 265 313 375
#     4   9  20  39  61  92 126 165 209 255 309 384
#
# _framework density 22.896566
#
# number of rings (size 3 to 8) (size 9 to 14) (size 15 to 20)
#    0.000    1.571    2.143    2.143    4.000    1.429 
#    1.286    4.286    0.000    0.000    0.000    0.000 
#    0.000    0.000    0.000    0.000    0.000    0.000 
#
# Total GULP energy -156077.782250 kJ/mol
# GULP energy per Si atom -5574.206509 kJ/mol
# Density = 2.284445 g / cm^3
# Si number density = 22.896566 Si / 1000 Ang^3
#
#
#
# Elastic Constant Matrix: (Units=GPa)
#
#
# Indices 1 2 3 4 5 6 
#
# 1 107.4137 3.3416 41.7926 0.0000 10.3019 0.0000
# 2 3.3416 49.5390 19.5188 0.0000 -9.6723 0.0000
# 3 41.7926 19.5188 104.7001 0.0001 -4.6776 0.0001
# 4 0.0000 0.0000 0.0001 3.3099 0.0000 -7.6362
# 5 10.3019 -9.6723 -4.6776 0.0000 49.5262 0.0000
# 6 0.0000 0.0000 0.0001 -7.6362 0.0000 17.2691
#
#
#
# Elastic Compliance Matrix: (Units=1/GPa)
#
#
# Indices 1 2 3 4 5 6 
#
# 1 0.011414 0.000587 -0.004787 -0.000013 -0.002712 -0.000006
# 2 0.000587 0.022588 -0.004272 -0.000006 0.003886 -0.000003
# 3 -0.004787 -0.004272 0.012317 0.000027 0.001325 0.000012
# 4 -0.000013 -0.000006 0.000027-14.978371 0.000002 -6.623300
# 5 -0.002712 0.003886 0.001325 0.000002 0.021639 0.000001
# 6 -0.000006 -0.000003 0.000012 -6.623300 0.000001 -2.870856
#
#
# Mechanical properties :
#
#
# Convention : Reuss Voigt Hill
#
# Bulk Modulus (GPa) = 34.04091 43.43986 38.74038
# Shear Modulus (GPa) = -0.28162 27.15436 13.43637
#
# Velocity S-wave (km/s) = -0.35109 3.44751 2.42508
# Velocity P-wave (km/s) = 3.83864 5.90428 4.97974
#
# Compressibility (1/GPa) = 0.02937641
#
# Stress axis : x y z
#
# Youngs Moduli (GPa) = 87.61182 44.27065 81.18710
#
# Poissons Ratio (x) = -0.02597 0.38861
# Poissons Ratio (y) = -0.05139 0.34680
# Poissons Ratio (z) = 0.41936 0.18910
#
# Static dielectric constant tensor:
#      x y z
#    x 2.066890 0.000000 0.017240 
#    y 0.000000 1.975880 0.000000 
#    z 0.017240 0.000000 1.884450 
# 
# From -- ./inp_files/259823.got.cif
#   From: 2010.05.17/outbox.cif.g08.bks.cpg/sg12_130_cif.got.tgz:259823.got - 2010.06.03 13:09:07.
