data_PCOD9197808
_publ_section_title
;
Structure prediction by ZEFSAII (Michael W. Deem and Ramdas Pophale) SiO2 
 PCOD9197808
Probable space group: C 2/M
;
_chemical_formula_sum "Si O2"
_cell_formula_units_Z 52
_cell_length_a 17.002142
_cell_length_b 30.006816
_cell_length_c 6.516349
_cell_angle_alpha 90.000000
_cell_angle_beta 62.312502
_cell_angle_gamma 90.000000
_cell_volume 2943.838766
_symmetry_space_group_name_H-M "C 2/M"
_symmetry_group_IT_number 12
_symmetry_cell_setting 'monoclinic'
loop_
_space_group_symop_operation_xyz
x,y,z
-x,y,-z
-x,-y,-z
x,-y,z
1/2+x,1/2+y,z
1/2-x,1/2+y,-z
1/2-x,1/2-y,-z
1/2+x,1/2-y,z
loop_
_atom_site_type_symbol
_atom_site_label
_atom_site_fract_x
_atom_site_fract_y
_atom_site_fract_z
Si Si1 0.584481 0.634109 0.775206
Si Si2 0.276181 0.116071 0.469887
Si Si3 0.598567 0.122181 0.294190
Si Si4 0.191567 0.309967 0.902900
Si Si5 0.601763 0.947309 0.948935
Si Si6 0.641267 0.712429 0.014390
Si Si7 0.500000 0.315649 0.500000
O O1 0.673426 0.605391 0.640422
O O2 0.553272 0.652890 0.593546
O O3 0.500000 0.613952 0.000000
O O4 0.613493 0.676290 0.880017
O O5 0.330437 0.125236 0.610490
O O6 0.277970 0.160621 0.326825
O O7 0.329456 0.077927 0.283139
O O8 0.500000 0.125081 0.500000
O O9 0.616921 0.161100 0.108200
O O10 0.610752 0.075812 0.158930
O O11 0.271668 0.303351 0.967529
O O12 0.157979 0.260497 0.894993
O O13 0.616650 0.000000 0.934651
O O14 0.500000 0.939110 0.000000
O O15 0.564672 0.713503 0.279957
#
# Coordination Sequence:
#
# PCOD9197808 Si02
#       7
#     8   8   8   8   8   8   4
#     4  10  21  36  57  81 108 149 200 238 280 330
#     4  11  21  39  58  81 117 147 186 239 286 334
#     4  11  22  37  55  82 114 153 186 225 285 344
#     4  10  22  34  54  77 113 150 194 233 283 333
#     4  10  22  39  60  88 116 146 186 228 285 361
#     4  10  20  36  51  79 107 153 196 238 281 327
#     4  10  20  36  52  74 109 146 195 246 274 322
#
# _framework density 17.664010999999999
#
# number of rings (size 3 to 8) (size 9 to 14) (size 15 to 20)
#    0.000    1.692    4.615    0.000    1.077    2.769 
#    5.538    0.000    0.000    0.462    0.000    1.615 
#    0.000    0.000    0.000    0.000    0.000    0.000 
#
# Total GULP energy -145111.914619 kJ/mol
# GULP energy per Si atom -5581.227485 kJ/mol
# Density = 1.762381 g / cm^3
# Si number density = 17.664011 Si / 1000 Ang^3
#
#
#
# Elastic Constant Matrix: (Units=GPa)
#
#
# Indices 1 2 3 4 5 6 
#
# 1 85.4842 25.9936 39.2187 0.0000 -11.8849 0.0000
# 2 25.9936 73.0745 29.7708 0.0000 -10.4868 0.0000
# 3 39.2187 29.7708 89.2562 0.0000 -17.9895 0.0000
# 4 0.0000 0.0000 0.0000 9.5098 0.0000 -0.2321
# 5 -11.8849 -10.4868 -17.9895 0.0000 45.2218 0.0000
# 6 0.0000 0.0000 0.0000 -0.2321 0.0000 19.6108
#
#
#
# Elastic Compliance Matrix: (Units=1/GPa)
#
#
# Indices 1 2 3 4 5 6 
#
# 1 0.015294 -0.003047 -0.005475 0.000000 0.001135 0.000000
# 2 -0.003047 0.016566 -0.003885 0.000000 0.001495 0.000000
# 3 -0.005475 -0.003885 0.015692 0.000000 0.003902 0.000000
# 4 0.000000 0.000000 0.000000 0.105185 0.000000 0.001245
# 5 0.001135 0.001495 0.003902 0.000000 0.024311 0.000000
# 6 0.000000 0.000000 0.000000 0.001245 0.000000 0.051007
#
#
# Mechanical properties :
#
#
# Convention : Reuss Voigt Hill
#
# Bulk Modulus (GPa) = 43.98057 48.64236 46.31147
# Shear Modulus (GPa) = 19.19760 25.05725 22.12743
#
# Velocity S-wave (km/s) = 3.30027 3.77045 3.54317
# Velocity P-wave (km/s) = 6.28290 6.82293 6.55848
#
# Compressibility (1/GPa) = 0.02273731
#
# Stress axis : x y z
#
# Youngs Moduli (GPa) = 65.38389 60.36480 63.72710
#
# Poissons Ratio (x) = 0.18393 0.34892
# Poissons Ratio (y) = 0.19922 0.24760
# Poissons Ratio (z) = 0.35799 0.23454
#
# Static dielectric constant tensor:
#      x y z
#    x 1.611920 0.000000 -0.022560 
#    y 0.000000 1.568290 0.000000 
#    z -0.022560 0.000000 1.616040 
# 
# From -- ./inp_files/13108.got.cif
#   From: 2010.05.17/outbox.cif.g08.bks.cpg/sg12_7_cif.got.tgz:13108.got - 2010.06.03 13:09:07.
