data_PCOD9197834
_publ_section_title
;
Structure prediction by ZEFSAII (Michael W. Deem and Ramdas Pophale) SiO2 
 PCOD9197834
Probable space group: C 2/M
;
_chemical_formula_sum "Si O2"
_cell_formula_units_Z 64
_cell_length_a 9.391442
_cell_length_b 29.499641
_cell_length_c 15.403700
_cell_angle_alpha 90.000000
_cell_angle_beta 119.830633
_cell_angle_gamma 90.000000
_cell_volume 3702.059193
_symmetry_space_group_name_H-M "C 2/M"
_symmetry_group_IT_number 12
_symmetry_cell_setting 'monoclinic'
loop_
_space_group_symop_operation_xyz
x,y,z
-x,y,-z
-x,-y,-z
x,-y,z
1/2+x,1/2+y,z
1/2-x,1/2+y,-z
1/2-x,1/2-y,-z
1/2+x,1/2-y,z
loop_
_atom_site_type_symbol
_atom_site_label
_atom_site_fract_x
_atom_site_fract_y
_atom_site_fract_z
Si Si1 0.134602 0.449455 0.964638
Si Si2 0.726320 0.637028 0.918574
Si Si3 0.304771 0.710114 0.953917
Si Si4 0.684021 0.768437 0.389133
Si Si5 0.879295 0.680680 0.261232
Si Si6 0.911901 0.382785 0.800792
Si Si7 0.911880 0.824956 0.722776
Si Si8 0.399292 0.353507 0.386962
O O1 0.194152 0.500000 0.961581
O O2 0.027724 0.425544 0.856598
O O3 0.270075 0.414587 0.044415
O O4 0.000000 0.453182 0.000000
O O5 0.856075 0.637657 0.878026
O O6 0.562603 0.660551 0.830539
O O7 0.759893 0.666061 0.014564
O O8 0.223502 0.712834 0.834873
O O9 0.500000 0.708614 0.000000
O O10 0.250000 0.750000 0.000000
O O11 0.750000 0.750000 0.500000
O O12 0.511125 0.792380 0.356606
O O13 0.637164 0.727805 0.308423
O O14 0.806335 0.806292 0.385643
O O15 0.750455 0.654997 0.282396
O O16 0.983808 0.649706 0.228798
O O17 0.738605 0.386460 0.696555
O O18 0.968480 0.842559 0.646938
O O19 0.500000 0.370751 0.500000
#
# Coordination Sequence:
#
# PCOD9197834 Si02
#       8
#     8   8   8   8   8   8   8   8
#     4   9  17  33  61  89 109 140 182 227 280 341
#     4  10  20  37  54  76 112 145 176 230 271 326
#     4  12  25  36  51  73 108 152 190 225 261 327
#     4  11  22  37  51  71 102 143 194 240 269 314
#     4  11  23  34  50  73 102 144 183 228 267 319
#     4   9  20  35  56  77 108 140 177 224 275 335
#     4  11  21  34  51  73 104 145 183 228 274 314
#     4  10  20  36  53  74 105 146 183 233 279 323
#
# _framework density 17.287676000000001
#
# number of rings (size 3 to 8) (size 9 to 14) (size 15 to 20)
#    0.000    1.625    3.750    1.500    1.750    1.000 
#    0.000    0.000    0.000    3.750    0.000    0.000 
#    0.000    1.000    0.000    0.000    0.000    0.000 
#
# Total GULP energy -178227.395574 kJ/mol
# GULP energy per Si atom -5569.606112 kJ/mol
# Density = 1.724833 g / cm^3
# Si number density = 17.287676 Si / 1000 Ang^3
#
#
#
# Elastic Constant Matrix: (Units=GPa)
#
#
# Indices 1 2 3 4 5 6 
#
# 1 104.9573 16.9220 33.9803 0.0000 -0.2322 0.0000
# 2 16.9220 74.3357 29.0577 0.0000 5.2672 0.0000
# 3 33.9803 29.0577 121.2348 0.0000 4.6701 0.0000
# 4 0.0000 0.0000 0.0000 14.1178 0.0000 3.5660
# 5 -0.2322 5.2672 4.6701 0.0000 20.5801 0.0000
# 6 0.0000 0.0000 0.0000 3.5660 0.0000 11.6009
#
#
#
# Elastic Compliance Matrix: (Units=1/GPa)
#
#
# Indices 1 2 3 4 5 6 
#
# 1 0.010630 -0.001453 -0.002674 0.000000 0.001098 0.000000
# 2 -0.001453 0.015230 -0.003120 0.000000 -0.003206 0.000000
# 3 -0.002674 -0.003120 0.009802 0.000000 -0.001456 0.000000
# 4 0.000000 0.000000 0.000000 0.076795 0.000000 -0.023606
# 5 0.001098 -0.003206 -0.001456 0.000000 0.049754 0.000000
# 6 0.000000 0.000000 0.000000 -0.023606 0.000000 0.093456
#
#
# Mechanical properties :
#
#
# Convention : Reuss Voigt Hill
#
# Bulk Modulus (GPa) = 47.23716 51.16086 49.19901
# Shear Modulus (GPa) = 18.03656 23.96430 21.00043
#
# Velocity S-wave (km/s) = 3.23355 3.72722 3.48913
# Velocity P-wave (km/s) = 6.42842 6.94125 6.68975
#
# Compressibility (1/GPa) = 0.02116977
#
# Stress axis : x y z
#
# Youngs Moduli (GPa) = 94.07443 65.66071 102.02398
#
# Poissons Ratio (x) = 0.09538 0.27277
# Poissons Ratio (y) = 0.13665 0.31828
# Poissons Ratio (z) = 0.25151 0.20484
#
# Static dielectric constant tensor:
#      x y z
#    x 1.619560 0.000000 0.020310 
#    y 0.000000 1.599790 0.000000 
#    z 0.020310 0.000000 1.632660 
# 
# From -- ./inp_files/200943.got.cif
#   From: 2010.05.17/outbox.cif.g08.bks.cpg/sg12_101_cif.got.tgz:200943.got - 2010.06.03 13:09:07.
