data_PCOD9197872
_publ_section_title
;
Structure prediction by ZEFSAII (Michael W. Deem and Ramdas Pophale) SiO2 
 PCOD9197872
Probable space group: C 2/M
;
_chemical_formula_sum "Si O2"
_cell_formula_units_Z 44
_cell_length_a 13.763468
_cell_length_b 29.724386
_cell_length_c 5.443841
_cell_angle_alpha 90.000000
_cell_angle_beta 100.815019
_cell_angle_gamma 90.000000
_cell_volume 2187.575130
_symmetry_space_group_name_H-M "C 2/M"
_symmetry_group_IT_number 12
_symmetry_cell_setting 'monoclinic'
loop_
_space_group_symop_operation_xyz
x,y,z
-x,y,-z
-x,-y,-z
x,-y,z
1/2+x,1/2+y,z
1/2-x,1/2+y,-z
1/2-x,1/2-y,-z
1/2+x,1/2-y,z
loop_
_atom_site_type_symbol
_atom_site_label
_atom_site_fract_x
_atom_site_fract_y
_atom_site_fract_z
Si Si1 0.883761 0.351469 0.930197
Si Si2 0.281245 0.601846 0.386248
Si Si3 0.064426 0.500000 0.780167
Si Si4 0.226805 0.422429 0.862055
Si Si5 0.619287 0.697912 0.563271
Si Si6 0.880814 0.245257 0.934762
O O1 0.822648 0.372909 0.126605
O O2 0.832040 0.379211 0.686957
O O3 0.866966 0.298574 0.902676
O O4 0.000000 0.360067 0.000000
O O5 0.289506 0.576414 0.645083
O O6 0.347547 0.646284 0.402966
O O7 0.289499 0.572746 0.142526
O O8 0.137229 0.457242 0.815443
O O9 0.000000 0.500000 0.500000
O O10 0.000000 0.500000 0.000000
O O11 0.500000 0.700233 0.500000
O O12 0.655838 0.719278 0.324392
O O13 0.654189 0.725187 0.821531
O O14 0.000000 0.238916 0.000000
#
# Coordination Sequence:
#
# PCOD9197872 Si02
#       6
#     8   8   4   8   8   8
#     4   9  21  35  52  74 114 146 182 222 272 321
#     4  10  22  36  54  80 108 143 185 229 271 320
#     4  12  24  40  64  86 113 152 183 218 274 336
#     4  10  23  37  54  83 108 139 182 219 269 334
#     4  10  20  36  54  77 108 143 192 228 272 316
#     4   9  19  32  51  76 105 149 186 227 266 319
#
# _framework density 20.113596000000001
#
# number of rings (size 3 to 8) (size 9 to 14) (size 15 to 20)
#    1.091    1.091    0.000    2.727    5.091    1.455 
#    0.000    0.000    0.000    0.000    0.000    3.818 
#    0.000    0.000    0.000    0.000    0.000    0.000 
#
# Total GULP energy -122637.077961 kJ/mol
# GULP energy per Si atom -5574.412635 kJ/mol
# Density = 2.006782 g / cm^3
# Si number density = 20.113596 Si / 1000 Ang^3
#
#
#
# Elastic Constant Matrix: (Units=GPa)
#
#
# Indices 1 2 3 4 5 6 
#
# 1 21.3772 -13.3289 3.6203 0.0000 -1.4525 0.0000
# 2 -13.3289 52.0382 35.2315 0.0000 -4.2088 0.0000
# 3 3.6203 35.2315 168.0753 0.0000 -21.9766 0.0000
# 4 0.0000 0.0000 0.0000 18.0195 0.0000 9.3797
# 5 -1.4525 -4.2088 -21.9766 0.0000 21.7009 0.0000
# 6 0.0000 0.0000 0.0000 9.3797 0.0000 33.5981
#
#
#
# Elastic Compliance Matrix: (Units=1/GPa)
#
#
# Indices 1 2 3 4 5 6 
#
# 1 0.059468 0.018738 -0.004856 0.000000 0.002697 0.000000
# 2 0.018738 0.028303 -0.006287 0.000000 0.000376 0.000000
# 3 -0.004856 -0.006287 0.008265 0.000000 0.006825 0.000000
# 4 0.000000 0.000000 0.000000 0.064931 0.000000 -0.018127
# 5 0.002697 0.000376 0.006825 0.000000 0.053247 0.000000
# 6 0.000000 0.000000 0.000000 -0.018127 0.000000 0.034824
#
#
# Mechanical properties :
#
#
# Convention : Reuss Voigt Hill
#
# Bulk Modulus (GPa) = 8.99083 32.50404 20.74743
# Shear Modulus (GPa) = 18.45538 29.06154 23.75846
#
# Velocity S-wave (km/s) = 3.03241 3.80527 3.44061
# Velocity P-wave (km/s) = 4.09150 5.95836 5.11089
#
# Compressibility (1/GPa) = 0.11122446
#
# Stress axis : x y z
#
# Youngs Moduli (GPa) = 16.81585 35.33168 120.99708
#
# Poissons Ratio (x) = -0.66204 0.58757
# Poissons Ratio (y) = -0.31509 0.76074
# Poissons Ratio (z) = 0.08166 0.22214
#
# Static dielectric constant tensor:
#      x y z
#    x 1.716370 0.000000 -0.006950 
#    y 0.000000 1.672480 0.000000 
#    z -0.006950 0.000000 1.793430 
# 
# From -- ./inp_files/12160.got.cif
#   From: 2010.05.17/outbox.cif.g08.bks.cpg/sg12_7_cif.got.tgz:12160.got - 2010.06.03 13:09:07.
