data_PCOD9197576
_publ_section_title
;
Structure prediction by ZEFSAII (Michael W. Deem and Ramdas Pophale) SiO2 
 PCOD9197576
Probable space group: C 2/M
;
_chemical_formula_sum "Si O2"
_cell_formula_units_Z 64
_cell_length_a 23.896381
_cell_length_b 12.445655
_cell_length_c 13.197643
_cell_angle_alpha 90.000000
_cell_angle_beta 135.800003
_cell_angle_gamma 90.000000
_cell_volume 2736.414512
_symmetry_space_group_name_H-M "C 2/M"
_symmetry_group_IT_number 12
_symmetry_cell_setting 'monoclinic'
loop_
_space_group_symop_operation_xyz
x,y,z
-x,y,-z
-x,-y,-z
x,-y,z
1/2+x,1/2+y,z
1/2-x,1/2+y,-z
1/2-x,1/2-y,-z
1/2+x,1/2-y,z
loop_
_atom_site_type_symbol
_atom_site_label
_atom_site_fract_x
_atom_site_fract_y
_atom_site_fract_z
Si Si1 0.262464 0.202865 0.771552
Si Si2 0.732221 0.624748 0.520219
Si Si3 0.111258 0.117167 0.051121
Si Si4 0.935939 0.837362 0.778197
Si Si5 0.626674 0.879684 0.585993
Si Si6 0.873095 0.335661 0.188238
Si Si7 0.801603 0.884635 0.105975
Si Si8 0.481471 0.117706 0.752007
O O1 0.271484 0.134593 0.681810
O O2 0.335816 0.278172 0.901456
O O3 0.193970 0.290678 0.659009
O O4 0.231123 0.132190 0.823119
O O5 0.753455 0.500000 0.508110
O O6 0.750000 0.750000 0.500000
O O7 0.634848 0.626377 0.388439
O O8 0.093222 0.129232 0.147949
O O9 0.149483 0.000000 0.083535
O O10 0.025811 0.118677 0.884110
O O11 0.950664 0.710065 0.785388
O O12 0.594548 0.867062 0.659072
O O13 0.564128 0.866932 0.414227
O O14 0.659489 0.000000 0.619965
O O15 0.865090 0.207998 0.169553
O O16 0.926374 0.377166 0.165446
O O17 0.779992 0.372565 0.064922
O O18 0.837756 0.000000 0.137878
O O19 0.464019 0.000000 0.770466
#
# Coordination Sequence:
#
# PCOD9197576 Si02
#       8
#     8   8   8   8   8   8   8   8
#     4  11  22  39  63  95 125 163 209 258 320 384
#     4  12  25  43  68  95 128 174 219 268 324 386
#     4  11  23  42  66  92 128 167 214 268 315 374
#     4  11  23  42  62  93 127 168 212 263 319 378
#     4  10  20  35  60  91 122 157 205 258 309 372
#     4  10  21  37  61  86 119 160 207 255 311 378
#     4  10  21  39  59  85 121 158 201 257 313 378
#     4  11  22  38  60  90 127 163 204 262 322 378
#
# _framework density 23.388269999999999
#
# number of rings (size 3 to 8) (size 9 to 14) (size 15 to 20)
#    0.000    1.250    2.500    4.500    0.000    2.000 
#    0.000    8.125    0.000    1.500    0.000    0.000 
#    0.000    0.000    0.000    0.000    0.000    0.000 
#
# Total GULP energy -178695.173275 kJ/mol
# GULP energy per Si atom -5584.224165 kJ/mol
# Density = 2.333504 g / cm^3
# Si number density = 23.388270 Si / 1000 Ang^3
#
#
#
# Elastic Constant Matrix: (Units=GPa)
#
#
# Indices 1 2 3 4 5 6 
#
# 1 58.3599 21.2002 6.7611 0.0000 -8.5739 0.0000
# 2 21.2002 188.8133 25.6396 0.0000 -4.5091 0.0000
# 3 6.7611 25.6396 84.9122 0.0000 0.8659 0.0000
# 4 0.0000 0.0000 0.0000 51.9229 0.0000 29.4288
# 5 -8.5739 -4.5091 0.8659 0.0000 32.6828 0.0000
# 6 0.0000 0.0000 0.0000 29.4288 0.0000 19.6502
#
#
#
# Elastic Compliance Matrix: (Units=1/GPa)
#
#
# Indices 1 2 3 4 5 6 
#
# 1 0.018601 -0.001846 -0.000971 0.000000 0.004651 0.000000
# 2 -0.001846 0.005727 -0.001586 0.000000 0.000348 0.000000
# 3 -0.000971 -0.001586 0.012341 0.000000 -0.000801 0.000000
# 4 0.000000 0.000000 0.000000 0.127399 0.000000 -0.190798
# 5 0.004651 0.000348 -0.000801 0.000000 0.031887 0.000000
# 6 0.000000 0.000000 0.000000 -0.190798 0.000000 0.336636
#
#
# Mechanical properties :
#
#
# Convention : Reuss Voigt Hill
#
# Bulk Modulus (GPa) = 35.88850 48.80970 42.34910
# Shear Modulus (GPa) = 9.07961 39.41680 24.24820
#
# Velocity S-wave (km/s) = 1.97245 4.10972 3.22338
# Velocity P-wave (km/s) = 4.53491 6.59048 5.65684
#
# Compressibility (1/GPa) = 0.02786408
#
# Stress axis : x y z
#
# Youngs Moduli (GPa) = 53.75965 174.60736 81.02906
#
# Poissons Ratio (x) = 0.32226 0.07870
# Poissons Ratio (y) = 0.09922 0.12851
# Poissons Ratio (z) = 0.05222 0.27691
#
# Static dielectric constant tensor:
#      x y z
#    x 1.909430 0.000000 0.005430 
#    y 0.000000 1.914340 0.000000 
#    z 0.005430 0.000000 1.884090 
# 
# From -- ./inp_files/245971.got.cif
#   From: 2010.05.17/outbox.cif.g08.bks.cpg/sg12_123_cif.got.tgz:245971.got - 2010.06.03 13:09:07.
