data_PCOD9197482
_publ_section_title
;
Structure prediction by ZEFSAII (Michael W. Deem and Ramdas Pophale) SiO2 
 PCOD9197482
Probable space group: C 2/M
;
_chemical_formula_sum "Si O2"
_cell_formula_units_Z 48
_cell_length_a 11.997965
_cell_length_b 27.302731
_cell_length_c 9.765117
_cell_angle_alpha 90.000000
_cell_angle_beta 47.205752
_cell_angle_gamma 90.000000
_cell_volume 2347.295130
_symmetry_space_group_name_H-M "C 2/M"
_symmetry_group_IT_number 12
_symmetry_cell_setting 'monoclinic'
loop_
_space_group_symop_operation_xyz
x,y,z
-x,y,-z
-x,-y,-z
x,-y,z
1/2+x,1/2+y,z
1/2-x,1/2+y,-z
1/2-x,1/2-y,-z
1/2+x,1/2-y,z
loop_
_atom_site_type_symbol
_atom_site_label
_atom_site_fract_x
_atom_site_fract_y
_atom_site_fract_z
Si Si1 0.155632 0.000000 0.958391
Si Si2 0.047769 0.000000 0.617178
Si Si3 0.877816 0.691235 0.769108
Si Si4 0.342664 0.394399 0.047951
Si Si5 0.213183 0.692405 0.554744
Si Si6 0.044633 0.109571 0.623231
Si Si7 0.836130 0.724009 0.114335
O O1 0.229533 0.051993 0.869434
O O2 0.098441 0.000000 0.162313
O O3 0.000000 0.000000 0.000000
O O4 0.116849 0.945423 0.583791
O O5 0.000000 0.000000 0.500000
O O6 0.943551 0.683188 0.394007
O O7 0.807266 0.740082 0.762845
O O8 0.773943 0.646634 0.812236
O O9 0.846479 0.699770 0.957799
O O10 0.397482 0.388912 0.844521
O O11 0.500000 0.391423 0.000000
O O12 0.250000 0.750000 0.500000
O O13 0.346435 0.653707 0.419235
O O14 0.179042 0.687914 0.745826
O O15 0.000000 0.115061 0.500000
O O16 0.000000 0.750771 0.000000
#
# Coordination Sequence:
#
# PCOD9197482 Si02
#       7
#     4   4   8   8   8   8   8
#     4   8  16  32  53  84 107 134 180 228 264 322
#     4   8  16  34  57  82 105 138 184 226 276 332
#     4  10  21  36  55  75 105 142 187 221 269 325
#     4  10  20  35  60  82 109 144 184 224 274 327
#     4  11  25  35  50  81 114 144 182 225 281 324
#     4  10  21  37  60  83 110 145 185 232 278 325
#     4   9  20  37  54  72 104 145 182 222 266 326
#
# _framework density 20.449071
#
# number of rings (size 3 to 8) (size 9 to 14) (size 15 to 20)
#    0.000    2.333    0.000    1.500   11.667    0.000 
#    0.000    0.833    0.000    0.000    0.000   17.500 
#    0.000    0.000    0.000    0.000    0.000    0.000 
#
# Total GULP energy -133823.554527 kJ/mol
# GULP energy per Si atom -5575.981439 kJ/mol
# Density = 2.040253 g / cm^3
# Si number density = 20.449071 Si / 1000 Ang^3
#
#
#
# Elastic Constant Matrix: (Units=GPa)
#
#
# Indices 1 2 3 4 5 6 
#
# 1 81.1033 46.0764 5.4007 0.0000 -5.5147 0.0000
# 2 46.0764 134.8793 -5.4132 0.0000 -24.7168 0.0000
# 3 5.4007 -5.4132 51.2026 0.0000 12.3464 0.0000
# 4 0.0000 0.0000 0.0000 7.1521 0.0000 7.9848
# 5 -5.5147 -24.7168 12.3464 0.0000 31.7878 0.0000
# 6 0.0000 0.0000 0.0000 7.9848 0.0000 16.5129
#
#
#
# Elastic Compliance Matrix: (Units=1/GPa)
#
#
# Indices 1 2 3 4 5 6 
#
# 1 0.015561 -0.005549 -0.002029 0.000000 -0.000827 0.000000
# 2 -0.005549 0.010653 -0.000059 0.000000 0.007344 0.000000
# 3 -0.002029 -0.000059 0.021883 0.000000 -0.008897 0.000000
# 4 0.000000 0.000000 0.000000 0.303856 0.000000 -0.146929
# 5 -0.000827 0.007344 -0.008897 0.000000 0.040481 0.000000
# 6 0.000000 0.000000 0.000000 -0.146929 0.000000 0.131606
#
#
# Mechanical properties :
#
#
# Convention : Reuss Voigt Hill
#
# Bulk Modulus (GPa) = 30.46528 39.92365 35.19447
# Shear Modulus (GPa) = 9.08669 25.83198 17.45934
#
# Velocity S-wave (km/s) = 2.11026 3.55806 2.92515
# Velocity P-wave (km/s) = 4.56816 6.03701 5.35321
#
# Compressibility (1/GPa) = 0.03282425
#
# Stress axis : x y z
#
# Youngs Moduli (GPa) = 64.26225 93.87060 45.69675
#
# Poissons Ratio (x) = 0.52088 0.09270
# Poissons Ratio (y) = 0.35658 0.00271
# Poissons Ratio (z) = 0.13036 0.00556
#
# Static dielectric constant tensor:
#      x y z
#    x 1.733550 0.000000 0.039800 
#    y 0.000000 1.758690 0.000000 
#    z 0.039800 0.000000 1.784040 
# 
# From -- ./inp_files/51363.got.cif
#   From: 2010.05.17/outbox.cif.g08.bks.cpg/sg12_26_cif.got.tgz:51363.got - 2010.06.03 13:09:07.
