data_PCOD9197299
_publ_section_title
;
Structure prediction by ZEFSAII (Michael W. Deem and Ramdas Pophale) SiO2 
 PCOD9197299
Probable space group: C 2/M
;
_chemical_formula_sum "Si O2"
_cell_formula_units_Z 64
_cell_length_a 18.325594
_cell_length_b 14.221729
_cell_length_c 15.783824
_cell_angle_alpha 90.000000
_cell_angle_beta 49.713264
_cell_angle_gamma 90.000000
_cell_volume 3137.932845
_symmetry_space_group_name_H-M "C 2/M"
_symmetry_group_IT_number 12
_symmetry_cell_setting 'monoclinic'
loop_
_space_group_symop_operation_xyz
x,y,z
-x,y,-z
-x,-y,-z
x,-y,z
1/2+x,1/2+y,z
1/2-x,1/2+y,-z
1/2-x,1/2-y,-z
1/2+x,1/2-y,z
loop_
_atom_site_type_symbol
_atom_site_label
_atom_site_fract_x
_atom_site_fract_y
_atom_site_fract_z
Si Si1 0.477196 0.761621 0.244006
Si Si2 0.627970 0.107863 0.213679
Si Si3 0.707149 0.386984 0.779498
Si Si4 0.412632 0.752668 0.013886
Si Si5 0.567858 0.392392 0.257514
Si Si6 0.732028 0.760915 0.613673
Si Si7 0.232914 0.392338 0.957595
Si Si8 0.614237 0.611461 0.406778
O O1 0.538845 0.827787 0.258916
O O2 0.476169 0.666140 0.299442
O O3 0.374796 0.803844 0.299523
O O4 0.534926 0.736847 0.115438
O O5 0.692306 0.127090 0.246786
O O6 0.596745 0.000000 0.240795
O O7 0.695887 0.119397 0.080722
O O8 0.688996 0.500000 0.787079
O O9 0.627998 0.333733 0.898460
O O10 0.718769 0.333777 0.680861
O O11 0.324308 0.820666 0.058442
O O12 0.500000 0.799116 0.000000
O O13 0.539971 0.500000 0.288098
O O14 0.653472 0.381048 0.126523
O O15 0.624819 0.365738 0.299668
O O16 0.750000 0.750000 0.500000
O O17 0.815471 0.824208 0.591701
O O18 0.213358 0.500000 0.945277
O O19 0.500000 0.627389 0.500000
O O20 0.632141 0.500000 0.408257
#
# Coordination Sequence:
#
# PCOD9197299 Si02
#       8
#     8   8   8   8   8   8   8   8
#     4  11  22  37  60  92 127 162 204 259 314 378
#     4   9  19  37  61  87 120 162 206 253 309 371
#     4  11  24  43  64  91 129 174 222 265 311 378
#     4  11  21  36  57  90 134 171 211 253 319 386
#     4  10  20  35  59  86 115 156 208 257 305 364
#     4  12  26  42  63  91 125 164 207 260 324 380
#     4   9  18  33  57  90 125 166 211 258 310 373
#     4  10  22  42  67  90 115 153 205 265 320 373
#
# _framework density 20.395592000000001
#
# number of rings (size 3 to 8) (size 9 to 14) (size 15 to 20)
#    0.000    1.625    1.250    3.750    0.000    5.500 
#    0.000    0.000    0.000    1.875    0.000    0.000 
#    0.000    0.000    0.000    0.000    0.000    0.000 
#
# Total GULP energy -178431.366632 kJ/mol
# GULP energy per Si atom -5575.980207 kJ/mol
# Density = 2.034917 g / cm^3
# Si number density = 20.395592 Si / 1000 Ang^3
#
#
#
# Elastic Constant Matrix: (Units=GPa)
#
#
# Indices 1 2 3 4 5 6 
#
# 1 96.4790 38.7967 24.3663 0.0000 6.6242 0.0000
# 2 38.7967 60.7943 39.4327 0.0000 8.0039 0.0000
# 3 24.3663 39.4327 72.0073 0.0000 -4.7832 0.0000
# 4 0.0000 0.0000 0.0000 16.8757 0.0000 6.9983
# 5 6.6242 8.0039 -4.7832 0.0000 20.1616 0.0000
# 6 0.0000 0.0000 0.0000 6.9983 0.0000 10.5528
#
#
#
# Elastic Compliance Matrix: (Units=1/GPa)
#
#
# Indices 1 2 3 4 5 6 
#
# 1 0.013966 -0.008769 0.000002 0.000000 -0.001107 0.000000
# 2 -0.008769 0.035344 -0.017403 0.000000 -0.015279 0.000000
# 3 0.000002 -0.017403 0.024258 0.000000 0.012663 0.000000
# 4 0.000000 0.000000 0.000000 0.081735 0.000000 -0.054204
# 5 -0.001107 -0.015279 0.012663 0.000000 0.059033 0.000000
# 6 0.000000 0.000000 0.000000 -0.054204 0.000000 0.130708
#
#
# Mechanical properties :
#
#
# Convention : Reuss Voigt Hill
#
# Bulk Modulus (GPa) = 47.10276 48.27468 47.68872
# Shear Modulus (GPa) = 12.36214 17.96368 15.16291
#
# Velocity S-wave (km/s) = 2.46462 2.97098 2.72957
# Velocity P-wave (km/s) = 5.58962 5.95731 5.77639
#
# Compressibility (1/GPa) = 0.02123018
#
# Stress axis : x y z
#
# Youngs Moduli (GPa) = 71.59997 28.29304 41.22318
#
# Poissons Ratio (x) = 0.24809 -0.00009
# Poissons Ratio (y) = 0.62783 0.71741
# Poissons Ratio (z) = -0.00016 0.49239
#
# Static dielectric constant tensor:
#      x y z
#    x 1.741000 0.000000 0.035580 
#    y 0.000000 1.750300 0.000000 
#    z 0.035580 0.000000 1.937440 
# 
# From -- ./inp_files/225711.got.cif
#   From: 2010.05.17/outbox.cif.g08.bks.cpg/sg12_113_cif.got.tgz:225711.got - 2010.06.03 13:09:07.
