data_PCOD9197474
_publ_section_title
;
Structure prediction by ZEFSAII (Michael W. Deem and Ramdas Pophale) SiO2 
 PCOD9197474
Probable space group: C 2/M
;
_chemical_formula_sum "Si O2"
_cell_formula_units_Z 58
_cell_length_a 12.751632
_cell_length_b 18.927750
_cell_length_c 21.556827
_cell_angle_alpha 90.000000
_cell_angle_beta 34.437147
_cell_angle_gamma 90.000000
_cell_volume 2942.277415
_symmetry_space_group_name_H-M "C 2/M"
_symmetry_group_IT_number 12
_symmetry_cell_setting 'monoclinic'
loop_
_space_group_symop_operation_xyz
x,y,z
-x,y,-z
-x,-y,-z
x,-y,z
1/2+x,1/2+y,z
1/2-x,1/2+y,-z
1/2-x,1/2-y,-z
1/2+x,1/2-y,z
loop_
_atom_site_type_symbol
_atom_site_label
_atom_site_fract_x
_atom_site_fract_y
_atom_site_fract_z
Si Si1 0.284014 0.581454 0.007938
Si Si2 0.718773 0.918864 0.894491
Si Si3 0.935365 0.327342 0.205160
Si Si4 0.500000 0.000000 0.500000
Si Si5 0.548078 0.288752 0.908686
Si Si6 0.560699 0.646414 0.322936
Si Si7 0.987690 0.701974 0.692487
Si Si8 0.820735 0.575047 0.472436
O O1 0.317846 0.500000 0.010304
O O2 0.082239 0.609075 0.127406
O O3 0.285561 0.584306 0.932416
O O4 0.429985 0.639695 0.959447
O O5 0.836153 0.869770 0.792324
O O6 0.740099 0.000000 0.861727
O O7 0.500000 0.903415 0.000000
O O8 0.990238 0.267907 0.127045
O O9 0.727927 0.352364 0.290452
O O10 0.948412 0.296368 0.267467
O O11 0.587340 0.939625 0.505143
O O12 0.765194 0.305939 0.800260
O O13 0.500000 0.258636 0.000000
O O14 0.473679 0.724084 0.359985
O O15 0.395814 0.592386 0.414717
O O16 0.080779 0.637452 0.611806
O O17 0.844829 0.500000 0.426435
#
# Coordination Sequence:
#
# PCOD9197474 Si02
#       8
#     8   8   8   2   8   8   8   8
#     4  11  23  38  60  93 135 179 225 276 336 403
#     4  10  20  35  59  95 136 171 216 276 335 400
#     4  11  24  40  65  99 136 179 221 281 342 395
#     4   8  24  48  80  94 128 180 220 286 328 404
#     4  11  24  41  66  94 136 186 230 272 338 411
#     4  11  23  40  71  98 132 176 229 281 335 407
#     4  11  25  43  65  99 136 178 226 286 330 403
#     4  10  24  48  71  97 132 171 222 278 337 400
#
# _framework density 19.712620000000001
#
# number of rings (size 3 to 8) (size 9 to 14) (size 15 to 20)
#    0.414    0.966    2.759    2.069    3.862    5.793 
#    2.483    0.690    0.000    0.000    0.000    0.000 
#    0.000    0.000    0.000    0.000    0.000    0.000 
#
# Total GULP energy -161740.367739 kJ/mol
# GULP energy per Si atom -5577.254060 kJ/mol
# Density = 1.966775 g / cm^3
# Si number density = 19.712620 Si / 1000 Ang^3
#
#
#
# Elastic Constant Matrix: (Units=GPa)
#
#
# Indices 1 2 3 4 5 6 
#
# 1 88.4682 28.3618 11.5179 0.0015 -0.3359 0.0022
# 2 28.3618 108.4084 20.8663 0.0021 -6.5621 0.0008
# 3 11.5179 20.8663 55.8114 -0.0197 -9.8201 -0.0138
# 4 0.0015 0.0021 -0.0197 48.0599 0.0023 16.2402
# 5 -0.3359 -6.5621 -9.8201 0.0023 12.8979 0.0003
# 6 0.0022 0.0008 -0.0138 16.2402 0.0003 39.0600
#
#
#
# Elastic Compliance Matrix: (Units=1/GPa)
#
#
# Indices 1 2 3 4 5 6 
#
# 1 0.012527 -0.003073 -0.001910 -0.000001 -0.002691 -0.000001
# 2 -0.003073 0.010768 -0.002820 -0.000002 0.003252 0.000000
# 3 -0.001910 -0.002820 0.022060 0.000007 0.015312 0.000005
# 4 -0.000001 -0.000002 0.000007 0.024209 0.000000 -0.010065
# 5 -0.002691 0.003252 0.015312 0.000000 0.090774 0.000005
# 6 -0.000001 0.000000 0.000005 -0.010065 0.000005 0.029787
#
#
# Mechanical properties :
#
#
# Convention : Reuss Voigt Hill
#
# Bulk Modulus (GPa) = 33.61300 41.57555 37.59427
# Shear Modulus (GPa) = 23.18626 32.79970 27.99298
#
# Velocity S-wave (km/s) = 3.43332 4.08351 3.77245
# Velocity P-wave (km/s) = 5.72760 6.58559 6.17153
#
# Compressibility (1/GPa) = 0.02975040
#
# Stress axis : x y z
#
# Youngs Moduli (GPa) = 79.82771 92.86992 45.33119
#
# Poissons Ratio (x) = 0.28535 0.08658
# Poissons Ratio (y) = 0.24528 0.12781
# Poissons Ratio (z) = 0.15247 0.26185
#
# Static dielectric constant tensor:
#      x y z
#    x 1.687450 0.000000 -0.000620 
#    y 0.000000 1.715680 0.000000 
#    z -0.000620 0.000000 1.683360 
# 
# From -- ./inp_files/306364.got.cif
#   From: 2010.05.17/outbox.cif.g08.bks.cpg/sg12_154_cif.got.tgz:306364.got - 2010.06.03 13:09:07.
