data_PCOD9197587
_publ_section_title
;
Structure prediction by ZEFSAII (Michael W. Deem and Ramdas Pophale) SiO2 
 PCOD9197587
Probable space group: C 2/M
;
_chemical_formula_sum "Si O2"
_cell_formula_units_Z 58
_cell_length_a 14.288079
_cell_length_b 11.661512
_cell_length_c 16.960711
_cell_angle_alpha 90.000000
_cell_angle_beta 84.633556
_cell_angle_gamma 90.000000
_cell_volume 2813.617293
_symmetry_space_group_name_H-M "C 2/M"
_symmetry_group_IT_number 12
_symmetry_cell_setting 'monoclinic'
loop_
_space_group_symop_operation_xyz
x,y,z
-x,y,-z
-x,-y,-z
x,-y,z
1/2+x,1/2+y,z
1/2-x,1/2+y,-z
1/2-x,1/2-y,-z
1/2+x,1/2-y,z
loop_
_atom_site_type_symbol
_atom_site_label
_atom_site_fract_x
_atom_site_fract_y
_atom_site_fract_z
Si Si1 0.088710 0.630506 0.335310
Si Si2 0.199615 0.628196 0.595645
Si Si3 0.096473 0.628649 0.756682
Si Si4 0.608699 0.868355 0.017887
Si Si5 0.500000 0.500000 0.000000
Si Si6 0.881253 0.190945 0.109094
Si Si7 0.679405 0.130658 0.177105
Si Si8 0.396616 0.705289 0.519032
O O1 0.115936 0.500000 0.352768
O O2 0.158192 0.682540 0.263670
O O3 0.086340 0.700801 0.414658
O O4 0.990282 0.630985 0.296988
O O5 0.162860 0.500000 0.579434
O O6 0.184664 0.642466 0.690696
O O7 0.307393 0.634343 0.557996
O O8 0.142184 0.727144 0.554622
O O9 0.099781 0.500000 0.793231
O O10 0.084577 0.727445 0.822120
O O11 0.654702 0.781278 0.953844
O O12 0.644552 0.000000 0.011292
O O13 0.500000 0.870474 0.000000
O O14 0.624266 0.823851 0.105269
O O15 0.548480 0.601978 0.938813
O O16 0.788446 0.130169 0.148763
O O17 0.644111 0.000000 0.187419
O O18 0.500000 0.649618 0.500000
#
# Coordination Sequence:
#
# PCOD9197587 Si02
#       8
#     8   8   8   8   2   8   8   8
#     4  10  20  35  60  92 119 157 208 264 316 362
#     4  10  22  39  63  95 130 169 218 269 317 377
#     4  10  21  39  66  92 120 160 212 274 317 362
#     4  10  20  36  60  86 108 143 195 253 305 356
#     4  12  28  40  62  84 118 182 190 250 312 396
#     4  12  22  41  58  83 124 158 204 244 312 385
#     4  10  21  36  56  84 117 154 200 253 304 363
#     4  11  21  37  63  94 132 173 212 257 327 381
#
# _framework density 20.614032999999999
#
# number of rings (size 3 to 8) (size 9 to 14) (size 15 to 20)
#    0.000    1.517    2.759    2.897    0.000    3.034 
#    0.000    0.000    3.034    0.000    0.000    0.000 
#    0.000    0.000    0.000    0.000    0.000    0.000 
#
# Total GULP energy -161439.767478 kJ/mol
# GULP energy per Si atom -5566.888534 kJ/mol
# Density = 2.056711 g / cm^3
# Si number density = 20.614033 Si / 1000 Ang^3
#
#
#
# Elastic Constant Matrix: (Units=GPa)
#
#
# Indices 1 2 3 4 5 6 
#
# 1 90.0069 16.6647 19.4357 0.0000 -22.9875 0.0000
# 2 16.6647 89.5681 38.7032 0.0000 -5.9878 0.0000
# 3 19.4357 38.7032 82.7408 0.0000 -17.8474 0.0000
# 4 0.0000 0.0000 0.0000 27.2820 0.0000 -4.1399
# 5 -22.9875 -5.9878 -17.8474 0.0000 39.5569 0.0000
# 6 0.0000 0.0000 0.0000 -4.1399 0.0000 16.4185
#
#
#
# Elastic Compliance Matrix: (Units=1/GPa)
#
#
# Indices 1 2 3 4 5 6 
#
# 1 0.013430 -0.001660 -0.000830 0.000000 0.007179 0.000000
# 2 -0.001660 0.014229 -0.006657 0.000000 -0.001815 0.000000
# 3 -0.000830 -0.006657 0.016699 0.000000 0.006044 0.000000
# 4 0.000000 0.000000 0.000000 0.038112 0.000000 0.009610
# 5 0.007179 -0.001815 0.006044 0.000000 0.031904 0.000000
# 6 0.000000 0.000000 0.000000 0.009610 0.000000 0.063330
#
#
# Mechanical properties :
#
#
# Convention : Reuss Voigt Hill
#
# Bulk Modulus (GPa) = 38.36772 45.76920 42.06846
# Shear Modulus (GPa) = 24.42755 29.15230 26.78993
#
# Velocity S-wave (km/s) = 3.44611 3.76466 3.60890
# Velocity P-wave (km/s) = 5.87257 6.41467 6.14960
#
# Compressibility (1/GPa) = 0.02606358
#
# Stress axis : x y z
#
# Youngs Moduli (GPa) = 74.45834 70.27939 59.88540
#
# Poissons Ratio (x) = 0.11669 0.04968
# Poissons Ratio (y) = 0.12363 0.39867
# Poissons Ratio (z) = 0.06177 0.46786
#
# Static dielectric constant tensor:
#      x y z
#    x 1.796200 0.000000 -0.048030 
#    y 0.000000 1.736700 0.000000 
#    z -0.048030 0.000000 1.769410 
# 
# From -- ./inp_files/268767.got.cif
#   From: 2010.05.17/outbox.cif.g08.bks.cpg/sg12_135_cif.got.tgz:268767.got - 2010.06.03 13:09:07.
