data_PCOD9197222
_publ_section_title
;
Structure prediction by ZEFSAII (Michael W. Deem and Ramdas Pophale) SiO2 
 PCOD9197222
Probable space group: C 2/M
;
_chemical_formula_sum "Si O2"
_cell_formula_units_Z 64
_cell_length_a 13.465362
_cell_length_b 10.858181
_cell_length_c 17.320723
_cell_angle_alpha 90.000000
_cell_angle_beta 72.526008
_cell_angle_gamma 90.000000
_cell_volume 2415.587291
_symmetry_space_group_name_H-M "C 2/M"
_symmetry_group_IT_number 12
_symmetry_cell_setting 'monoclinic'
loop_
_space_group_symop_operation_xyz
x,y,z
-x,y,-z
-x,-y,-z
x,-y,z
1/2+x,1/2+y,z
1/2-x,1/2+y,-z
1/2-x,1/2-y,-z
1/2+x,1/2-y,z
loop_
_atom_site_type_symbol
_atom_site_label
_atom_site_fract_x
_atom_site_fract_y
_atom_site_fract_z
Si Si1 0.233431 0.365309 0.436271
Si Si2 0.108913 0.864783 0.076972
Si Si3 0.029588 0.694219 0.811531
Si Si4 0.190195 0.635896 0.206554
Si Si5 0.476555 0.624554 0.413959
Si Si6 0.541117 0.126422 0.578801
Si Si7 0.668339 0.785102 0.921341
Si Si8 0.253962 0.847386 0.310956
O O1 0.206727 0.500000 0.406059
O O2 0.353677 0.376475 0.429856
O O3 0.162540 0.364601 0.529530
O O4 0.215832 0.242632 0.390016
O O5 0.225836 0.860246 0.085383
O O6 0.016265 0.829869 0.158001
O O7 0.090239 0.000000 0.049951
O O8 0.112177 0.756359 0.012696
O O9 0.091389 0.656555 0.875790
O O10 0.121589 0.675599 0.727750
O O11 0.921875 0.634120 0.809159
O O12 0.205868 0.500000 0.238890
O O13 0.283024 0.658207 0.123893
O O14 0.206561 0.763186 0.252193
O O15 0.500000 0.624069 0.500000
O O16 0.521465 0.500000 0.369398
O O17 0.508103 0.754401 0.373239
O O18 0.500000 0.122738 0.500000
O O19 0.517746 0.000000 0.624501
O O20 0.740519 0.500000 0.318031
#
# Coordination Sequence:
#
# PCOD9197222 Si02
#       8
#     8   8   8   8   8   8   8   8
#     4  10  21  39  63  90 123 164 205 247 299 366
#     4  10  20  35  58  92 131 169 211 263 323 386
#     4  10  22  38  61  87 120 165 213 261 316 374
#     4  10  21  40  65  89 120 163 211 265 321 378
#     4   9  18  34  58  90 127 159 193 240 296 354
#     4   9  18  34  58  89 121 155 195 238 291 356
#     4   9  20  36  57  92 129 163 209 262 319 384
#     4  11  25  45  65  89 122 164 216 268 315 370
#
# _framework density 26.494592999999998
#
# number of rings (size 3 to 8) (size 9 to 14) (size 15 to 20)
#    0.000    2.250    0.000    1.875    0.000    9.500 
#    4.500    0.625    0.000   10.500    0.000    0.000 
#    0.000    0.000    0.000    0.000    0.000    0.000 
#
# Total GULP energy -178301.608015 kJ/mol
# GULP energy per Si atom -5571.925250 kJ/mol
# Density = 2.643429 g / cm^3
# Si number density = 26.494593 Si / 1000 Ang^3
#
#
#
# Elastic Constant Matrix: (Units=GPa)
#
#
# Indices 1 2 3 4 5 6 
#
# 1 165.4266 28.6018 19.2150 0.0000 -6.9739 0.0000
# 2 28.6018 275.0719 49.0984 0.0000 0.4198 0.0000
# 3 19.2150 49.0984 53.3603 0.0000 -11.0254 0.0000
# 4 0.0000 0.0000 0.0000 -4.4457 0.0000 20.0411
# 5 -6.9739 0.4198 -11.0254 0.0000 59.3618 0.0000
# 6 0.0000 0.0000 0.0000 20.0411 0.0000 -12.1451
#
#
#
# Elastic Compliance Matrix: (Units=1/GPa)
#
#
# Indices 1 2 3 4 5 6 
#
# 1 0.006338 -0.000319 -0.001908 0.000000 0.000393 0.000000
# 2 -0.000319 0.004403 -0.004108 0.000000 -0.000832 0.000000
# 3 -0.001908 -0.004108 0.024092 0.000000 0.004280 0.000000
# 4 0.000000 0.000000 0.000000 0.034935 0.000000 0.057647
# 5 0.000393 -0.000832 0.004280 0.000000 0.017693 0.000000
# 6 0.000000 0.000000 0.000000 0.057647 0.000000 0.012788
#
#
# Mechanical properties :
#
#
# Convention : Reuss Voigt Hill
#
# Bulk Modulus (GPa) = 45.12016 76.40991 60.76503
# Shear Modulus (GPa) = 41.56031 35.01710 38.28871
#
# Velocity S-wave (km/s) = 3.96489 3.63942 3.80564
# Velocity P-wave (km/s) = 6.16664 6.82370 6.50348
#
# Compressibility (1/GPa) = 0.02216304
#
# Stress axis : x y z
#
# Youngs Moduli (GPa) = 157.77139 227.10794 41.50759
#
# Poissons Ratio (x) = 0.07248 0.07918
# Poissons Ratio (y) = 0.05035 0.17053
# Poissons Ratio (z) = 0.30097 0.93306
#
# Static dielectric constant tensor:
#      x y z
#    x 2.147700 0.000000 0.061610 
#    y 0.000000 2.150940 0.000000 
#    z 0.061610 0.000000 2.077460 
# 
# From -- ./inp_files/309897.got.cif
#   From: 2010.05.17/outbox.cif.g08.bks.cpg/sg12_155_cif.got.tgz:309897.got - 2010.06.03 13:09:07.
