data_PCOD9197666
_publ_section_title
;
Structure prediction by ZEFSAII (Michael W. Deem and Ramdas Pophale) SiO2 
 PCOD9197666
Probable space group: C 2/M
;
_chemical_formula_sum "Si O2"
_cell_formula_units_Z 64
_cell_length_a 11.793253
_cell_length_b 20.079482
_cell_length_c 27.864757
_cell_angle_alpha 90.000000
_cell_angle_beta 31.220117
_cell_angle_gamma 90.000000
_cell_volume 3420.152461
_symmetry_space_group_name_H-M "C 2/M"
_symmetry_group_IT_number 12
_symmetry_cell_setting 'monoclinic'
loop_
_space_group_symop_operation_xyz
x,y,z
-x,y,-z
-x,-y,-z
x,-y,z
1/2+x,1/2+y,z
1/2-x,1/2+y,-z
1/2-x,1/2-y,-z
1/2+x,1/2-y,z
loop_
_atom_site_type_symbol
_atom_site_label
_atom_site_fract_x
_atom_site_fract_y
_atom_site_fract_z
Si Si1 0.702274 0.841491 0.903676
Si Si2 0.143810 0.578716 0.743430
Si Si3 0.435469 0.334523 0.404194
Si Si4 0.904701 0.667721 0.755742
Si Si5 0.392709 0.683530 0.936335
Si Si6 0.557354 0.922454 0.079379
Si Si7 0.089003 0.809099 0.695703
Si Si8 0.984937 0.324222 0.619132
O O1 0.863640 0.839670 0.891099
O O2 0.565410 0.900029 0.925628
O O3 0.857106 0.821460 0.804473
O O4 0.500000 0.799763 0.000000
O O5 0.155727 0.500000 0.730268
O O6 0.371229 0.616209 0.651579
O O7 0.966582 0.613747 0.773155
O O8 0.084357 0.588425 0.821230
O O9 0.391825 0.340762 0.363378
O O10 0.504801 0.256815 0.382894
O O11 0.217027 0.345753 0.513709
O O12 0.650416 0.689927 0.853208
O O13 0.937313 0.646457 0.688735
O O14 0.078028 0.728780 0.697254
O O15 0.250000 0.750000 0.000000
O O16 0.269998 0.623871 0.008008
O O17 0.611675 0.000000 0.056434
O O18 0.283696 0.837446 0.656968
#
# Coordination Sequence:
#
# PCOD9197666 Si02
#       8
#     8   8   8   8   8   8   8   8
#     4  10  20  35  61  92 120 156 203 251 313 360
#     4  11  24  43  63  87 126 174 213 250 303 381
#     4  10  21  38  62  92 120 159 206 256 311 374
#     4  11  23  37  59  89 128 165 202 251 312 374
#     4  11  24  38  61  96 133 165 201 262 317 375
#     4  10  23  43  64  88 122 170 220 258 306 372
#     4  11  19  36  63  91 127 152 198 264 315 365
#     4  10  21  37  62  93 123 152 201 264 323 363
#
# _framework density 18.712617999999999
#
# number of rings (size 3 to 8) (size 9 to 14) (size 15 to 20)
#    0.000    1.500    3.750    1.875    3.500    3.750 
#    0.000    2.500    0.000    3.000    0.000    0.000 
#    0.000    0.000    0.000    0.000    0.000    0.000 
#
# Total GULP energy -178153.729892 kJ/mol
# GULP energy per Si atom -5567.304059 kJ/mol
# Density = 1.867003 g / cm^3
# Si number density = 18.712618 Si / 1000 Ang^3
#
#
#
# Elastic Constant Matrix: (Units=GPa)
#
#
# Indices 1 2 3 4 5 6 
#
# 1 109.8575 46.4018 51.7981 0.0045 -5.9387 -0.0015
# 2 46.4018 58.5836 39.9116 0.0034 -2.2685 0.0068
# 3 51.7981 39.9116 112.4080 0.0233 5.5078 -0.0007
# 4 0.0045 0.0034 0.0233 22.6515 0.0014 0.8366
# 5 -5.9387 -2.2685 5.5078 0.0014 21.6857 -0.0028
# 6 -0.0015 0.0068 -0.0007 0.8366 -0.0028 19.6948
#
#
#
# Elastic Compliance Matrix: (Units=1/GPa)
#
#
# Indices 1 2 3 4 5 6 
#
# 1 0.014989 -0.009059 -0.003894 0.000002 0.004146 0.000005
# 2 -0.009059 0.028422 -0.006016 0.000004 0.002020 -0.000011
# 3 -0.003894 -0.006016 0.013072 -0.000012 -0.005016 0.000002
# 4 0.000002 0.000004 -0.000012 0.044217 0.000001 -0.001878
# 5 0.004146 0.002020 -0.005016 0.000001 0.048734 0.000006
# 6 0.000005 -0.000011 0.000002 -0.001878 0.000006 0.050855
#
#
# Mechanical properties :
#
#
# Convention : Reuss Voigt Hill
#
# Bulk Modulus (GPa) = 53.92118 61.89690 57.90904
# Shear Modulus (GPa) = 20.45765 22.32223 21.38994
#
# Velocity S-wave (km/s) = 3.31003 3.45758 3.38461
# Velocity P-wave (km/s) = 6.59442 7.00637 6.80351
#
# Compressibility (1/GPa) = 0.01854559
#
# Stress axis : x y z
#
# Youngs Moduli (GPa) = 66.71519 35.18441 76.49839
#
# Poissons Ratio (x) = 0.31874 0.29786
# Poissons Ratio (y) = 0.60438 0.46021
# Poissons Ratio (z) = 0.25977 0.21167
#
# Static dielectric constant tensor:
#      x y z
#    x 1.679210 0.000000 0.017020 
#    y 0.000000 1.646850 0.000000 
#    z 0.017020 0.000000 1.653270 
# 
# From -- ./inp_files/358990.got.cif
#   From: 2010.05.17/outbox.cif.g08.bks.cpg/sg12_180_cif.got.tgz:358990.got - 2010.06.03 13:09:07.
