data_PCOD9197943
_publ_section_title
;
Structure prediction by ZEFSAII (Michael W. Deem and Ramdas Pophale) SiO2 
 PCOD9197943
Probable space group: C 2/M
;
_chemical_formula_sum "Si O2"
_cell_formula_units_Z 48
_cell_length_a 23.480984
_cell_length_b 14.127107
_cell_length_c 10.535527
_cell_angle_alpha 90.000000
_cell_angle_beta 34.584847
_cell_angle_gamma 90.000000
_cell_volume 1983.755277
_symmetry_space_group_name_H-M "C 2/M"
_symmetry_group_IT_number 12
_symmetry_cell_setting 'monoclinic'
loop_
_space_group_symop_operation_xyz
x,y,z
-x,y,-z
-x,-y,-z
x,-y,z
1/2+x,1/2+y,z
1/2-x,1/2+y,-z
1/2-x,1/2-y,-z
1/2+x,1/2-y,z
loop_
_atom_site_type_symbol
_atom_site_label
_atom_site_fract_x
_atom_site_fract_y
_atom_site_fract_z
Si Si1 0.395737 0.219954 0.277473
Si Si2 0.875190 0.107248 0.593367
Si Si3 0.563823 0.717649 0.134562
Si Si4 0.734878 0.397482 0.472563
Si Si5 0.898018 0.600011 0.765119
Si Si6 0.790925 0.304330 0.745357
O O1 0.508786 0.248933 0.106478
O O2 0.335243 0.313909 0.347851
O O3 0.349441 0.134832 0.280340
O O4 0.354316 0.193201 0.497969
O O5 0.803226 0.098292 0.602100
O O6 0.824648 0.201894 0.746219
O O7 0.986052 0.144726 0.345809
O O8 0.881357 0.000000 0.637185
O O9 0.583284 0.813010 0.177596
O O10 0.676165 0.680855 0.917971
O O11 0.717930 0.500000 0.562435
O O12 0.876257 0.500000 0.870956
O O13 0.818886 0.620385 0.800006
O O14 0.000000 0.593289 0.500000
#
# Coordination Sequence:
#
# PCOD9197943 Si02
#       6
#     8   8   8   8   8   8
#     4   9  18  32  51  78 103 136 179 216 259 309
#     4   9  19  37  56  77 110 144 179 223 265 313
#     4  10  20  36  55  77 107 141 179 219 266 320
#     4   8  15  31  52  72 104 141 171 213 264 308
#     4  11  21  36  54  77 108 136 170 220 274 318
#     4  10  20  36  55  77 107 141 179 219 266 320
#
# _framework density 24.196532999999999
#
# number of rings (size 3 to 8) (size 9 to 14) (size 15 to 20)
#    0.000    2.833    3.333    0.500    0.000    2.667 
#    0.000   15.000    0.000   10.000    0.000    0.000 
#    0.000    0.000    0.000    0.000    0.000    0.000 
#
# Total GULP energy -133875.070918 kJ/mol
# GULP energy per Si atom -5578.127955 kJ/mol
# Density = 2.414146 g / cm^3
# Si number density = 24.196533 Si / 1000 Ang^3
#
#
#
# Elastic Constant Matrix: (Units=GPa)
#
#
# Indices 1 2 3 4 5 6 
#
# 1 88.1262 29.9885 24.7461 0.0000 -38.4587 0.0000
# 2 29.9885 106.3112 -0.6546 0.0000 -4.1927 0.0000
# 3 24.7461 -0.6546 100.4527 0.0000 -39.9020 0.0000
# 4 0.0000 0.0000 0.0000 31.0910 0.0000 -9.0195
# 5 -38.4587 -4.1927 -39.9020 0.0000 40.8765 0.0000
# 6 0.0000 0.0000 0.0000 -9.0195 0.0000 11.7019
#
#
#
# Elastic Compliance Matrix: (Units=1/GPa)
#
#
# Indices 1 2 3 4 5 6 
#
# 1 0.023079 -0.005480 0.004379 0.000000 0.025425 0.000000
# 2 -0.005480 0.010779 -0.000308 0.000000 -0.004351 0.000000
# 3 0.004379 -0.000308 0.017147 0.000000 0.020826 0.000000
# 4 0.000000 0.000000 0.000000 0.041427 0.000000 0.031931
# 5 0.025425 -0.004351 0.020826 0.000000 0.068269 0.000000
# 6 0.000000 0.000000 0.000000 0.031931 0.000000 0.110068
#
#
# Mechanical properties :
#
#
# Convention : Reuss Voigt Hill
#
# Bulk Modulus (GPa) = 20.75373 44.78334 32.76854
# Shear Modulus (GPa) = 17.26230 32.78790 25.02510
#
# Velocity S-wave (km/s) = 2.67389 3.68512 3.21945
# Velocity P-wave (km/s) = 4.25778 6.05435 5.23373
#
# Compressibility (1/GPa) = 0.04818411
#
# Stress axis : x y z
#
# Youngs Moduli (GPa) = 43.33026 92.77524 58.31995
#
# Poissons Ratio (x) = 0.50844 -0.25536
# Poissons Ratio (y) = 0.23746 0.01797
# Poissons Ratio (z) = -0.18972 0.02859
#
# Static dielectric constant tensor:
#      x y z
#    x 1.963700 0.000000 0.095980 
#    y 0.000000 1.997220 0.000000 
#    z 0.095980 0.000000 2.108880 
# 
# From -- ./inp_files/246280.got.cif
#   From: 2010.05.17/outbox.cif.g08.bks.cpg/sg12_124_cif.got.tgz:246280.got - 2010.06.03 13:09:07.
