data_PCOD9197205
_publ_section_title
;
Structure prediction by ZEFSAII (Michael W. Deem and Ramdas Pophale) SiO2 
 PCOD9197205
Probable space group: C 2/M
;
_chemical_formula_sum "Si O2"
_cell_formula_units_Z 40
_cell_length_a 15.048635
_cell_length_b 18.390100
_cell_length_c 13.903099
_cell_angle_alpha 90.000000
_cell_angle_beta 27.137814
_cell_angle_gamma 90.000000
_cell_volume 1755.026465
_symmetry_space_group_name_H-M "C 2/M"
_symmetry_group_IT_number 12
_symmetry_cell_setting 'monoclinic'
loop_
_space_group_symop_operation_xyz
x,y,z
-x,y,-z
-x,-y,-z
x,-y,z
1/2+x,1/2+y,z
1/2-x,1/2+y,-z
1/2-x,1/2-y,-z
1/2+x,1/2-y,z
loop_
_atom_site_type_symbol
_atom_site_label
_atom_site_fract_x
_atom_site_fract_y
_atom_site_fract_z
Si Si1 0.960392 0.702040 0.370375
Si Si2 0.500000 0.386471 0.500000
Si Si3 0.770220 0.000000 0.207028
Si Si4 0.887681 0.142940 0.395362
Si Si5 0.863082 0.000000 0.902552
Si Si6 0.195804 0.500000 0.868107
Si Si7 0.733207 0.661461 0.772980
O O1 0.971887 0.775596 0.295739
O O2 0.835580 0.645404 0.426204
O O3 0.823301 0.706868 0.598584
O O4 0.164760 0.681223 0.223705
O O5 0.589311 0.355763 0.511718
O O6 0.322780 0.432310 0.712783
O O7 0.708642 0.077598 0.306420
O O8 0.000000 0.000000 0.000000
O O9 0.753907 0.000000 0.108321
O O10 0.002419 0.072856 0.242018
O O11 0.698869 0.000000 0.979128
O O12 0.000000 0.500000 0.000000
O O13 0.500000 0.667708 0.000000
#
# Coordination Sequence:
#
# PCOD9197205 Si02
#       7
#     8   4   4   8   4   4   8
#     4  10  22  38  60  87 119 158 198 240 296 357
#     4   9  18  34  54  76 110 147 188 240 284 333
#     4  10  20  35  58  91 121 150 193 241 294 353
#     4  10  20  39  60  84 117 156 200 245 292 347
#     4  10  21  38  62  87 120 157 197 248 295 349
#     4   9  19  34  53  79 109 145 188 237 289 338
#     4  10  21  39  61  89 123 156 194 244 298 356
#
# _framework density 22.791678999999998
#
# number of rings (size 3 to 8) (size 9 to 14) (size 15 to 20)
#    0.000    2.200    0.000    4.200    0.000    4.000 
#    0.000   18.000    0.000    0.000    0.000    0.000 
#    0.000    0.000    0.000    0.000    0.000    0.000 
#
# Total GULP energy -111422.107956 kJ/mol
# GULP energy per Si atom -5571.105398 kJ/mol
# Density = 2.273980 g / cm^3
# Si number density = 22.791679 Si / 1000 Ang^3
#
#
#
# Elastic Constant Matrix: (Units=GPa)
#
#
# Indices 1 2 3 4 5 6 
#
# 1 174.2674 15.3935 46.7840 -0.0019 -44.1102 0.0036
# 2 15.3935 123.0071 21.6860 0.0407 -7.5548 -0.0012
# 3 46.7840 21.6860 76.0408 0.0196 -31.3889 0.0054
# 4 -0.0019 0.0407 0.0196 -15.6378 -0.0031 6.3678
# 5 -44.1102 -7.5548 -31.3889 -0.0031 52.3109 -0.0086
# 6 0.0036 -0.0012 0.0054 6.3678 -0.0086 31.0105
#
#
#
# Elastic Compliance Matrix: (Units=1/GPa)
#
#
# Indices 1 2 3 4 5 6 
#
# 1 0.007705 -0.000193 -0.002678 -0.000005 0.004862 0.000002
# 2 -0.000193 0.008568 -0.002501 0.000018 -0.000426 -0.000003
# 3 -0.002678 -0.002501 0.019182 0.000015 0.008890 -0.000004
# 4 -0.000005 0.000018 0.000015 -0.059013 0.000006 0.012118
# 5 0.004862 -0.000426 0.008890 0.000006 0.028489 0.000005
# 6 0.000002 -0.000003 -0.000004 0.012118 0.000005 0.029759
#
#
# Mechanical properties :
#
#
# Convention : Reuss Voigt Hill
#
# Bulk Modulus (GPa) = 40.46848 60.11581 50.29215
# Shear Modulus (GPa) = 93.15867 32.83351 62.99609
#
# Velocity S-wave (km/s) = 6.40021 3.79963 5.26307
# Velocity P-wave (km/s) = 8.50948 6.75892 7.68422
#
# Compressibility (1/GPa) = 0.02471059
#
# Stress axis : x y z
#
# Youngs Moduli (GPa) = 129.78380 116.70676 52.13332
#
# Poissons Ratio (x) = 0.02257 0.13963
# Poissons Ratio (y) = 0.02510 0.13036
# Poissons Ratio (z) = 0.34761 0.29183
#
# Static dielectric constant tensor:
#      x y z
#    x 2.107730 0.000000 0.028510 
#    y 0.000000 1.933150 0.000010 
#    z 0.028510 0.000010 1.823710 
# 
# From -- ./inp_files/216695.got.cif
#   From: 2010.05.17/outbox.cif.g08.bks.cpg/sg12_109_cif.got.tgz:216695.got - 2010.06.03 13:09:07.
