data_PCOD9197534
_publ_section_title
;
Structure prediction by ZEFSAII (Michael W. Deem and Ramdas Pophale) SiO2 
 PCOD9197534
Probable space group: C 2/M
;
_chemical_formula_sum "Si O2"
_cell_formula_units_Z 40
_cell_length_a 9.708004
_cell_length_b 18.957408
_cell_length_c 15.093249
_cell_angle_alpha 90.000000
_cell_angle_beta 137.198182
_cell_angle_gamma 90.000000
_cell_volume 1887.376164
_symmetry_space_group_name_H-M "C 2/M"
_symmetry_group_IT_number 12
_symmetry_cell_setting 'monoclinic'
loop_
_space_group_symop_operation_xyz
x,y,z
-x,y,-z
-x,-y,-z
x,-y,z
1/2+x,1/2+y,z
1/2-x,1/2+y,-z
1/2-x,1/2-y,-z
1/2+x,1/2-y,z
loop_
_atom_site_type_symbol
_atom_site_label
_atom_site_fract_x
_atom_site_fract_y
_atom_site_fract_z
Si Si1 0.638978 0.164291 0.351938
Si Si2 0.270837 0.819269 0.411216
Si Si3 0.739419 0.080359 0.236733
Si Si4 0.687427 0.081083 0.894822
Si Si5 0.505414 0.415850 0.817101
O O1 0.725000 0.146582 0.489121
O O2 0.636494 0.248777 0.346655
O O3 0.773478 0.132449 0.335414
O O4 0.418825 0.129933 0.228249
O O5 0.500000 0.796608 0.500000
O O6 0.193920 0.874013 0.302746
O O7 0.493626 0.079272 0.116641
O O8 0.846457 0.100010 0.196421
O O9 0.801071 0.000000 0.288583
O O10 0.712975 0.000000 0.875633
O O11 0.887167 0.104942 0.040404
O O12 0.477052 0.500000 0.806613
#
# Coordination Sequence:
#
# PCOD9197534 Si02
#       5
#     8   8   8   8   8
#     4   9  21  36  59  79 111 149 188 228 287 327
#     4  11  25  39  52  76 119 159 191 226 266 334
#     4   8  16  33  61  90 112 133 179 242 290 325
#     4   8  16  34  61  91 113 134 180 242 292 329
#     4  10  20  35  60  89 114 146 185 232 285 332
#
# _framework density 21.193442999999998
#
# number of rings (size 3 to 8) (size 9 to 14) (size 15 to 20)
#    1.200    1.600    0.000    0.600    5.600    5.200 
#    0.000    3.000    0.000    2.400    0.000    0.000 
#    0.000    0.000    0.000    0.000    0.000    0.000 
#
# Total GULP energy -111458.142782 kJ/mol
# GULP energy per Si atom -5572.907139 kJ/mol
# Density = 2.114521 g / cm^3
# Si number density = 21.193443 Si / 1000 Ang^3
#
#
#
# Elastic Constant Matrix: (Units=GPa)
#
#
# Indices 1 2 3 4 5 6 
#
# 1 66.5300 17.3030 26.7079 0.0000 -28.7890 0.0001
# 2 17.3030 65.3136 88.8922 0.0000 -13.1577 0.0000
# 3 26.7079 88.8922 165.2666 0.0001 -17.1141 0.0002
# 4 0.0000 0.0000 0.0001 42.4414 0.0001 -9.5419
# 5 -28.7890 -13.1577 -17.1141 0.0001 21.1579 0.0001
# 6 0.0001 0.0000 0.0002 -9.5419 0.0001 14.0783
#
#
#
# Elastic Compliance Matrix: (Units=1/GPa)
#
#
# Indices 1 2 3 4 5 6 
#
# 1 0.037113 0.005265 -0.003559 0.000000 0.050894 -0.000001
# 2 0.005265 0.060644 -0.031457 0.000000 0.019432 0.000001
# 3 -0.003559 -0.031457 0.022940 0.000000 -0.005850 0.000000
# 4 0.000000 0.000000 0.000000 0.027798 0.000000 0.018841
# 5 0.050894 0.019432 -0.005850 0.000000 0.123867 -0.000001
# 6 -0.000001 0.000001 0.000000 0.018841 -0.000001 0.083801
#
#
# Mechanical properties :
#
#
# Convention : Reuss Voigt Hill
#
# Bulk Modulus (GPa) = 16.34137 62.54626 39.44382
# Shear Modulus (GPa) = 11.46617 26.48266 18.97441
#
# Velocity S-wave (km/s) = 2.32852 3.53876 2.99540
# Velocity P-wave (km/s) = 3.86738 6.80244 5.53308
#
# Compressibility (1/GPa) = 0.06119437
#
# Stress axis : x y z
#
# Youngs Moduli (GPa) = 26.94445 16.48957 43.59145
#
# Poissons Ratio (x) = -0.08681 0.15514
# Poissons Ratio (y) = -0.14185 1.37127
# Poissons Ratio (z) = 0.09590 0.51872
#
# Static dielectric constant tensor:
#      x y z
#    x 1.828590 0.000000 0.019860 
#    y 0.000000 1.721470 0.000000 
#    z 0.019860 0.000000 1.758600 
# 
# From -- ./inp_files/264045.got.cif
#   From: 2010.05.17/outbox.cif.g08.bks.cpg/sg12_133_cif.got.tgz:264045.got - 2010.06.03 13:09:07.
