data_PCOD9197228
_publ_section_title
;
Structure prediction by ZEFSAII (Michael W. Deem and Ramdas Pophale) SiO2 
 PCOD9197228
Probable space group: C 2/M
;
_chemical_formula_sum "Si O2"
_cell_formula_units_Z 34
_cell_length_a 15.127551
_cell_length_b 11.968342
_cell_length_c 9.310634
_cell_angle_alpha 90.000000
_cell_angle_beta 136.615861
_cell_angle_gamma 90.000000
_cell_volume 1157.888544
_symmetry_space_group_name_H-M "C 2/M"
_symmetry_group_IT_number 12
_symmetry_cell_setting 'monoclinic'
loop_
_space_group_symop_operation_xyz
x,y,z
-x,y,-z
-x,-y,-z
x,-y,z
1/2+x,1/2+y,z
1/2-x,1/2+y,-z
1/2-x,1/2-y,-z
1/2+x,1/2-y,z
loop_
_atom_site_type_symbol
_atom_site_label
_atom_site_fract_x
_atom_site_fract_y
_atom_site_fract_z
Si Si1 0.942144 0.875641 0.613498
Si Si2 0.957747 0.376562 0.285243
Si Si3 0.154425 0.120130 0.205566
Si Si4 0.000000 0.500000 0.000000
Si Si5 0.273139 0.844928 0.839606
O O1 0.001000 0.751351 0.704735
O O2 0.831222 0.872285 0.606518
O O3 0.868266 0.879975 0.374424
O O4 0.002140 0.000000 0.711198
O O5 0.006090 0.500000 0.275840
O O6 0.000000 0.384639 0.500000
O O7 0.814136 0.372820 0.049614
O O8 0.221069 0.217509 0.200761
O O9 0.203743 0.000000 0.216629
O O10 0.000000 0.125293 0.000000
O O11 0.886896 0.403453 0.885777
#
# Coordination Sequence:
#
# PCOD9197228 Si02
#       5
#     8   8   8   2   8
#     4  11  23  41  65  96 125 166 213 262 315 381
#     4  11  25  45  65  89 128 172 217 268 313 365
#     4  10  20  35  58  93 131 157 193 263 324 372
#     4  12  20  36  64  92 120 160 200 246 312 382
#     4  12  22  40  65  92 126 169 211 251 314 390
#
# _framework density 29.363793000000001
#
# number of rings (size 3 to 8) (size 9 to 14) (size 15 to 20)
#    0.000    0.941    5.882    0.706    0.000    2.353 
#    0.000    0.000    0.000    0.000    0.000    0.000 
#    0.000    0.000    0.000    0.000    0.000    0.000 
#
# Total GULP energy -94868.981432 kJ/mol
# GULP energy per Si atom -5580.528320 kJ/mol
# Density = 2.929696 g / cm^3
# Si number density = 29.363793 Si / 1000 Ang^3
#
#
#
# Elastic Constant Matrix: (Units=GPa)
#
#
# Indices 1 2 3 4 5 6 
#
# 1 61.7034 69.2913 22.1704 0.0000 6.1946 0.0000
# 2 69.2913 359.6177 33.0419 0.0000 -8.3438 0.0000
# 3 22.1704 33.0419 183.7090 0.0000 7.6756 0.0000
# 4 0.0000 0.0000 0.0000 43.1588 0.0000 -1.2549
# 5 6.1946 -8.3438 7.6756 0.0000 46.8428 0.0000
# 6 0.0000 0.0000 0.0000 -1.2549 0.0000 51.2323
#
#
#
# Elastic Compliance Matrix: (Units=1/GPa)
#
#
# Indices 1 2 3 4 5 6 
#
# 1 0.021791 -0.004115 -0.001751 0.000000 -0.003328 0.000000
# 2 -0.004115 0.003621 -0.000206 0.000000 0.001223 0.000000
# 3 -0.001751 -0.000206 0.005723 0.000000 -0.000743 0.000000
# 4 0.000000 0.000000 0.000000 0.023187 0.000000 0.000568
# 5 -0.003328 0.001223 -0.000743 0.000000 0.022128 0.000000
# 6 0.000000 0.000000 0.000000 0.000568 0.000000 0.019533
#
#
# Mechanical properties :
#
#
# Convention : Reuss Voigt Hill
#
# Bulk Modulus (GPa) = 52.65481 94.89303 73.77392
# Shear Modulus (GPa) = 43.68541 60.28189 51.98365
#
# Velocity S-wave (km/s) = 3.86130 4.53585 4.21210
# Velocity P-wave (km/s) = 6.15226 7.73423 6.98816
#
# Compressibility (1/GPa) = 0.01899162
#
# Stress axis : x y z
#
# Youngs Moduli (GPa) = 45.89117 276.17550 174.74279
#
# Poissons Ratio (x) = 1.13646 0.30590
# Poissons Ratio (y) = 0.18884 0.03595
# Poissons Ratio (z) = 0.08034 0.05682
#
# Static dielectric constant tensor:
#      x y z
#    x 2.135430 0.000000 0.122160 
#    y 0.000000 2.272280 0.000000 
#    z 0.122160 0.000000 2.112900 
# 
# From -- ./inp_files/127802.got.cif
#   From: 2010.05.17/outbox.cif.g08.bks.cpg/sg12_64_cif.got.tgz:127802.got - 2010.06.03 13:09:07.
