data_PCOD9197731
_publ_section_title
;
Structure prediction by ZEFSAII (Michael W. Deem and Ramdas Pophale) SiO2 
 PCOD9197731
Probable space group: C 2/M
;
_chemical_formula_sum "Si O2"
_cell_formula_units_Z 64
_cell_length_a 11.966034
_cell_length_b 29.167746
_cell_length_c 14.895088
_cell_angle_alpha 90.000000
_cell_angle_beta 39.921076
_cell_angle_gamma 90.000000
_cell_volume 3336.181937
_symmetry_space_group_name_H-M "C 2/M"
_symmetry_group_IT_number 12
_symmetry_cell_setting 'monoclinic'
loop_
_space_group_symop_operation_xyz
x,y,z
-x,y,-z
-x,-y,-z
x,-y,z
1/2+x,1/2+y,z
1/2-x,1/2+y,-z
1/2-x,1/2-y,-z
1/2+x,1/2-y,z
loop_
_atom_site_type_symbol
_atom_site_label
_atom_site_fract_x
_atom_site_fract_y
_atom_site_fract_z
Si Si1 0.142348 0.945301 0.607239
Si Si2 0.474970 0.872573 0.117018
Si Si3 0.025898 0.604793 0.685294
Si Si4 0.477931 0.291745 0.346364
Si Si5 0.173150 0.448091 0.330602
Si Si6 0.389022 0.806940 0.480872
Si Si7 0.156075 0.723831 0.972741
Si Si8 0.070932 0.117653 0.367792
O O1 0.304588 0.925393 0.448380
O O2 0.181208 0.935275 0.687517
O O3 0.972835 0.917197 0.684134
O O4 0.132450 0.000000 0.601794
O O5 0.521937 0.897919 0.180621
O O6 0.268691 0.869122 0.254080
O O7 0.500000 0.891595 0.000000
O O8 0.567059 0.823027 0.061858
O O9 0.070375 0.655831 0.621575
O O10 0.866408 0.585944 0.724762
O O11 0.443896 0.243461 0.414497
O O12 0.319204 0.302068 0.375269
O O13 0.672611 0.289552 0.189167
O O14 0.467489 0.335191 0.418089
O O15 0.199403 0.500000 0.281906
O O16 0.000000 0.448584 0.500000
O O17 0.500000 0.819985 0.500000
O O18 0.250000 0.750000 0.000000
O O19 0.000000 0.743293 0.000000
O O20 0.000000 0.093742 0.500000
#
# Coordination Sequence:
#
# PCOD9197731 Si02
#       8
#     8   8   8   8   8   8   8   8
#     4  10  20  35  62  96 126 160 208 265 332 392
#     4  11  23  42  61  87 123 175 215 258 321 387
#     4  11  19  35  59  89 121 163 208 262 319 383
#     4  11  23  39  57  88 128 173 211 261 327 381
#     4   8  16  32  56  88 125 157 194 256 329 385
#     4  11  23  35  60  96 131 159 212 272 324 380
#     4  11  24  42  64  85 122 178 230 267 313 391
#     4  12  21  39  63  89 123 167 212 266 326 376
#
# _framework density 19.183606000000001
#
# number of rings (size 3 to 8) (size 9 to 14) (size 15 to 20)
#    0.000    1.375    5.000    3.375    1.750    2.250 
#    0.000    0.000    0.000    3.375    0.000    1.750 
#    0.000    0.000    0.000    0.000    0.000    0.000 
#
# Total GULP energy -178177.050171 kJ/mol
# GULP energy per Si atom -5568.032818 kJ/mol
# Density = 1.913994 g / cm^3
# Si number density = 19.183606 Si / 1000 Ang^3
#
#
#
# Elastic Constant Matrix: (Units=GPa)
#
#
# Indices 1 2 3 4 5 6 
#
# 1 140.1466 49.1170 45.7849 0.0000 1.8098 0.0000
# 2 49.1170 72.2785 9.7953 0.0000 9.0383 0.0000
# 3 45.7849 9.7953 61.0610 0.0000 -2.3731 0.0000
# 4 0.0000 0.0000 0.0000 -13.7677 0.0000 30.3864
# 5 1.8098 9.0383 -2.3731 0.0000 37.3982 0.0000
# 6 0.0000 0.0000 0.0000 30.3864 0.0000 -3.9314
#
#
#
# Elastic Compliance Matrix: (Units=1/GPa)
#
#
# Indices 1 2 3 4 5 6 
#
# 1 0.012341 -0.007381 -0.008043 0.000000 0.000676 0.000000
# 2 -0.007381 0.019049 0.002319 0.000000 -0.004099 0.000000
# 3 -0.008043 0.002319 0.022084 0.000000 0.001230 0.000000
# 4 0.000000 0.000000 0.000000 0.004523 0.000000 0.034959
# 5 0.000676 -0.004099 0.001230 0.000000 0.027775 0.000000
# 6 0.000000 0.000000 0.000000 0.034959 0.000000 0.015839
#
#
# Mechanical properties :
#
#
# Convention : Reuss Voigt Hill
#
# Bulk Modulus (GPa) = 36.67800 53.65340 45.16570
# Shear Modulus (GPa) = 36.52023 15.19242 25.85632
#
# Velocity S-wave (km/s) = 4.36790 2.81721 3.67527
# Velocity P-wave (km/s) = 6.67825 6.21380 6.45021
#
# Compressibility (1/GPa) = 0.02726430
#
# Stress axis : x y z
#
# Youngs Moduli (GPa) = 81.02964 52.49491 45.28186
#
# Poissons Ratio (x) = 0.38746 0.36422
# Poissons Ratio (y) = 0.59808 -0.10502
# Poissons Ratio (z) = 0.65175 -0.12175
#
# Static dielectric constant tensor:
#      x y z
#    x 1.789980 0.000000 0.020460 
#    y 0.000000 1.684680 0.000000 
#    z 0.020460 0.000000 1.660150 
# 
# From -- ./inp_files/209399.got.cif
#   From: 2010.05.17/outbox.cif.g08.bks.cpg/sg12_105_cif.got.tgz:209399.got - 2010.06.03 13:09:07.
