data_PCOD9197052
_publ_section_title
;
Structure prediction by ZEFSAII (Michael W. Deem and Ramdas Pophale) SiO2 
 PCOD9197052
Probable space group: C 2/M
;
_chemical_formula_sum "Si O2"
_cell_formula_units_Z 56
_cell_length_a 24.665509
_cell_length_b 18.600221
_cell_length_c 8.703784
_cell_angle_alpha 90.000000
_cell_angle_beta 46.277441
_cell_angle_gamma 90.000000
_cell_volume 2885.834246
_symmetry_space_group_name_H-M "C 2/M"
_symmetry_group_IT_number 12
_symmetry_cell_setting 'monoclinic'
loop_
_space_group_symop_operation_xyz
x,y,z
-x,y,-z
-x,-y,-z
x,-y,z
1/2+x,1/2+y,z
1/2-x,1/2+y,-z
1/2-x,1/2-y,-z
1/2+x,1/2-y,z
loop_
_atom_site_type_symbol
_atom_site_label
_atom_site_fract_x
_atom_site_fract_y
_atom_site_fract_z
Si Si1 0.921140 0.413460 0.070229
Si Si2 0.286311 0.924063 0.790872
Si Si3 0.088693 0.200557 0.295548
Si Si4 0.196706 0.195370 0.808626
Si Si5 0.416701 0.133321 0.722393
Si Si6 0.326811 0.422385 0.703695
Si Si7 0.735808 0.851515 0.624858
O O1 0.917202 0.500000 0.081978
O O2 0.843445 0.380101 0.288099
O O3 0.918196 0.386387 0.899293
O O4 0.000000 0.392563 0.000000
O O5 0.263314 0.852045 0.749656
O O6 0.364566 0.916896 0.723027
O O7 0.282256 0.000000 0.709673
O O8 0.226093 0.927438 0.044993
O O9 0.108958 0.284864 0.262213
O O10 0.124272 0.147724 0.352797
O O11 0.000000 0.195687 0.500000
O O12 0.123589 0.180862 0.058126
O O13 0.201095 0.169405 0.623846
O O14 0.216019 0.279531 0.760199
O O15 0.500000 0.126453 0.500000
O O16 0.366654 0.500000 0.609312
O O17 0.272842 0.408557 0.665777
#
# Coordination Sequence:
#
# PCOD9197052 Si02
#       7
#     8   8   8   8   8   8   8
#     4  11  24  40  58  87 128 168 197 234 296 359
#     4  10  20  35  58  86 118 154 197 249 292 351
#     4  10  21  41  63  89 116 154 204 255 303 355
#     4  10  22  38  60  89 115 156 205 246 302 352
#     4  11  22  37  59  87 120 160 203 243 292 353
#     4  10  20  37  63  88 115 156 199 250 308 356
#     4  11  21  39  61  87 122 160 201 247 292 360
#
# _framework density 19.405132999999999
#
# number of rings (size 3 to 8) (size 9 to 14) (size 15 to 20)
#    0.000    1.571    2.857    1.714    2.000    4.857 
#    2.571    0.714    0.000    0.857    0.000    0.000 
#    0.000    0.000    0.000    0.000    0.000    0.000 
#
# Total GULP energy -155950.321422 kJ/mol
# GULP energy per Si atom -5569.654336 kJ/mol
# Density = 1.936097 g / cm^3
# Si number density = 19.405133 Si / 1000 Ang^3
#
#
#
# Elastic Constant Matrix: (Units=GPa)
#
#
# Indices 1 2 3 4 5 6 
#
# 1 55.0539 55.1898 13.7964 0.0000 -4.2643 0.0000
# 2 55.1898 117.4741 15.3547 0.0000 -15.0123 0.0000
# 3 13.7964 15.3547 99.9526 0.0000 -1.3128 0.0000
# 4 0.0000 0.0000 0.0000 10.7213 0.0000 -11.5422
# 5 -4.2643 -15.0123 -1.3128 0.0000 14.0724 0.0000
# 6 0.0000 0.0000 0.0000 -11.5422 0.0000 64.4127
#
#
#
# Elastic Compliance Matrix: (Units=1/GPa)
#
#
# Indices 1 2 3 4 5 6 
#
# 1 0.035634 -0.017464 -0.002342 0.000000 -0.008051 0.000000
# 2 -0.017464 0.018608 -0.000257 0.000000 0.014535 0.000000
# 3 -0.002342 -0.000257 0.010367 0.000000 -0.000017 0.000000
# 4 0.000000 0.000000 0.000000 0.115566 0.000000 0.020708
# 5 -0.008051 0.014535 -0.000017 0.000000 0.084126 0.000000
# 6 0.000000 0.000000 0.000000 0.020708 0.000000 0.019236
#
#
# Mechanical properties :
#
#
# Convention : Reuss Voigt Hill
#
# Bulk Modulus (GPa) = 40.84209 49.01805 44.93007
# Shear Modulus (GPa) = 15.06825 30.38394 22.72610
#
# Velocity S-wave (km/s) = 2.78961 3.96127 3.42590
# Velocity P-wave (km/s) = 5.60969 6.79981 6.23322
#
# Compressibility (1/GPa) = 0.02448455
#
# Stress axis : x y z
#
# Youngs Moduli (GPa) = 28.06297 53.73980 96.45785
#
# Poissons Ratio (x) = 0.93850 0.22586
# Poissons Ratio (y) = 0.49009 0.02480
# Poissons Ratio (z) = 0.06571 0.01382
#
# Static dielectric constant tensor:
#      x y z
#    x 1.514640 0.000000 -0.018010 
#    y 0.000000 1.730750 0.000000 
#    z -0.018010 0.000000 1.708400 
# 
# From -- ./inp_files/98048.got.cif
#   From: 2010.05.17/outbox.cif.g08.bks.cpg/sg12_50_cif.got.tgz:98048.got - 2010.06.03 13:09:07.
