data_PCOD9197547
_publ_section_title
;
Structure prediction by ZEFSAII (Michael W. Deem and Ramdas Pophale) SiO2 
 PCOD9197547
Probable space group: C 2/M
;
_chemical_formula_sum "Si O2"
_cell_formula_units_Z 34
_cell_length_a 20.320827
_cell_length_b 7.518359
_cell_length_c 17.018429
_cell_angle_alpha 90.000000
_cell_angle_beta 29.275492
_cell_angle_gamma 90.000000
_cell_volume 1271.455304
_symmetry_space_group_name_H-M "C 2/M"
_symmetry_group_IT_number 12
_symmetry_cell_setting 'monoclinic'
loop_
_space_group_symop_operation_xyz
x,y,z
-x,y,-z
-x,-y,-z
x,-y,z
1/2+x,1/2+y,z
1/2-x,1/2+y,-z
1/2-x,1/2-y,-z
1/2+x,1/2-y,z
loop_
_atom_site_type_symbol
_atom_site_label
_atom_site_fract_x
_atom_site_fract_y
_atom_site_fract_z
Si Si1 0.131931 0.293939 0.744947
Si Si2 0.626343 0.799317 0.412304
Si Si3 0.771875 0.795494 0.850579
Si Si4 0.500000 0.500000 0.000000
Si Si5 0.541009 0.212734 0.211962
O O1 0.088816 0.500000 0.801552
O O2 0.288067 0.282582 0.607327
O O3 0.094282 0.245842 0.694271
O O4 0.055307 0.156274 0.880680
O O5 0.500000 0.709729 0.500000
O O6 0.725261 0.808595 0.233408
O O7 0.587751 0.000000 0.475423
O O8 0.911950 0.785232 0.753233
O O9 0.744304 0.000000 0.860125
O O10 0.658147 0.728982 0.028639
O O11 0.550550 0.000000 0.210166
#
# Coordination Sequence:
#
# PCOD9197547 Si02
#       5
#     8   8   8   2   8
#     4  11  23  39  62  93 126 165 210 255 313 374
#     4  11  24  42  62  87 123 169 218 263 311 370
#     4  10  20  35  60  89 122 163 201 253 315 374
#     4  12  22  36  62  94 128 164 192 256 316 372
#     4   9  20  37  58  90 127 155 198 255 314 375
#
# _framework density 26.741012000000001
#
# number of rings (size 3 to 8) (size 9 to 14) (size 15 to 20)
#    0.000    1.647    1.176    3.176    1.647    4.706 
#    0.000    1.176    0.000    0.000    0.000    0.000 
#    0.000    0.000    0.000    0.000    0.000    0.000 
#
# Total GULP energy -94886.541895 kJ/mol
# GULP energy per Si atom -5581.561288 kJ/mol
# Density = 2.668015 g / cm^3
# Si number density = 26.741012 Si / 1000 Ang^3
#
#
#
# Elastic Constant Matrix: (Units=GPa)
#
#
# Indices 1 2 3 4 5 6 
#
# 1 220.3814 20.8740 55.5842 -0.0001 -35.9118 -0.0011
# 2 20.8740 136.0685 -1.4431 0.0017 -3.7692 -0.0030
# 3 55.5842 -1.4431 76.1486 0.0012 -21.9338 -0.0027
# 4 -0.0001 0.0017 0.0012 32.4764 -0.0002 76.3591
# 5 -35.9118 -3.7692 -21.9338 -0.0002 58.8588 0.0008
# 6 -0.0011 -0.0030 -0.0027 76.3591 0.0008 387.4486
#
#
#
# Elastic Compliance Matrix: (Units=1/GPa)
#
#
# Indices 1 2 3 4 5 6 
#
# 1 0.005909 -0.000886 -0.003706 0.000001 0.002168 0.000000
# 2 -0.000886 0.007502 0.000864 -0.000001 0.000262 0.000000
# 3 -0.003706 0.000864 0.017048 -0.000002 0.004147 0.000000
# 4 0.000001 -0.000001 -0.000002 0.057381 0.000000 -0.011309
# 5 0.002168 0.000262 0.004147 0.000000 0.019875 0.000000
# 6 0.000000 0.000000 0.000000 -0.011309 0.000000 0.004810
#
#
# Mechanical properties :
#
#
# Convention : Reuss Voigt Hill
#
# Bulk Modulus (GPa) = 43.47026 64.73652 54.10339
# Shear Modulus (GPa) = 39.17026 119.59565 79.38296
#
# Velocity S-wave (km/s) = 3.83142 6.69483 5.45438
# Velocity P-wave (km/s) = 5.98869 9.16637 7.74231
#
# Compressibility (1/GPa) = 0.02300424
#
# Stress axis : x y z
#
# Youngs Moduli (GPa) = 169.22064 133.30574 58.65685
#
# Poissons Ratio (x) = 0.11808 0.21738
# Poissons Ratio (y) = 0.14990 -0.05069
# Poissons Ratio (z) = 0.62712 -0.11520
#
# Static dielectric constant tensor:
#      x y z
#    x 2.057890 0.000000 -0.082250 
#    y 0.000000 2.001400 0.000000 
#    z -0.082250 0.000000 2.273340 
# 
# From -- ./inp_files/273925.got.cif
#   From: 2010.05.17/outbox.cif.g08.bks.cpg/sg12_137_cif.got.tgz:273925.got - 2010.06.03 13:09:07.
