data_PCOD9197917
_publ_section_title
;
Structure prediction by ZEFSAII (Michael W. Deem and Ramdas Pophale) SiO2 
 PCOD9197917
Probable space group: C 2/M
;
_chemical_formula_sum "Si O2"
_cell_formula_units_Z 56
_cell_length_a 8.173355
_cell_length_b 11.332984
_cell_length_c 27.968560
_cell_angle_alpha 90.000000
_cell_angle_beta 71.243392
_cell_angle_gamma 90.000000
_cell_volume 2453.102382
_symmetry_space_group_name_H-M "C 2/M"
_symmetry_group_IT_number 12
_symmetry_cell_setting 'monoclinic'
loop_
_space_group_symop_operation_xyz
x,y,z
-x,y,-z
-x,-y,-z
x,-y,z
1/2+x,1/2+y,z
1/2-x,1/2+y,-z
1/2-x,1/2-y,-z
1/2+x,1/2-y,z
loop_
_atom_site_type_symbol
_atom_site_label
_atom_site_fract_x
_atom_site_fract_y
_atom_site_fract_z
Si Si1 0.850895 0.370409 0.866545
Si Si2 0.827812 0.182756 0.538183
Si Si3 0.663614 0.125976 0.019044
Si Si4 0.921344 0.131158 0.255353
Si Si5 0.543905 0.125025 0.399212
Si Si6 0.544458 0.868036 0.286241
Si Si7 0.728084 0.869097 0.838697
O O1 0.776547 0.500000 0.860622
O O2 0.881585 0.371591 0.920704
O O3 0.742697 0.253397 0.866033
O O4 0.046221 0.362836 0.827178
O O5 0.750000 0.250000 0.500000
O O6 0.662461 0.118782 0.574968
O O7 0.000000 0.124716 0.500000
O O8 0.886393 0.271987 0.574220
O O9 0.760914 0.000000 0.002066
O O10 0.500000 0.121900 0.000000
O O11 0.750000 0.250000 0.000000
O O12 0.737275 0.137735 0.245314
O O13 0.936767 0.252687 0.283198
O O14 0.095910 0.128965 0.208119
O O15 0.917045 0.000000 0.280106
O O16 0.578663 0.139230 0.339948
O O17 0.620275 0.000000 0.408564
O O18 0.471736 0.000000 0.283241
O O19 0.723664 0.000000 0.863623
#
# Coordination Sequence:
#
# PCOD9197917 Si02
#       7
#     8   8   8   8   8   8   8
#     4  10  21  36  55  81 110 142 182 225 270 322
#     4   9  19  34  53  78 104 135 178 218 260 319
#     4  10  21  37  56  79 109 144 182 225 272 322
#     4  10  21  37  57  82 111 143 181 224 270 322
#     4  10  20  36  55  75 106 142 174 218 270 317
#     4  10  21  36  56  82 111 145 183 222 270 326
#     4  10  21  37  57  81 110 144 180 222 273 324
#
# _framework density 22.828237999999999
#
# number of rings (size 3 to 8) (size 9 to 14) (size 15 to 20)
#    0.000    2.143    0.000    2.571    0.000    6.571 
#    0.000    2.857    0.000    0.000    0.000    0.000 
#    0.000    0.000    0.000    0.000    0.000    0.000 
#
# Total GULP energy -156084.207027 kJ/mol
# GULP energy per Si atom -5574.435965 kJ/mol
# Density = 2.277628 g / cm^3
# Si number density = 22.828238 Si / 1000 Ang^3
#
#
#
# Elastic Constant Matrix: (Units=GPa)
#
#
# Indices 1 2 3 4 5 6 
#
# 1 51.9769 58.6152 -9.9178 0.0000 -5.9989 0.0000
# 2 58.6152 261.4614 31.5578 0.0000 17.2970 0.0000
# 3 -9.9178 31.5578 48.7023 0.0000 -1.2709 0.0000
# 4 0.0000 0.0000 0.0000 50.7090 0.0000 3.2041
# 5 -5.9989 17.2970 -1.2709 0.0000 30.9976 0.0000
# 6 0.0000 0.0000 0.0000 3.2041 0.0000 31.5993
#
#
#
# Elastic Compliance Matrix: (Units=1/GPa)
#
#
# Indices 1 2 3 4 5 6 
#
# 1 0.035453 -0.010571 0.014418 0.000000 0.013351 0.000000
# 2 -0.010571 0.007492 -0.007178 0.000000 -0.006521 0.000000
# 3 0.014418 -0.007178 0.028328 0.000000 0.007957 0.000000
# 4 0.000000 0.000000 0.000000 0.019848 0.000000 -0.002013
# 5 0.013351 -0.006521 0.007957 0.000000 0.038809 0.000000
# 6 0.000000 0.000000 0.000000 -0.002013 0.000000 0.031850
#
#
# Mechanical properties :
#
#
# Convention : Reuss Voigt Hill
#
# Bulk Modulus (GPa) = 15.47727 58.07231 36.77479
# Shear Modulus (GPa) = 26.31861 41.45352 33.88607
#
# Velocity S-wave (km/s) = 3.39912 4.26595 3.85696
# Velocity P-wave (km/s) = 4.71168 7.05397 5.99826
#
# Compressibility (1/GPa) = 0.06461086
#
# Stress axis : x y z
#
# Youngs Moduli (GPa) = 28.20634 133.46972 35.30111
#
# Poissons Ratio (x) = 1.41097 -0.50898
# Poissons Ratio (y) = 0.29818 0.25338
# Poissons Ratio (z) = -0.40668 0.95802
#
# Static dielectric constant tensor:
#      x y z
#    x 1.838790 0.000000 -0.045760 
#    y 0.000000 1.878290 0.000000 
#    z -0.045760 0.000000 1.903360 
# 
# From -- ./inp_files/355762.got.cif
#   From: 2010.05.17/outbox.cif.g08.bks.cpg/sg12_178_cif.got.tgz:355762.got - 2010.06.03 13:09:07.
