data_PCOD9197123
_publ_section_title
;
Structure prediction by ZEFSAII (Michael W. Deem and Ramdas Pophale) SiO2 
 PCOD9197123
Probable space group: C 2/M
;
_chemical_formula_sum "Si O2"
_cell_formula_units_Z 56
_cell_length_a 15.035427
_cell_length_b 7.856000
_cell_length_c 25.364581
_cell_angle_alpha 90.000000
_cell_angle_beta 117.959301
_cell_angle_gamma 90.000000
_cell_volume 2646.328468
_symmetry_space_group_name_H-M "C 2/M"
_symmetry_group_IT_number 12
_symmetry_cell_setting 'monoclinic'
loop_
_space_group_symop_operation_xyz
x,y,z
-x,y,-z
-x,-y,-z
x,-y,z
1/2+x,1/2+y,z
1/2-x,1/2+y,-z
1/2-x,1/2-y,-z
1/2+x,1/2-y,z
loop_
_atom_site_type_symbol
_atom_site_label
_atom_site_fract_x
_atom_site_fract_y
_atom_site_fract_z
Si Si1 0.153826 0.204359 0.009456
Si Si2 0.294904 0.198525 0.783984
Si Si3 0.753029 0.699077 0.657054
Si Si4 0.513361 0.699909 0.881242
Si Si5 0.797119 0.700262 0.135506
Si Si6 0.469651 0.793864 0.431938
Si Si7 0.670600 0.205266 0.432325
O O1 0.194588 0.263437 0.077421
O O2 0.140776 0.000000 0.008528
O O3 0.250000 0.250000 0.000000
O O4 0.058230 0.267871 0.949552
O O5 0.281426 0.273802 0.721691
O O6 0.410990 0.216638 0.833451
O O7 0.222481 0.275987 0.808396
O O8 0.268426 0.000000 0.774533
O O9 0.783013 0.500000 0.667111
O O10 0.634325 0.713996 0.614718
O O11 0.801037 0.774453 0.617232
O O12 0.491160 0.500000 0.881917
O O13 0.604262 0.717910 0.863823
O O14 0.806924 0.500000 0.126805
O O15 0.500000 0.747660 0.500000
O O16 0.560860 0.739739 0.420167
O O17 0.459490 0.000000 0.427552
O O18 0.750000 0.250000 0.500000
O O19 0.670730 0.000000 0.429731
#
# Coordination Sequence:
#
# PCOD9197123 Si02
#       7
#     8   8   8   8   8   8   8
#     4   8  16  31  54  83 113 144 186 238 292 349
#     4  11  24  40  55  80 117 157 202 244 282 339
#     4  10  23  40  57  80 113 150 190 231 276 332
#     4  10  20  37  60  86 116 151 191 241 296 349
#     4  10  20  37  60  85 114 152 194 241 297 349
#     4  10  20  35  58  88 116 141 176 224 279 337
#     4  10  20  36  58  84 112 142 175 219 274 329
#
# _framework density 21.161394999999999
#
# number of rings (size 3 to 8) (size 9 to 14) (size 15 to 20)
#    0.000    2.143    1.429    1.286    0.000    4.857 
#    0.000    4.286    0.000    0.000    0.000    0.000 
#    0.000    0.000    0.000    0.000    0.000    0.000 
#
# Total GULP energy -156276.651923 kJ/mol
# GULP energy per Si atom -5581.308997 kJ/mol
# Density = 2.111323 g / cm^3
# Si number density = 21.161395 Si / 1000 Ang^3
#
#
#
# Elastic Constant Matrix: (Units=GPa)
#
#
# Indices 1 2 3 4 5 6 
#
# 1 77.5184 -9.5125 18.3963 0.0000 -17.6065 0.0000
# 2 -9.5125 24.7505 -4.1350 0.0000 -4.6878 0.0000
# 3 18.3963 -4.1350 94.4988 0.0000 -24.1851 0.0000
# 4 0.0000 0.0000 0.0000 18.7589 0.0000 5.0791
# 5 -17.6065 -4.6878 -24.1851 0.0000 33.3699 0.0000
# 6 0.0000 0.0000 0.0000 5.0791 0.0000 22.6799
#
#
#
# Elastic Compliance Matrix: (Units=1/GPa)
#
#
# Indices 1 2 3 4 5 6 
#
# 1 0.016072 0.007869 -0.000407 0.000000 0.009291 0.000000
# 2 0.007869 0.046670 0.003991 0.000000 0.013601 0.000000
# 3 -0.000407 0.003991 0.013412 0.000000 0.010067 0.000000
# 4 0.000000 0.000000 0.000000 0.056749 0.000000 -0.012709
# 5 0.009291 0.013601 0.010067 0.000000 0.044076 0.000000
# 6 0.000000 0.000000 0.000000 -0.012709 0.000000 0.046938
#
#
# Mechanical properties :
#
#
# Convention : Reuss Voigt Hill
#
# Bulk Modulus (GPa) = 10.09470 22.91836 16.50653
# Shear Modulus (GPa) = 21.36462 27.76299 24.56381
#
# Velocity S-wave (km/s) = 3.18087 3.62603 3.41072
# Velocity P-wave (km/s) = 4.27449 5.32772 4.82990
#
# Compressibility (1/GPa) = 0.09906190
#
# Stress axis : x y z
#
# Youngs Moduli (GPa) = 62.21809 21.42686 74.55808
#
# Poissons Ratio (x) = -0.16861 0.03033
# Poissons Ratio (y) = -0.48959 -0.29757
# Poissons Ratio (z) = 0.02531 -0.08552
#
# Static dielectric constant tensor:
#      x y z
#    x 1.741700 0.000000 -0.032380 
#    y 0.000000 1.782150 0.000000 
#    z -0.032380 0.000000 1.784560 
# 
# From -- ./inp_files/339029.got.cif
#   From: 2010.05.17/outbox.cif.g08.bks.cpg/sg12_170_cif.got.tgz:339029.got - 2010.06.03 13:09:07.
