data_PCOD9197503
_publ_section_title
;
Structure prediction by ZEFSAII (Michael W. Deem and Ramdas Pophale) SiO2 
 PCOD9197503
Probable space group: C 2/M
;
_chemical_formula_sum "Si O2"
_cell_formula_units_Z 48
_cell_length_a 26.628155
_cell_length_b 15.100175
_cell_length_c 12.711844
_cell_angle_alpha 90.000000
_cell_angle_beta 151.794209
_cell_angle_gamma 90.000000
_cell_volume 2415.805333
_symmetry_space_group_name_H-M "C 2/M"
_symmetry_group_IT_number 12
_symmetry_cell_setting 'monoclinic'
loop_
_space_group_symop_operation_xyz
x,y,z
-x,y,-z
-x,-y,-z
x,-y,z
1/2+x,1/2+y,z
1/2-x,1/2+y,-z
1/2-x,1/2-y,-z
1/2+x,1/2-y,z
loop_
_atom_site_type_symbol
_atom_site_label
_atom_site_fract_x
_atom_site_fract_y
_atom_site_fract_z
Si Si1 0.882807 0.500000 0.831269
Si Si2 0.809668 0.193187 0.699175
Si Si3 0.901296 0.667862 0.010162
Si Si4 0.215899 0.188747 0.838350
Si Si5 0.373521 0.500000 0.250975
Si Si6 0.305363 0.500000 0.679862
Si Si7 0.238947 0.500000 0.800327
Si Si8 0.874166 0.669548 0.465672
O O1 0.803421 0.500000 0.587100
O O2 0.868515 0.585064 0.878109
O O3 0.000000 0.500000 0.000000
O O4 0.750000 0.250000 0.500000
O O5 0.852144 0.097115 0.741273
O O6 0.715817 0.178898 0.611197
O O7 0.897912 0.249146 0.924183
O O8 0.015182 0.653728 0.272756
O O9 0.816360 0.681333 0.945865
O O10 0.175265 0.090986 0.792352
O O11 0.127473 0.243483 0.609603
O O12 0.250000 0.250000 0.000000
O O13 0.500000 0.500000 0.500000
O O14 0.334907 0.500000 0.058867
O O15 0.284688 0.500000 0.766596
O O16 0.165107 0.586204 0.675259
#
# Coordination Sequence:
#
# PCOD9197503 Si02
#       8
#     4   8   8   8   4   4   4   8
#     4  12  21  37  66 100 130 171 217 276 349 410
#     4  10  20  37  59  92 129 174 213 274 328 407
#     4  11  24  39  66  97 133 171 233 279 342 413
#     4  11  25  45  65  96 136 177 228 286 349 407
#     4  12  27  44  74  98 132 181 226 276 351 424
#     4  10  20  35  60  86 131 168 208 262 329 387
#     4  10  20  42  62 102 132 165 225 274 330 408
#     4  10  22  39  66  94 131 170 222 284 342 401
#
# _framework density 19.869150000000001
#
# number of rings (size 3 to 8) (size 9 to 14) (size 15 to 20)
#    0.000    1.333    3.333    3.000    2.333    0.000 
#    0.000    0.833    0.000    1.000    0.000    0.000 
#    0.000    0.000    0.000    0.000    0.000    0.000 
#
# Total GULP energy -133983.835650 kJ/mol
# GULP energy per Si atom -5582.659819 kJ/mol
# Density = 1.982393 g / cm^3
# Si number density = 19.869150 Si / 1000 Ang^3
#
#
#
# Elastic Constant Matrix: (Units=GPa)
#
#
# Indices 1 2 3 4 5 6 
#
# 1 47.6375 25.5265 11.0931 0.0000 -19.0569 0.0000
# 2 25.5265 162.0888 32.6456 0.0000 -19.1285 0.0000
# 3 11.0931 32.6456 129.3046 0.0000 -20.3842 0.0000
# 4 0.0000 0.0000 0.0000 33.3121 0.0000 -15.2237
# 5 -19.0569 -19.1285 -20.3842 0.0000 26.8207 0.0000
# 6 0.0000 0.0000 0.0000 -15.2237 0.0000 30.9631
#
#
#
# Elastic Compliance Matrix: (Units=1/GPa)
#
#
# Indices 1 2 3 4 5 6 
#
# 1 0.030370 -0.002603 0.001319 0.000000 0.020725 0.000000
# 2 -0.002603 0.007093 -0.001206 0.000000 0.002293 0.000000
# 3 0.001319 -0.001206 0.009018 0.000000 0.006930 0.000000
# 4 0.000000 0.000000 0.000000 0.038719 0.000000 0.019037
# 5 0.020725 0.002293 0.006930 0.000000 0.058913 0.000000
# 6 0.000000 0.000000 0.000000 0.019037 0.000000 0.041657
#
#
# Mechanical properties :
#
#
# Convention : Reuss Voigt Hill
#
# Bulk Modulus (GPa) = 24.09583 53.06237 38.57910
# Shear Modulus (GPa) = 24.44001 36.20355 30.32178
#
# Velocity S-wave (km/s) = 3.51101 4.27324 3.91074
# Velocity P-wave (km/s) = 5.34695 7.14921 6.31273
#
# Compressibility (1/GPa) = 0.04150096
#
# Stress axis : x y z
#
# Youngs Moduli (GPa) = 32.92696 140.98796 110.89470
#
# Poissons Ratio (x) = 0.36694 -0.14625
# Poissons Ratio (y) = 0.08570 0.13374
# Poissons Ratio (z) = -0.04342 0.17003
#
# Static dielectric constant tensor:
#      x y z
#    x 1.685980 0.000000 -0.020010 
#    y 0.000000 1.768680 0.000000 
#    z -0.020010 0.000000 1.671790 
# 
# From -- ./inp_files/183935.got.cif
#   From: 2010.05.17/outbox.cif.g08.bks.cpg/sg12_92_cif.got.tgz:183935.got - 2010.06.03 13:09:07.
