data_PCOD9197149
_publ_section_title
;
Structure prediction by ZEFSAII (Michael W. Deem and Ramdas Pophale) SiO2 
 PCOD9197149
Probable space group: C 2/M
;
_chemical_formula_sum "Si O2"
_cell_formula_units_Z 56
_cell_length_a 13.923795
_cell_length_b 21.012284
_cell_length_c 11.629080
_cell_angle_alpha 90.000000
_cell_angle_beta 52.946467
_cell_angle_gamma 90.000000
_cell_volume 2715.306054
_symmetry_space_group_name_H-M "C 2/M"
_symmetry_group_IT_number 12
_symmetry_cell_setting 'monoclinic'
loop_
_space_group_symop_operation_xyz
x,y,z
-x,y,-z
-x,-y,-z
x,-y,z
1/2+x,1/2+y,z
1/2-x,1/2+y,-z
1/2-x,1/2-y,-z
1/2+x,1/2-y,z
loop_
_atom_site_type_symbol
_atom_site_label
_atom_site_fract_x
_atom_site_fract_y
_atom_site_fract_z
Si Si1 0.918223 0.570623 0.777858
Si Si2 0.826528 0.686610 0.439107
Si Si3 0.226001 0.571847 0.888073
Si Si4 0.936533 0.756948 0.159484
Si Si5 0.653162 0.705656 0.140985
Si Si6 0.171021 0.689237 0.305836
Si Si7 0.805924 0.431166 0.357814
O O1 0.883165 0.500000 0.759060
O O2 0.858317 0.627545 0.749610
O O3 0.062714 0.572782 0.677523
O O4 0.875896 0.574053 0.940764
O O5 0.750000 0.750000 0.500000
O O6 0.912144 0.701181 0.268986
O O7 0.876665 0.678593 0.530653
O O8 0.742045 0.628449 0.461599
O O9 0.281940 0.500000 0.859779
O O10 0.300177 0.636187 0.858797
O O11 0.183440 0.575181 0.786853
O O12 0.814083 0.794224 0.217033
O O13 0.035492 0.800948 0.148047
O O14 0.000000 0.730316 0.000000
O O15 0.623946 0.748056 0.274331
O O16 0.750000 0.750000 0.000000
O O17 0.752160 0.500000 0.420953
#
# Coordination Sequence:
#
# PCOD9197149 Si02
#       7
#     8   8   8   8   8   8   8
#     4  10  20  35  58  88 120 155 194 240 297 358
#     4  10  23  38  58  86 120 156 194 244 298 356
#     4  10  20  36  56  86 121 151 192 247 296 346
#     4  11  22  38  60  85 115 154 201 247 294 350
#     4  12  22  36  61  89 114 155 199 245 291 349
#     4  11  23  40  56  87 121 154 196 241 301 352
#     4  10  21  35  57  85 118 157 196 241 300 354
#
# _framework density 20.623825
#
# number of rings (size 3 to 8) (size 9 to 14) (size 15 to 20)
#    0.000    1.429    2.857    3.000    0.000    4.571 
#    0.000    2.143    0.000    3.429    0.000    9.000 
#    0.000    0.000    0.000    0.000    0.000    0.000 
#
# Total GULP energy -156200.599289 kJ/mol
# GULP energy per Si atom -5578.592832 kJ/mol
# Density = 2.057688 g / cm^3
# Si number density = 20.623825 Si / 1000 Ang^3
#
#
#
# Elastic Constant Matrix: (Units=GPa)
#
#
# Indices 1 2 3 4 5 6 
#
# 1 87.1915 29.1900 4.3934 0.0000 12.2567 0.0000
# 2 29.1900 170.3623 35.1681 0.0000 17.2993 0.0000
# 3 4.3934 35.1681 95.6168 0.0000 29.8900 0.0000
# 4 0.0000 0.0000 0.0000 28.8891 0.0000 9.7247
# 5 12.2567 17.2993 29.8900 0.0000 27.8376 0.0000
# 6 0.0000 0.0000 0.0000 9.7247 0.0000 29.1154
#
#
#
# Elastic Compliance Matrix: (Units=1/GPa)
#
#
# Indices 1 2 3 4 5 6 
#
# 1 0.013001 -0.001998 0.002316 0.000000 -0.006970 0.000000
# 2 -0.001998 0.006747 -0.002038 0.000000 -0.001125 0.000000
# 3 0.002316 -0.002038 0.016594 0.000000 -0.017571 0.000000
# 4 0.000000 0.000000 0.000000 0.039000 0.000000 -0.013026
# 5 -0.006970 -0.001125 -0.017571 0.000000 0.058557 0.000000
# 6 0.000000 0.000000 0.000000 -0.013026 0.000000 0.038697
#
#
# Mechanical properties :
#
#
# Convention : Reuss Voigt Hill
#
# Bulk Modulus (GPa) = 30.39289 54.51929 42.45609
# Shear Modulus (GPa) = 26.73743 36.12970 31.43356
#
# Velocity S-wave (km/s) = 3.60451 4.19004 3.90826
# Velocity P-wave (km/s) = 5.66499 7.06407 6.40286
#
# Compressibility (1/GPa) = 0.03290243
#
# Stress axis : x y z
#
# Youngs Moduli (GPa) = 76.91763 148.21084 60.26126
#
# Poissons Ratio (x) = 0.29613 -0.13958
# Poissons Ratio (y) = 0.15368 0.12283
# Poissons Ratio (z) = -0.17816 0.30209
#
# Static dielectric constant tensor:
#      x y z
#    x 1.756540 0.000000 -0.018420 
#    y 0.000000 1.833050 0.000000 
#    z -0.018420 0.000000 1.811540 
# 
# From -- ./inp_files/146055.got.cif
#   From: 2010.05.17/outbox.cif.g08.bks.cpg/sg12_74_cif.got.tgz:146055.got - 2010.06.03 13:09:07.
