data_PCOD9197095
_publ_section_title
;
Structure prediction by ZEFSAII (Michael W. Deem and Ramdas Pophale) SiO2 
 PCOD9197095
Probable space group: C 2/M
;
_chemical_formula_sum "Si O2"
_cell_formula_units_Z 50
_cell_length_a 18.986738
_cell_length_b 7.811097
_cell_length_c 16.163802
_cell_angle_alpha 90.000000
_cell_angle_beta 76.680130
_cell_angle_gamma 90.000000
_cell_volume 2332.721820
_symmetry_space_group_name_H-M "C 2/M"
_symmetry_group_IT_number 12
_symmetry_cell_setting 'monoclinic'
loop_
_space_group_symop_operation_xyz
x,y,z
-x,y,-z
-x,-y,-z
x,-y,z
1/2+x,1/2+y,z
1/2-x,1/2+y,-z
1/2-x,1/2-y,-z
1/2+x,1/2-y,z
loop_
_atom_site_type_symbol
_atom_site_label
_atom_site_fract_x
_atom_site_fract_y
_atom_site_fract_z
Si Si1 0.863402 0.801693 0.369060
Si Si2 0.500000 0.500000 0.500000
Si Si3 0.330935 0.702473 0.718370
Si Si4 0.118712 0.690507 0.462217
Si Si5 0.180202 0.797338 0.799979
Si Si6 0.034427 0.298549 0.907428
Si Si7 0.989164 0.704668 0.738961
O O1 0.844489 0.706336 0.458005
O O2 0.836524 0.729430 0.288553
O O3 0.951292 0.791378 0.336148
O O4 0.842475 0.000000 0.381663
O O5 0.562422 0.347436 0.471328
O O6 0.328398 0.500000 0.710671
O O7 0.326739 0.787523 0.629048
O O8 0.263760 0.760009 0.792476
O O9 0.408268 0.755958 0.733751
O O10 0.086014 0.500000 0.463822
O O11 0.120849 0.721978 0.877709
O O12 0.167849 0.000000 0.801454
O O13 0.016803 0.500000 0.911294
O O14 0.003950 0.230715 0.828347
O O15 0.000000 0.223927 0.000000
O O16 0.001438 0.500000 0.731737
#
# Coordination Sequence:
#
# PCOD9197095 Si02
#       7
#     8   2   8   8   8   8   8
#     4  10  20  38  58  85 119 157 208 259 301 357
#     4  12  22  40  52  86 120 152 210 258 304 350
#     4  12  24  40  57  84 125 163 204 256 307 363
#     4  12  24  38  59  84 121 168 211 260 308 357
#     4  10  22  39  62  88 121 160 201 249 308 367
#     4   9  19  39  66  93 119 151 192 244 303 370
#     4  10  20  35  58  87 118 153 199 246 300 366
#
# _framework density 21.434190000000001
#
# number of rings (size 3 to 8) (size 9 to 14) (size 15 to 20)
#    0.000    1.440    1.600    4.080    0.000    3.520 
#    0.000    0.800    0.000    0.000    0.000    0.000 
#    0.000    0.000    0.000    0.000    0.000    0.000 
#
# Total GULP energy -139488.909723 kJ/mol
# GULP energy per Si atom -5579.556389 kJ/mol
# Density = 2.138541 g / cm^3
# Si number density = 21.434190 Si / 1000 Ang^3
#
#
#
# Elastic Constant Matrix: (Units=GPa)
#
#
# Indices 1 2 3 4 5 6 
#
# 1 59.3846 -14.6432 15.4202 0.0000 -16.3573 0.0000
# 2 -14.6432 108.3134 7.5501 0.0000 1.9471 0.0000
# 3 15.4202 7.5501 111.0650 0.0000 -10.6307 0.0000
# 4 0.0000 0.0000 0.0000 16.5661 0.0000 -5.0874
# 5 -16.3573 1.9471 -10.6307 0.0000 19.7217 0.0000
# 6 0.0000 0.0000 0.0000 -5.0874 0.0000 16.8626
#
#
#
# Elastic Compliance Matrix: (Units=1/GPa)
#
#
# Indices 1 2 3 4 5 6 
#
# 1 0.022888 0.002891 -0.001671 0.000000 0.017798 0.000000
# 2 0.002891 0.009674 -0.000971 0.000000 0.000919 0.000000
# 3 -0.001671 -0.000971 0.009678 0.000000 0.003927 0.000000
# 4 0.000000 0.000000 0.000000 0.066528 0.000000 0.020071
# 5 0.017798 0.000919 0.003927 0.000000 0.067493 0.000000
# 6 0.000000 0.000000 0.000000 0.020071 0.000000 0.065358
#
#
# Mechanical properties :
#
#
# Convention : Reuss Voigt Hill
#
# Bulk Modulus (GPa) = 23.39811 32.82415 28.11113
# Shear Modulus (GPa) = 19.57958 28.65914 24.11936
#
# Velocity S-wave (km/s) = 3.02565 3.66057 3.35815
# Velocity P-wave (km/s) = 4.81103 5.76312 5.30846
#
# Compressibility (1/GPa) = 0.04273849
#
# Stress axis : x y z
#
# Youngs Moduli (GPa) = 43.69015 103.36497 103.33180
#
# Poissons Ratio (x) = -0.29882 0.17265
# Poissons Ratio (y) = -0.12630 0.10034
# Poissons Ratio (z) = 0.07300 0.10037
#
# Static dielectric constant tensor:
#      x y z
#    x 1.821390 0.000000 0.025610 
#    y 0.000000 1.771990 0.000000 
#    z 0.025610 0.000000 1.806690 
# 
# From -- ./inp_files/274177.got.cif
#   From: 2010.05.17/outbox.cif.g08.bks.cpg/sg12_138_cif.got.tgz:274177.got - 2010.06.03 13:09:07.
