data_PCOD9197794
_publ_section_title
;
Structure prediction by ZEFSAII (Michael W. Deem and Ramdas Pophale) SiO2 
 PCOD9197794
Probable space group: C 2/M
;
_chemical_formula_sum "Si O2"
_cell_formula_units_Z 52
_cell_length_a 13.775051
_cell_length_b 23.313529
_cell_length_c 12.199818
_cell_angle_alpha 90.000000
_cell_angle_beta 41.984022
_cell_angle_gamma 90.000000
_cell_volume 2620.782230
_symmetry_space_group_name_H-M "C 2/M"
_symmetry_group_IT_number 12
_symmetry_cell_setting 'monoclinic'
loop_
_space_group_symop_operation_xyz
x,y,z
-x,y,-z
-x,-y,-z
x,-y,z
1/2+x,1/2+y,z
1/2-x,1/2+y,-z
1/2-x,1/2-y,-z
1/2+x,1/2-y,z
loop_
_atom_site_type_symbol
_atom_site_label
_atom_site_fract_x
_atom_site_fract_y
_atom_site_fract_z
Si Si1 0.835800 0.872288 0.685782
Si Si2 0.648093 0.066870 0.445670
Si Si3 0.367968 0.500000 0.931160
Si Si4 0.113697 0.000000 0.308534
Si Si5 0.786375 0.315789 0.991355
Si Si6 0.646855 0.612303 0.915409
Si Si7 0.914612 0.377861 0.274533
Si Si8 0.043277 0.500000 0.091753
O O1 0.809210 0.939004 0.741719
O O2 0.721819 0.860605 0.685083
O O3 0.000000 0.865835 0.500000
O O4 0.796812 0.837219 0.828660
O O5 0.500000 0.065745 0.500000
O O6 0.766123 0.091153 0.263012
O O7 0.630757 0.109857 0.562158
O O8 0.677647 0.000000 0.452793
O O9 0.466588 0.500000 0.740824
O O10 0.390333 0.555220 0.984926
O O11 0.206855 0.500000 0.008512
O O12 0.000000 0.000000 0.500000
O O13 0.734309 0.349877 0.927417
O O14 0.955932 0.332938 0.855977
O O15 0.750000 0.250000 0.000000
O O16 0.500000 0.642102 0.000000
O O17 0.975322 0.440655 0.190576
O O18 0.000000 0.500000 0.000000
#
# Coordination Sequence:
#
# PCOD9197794 Si02
#       8
#     8   8   4   4   8   8   8   4
#     4  11  25  45  71 107 140 173 220 282 347 418
#     4  11  22  40  65 105 144 175 221 267 342 431
#     4  12  19  39  60  95 139 179 221 264 344 422
#     4  10  20  35  66 100 143 171 206 267 351 417
#     4  12  27  50  71  94 129 184 241 291 337 397
#     4  12  26  42  67  97 141 186 224 282 344 415
#     4  12  23  42  72 102 140 179 217 282 347 411
#     4  12  20  34  67 107 133 174 216 267 343 426
#
# _framework density 19.841405000000002
#
# number of rings (size 3 to 8) (size 9 to 14) (size 15 to 20)
#    0.000    0.462    6.154    3.000    2.154    1.231 
#    2.769    0.769    0.000    0.000    0.000    0.000 
#    0.000    0.000    0.000    0.000    0.000    0.000 
#
# Total GULP energy -145206.569834 kJ/mol
# GULP energy per Si atom -5584.868071 kJ/mol
# Density = 1.979625 g / cm^3
# Si number density = 19.841405 Si / 1000 Ang^3
#
#
#
# Elastic Constant Matrix: (Units=GPa)
#
#
# Indices 1 2 3 4 5 6 
#
# 1 125.1594 28.9975 61.7758 0.0000 -11.6228 0.0000
# 2 28.9975 111.8961 45.3135 0.0000 2.9069 0.0000
# 3 61.7758 45.3135 147.6712 0.0000 16.1551 0.0000
# 4 0.0000 0.0000 0.0000 14.8649 0.0000 5.5340
# 5 -11.6228 2.9069 16.1551 0.0000 44.8388 0.0000
# 6 0.0000 0.0000 0.0000 5.5340 0.0000 -0.9749
#
#
#
# Elastic Compliance Matrix: (Units=1/GPa)
#
#
# Indices 1 2 3 4 5 6 
#
# 1 0.011036 -0.001033 -0.004809 0.000000 0.004660 0.000000
# 2 -0.001033 0.010312 -0.002737 0.000000 0.000050 0.000000
# 3 -0.004809 -0.002737 0.010140 0.000000 -0.004723 0.000000
# 4 0.000000 0.000000 0.000000 0.021608 0.000000 0.122660
# 5 0.004660 0.000050 -0.004723 0.000000 0.025208 0.000000
# 6 0.000000 0.000000 0.000000 0.122660 0.000000 -0.329477
#
#
# Mechanical properties :
#
#
# Convention : Reuss Voigt Hill
#
# Bulk Modulus (GPa) = 69.79462 72.98890 71.39176
# Shear Modulus (GPa) = -21.81153 28.32177 3.25512
#
# Velocity S-wave (km/s) = -3.31916 3.78220 1.28224
# Velocity P-wave (km/s) = 4.53470 7.47927 6.18478
#
# Compressibility (1/GPa) = 0.01432775
#
# Stress axis : x y z
#
# Youngs Moduli (GPa) = 90.61399 96.97535 98.61556
#
# Poissons Ratio (x) = 0.10021 0.47428
# Poissons Ratio (y) = 0.09364 0.26995
# Poissons Ratio (z) = 0.43580 0.26546
#
# Static dielectric constant tensor:
#      x y z
#    x 1.702140 0.000000 -0.030670 
#    y 0.000000 1.688210 0.000000 
#    z -0.030670 0.000000 1.792350 
# 
# From -- ./inp_files/135890.got.cif
#   From: 2010.05.17/outbox.cif.g08.bks.cpg/sg12_68_cif.got.tgz:135890.got - 2010.06.03 13:09:07.
