data_PCOD9197236
_publ_section_title
;
Structure prediction by ZEFSAII (Michael W. Deem and Ramdas Pophale) SiO2 
 PCOD9197236
Probable space group: C 2/M
;
_chemical_formula_sum "Si O2"
_cell_formula_units_Z 64
_cell_length_a 14.882770
_cell_length_b 26.556407
_cell_length_c 9.488622
_cell_angle_alpha 90.000000
_cell_angle_beta 118.457870
_cell_angle_gamma 90.000000
_cell_volume 3297.068518
_symmetry_space_group_name_H-M "C 2/M"
_symmetry_group_IT_number 12
_symmetry_cell_setting 'monoclinic'
loop_
_space_group_symop_operation_xyz
x,y,z
-x,y,-z
-x,-y,-z
x,-y,z
1/2+x,1/2+y,z
1/2-x,1/2+y,-z
1/2-x,1/2-y,-z
1/2+x,1/2-y,z
loop_
_atom_site_type_symbol
_atom_site_label
_atom_site_fract_x
_atom_site_fract_y
_atom_site_fract_z
Si Si1 0.697917 0.369894 0.249963
Si Si2 0.799253 0.222828 0.904758
Si Si3 0.908429 0.884717 0.346169
Si Si4 0.386556 0.058875 0.927087
Si Si5 0.795300 0.060769 0.012632
Si Si6 0.709958 0.114364 0.385028
Si Si7 0.919477 0.294284 0.811073
Si Si8 0.999064 0.192318 0.783827
O O1 0.755087 0.323412 0.213509
O O2 0.683750 0.412439 0.120506
O O3 0.759987 0.390448 0.430233
O O4 0.593430 0.343902 0.232718
O O5 0.824447 0.266599 0.814607
O O6 0.750000 0.250000 0.000000
O O7 0.906461 0.198030 0.036941
O O8 0.813694 0.873267 0.376843
O O9 0.000000 0.910296 0.500000
O O10 0.953451 0.833431 0.316402
O O11 0.874090 0.918659 0.188483
O O12 0.332638 0.067467 0.736379
O O13 0.395905 0.000000 0.962450
O O14 0.500000 0.080704 0.000000
O O15 0.313376 0.078182 0.998058
O O16 0.797817 0.000000 0.004548
O O17 0.624629 0.157299 0.298205
O O18 0.962460 0.249968 0.743548
O O19 0.000000 0.303589 0.000000
#
# Coordination Sequence:
#
# PCOD9197236 Si02
#       8
#     8   8   8   8   8   8   8   8
#     4  11  22  38  58  86 131 159 196 254 310 366
#     4  10  20  35  59  81 112 164 214 243 295 353
#     4  11  21  38  63  85 120 164 205 249 301 357
#     4   9  20  42  71  91 113 154 200 249 308 370
#     4  10  23  41  66  93 118 157 204 246 303 375
#     4  11  22  37  60  92 122 156 202 256 302 361
#     4   9  20  35  57  83 113 154 204 257 289 352
#     4  10  20  38  58  83 123 166 207 245 305 359
#
# _framework density 19.411182
#
# number of rings (size 3 to 8) (size 9 to 14) (size 15 to 20)
#    0.000    1.875    2.500    2.250    1.750    2.750 
#    2.250    1.875    0.000    2.250    0.000    0.000 
#    0.000    0.000    0.000    0.000    0.000    0.000 
#
# Total GULP energy -178287.252882 kJ/mol
# GULP energy per Si atom -5571.476653 kJ/mol
# Density = 1.936700 g / cm^3
# Si number density = 19.411182 Si / 1000 Ang^3
#
#
#
# Elastic Constant Matrix: (Units=GPa)
#
#
# Indices 1 2 3 4 5 6 
#
# 1 65.1250 20.9640 33.9566 0.0000 5.1898 0.0000
# 2 20.9640 53.2316 21.3601 0.0000 -4.9495 0.0000
# 3 33.9566 21.3601 115.2707 0.0000 -4.5533 0.0000
# 4 0.0000 0.0000 0.0000 -104.3538 0.0000 -78.6064
# 5 5.1898 -4.9495 -4.5533 0.0000 27.0856 0.0000
# 6 0.0000 0.0000 0.0000 -78.6064 0.0000 -33.7815
#
#
#
# Elastic Compliance Matrix: (Units=1/GPa)
#
#
# Indices 1 2 3 4 5 6 
#
# 1 0.020623 -0.006642 -0.005082 0.000000 -0.006020 0.000000
# 2 -0.006642 0.022696 -0.002048 0.000000 0.005076 0.000000
# 3 -0.005082 -0.002048 0.010646 0.000000 0.002389 0.000000
# 4 0.000000 0.000000 0.000000 0.012730 0.000000 -0.029621
# 5 -0.006020 0.005076 0.002389 0.000000 0.039402 0.000000
# 6 0.000000 0.000000 0.000000 -0.029621 0.000000 0.039323
#
#
# Mechanical properties :
#
#
# Convention : Reuss Voigt Hill
#
# Bulk Modulus (GPa) = 37.85116 42.90986 40.38051
# Shear Modulus (GPa) = 27.50698 -11.72016 7.89341
#
# Velocity S-wave (km/s) = 3.76848 -2.45987 2.01873
# Velocity P-wave (km/s) = 6.20300 3.75311 5.12655
#
# Compressibility (1/GPa) = 0.02641927
#
# Stress axis : x y z
#
# Youngs Moduli (GPa) = 48.49006 44.06133 93.92972
#
# Poissons Ratio (x) = 0.29267 0.47735
# Poissons Ratio (y) = 0.32208 0.19241
# Poissons Ratio (z) = 0.24643 0.09026
#
# Static dielectric constant tensor:
#      x y z
#    x 1.735430 0.000000 0.016180 
#    y 0.000000 1.697100 0.000000 
#    z 0.016180 0.000000 1.723670 
# 
# From -- ./inp_files/68255.got.cif
#   From: 2010.05.17/outbox.cif.g08.bks.cpg/sg12_35_cif.got.tgz:68255.got - 2010.06.03 13:09:07.
