data_PCOD9197709
_publ_section_title
;
Structure prediction by ZEFSAII (Michael W. Deem and Ramdas Pophale) SiO2 
 PCOD9197709
Probable space group: C 2/M
;
_chemical_formula_sum "Si O2"
_cell_formula_units_Z 56
_cell_length_a 18.451777
_cell_length_b 17.259662
_cell_length_c 9.283825
_cell_angle_alpha 90.000000
_cell_angle_beta 116.811057
_cell_angle_gamma 90.000000
_cell_volume 2638.791435
_symmetry_space_group_name_H-M "C 2/M"
_symmetry_group_IT_number 12
_symmetry_cell_setting 'monoclinic'
loop_
_space_group_symop_operation_xyz
x,y,z
-x,y,-z
-x,-y,-z
x,-y,z
1/2+x,1/2+y,z
1/2-x,1/2+y,-z
1/2-x,1/2-y,-z
1/2+x,1/2-y,z
loop_
_atom_site_type_symbol
_atom_site_label
_atom_site_fract_x
_atom_site_fract_y
_atom_site_fract_z
Si Si1 0.775715 0.197483 0.157372
Si Si2 0.169481 0.085404 0.025042
Si Si3 0.324096 0.653690 0.664537
Si Si4 0.062152 0.280709 0.684788
Si Si5 0.999607 0.852292 0.158464
Si Si6 0.174170 0.334532 0.342313
Si Si7 0.999088 0.408599 0.826606
O O1 0.851195 0.246765 0.291093
O O2 0.707715 0.173197 0.209725
O O3 0.750000 0.250000 0.000000
O O4 0.803296 0.119462 0.102266
O O5 0.192659 0.139915 0.181135
O O6 0.200809 0.000000 0.081286
O O7 0.071820 0.086698 0.926515
O O8 0.412241 0.615329 0.722465
O O9 0.247289 0.630116 0.502004
O O10 0.338793 0.743484 0.636437
O O11 0.000000 0.296196 0.500000
O O12 0.027924 0.210662 0.751260
O O13 0.061043 0.355284 0.789901
O O14 0.000000 0.812289 0.000000
O O15 0.091843 0.380500 0.294350
O O16 0.011325 0.500000 0.810477
O O17 0.000000 0.395787 0.000000
#
# Coordination Sequence:
#
# PCOD9197709 Si02
#       7
#     8   8   8   8   8   8   8
#     4  11  22  38  62  92 121 160 206 252 305 363
#     4  10  22  38  59  90 126 158 197 248 308 364
#     4  10  20  35  62  91 120 158 195 259 297 361
#     4  11  22  37  63  90 121 159 204 255 302 359
#     4   9  18  35  61  88 116 160 203 242 290 362
#     4  11  22  38  64  92 122 155 210 253 308 355
#     4  11  25  43  63  88 122 167 211 251 303 368
#
# _framework density 21.221836
#
# number of rings (size 3 to 8) (size 9 to 14) (size 15 to 20)
#    0.000    1.571    2.857    2.143    4.000    4.000 
#    0.000    0.714    0.000   14.571    0.000    0.000 
#    0.000    0.000    0.000    0.000    0.000    0.000 
#
# Total GULP energy -156224.013714 kJ/mol
# GULP energy per Si atom -5579.429061 kJ/mol
# Density = 2.117353 g / cm^3
# Si number density = 21.221836 Si / 1000 Ang^3
#
#
#
# Elastic Constant Matrix: (Units=GPa)
#
#
# Indices 1 2 3 4 5 6 
#
# 1 45.3991 -3.4119 -2.2213 0.0000 -7.8226 0.0000
# 2 -3.4119 70.8075 13.4067 0.0000 -9.6499 0.0000
# 3 -2.2213 13.4067 79.0323 0.0000 7.1132 0.0000
# 4 0.0000 0.0000 0.0000 7.3470 0.0000 6.6302
# 5 -7.8226 -9.6499 7.1132 0.0000 35.8260 0.0000
# 6 0.0000 0.0000 0.0000 6.6302 0.0000 6.4891
#
#
#
# Elastic Compliance Matrix: (Units=1/GPa)
#
#
# Indices 1 2 3 4 5 6 
#
# 1 0.023127 0.001911 -0.000178 0.000000 0.005600 0.000000
# 2 0.001911 0.015499 -0.003043 0.000000 0.005196 0.000000
# 3 -0.000178 -0.003043 0.013482 0.000000 -0.003536 0.000000
# 4 0.000000 0.000000 0.000000 1.746038 0.000000 -1.783992
# 5 0.005600 0.005196 -0.003536 0.000000 0.031237 0.000000
# 6 0.000000 0.000000 0.000000 -1.783992 0.000000 1.976876
#
#
# Mechanical properties :
#
#
# Convention : Reuss Voigt Hill
#
# Bulk Modulus (GPa) = 20.20686 23.42066 21.81376
# Shear Modulus (GPa) = 1.30706 22.43012 11.86859
#
# Velocity S-wave (km/s) = 0.78565 3.25458 2.36744
# Velocity P-wave (km/s) = 3.21953 5.01828 4.21595
#
# Compressibility (1/GPa) = 0.04948814
#
# Stress axis : x y z
#
# Youngs Moduli (GPa) = 43.24007 64.51921 74.17024
#
# Poissons Ratio (x) = -0.12331 0.01322
# Poissons Ratio (y) = -0.08264 0.22571
# Poissons Ratio (z) = 0.00771 0.19634
#
# Static dielectric constant tensor:
#      x y z
#    x 1.830930 0.000000 0.020500 
#    y 0.000000 1.747550 0.000000 
#    z 0.020500 0.000000 1.800200 
# 
# From -- ./inp_files/88079.got.cif
#   From: 2010.05.17/outbox.cif.g08.bks.cpg/sg12_45_cif.got.tgz:88079.got - 2010.06.03 13:09:07.
