data_PCOD9197483
_publ_section_title
;
Structure prediction by ZEFSAII (Michael W. Deem and Ramdas Pophale) SiO2 
 PCOD9197483
Probable space group: C 2/M
;
_chemical_formula_sum "Si O2"
_cell_formula_units_Z 64
_cell_length_a 12.497291
_cell_length_b 13.598254
_cell_length_c 20.980127
_cell_angle_alpha 90.000000
_cell_angle_beta 60.111387
_cell_angle_gamma 90.000000
_cell_volume 3091.178889
_symmetry_space_group_name_H-M "C 2/M"
_symmetry_group_IT_number 12
_symmetry_cell_setting 'monoclinic'
loop_
_space_group_symop_operation_xyz
x,y,z
-x,y,-z
-x,-y,-z
x,-y,z
1/2+x,1/2+y,z
1/2-x,1/2+y,-z
1/2-x,1/2-y,-z
1/2+x,1/2-y,z
loop_
_atom_site_type_symbol
_atom_site_label
_atom_site_fract_x
_atom_site_fract_y
_atom_site_fract_z
Si Si1 0.367331 0.809229 0.822286
Si Si2 0.080109 0.109239 0.657246
Si Si3 0.498763 0.611818 0.815098
Si Si4 0.903855 0.796433 0.085270
Si Si5 0.342643 0.265328 0.697546
Si Si6 0.110041 0.615669 0.819842
Si Si7 0.628620 0.288521 0.454859
Si Si8 0.193978 0.390185 0.508190
O O1 0.398214 0.694204 0.827504
O O2 0.234377 0.828885 0.892535
O O3 0.346588 0.816918 0.752015
O O4 0.485087 0.866156 0.815280
O O5 0.198199 0.112810 0.577408
O O6 0.098223 0.122323 0.727884
O O7 0.975055 0.182941 0.667340
O O8 0.026775 0.000000 0.665485
O O9 0.452995 0.500000 0.827975
O O10 0.553921 0.639085 0.866695
O O11 0.902139 0.684923 0.113976
O O12 0.000000 0.805313 0.000000
O O13 0.338441 0.246796 0.623865
O O14 0.228701 0.337537 0.748810
O O15 0.125800 0.500000 0.827109
O O16 0.500000 0.346479 0.500000
O O17 0.739807 0.356002 0.446864
O O18 0.609340 0.198215 0.509912
O O19 0.142428 0.500000 0.526898
#
# Coordination Sequence:
#
# PCOD9197483 Si02
#       8
#     8   8   8   8   8   8   8   8
#     4   9  21  37  58  83 116 151 187 239 281 341
#     4   9  17  33  57  82 107 142 190 240 283 335
#     4   9  19  35  58  84 111 148 191 235 284 337
#     4  10  22  39  58  86 120 154 188 233 284 342
#     4  10  20  35  60  82 114 147 194 239 287 337
#     4  10  22  39  59  86 117 154 193 237 288 341
#     4  11  23  38  59  84 116 157 193 238 292 344
#     4  10  23  38  55  83 116 150 193 239 288 343
#
# _framework density 20.704075
#
# number of rings (size 3 to 8) (size 9 to 14) (size 15 to 20)
#    0.000    2.250    1.250    0.375    7.000    7.500 
#    0.000    1.875    0.000    0.000    0.000    0.000 
#    0.000    0.000    0.000    0.000    0.000    0.000 
#
# Total GULP energy -178441.078271 kJ/mol
# GULP energy per Si atom -5576.283696 kJ/mol
# Density = 2.065695 g / cm^3
# Si number density = 20.704075 Si / 1000 Ang^3
#
#
#
# Elastic Constant Matrix: (Units=GPa)
#
#
# Indices 1 2 3 4 5 6 
#
# 1 60.1330 -11.2218 23.7741 0.0000 3.7267 0.0000
# 2 -11.2218 53.7196 -0.9084 0.0000 7.3345 0.0000
# 3 23.7741 -0.9084 74.8488 0.0000 -6.3375 0.0000
# 4 0.0000 0.0000 0.0000 14.9367 0.0000 -2.7267
# 5 3.7267 7.3345 -6.3375 0.0000 26.4138 0.0000
# 6 0.0000 0.0000 0.0000 -2.7267 0.0000 -1.5758
#
#
#
# Elastic Compliance Matrix: (Units=1/GPa)
#
#
# Indices 1 2 3 4 5 6 
#
# 1 0.020719 0.005029 -0.007029 0.000000 -0.006006 0.000000
# 2 0.005029 0.020573 -0.001931 0.000000 -0.006886 0.000000
# 3 -0.007029 -0.001931 0.016024 0.000000 0.005373 0.000000
# 4 0.000000 0.000000 0.000000 0.050878 0.000000 -0.088038
# 5 -0.006006 -0.006886 0.005373 0.000000 0.041908 0.000000
# 6 0.000000 0.000000 0.000000 -0.088038 0.000000 -0.482275
#
#
# Mechanical properties :
#
#
# Convention : Reuss Voigt Hill
#
# Bulk Modulus (GPa) = 20.21961 23.55436 21.88699
# Shear Modulus (GPa) = -16.24290 19.75879 1.75795
#
# Velocity S-wave (km/s) = -2.80398 3.09260 0.92246
# Velocity P-wave (km/s) = 0.83418 4.91463 3.42474
#
# Compressibility (1/GPa) = 0.04945694
#
# Stress axis : x y z
#
# Youngs Moduli (GPa) = 48.26388 48.60674 62.40560
#
# Poissons Ratio (x) = -0.24446 0.43862
# Poissons Ratio (y) = -0.24274 0.12049
# Poissons Ratio (z) = 0.33923 0.09385
#
# Static dielectric constant tensor:
#      x y z
#    x 1.781300 0.000000 0.028230 
#    y 0.000000 1.756850 0.000000 
#    z 0.028230 0.000000 1.747870 
# 
# From -- ./inp_files/305419.got.cif
#   From: 2010.05.17/outbox.cif.g08.bks.cpg/sg12_153_cif.got.tgz:305419.got - 2010.06.03 13:09:07.
