data_PCOD9197357
_publ_section_title
;
Structure prediction by ZEFSAII (Michael W. Deem and Ramdas Pophale) SiO2 
 PCOD9197357
Probable space group: C 2/M
;
_chemical_formula_sum "Si O2"
_cell_formula_units_Z 58
_cell_length_a 19.800334
_cell_length_b 7.478751
_cell_length_c 23.590101
_cell_angle_alpha 90.000000
_cell_angle_beta 40.164059
_cell_angle_gamma 90.000000
_cell_volume 2253.079873
_symmetry_space_group_name_H-M "C 2/M"
_symmetry_group_IT_number 12
_symmetry_cell_setting 'monoclinic'
loop_
_space_group_symop_operation_xyz
x,y,z
-x,y,-z
-x,-y,-z
x,-y,z
1/2+x,1/2+y,z
1/2-x,1/2+y,-z
1/2-x,1/2-y,-z
1/2+x,1/2-y,z
loop_
_atom_site_type_symbol
_atom_site_label
_atom_site_fract_x
_atom_site_fract_y
_atom_site_fract_z
Si Si1 0.332633 0.283497 0.186736
Si Si2 0.762044 0.795465 0.585892
Si Si3 0.145150 0.204295 0.949050
Si Si4 0.000000 0.500000 0.500000
Si Si5 0.523024 0.718051 0.136696
Si Si6 0.873710 0.793423 0.626070
Si Si7 0.114918 0.212109 0.197067
Si Si8 0.908633 0.713364 0.388553
O O1 0.328928 0.500000 0.187804
O O2 0.380194 0.219114 0.096617
O O3 0.407213 0.228749 0.190689
O O4 0.215114 0.216377 0.269627
O O5 0.811524 0.713831 0.610428
O O6 0.849100 0.791860 0.480660
O O7 0.658107 0.718375 0.623516
O O8 0.740048 0.000000 0.615743
O O9 0.271041 0.204683 0.870041
O O10 0.106248 0.000000 0.973098
O O11 0.098754 0.279573 0.036883
O O12 0.031364 0.657477 0.433252
O O13 0.524558 0.500000 0.138287
O O14 0.562366 0.780022 0.172291
O O15 0.904702 0.000000 0.599215
O O16 0.029310 0.244725 0.300751
O O17 0.131714 0.000000 0.182249
O O18 0.893820 0.500000 0.400519
#
# Coordination Sequence:
#
# PCOD9197357 Si02
#       8
#     8   8   8   2   8   8   8   8
#     4  10  20  39  66  94 124 165 215 270 320 381
#     4   9  20  38  59  88 120 155 204 264 322 373
#     4  10  21  38  61  90 126 165 209 262 322 385
#     4  12  26  44  64  90 122 168 218 252 324 384
#     4   9  19  37  64  93 120 163 218 263 317 380
#     4  11  24  43  66  93 128 168 215 270 321 382
#     4  11  22  36  56  86 125 165 206 258 317 382
#     4  10  20  35  59  88 120 159 207 257 315 383
#
# _framework density 25.742542
#
# number of rings (size 3 to 8) (size 9 to 14) (size 15 to 20)
#    0.000    1.931    0.690    2.690    0.966    3.862 
#    0.000    2.069    0.000    1.655    0.000    0.000 
#    0.000    0.000    0.000    0.000    0.000    0.000 
#
# Total GULP energy -162111.748146 kJ/mol
# GULP energy per Si atom -5590.060281 kJ/mol
# Density = 2.568395 g / cm^3
# Si number density = 25.742542 Si / 1000 Ang^3
#
#
#
# Elastic Constant Matrix: (Units=GPa)
#
#
# Indices 1 2 3 4 5 6 
#
# 1 93.6068 -2.9902 1.5302 0.0024 -5.8628 0.0038
# 2 -2.9902 128.0239 4.3871 0.0020 -1.4731 0.0035
# 3 1.5302 4.3871 128.5225 0.0009 -12.6517 -0.0011
# 4 0.0024 0.0020 0.0009 9.9248 -0.0002 -4.9441
# 5 -5.8628 -1.4731 -12.6517 -0.0002 43.6838 -0.0004
# 6 0.0038 0.0035 -0.0011 -4.9441 -0.0004 -5.2937
#
#
#
# Elastic Compliance Matrix: (Units=1/GPa)
#
#
# Indices 1 2 3 4 5 6 
#
# 1 0.010783 0.000268 0.000006 0.000001 0.001458 0.000007
# 2 0.000268 0.007828 -0.000248 0.000001 0.000228 0.000005
# 3 0.000006 -0.000248 0.008017 -0.000001 0.002314 -0.000001
# 4 0.000001 0.000001 -0.000001 0.068765 -0.000001 -0.064223
# 5 0.001458 0.000228 0.002314 -0.000001 0.023765 -0.000001
# 6 0.000007 0.000005 -0.000001 -0.064223 -0.000001 -0.128922
#
#
# Mechanical properties :
#
#
# Convention : Reuss Voigt Hill
#
# Bulk Modulus (GPa) = 37.47980 39.55638 38.51809
# Shear Modulus (GPa) = -5417.57135 32.81138 -2692.37998
#
# Velocity S-wave (km/s) = -45.92482 3.57402 -32.37527
# Velocity P-wave (km/s) = 52.89167 5.69483 37.18264
#
# Compressibility (1/GPa) = 0.02668104
#
# Stress axis : x y z
#
# Youngs Moduli (GPa) = 92.74054 127.73947 124.73571
#
# Poissons Ratio (x) = -0.03429 -0.00075
# Poissons Ratio (y) = -0.02489 0.03093
# Poissons Ratio (z) = -0.00055 0.03167
#
# Static dielectric constant tensor:
#      x y z
#    x 2.123030 0.000000 -0.017680 
#    y 0.000000 1.977840 0.000000 
#    z -0.017680 0.000000 2.023920 
# 
# From -- ./inp_files/346503.got.cif
#   From: 2010.05.17/outbox.cif.g08.bks.cpg/sg12_174_cif.got.tgz:346503.got - 2010.06.03 13:09:07.
