data_PCOD9197374
_publ_section_title
;
Structure prediction by ZEFSAII (Michael W. Deem and Ramdas Pophale) SiO2 
 PCOD9197374
Probable space group: C 2/M
;
_chemical_formula_sum "Si O2"
_cell_formula_units_Z 56
_cell_length_a 31.447329
_cell_length_b 8.492474
_cell_length_c 12.197150
_cell_angle_alpha 90.000000
_cell_angle_beta 116.131080
_cell_angle_gamma 90.000000
_cell_volume 2924.492675
_symmetry_space_group_name_H-M "C 2/M"
_symmetry_group_IT_number 12
_symmetry_cell_setting 'monoclinic'
loop_
_space_group_symop_operation_xyz
x,y,z
-x,y,-z
-x,-y,-z
x,-y,z
1/2+x,1/2+y,z
1/2-x,1/2+y,-z
1/2-x,1/2-y,-z
1/2+x,1/2-y,z
loop_
_atom_site_type_symbol
_atom_site_label
_atom_site_fract_x
_atom_site_fract_y
_atom_site_fract_z
Si Si1 0.910005 0.688397 0.703775
Si Si2 0.983257 0.811321 0.186134
Si Si3 0.548677 0.308468 0.614410
Si Si4 0.904495 0.690231 0.946321
Si Si5 0.184343 0.310031 0.011490
Si Si6 0.863703 0.811561 0.434652
Si Si7 0.214787 0.688461 0.806149
O O1 0.908224 0.500000 0.695670
O O2 0.896182 0.737883 0.811302
O O3 0.877232 0.757805 0.571570
O O4 0.964033 0.743650 0.747594
O O5 0.954721 0.759663 0.263044
O O6 0.986475 0.000000 0.190004
O O7 0.953942 0.754123 0.048438
O O8 0.500000 0.259427 0.500000
O O9 0.549557 0.500000 0.613263
O O10 0.594062 0.253177 0.598223
O O11 0.906251 0.500000 0.951667
O O12 0.862214 0.745530 0.977759
O O13 0.183867 0.500000 0.011432
O O14 0.232087 0.253238 0.125036
O O15 0.188693 0.257947 0.889596
O O16 0.814882 0.747966 0.330531
O O17 0.863205 0.000000 0.430571
O O18 0.216235 0.500000 0.807909
#
# Coordination Sequence:
#
# PCOD9197374 Si02
#       7
#     8   8   8   8   8   8   8
#     4  11  23  38  54  76 111 150 187 228 272 317
#     4  11  21  35  57  82 109 145 187 228 272 326
#     4   9  17  32  52  77 109 140 175 221 268 314
#     4  10  22  39  57  78 109 147 185 228 273 320
#     4   9  19  38  61  84 111 143 181 222 271 329
#     4  11  21  36  58  81 111 148 185 223 272 329
#     4  10  20  35  59  89 116 138 172 224 279 331
#
# _framework density 19.148620000000001
#
# number of rings (size 3 to 8) (size 9 to 14) (size 15 to 20)
#    0.000    1.857    1.429    3.000    0.000    4.000 
#    0.000    3.571    0.000    0.000    0.000    0.000 
#    0.000    0.000    0.000    0.000    0.000    0.000 
#
# Total GULP energy -156423.211918 kJ/mol
# GULP energy per Si atom -5586.543283 kJ/mol
# Density = 1.910504 g / cm^3
# Si number density = 19.148620 Si / 1000 Ang^3
#
#
#
# Elastic Constant Matrix: (Units=GPa)
#
#
# Indices 1 2 3 4 5 6 
#
# 1 38.5044 5.9144 35.8177 0.0000 1.3964 0.0000
# 2 5.9144 10.1831 8.9453 0.0000 -0.0142 0.0000
# 3 35.8177 8.9453 131.5505 0.0000 17.8836 0.0000
# 4 0.0000 0.0000 0.0000 28.7548 0.0000 2.5917
# 5 1.3964 -0.0142 17.8836 0.0000 24.0059 0.0000
# 6 0.0000 0.0000 0.0000 2.5917 0.0000 20.3180
#
#
#
# Elastic Compliance Matrix: (Units=1/GPa)
#
#
# Indices 1 2 3 4 5 6 
#
# 1 0.036954 -0.012756 -0.009904 0.000000 0.005221 0.000000
# 2 -0.012756 0.109615 -0.004551 0.000000 0.004197 0.000000
# 3 -0.009904 -0.004551 0.011716 0.000000 -0.008155 0.000000
# 4 0.000000 0.000000 0.000000 0.035181 0.000000 -0.004488
# 5 0.005221 0.004197 -0.008155 0.000000 0.047430 0.000000
# 6 0.000000 0.000000 0.000000 -0.004488 0.000000 0.049790
#
#
# Mechanical properties :
#
#
# Convention : Reuss Voigt Hill
#
# Bulk Modulus (GPa) = 9.62807 31.28809 20.45808
# Shear Modulus (GPa) = 13.16729 23.25312 18.21021
#
# Velocity S-wave (km/s) = 2.62513 3.48853 3.08716
# Velocity P-wave (km/s) = 3.77192 5.70978 4.83885
#
# Compressibility (1/GPa) = 0.10386298
#
# Stress axis : x y z
#
# Youngs Moduli (GPa) = 27.06072 9.12288 85.35105
#
# Poissons Ratio (x) = 0.11637 0.84531
# Poissons Ratio (y) = 0.34518 0.38846
# Poissons Ratio (z) = 0.26801 0.04152
#
# Static dielectric constant tensor:
#      x y z
#    x 1.663040 0.000000 -0.027410 
#    y 0.000000 1.647120 0.000000 
#    z -0.027410 0.000000 1.652770 
# 
# From -- ./inp_files/180684.got.cif
#   From: 2010.05.17/outbox.cif.g08.bks.cpg/sg12_91_cif.got.tgz:180684.got - 2010.06.03 13:09:07.
