data_PCOD9197342
_publ_section_title
;
Structure prediction by ZEFSAII (Michael W. Deem and Ramdas Pophale) SiO2 
 PCOD9197342
Probable space group: C 2/M
;
_chemical_formula_sum "Si O2"
_cell_formula_units_Z 40
_cell_length_a 19.468651
_cell_length_b 17.566737
_cell_length_c 15.180592
_cell_angle_alpha 90.000000
_cell_angle_beta 157.260764
_cell_angle_gamma 90.000000
_cell_volume 2006.815882
_symmetry_space_group_name_H-M "C 2/M"
_symmetry_group_IT_number 12
_symmetry_cell_setting 'monoclinic'
loop_
_space_group_symop_operation_xyz
x,y,z
-x,y,-z
-x,-y,-z
x,-y,z
1/2+x,1/2+y,z
1/2-x,1/2+y,-z
1/2-x,1/2-y,-z
1/2+x,1/2-y,z
loop_
_atom_site_type_symbol
_atom_site_label
_atom_site_fract_x
_atom_site_fract_y
_atom_site_fract_z
Si Si1 0.986939 0.643641 0.262999
Si Si2 0.614907 0.089879 0.224372
Si Si3 0.104198 0.199375 0.379734
Si Si4 0.296721 0.409799 0.755120
Si Si5 0.182675 0.912091 0.026747
O O1 0.011680 0.616014 0.191438
O O2 0.973008 0.734713 0.257523
O O3 0.165892 0.623232 0.528272
O O4 0.822112 0.603213 0.114497
O O5 0.785704 0.145614 0.424062
O O6 0.660631 0.000000 0.287014
O O7 0.500000 0.099205 0.000000
O O8 0.250000 0.250000 0.500000
O O9 0.986552 0.141869 0.183947
O O10 0.305325 0.500000 0.748163
O O11 0.500000 0.380984 0.000000
O O12 0.226990 0.397882 0.771829
O O13 0.125178 0.000000 0.958146
#
# Coordination Sequence:
#
# PCOD9197342 Si02
#       5
#     8   8   8   8   8
#     4  11  22  37  58  87 121 150 187 243 295 341
#     4  10  21  39  61  82 110 154 202 240 279 338
#     4  10  22  38  59  85 115 152 193 238 290 345
#     4  10  20  35  59  88 116 150 189 230 284 350
#     4  11  22  38  61  87 117 151 189 237 294 350
#
# _framework density 19.932072000000002
#
# number of rings (size 3 to 8) (size 9 to 14) (size 15 to 20)
#    0.000    1.600    0.000    6.000    0.000    7.200 
#    0.000    3.000    0.000    3.600    0.000    0.000 
#    0.000    0.000    0.000    0.000    0.000    0.000 
#
# Total GULP energy -111599.913313 kJ/mol
# GULP energy per Si atom -5579.995666 kJ/mol
# Density = 1.988671 g / cm^3
# Si number density = 19.932072 Si / 1000 Ang^3
#
#
#
# Elastic Constant Matrix: (Units=GPa)
#
#
# Indices 1 2 3 4 5 6 
#
# 1 89.9059 31.0385 40.5599 0.0000 -16.9234 0.0000
# 2 31.0385 133.9635 62.3652 0.0000 -19.1803 0.0000
# 3 40.5599 62.3652 115.8882 0.0000 -19.2835 0.0000
# 4 0.0000 0.0000 0.0000 33.1608 0.0000 27.3051
# 5 -16.9234 -19.1803 -19.2835 0.0000 32.9636 0.0000
# 6 0.0000 0.0000 0.0000 27.3051 0.0000 -37.4470
#
#
#
# Elastic Compliance Matrix: (Units=1/GPa)
#
#
# Indices 1 2 3 4 5 6 
#
# 1 0.013920 -0.000883 -0.003648 0.000000 0.004499 0.000000
# 2 -0.000883 0.010281 -0.004768 0.000000 0.002740 0.000000
# 3 -0.003648 -0.004768 0.012960 0.000000 0.002934 0.000000
# 4 0.000000 0.000000 0.000000 0.018843 0.000000 0.013740
# 5 0.004499 0.002740 0.002934 0.000000 0.035957 0.000000
# 6 0.000000 0.000000 0.000000 0.013740 0.000000 -0.016686
#
#
# Mechanical properties :
#
#
# Convention : Reuss Voigt Hill
#
# Bulk Modulus (GPa) = 53.86950 67.52054 60.69502
# Shear Modulus (GPa) = 49.96961 19.45508 34.71234
#
# Velocity S-wave (km/s) = 5.01242 3.12760 4.17769
# Velocity P-wave (km/s) = 7.78360 6.85503 7.33402
#
# Compressibility (1/GPa) = 0.01856338
#
# Stress axis : x y z
#
# Youngs Moduli (GPa) = 71.83806 97.26495 77.16023
#
# Poissons Ratio (x) = 0.08585 0.28151
# Poissons Ratio (y) = 0.06341 0.36790
# Poissons Ratio (z) = 0.26209 0.46376
#
# Static dielectric constant tensor:
#      x y z
#    x 1.755430 0.000000 0.031460 
#    y 0.000000 1.738830 0.000000 
#    z 0.031460 0.000000 1.691130 
# 
# From -- ./inp_files/46943.got.cif
#   From: 2010.05.17/outbox.cif.g08.bks.cpg/sg12_24_cif.got.tgz:46943.got - 2010.06.03 13:09:07.
