data_PCOD9197252
_publ_section_title
;
Structure prediction by ZEFSAII (Michael W. Deem and Ramdas Pophale) SiO2 
 PCOD9197252
Probable space group: C 2/M
;
_chemical_formula_sum "Si O2"
_cell_formula_units_Z 64
_cell_length_a 26.190398
_cell_length_b 23.704926
_cell_length_c 5.029210
_cell_angle_alpha 90.000000
_cell_angle_beta 108.315453
_cell_angle_gamma 90.000000
_cell_volume 2964.166530
_symmetry_space_group_name_H-M "C 2/M"
_symmetry_group_IT_number 12
_symmetry_cell_setting 'monoclinic'
loop_
_space_group_symop_operation_xyz
x,y,z
-x,y,-z
-x,-y,-z
x,-y,z
1/2+x,1/2+y,z
1/2-x,1/2+y,-z
1/2-x,1/2-y,-z
1/2+x,1/2-y,z
loop_
_atom_site_type_symbol
_atom_site_label
_atom_site_fract_x
_atom_site_fract_y
_atom_site_fract_z
Si Si1 0.871471 0.352484 0.749350
Si Si2 0.537699 0.935818 0.318354
Si Si3 0.550650 0.559382 0.891128
Si Si4 0.751893 0.366097 0.666462
Si Si5 0.100966 0.844051 0.754954
Si Si6 0.207417 0.808985 0.116011
Si Si7 0.348596 0.563438 0.554441
Si Si8 0.631561 0.776149 0.764284
O O1 0.913238 0.396478 0.691900
O O2 0.814559 0.379431 0.741669
O O3 0.860805 0.308380 0.495762
O O4 0.890290 0.317175 0.040238
O O5 0.500000 0.915088 0.500000
O O6 0.555472 0.000000 0.416871
O O7 0.500000 0.938890 0.000000
O O8 0.549977 0.500000 0.730479
O O9 0.607549 0.559070 0.139181
O O10 0.500000 0.557269 0.000000
O O11 0.549999 0.620569 0.758342
O O12 0.737429 0.314988 0.440985
O O13 0.712559 0.416029 0.501106
O O14 0.735718 0.346935 0.936508
O O15 0.127789 0.887774 0.595118
O O16 0.095566 0.779771 0.651986
O O17 0.146822 0.834372 0.055768
O O18 0.311143 0.750983 0.035562
O O19 0.346067 0.500000 0.433549
#
# Coordination Sequence:
#
# PCOD9197252 Si02
#       8
#     8   8   8   8   8   8   8   8
#     4  12  24  39  66 101 128 159 207 262 302 381
#     4  10  23  47  76  97 125 169 208 255 320 389
#     4  10  20  35  59  84 109 155 220 272 307 357
#     4  11  21  37  58  93 124 164 204 260 318 363
#     4   9  20  37  56  78 121 159 210 252 313 369
#     4   9  20  36  56  81 127 170 208 237 302 381
#     4  10  20  37  58  81 118 164 208 260 317 366
#     4  10  23  38  63  92 134 167 212 249 311 376
#
# _framework density 21.591228000000001
#
# number of rings (size 3 to 8) (size 9 to 14) (size 15 to 20)
#    0.750    1.125    1.250    2.625    1.750    4.000 
#    0.000    3.750    2.750    3.000    0.000    0.000 
#    0.000    0.000    0.000    0.000    0.000    0.000 
#
# Total GULP energy -178306.742338 kJ/mol
# GULP energy per Si atom -5572.085698 kJ/mol
# Density = 2.154209 g / cm^3
# Si number density = 21.591228 Si / 1000 Ang^3
#
#
#
# Elastic Constant Matrix: (Units=GPa)
#
#
# Indices 1 2 3 4 5 6 
#
# 1 119.6255 63.4665 4.0137 0.0000 -10.2907 0.0000
# 2 63.4665 105.4547 10.4260 0.0000 4.9280 0.0000
# 3 4.0137 10.4260 50.3594 0.0000 -10.0497 0.0000
# 4 0.0000 0.0000 0.0000 44.6202 0.0000 -18.7470
# 5 -10.2907 4.9280 -10.0497 0.0000 30.2522 0.0000
# 6 0.0000 0.0000 0.0000 -18.7470 0.0000 6.5787
#
#
#
# Elastic Compliance Matrix: (Units=1/GPa)
#
#
# Indices 1 2 3 4 5 6 
#
# 1 0.013418 -0.008587 0.002033 0.000000 0.006638 0.000000
# 2 -0.008587 0.015342 -0.003827 0.000000 -0.006691 0.000000
# 3 0.002033 -0.003827 0.022223 0.000000 0.008697 0.000000
# 4 0.000000 0.000000 0.000000 -0.113614 0.000000 -0.323758
# 5 0.006638 -0.006691 0.008697 0.000000 0.039293 0.000000
# 6 0.000000 0.000000 0.000000 -0.323758 0.000000 -0.770585
#
#
# Mechanical properties :
#
#
# Convention : Reuss Voigt Hill
#
# Bulk Modulus (GPa) = 33.08933 47.91690 40.50311
# Shear Modulus (GPa) = -6.55231 29.45912 11.45340
#
# Velocity S-wave (km/s) = -1.74393 3.69779 2.30568
# Velocity P-wave (km/s) = 3.36208 6.36180 5.08803
#
# Compressibility (1/GPa) = 0.03022122
#
# Stress axis : x y z
#
# Youngs Moduli (GPa) = 74.52784 65.18263 44.99798
#
# Poissons Ratio (x) = 0.55969 -0.09148
# Poissons Ratio (y) = 0.63994 0.17221
# Poissons Ratio (z) = -0.15151 0.24946
#
# Static dielectric constant tensor:
#      x y z
#    x 1.831020 0.000000 -0.012750 
#    y 0.000000 1.889020 0.000000 
#    z -0.012750 0.000000 1.817150 
# 
# From -- ./inp_files/26232.got.cif
#   From: 2010.05.17/outbox.cif.g08.bks.cpg/sg12_14_cif.got.tgz:26232.got - 2010.06.03 13:09:07.
