data_PCOD9197919
_publ_section_title
;
Structure prediction by ZEFSAII (Michael W. Deem and Ramdas Pophale) SiO2 
 PCOD9197919
Probable space group: C 2/M
;
_chemical_formula_sum "Si O2"
_cell_formula_units_Z 58
_cell_length_a 30.277217
_cell_length_b 7.359429
_cell_length_c 9.542285
_cell_angle_alpha 90.000000
_cell_angle_beta 87.988634
_cell_angle_gamma 90.000000
_cell_volume 2124.930835
_symmetry_space_group_name_H-M "C 2/M"
_symmetry_group_IT_number 12
_symmetry_cell_setting 'monoclinic'
loop_
_space_group_symop_operation_xyz
x,y,z
-x,y,-z
-x,-y,-z
x,-y,z
1/2+x,1/2+y,z
1/2-x,1/2+y,-z
1/2-x,1/2-y,-z
1/2+x,1/2-y,z
loop_
_atom_site_type_symbol
_atom_site_label
_atom_site_fract_x
_atom_site_fract_y
_atom_site_fract_z
Si Si1 0.084414 0.782040 0.128649
Si Si2 0.304174 0.208708 0.272196
Si Si3 0.788798 0.220893 0.667461
Si Si4 0.617571 0.719293 0.431818
Si Si5 0.500000 0.500000 0.500000
Si Si6 0.678012 0.280998 0.028457
Si Si7 0.599092 0.793548 0.733746
Si Si8 0.005306 0.287189 0.754212
O O1 0.099660 0.723117 0.283659
O O2 0.125902 0.725376 0.027964
O O3 0.034078 0.721813 0.128541
O O4 0.084828 0.000000 0.124830
O O5 0.260868 0.290164 0.349694
O O6 0.352645 0.298048 0.268560
O O7 0.308166 0.000000 0.317267
O O8 0.295307 0.207342 0.105853
O O9 0.830514 0.272026 0.567187
O O10 0.803615 0.274902 0.822732
O O11 0.787143 0.000000 0.665792
O O12 0.614347 0.500000 0.436602
O O13 0.591101 0.790513 0.566487
O O14 0.493981 0.657963 0.624281
O O15 0.679741 0.500000 0.023934
O O16 0.553791 0.720682 0.802106
O O17 0.604472 0.000000 0.779383
O O18 0.010146 0.500000 0.715506
#
# Coordination Sequence:
#
# PCOD9197919 Si02
#       8
#     8   8   8   8   2   8   8   8
#     4   9  18  35  57  82 113 145 183 240 297 337
#     4  10  20  36  55  75 110 154 188 227 283 341
#     4   8  16  33  56  81 108 140 181 234 289 335
#     4   9  18  32  54  79 105 142 182 225 283 342
#     4  12  22  36  60  86 114 152 194 240 292 332
#     4   9  18  34  57  86 111 136 186 244 287 332
#     4  10  23  37  49  76 115 151 189 229 276 342
#     4  11  23  37  56  85 119 154 195 239 286 343
#
# _framework density 27.295006000000001
#
# number of rings (size 3 to 8) (size 9 to 14) (size 15 to 20)
#    0.000    2.483    0.690    3.103    2.897    3.310 
#    0.000    3.448    0.000    4.138    0.000    0.000 
#    0.000    0.000    0.000    0.000    0.000    0.000 
#
# Total GULP energy -161987.923456 kJ/mol
# GULP energy per Si atom -5585.790464 kJ/mol
# Density = 2.723288 g / cm^3
# Si number density = 27.295006 Si / 1000 Ang^3
#
#
#
# Elastic Constant Matrix: (Units=GPa)
#
#
# Indices 1 2 3 4 5 6 
#
# 1 218.0942 10.7235 26.7515 0.0000 -43.8622 0.0000
# 2 10.7235 142.8773 17.9326 0.0000 2.5096 0.0000
# 3 26.7515 17.9326 97.2705 0.0000 -26.2708 0.0000
# 4 0.0000 0.0000 0.0000 19.2409 0.0000 3.2915
# 5 -43.8622 2.5096 -26.2708 0.0000 45.9688 0.0000
# 6 0.0000 0.0000 0.0000 3.2915 0.0000 -4.1359
#
#
#
# Elastic Compliance Matrix: (Units=1/GPa)
#
#
# Indices 1 2 3 4 5 6 
#
# 1 0.005713 -0.000526 0.000007 0.000000 0.005484 0.000000
# 2 -0.000526 0.007285 -0.001705 0.000000 -0.001874 0.000000
# 3 0.000007 -0.001705 0.012558 0.000000 0.007276 0.000000
# 4 0.000000 0.000000 0.000000 0.045745 0.000000 0.036405
# 5 0.005484 -0.001874 0.007276 0.000000 0.031247 0.000000
# 6 0.000000 0.000000 0.000000 0.036405 0.000000 -0.212813
#
#
# Mechanical properties :
#
#
# Convention : Reuss Voigt Hill
#
# Bulk Modulus (GPa) = 47.37242 63.22859 55.30051
# Shear Modulus (GPa) = -50.61742 39.07038 -5.77352
#
# Velocity S-wave (km/s) = -4.31101 3.78750 -1.45596
# Velocity P-wave (km/s) = 2.71779 6.50708 4.18065
#
# Compressibility (1/GPa) = 0.02110933
#
# Stress axis : x y z
#
# Youngs Moduli (GPa) = 175.03629 137.26205 79.62922
#
# Poissons Ratio (x) = 0.07220 -0.00054
# Poissons Ratio (y) = 0.09206 0.13573
# Poissons Ratio (z) = -0.00120 0.23396
#
# Static dielectric constant tensor:
#      x y z
#    x 2.254590 0.000000 0.071110 
#    y 0.000000 -3.339370 0.000000 
#    z 0.071110 0.000000 2.090620 
# 
# From -- ./inp_files/186607.got.cif
#   From: 2010.05.17/outbox.cif.g08.bks.cpg/sg12_94_cif.got.tgz:186607.got - 2010.06.03 13:09:07.
