data_PCOD9197109
_publ_section_title
;
Structure prediction by ZEFSAII (Michael W. Deem and Ramdas Pophale) SiO2 
 PCOD9197109
Probable space group: C 2/M
;
_chemical_formula_sum "Si O2"
_cell_formula_units_Z 40
_cell_length_a 8.824790
_cell_length_b 15.803457
_cell_length_c 19.926709
_cell_angle_alpha 90.000000
_cell_angle_beta 131.628117
_cell_angle_gamma 90.000000
_cell_volume 2077.242004
_symmetry_space_group_name_H-M "C 2/M"
_symmetry_group_IT_number 12
_symmetry_cell_setting 'monoclinic'
loop_
_space_group_symop_operation_xyz
x,y,z
-x,y,-z
-x,-y,-z
x,-y,z
1/2+x,1/2+y,z
1/2-x,1/2+y,-z
1/2-x,1/2-y,-z
1/2+x,1/2-y,z
loop_
_atom_site_type_symbol
_atom_site_label
_atom_site_fract_x
_atom_site_fract_y
_atom_site_fract_z
Si Si1 0.929605 0.397804 0.905068
Si Si2 0.988500 0.838623 0.280077
Si Si3 0.161098 0.000000 0.397122
Si Si4 0.285599 0.602196 0.905068
Si Si5 0.530266 0.000000 0.397121
Si Si6 0.648271 0.161377 0.719923
O O1 0.902663 0.500000 0.897938
O O2 0.719834 0.357106 0.820463
O O3 0.104782 0.377479 0.903188
O O4 0.000000 0.372000 0.000000
O O5 0.032855 0.916461 0.342953
O O6 0.170445 0.834786 0.280297
O O7 0.966875 0.750000 0.311251
O O8 0.346702 0.000000 0.397802
O O9 0.263730 0.000000 0.500000
O O10 0.291152 0.500000 0.897938
O O11 0.241557 0.642894 0.820464
O O12 0.500000 0.628000 0.000000
O O13 0.496003 0.083539 0.342952
#
# Coordination Sequence:
#
# PCOD9197109 Si02
#       6
#     8   8   4   8   4   8
#     4  10  20  35  58  87 121 158 199 242 290 347
#     4  11  22  38  61  89 121 157 199 243 294 351
#     4   9  20  40  64  87 116 155 196 243 300 357
#     4  10  20  35  58  87 121 158 199 242 290 347
#     4   9  20  40  64  87 116 155 196 243 300 357
#     4  11  22  38  61  89 121 157 199 243 294 351
#
# _framework density 19.256302000000002
#
# number of rings (size 3 to 8) (size 9 to 14) (size 15 to 20)
#    0.000    1.800    2.000    2.400    0.000    3.200 
#    0.000    4.000    0.000    8.400    0.000    0.000 
#    0.000    0.000    0.000    0.000    0.000    0.000 
#
# Total GULP energy -111795.125771 kJ/mol
# GULP energy per Si atom -5589.756289 kJ/mol
# Density = 1.921247 g / cm^3
# Si number density = 19.256302 Si / 1000 Ang^3
#
#
#
# Elastic Constant Matrix: (Units=GPa)
#
#
# Indices 1 2 3 4 5 6 
#
# 1 72.7298 56.3878 33.6809 0.0000 -0.0001 0.0000
# 2 56.3878 148.4283 93.0597 0.0000 0.0022 0.0000
# 3 33.6809 93.0597 149.2312 0.0000 0.0043 0.0000
# 4 0.0000 0.0000 0.0000 -6.0519 0.0000 -0.0016
# 5 -0.0001 0.0022 0.0043 0.0000 16.7393 0.0000
# 6 0.0000 0.0000 0.0000 -0.0016 0.0000 30.9155
#
#
#
# Elastic Compliance Matrix: (Units=1/GPa)
#
#
# Indices 1 2 3 4 5 6 
#
# 1 0.019502 -0.007634 0.000359 0.000000 0.000001 0.000000
# 2 -0.007634 0.014050 -0.007039 0.000000 0.000000 0.000000
# 3 0.000359 -0.007039 0.011009 0.000000 -0.000002 0.000000
# 4 0.000000 0.000000 0.000000 -0.165237 0.000000 -0.000009
# 5 0.000001 0.000000 -0.000002 0.000000 0.059740 0.000000
# 6 0.000000 0.000000 0.000000 -0.000009 0.000000 0.032346
#
#
# Mechanical properties :
#
#
# Convention : Reuss Voigt Hill
#
# Bulk Modulus (GPa) = 62.75809 81.84957 72.30383
# Shear Modulus (GPa) = 934.68123 20.80464 477.74293
#
# Velocity S-wave (km/s) = 22.05546 3.29052 15.76818
# Velocity P-wave (km/s) = 26.10082 7.55211 19.21311
#
# Compressibility (1/GPa) = 0.01593420
#
# Stress axis : x y z
#
# Youngs Moduli (GPa) = 51.27740 71.17215 90.83125
#
# Poissons Ratio (x) = 0.54331 -0.03260
# Poissons Ratio (y) = 0.39144 0.63935
# Poissons Ratio (z) = -0.01840 0.50097
#
# Static dielectric constant tensor:
#      x y z
#    x 1.642570 0.000000 0.000000 
#    y 0.000000 1.687800 0.000000 
#    z 0.000000 0.000000 1.632240 
# 
# From -- ./inp_files/246668.got.cif
#   From: 2010.05.17/outbox.cif.g08.bks.cpg/sg12_124_cif.got.tgz:246668.got - 2010.06.03 13:09:07.
