data_PCOD9197633
_publ_section_title
;
Structure prediction by ZEFSAII (Michael W. Deem and Ramdas Pophale) SiO2 
 PCOD9197633
Probable space group: C 2/M
;
_chemical_formula_sum "Si O2"
_cell_formula_units_Z 40
_cell_length_a 20.443297
_cell_length_b 12.697177
_cell_length_c 17.748147
_cell_angle_alpha 90.000000
_cell_angle_beta 152.381446
_cell_angle_gamma 90.000000
_cell_volume 2135.691996
_symmetry_space_group_name_H-M "C 2/M"
_symmetry_group_IT_number 12
_symmetry_cell_setting 'monoclinic'
loop_
_space_group_symop_operation_xyz
x,y,z
-x,y,-z
-x,-y,-z
x,-y,z
1/2+x,1/2+y,z
1/2-x,1/2+y,-z
1/2-x,1/2-y,-z
1/2+x,1/2-y,z
loop_
_atom_site_type_symbol
_atom_site_label
_atom_site_fract_x
_atom_site_fract_y
_atom_site_fract_z
Si Si1 0.169537 0.382270 0.354228
Si Si2 0.092326 0.620154 0.022157
Si Si3 0.209914 0.272856 0.870932
Si Si4 0.811383 0.500000 0.212584
Si Si5 0.155011 0.500000 0.581476
Si Si6 0.622800 0.213252 0.469475
O O1 0.220521 0.500000 0.423131
O O2 0.283944 0.316575 0.424674
O O3 0.134938 0.322082 0.395380
O O4 0.024959 0.388398 0.162058
O O5 0.144734 0.500000 0.092142
O O6 0.208742 0.697295 0.105136
O O7 0.000000 0.657010 0.000000
O O8 0.240294 0.395129 0.881880
O O9 0.041631 0.263857 0.684761
O O10 0.250000 0.250000 0.000000
O O11 0.779957 0.500000 0.269071
O O12 0.983538 0.500000 0.393812
O O13 0.188272 0.613613 0.580187
#
# Coordination Sequence:
#
# PCOD9197633 Si02
#       6
#     8   8   8   4   4   8
#     4  10  20  37  57  85 121 156 202 246 302 365
#     4  10  23  41  61  84 121 164 199 247 311 367
#     4  11  22  39  63  89 121 159 206 251 300 369
#     4   9  22  36  58  91 118 154 197 253 308 356
#     4   9  18  38  59  82 119 158 199 245 306 359
#     4  10  20  35  61  88 115 161 202 250 296 359
#
# _framework density 18.729292999999998
#
# number of rings (size 3 to 8) (size 9 to 14) (size 15 to 20)
#    0.000    2.000    3.000    0.000    4.200    0.800 
#    0.000    1.500    0.000    3.600    0.000    0.000 
#    0.000    0.000    0.000    0.000    0.000    0.000 
#
# Total GULP energy -111366.451068 kJ/mol
# GULP energy per Si atom -5568.322553 kJ/mol
# Density = 1.868666 g / cm^3
# Si number density = 18.729293 Si / 1000 Ang^3
#
#
#
# Elastic Constant Matrix: (Units=GPa)
#
#
# Indices 1 2 3 4 5 6 
#
# 1 103.4115 61.5639 21.2912 -0.0001 9.6977 0.0000
# 2 61.5639 115.7715 43.4203 -0.0002 31.4264 -0.0001
# 3 21.2912 43.4203 39.2663 -0.0002 5.3356 -0.0001
# 4 -0.0001 -0.0002 -0.0002 179.5923 -0.0002 18.3812
# 5 9.6977 31.4264 5.3356 -0.0002 35.4616 -0.0001
# 6 0.0000 -0.0001 -0.0001 18.3812 -0.0001 37.9627
#
#
#
# Elastic Compliance Matrix: (Units=1/GPa)
#
#
# Indices 1 2 3 4 5 6 
#
# 1 0.014645 -0.009869 0.002377 0.000000 0.004383 0.000000
# 2 -0.009869 0.027059 -0.022131 0.000000 -0.017951 0.000000
# 3 0.002377 -0.022131 0.047036 0.000000 0.011886 0.000000
# 4 0.000000 0.000000 0.000000 0.005858 0.000000 -0.002837
# 5 0.004383 -0.017951 0.011886 0.000000 0.041121 0.000000
# 6 0.000000 0.000000 0.000000 -0.002837 0.000000 0.027715
#
#
# Mechanical properties :
#
#
# Convention : Reuss Voigt Hill
#
# Bulk Modulus (GPa) = 33.90676 56.77780 45.34228
# Shear Modulus (GPa) = 21.50425 59.41491 40.45958
#
# Velocity S-wave (km/s) = 3.39213 5.63843 4.65287
# Velocity P-wave (km/s) = 5.78662 8.53053 7.28886
#
# Compressibility (1/GPa) = 0.02949264
#
# Stress axis : x y z
#
# Youngs Moduli (GPa) = 68.28234 36.95638 21.26044
#
# Poissons Ratio (x) = 0.36472 -0.05053
# Poissons Ratio (y) = 0.67388 0.47052
# Poissons Ratio (z) = -0.16227 0.81788
#
# Static dielectric constant tensor:
#      x y z
#    x 1.697790 0.000000 -0.000130 
#    y 0.000000 1.717290 0.000000 
#    z -0.000130 0.000000 1.629760 
# 
# From -- ./inp_files/283425.got.cif
#   From: 2010.05.17/outbox.cif.g08.bks.cpg/sg12_142_cif.got.tgz:283425.got - 2010.06.03 13:09:07.
