data_PCOD9197525
_publ_section_title
;
Structure prediction by ZEFSAII (Michael W. Deem and Ramdas Pophale) SiO2 
 PCOD9197525
Probable space group: C 2/M
;
_chemical_formula_sum "Si O2"
_cell_formula_units_Z 56
_cell_length_a 9.972560
_cell_length_b 16.017781
_cell_length_c 14.153788
_cell_angle_alpha 90.000000
_cell_angle_beta 99.248118
_cell_angle_gamma 90.000000
_cell_volume 2231.513778
_symmetry_space_group_name_H-M "C 2/M"
_symmetry_group_IT_number 12
_symmetry_cell_setting 'monoclinic'
loop_
_space_group_symop_operation_xyz
x,y,z
-x,y,-z
-x,-y,-z
x,-y,z
1/2+x,1/2+y,z
1/2-x,1/2+y,-z
1/2-x,1/2-y,-z
1/2+x,1/2-y,z
loop_
_atom_site_type_symbol
_atom_site_label
_atom_site_fract_x
_atom_site_fract_y
_atom_site_fract_z
Si Si1 0.953989 0.789821 0.587847
Si Si2 0.785085 0.410031 0.461988
Si Si3 0.120167 0.647790 0.162675
Si Si4 0.604695 0.596972 0.714496
Si Si5 0.773918 0.150025 0.005089
Si Si6 0.018901 0.381600 0.340098
Si Si7 0.440899 0.343285 0.858808
O O1 0.808956 0.830433 0.563055
O O2 0.971662 0.718924 0.666549
O O3 0.000000 0.741594 0.500000
O O4 0.063108 0.863520 0.611094
O O5 0.712031 0.500000 0.450491
O O6 0.861115 0.406362 0.572640
O O7 0.888011 0.408596 0.384263
O O8 0.269161 0.648154 0.229233
O O9 0.157197 0.614864 0.061009
O O10 0.035353 0.596172 0.231320
O O11 0.067142 0.742332 0.142704
O O12 0.636487 0.500000 0.718476
O O13 0.468975 0.616273 0.760739
O O14 0.918746 0.133756 0.071830
O O15 0.750000 0.250000 0.000000
O O16 0.808387 0.125582 0.901189
#
# Coordination Sequence:
#
# PCOD9197525 Si02
#       7
#     8   8   8   8   8   8   8
#     4  12  24  39  62  87 115 155 203 251 292 347
#     4  11  25  42  60  85 121 159 195 243 304 353
#     4  10  20  35  60  88 116 154 198 242 287 348
#     4  11  24  38  57  89 123 154 197 250 303 348
#     4   8  16  31  57  90 120 148 193 244 289 341
#     4  11  22  37  63  86 117 153 202 241 289 357
#     4   9  17  35  57  86 120 155 194 239 292 352
#
# _framework density 25.095071999999998
#
# number of rings (size 3 to 8) (size 9 to 14) (size 15 to 20)
#    0.000    1.714    2.857    2.571    2.000    3.429 
#    0.000    5.714    0.000    0.000    0.000   18.000 
#    0.000    0.000    0.000    0.000    0.000    0.000 
#
# Total GULP energy -156200.627268 kJ/mol
# GULP energy per Si atom -5578.593831 kJ/mol
# Density = 2.503795 g / cm^3
# Si number density = 25.095072 Si / 1000 Ang^3
#
#
#
# Elastic Constant Matrix: (Units=GPa)
#
#
# Indices 1 2 3 4 5 6 
#
# 1 69.5213 14.4576 18.7892 0.0000 -17.0395 0.0000
# 2 14.4576 93.4878 -10.2042 0.0000 0.4761 0.0000
# 3 18.7892 -10.2042 79.9929 0.0000 -47.0799 0.0000
# 4 0.0000 0.0000 0.0000 4.5096 0.0000 -3.1135
# 5 -17.0395 0.4761 -47.0799 0.0000 45.5238 0.0000
# 6 0.0000 0.0000 0.0000 -3.1135 0.0000 23.1182
#
#
#
# Elastic Compliance Matrix: (Units=1/GPa)
#
#
# Indices 1 2 3 4 5 6 
#
# 1 0.016498 -0.002735 -0.001464 0.000000 0.004690 0.000000
# 2 -0.002735 0.011507 0.003672 0.000000 0.002653 0.000000
# 3 -0.001464 0.003672 0.033139 0.000000 0.033686 0.000000
# 4 0.000000 0.000000 0.000000 0.244483 0.000000 0.032926
# 5 0.004690 0.002653 0.033686 0.000000 0.058531 0.000000
# 6 0.000000 0.000000 0.000000 0.032926 0.000000 0.047690
#
#
# Mechanical properties :
#
#
# Convention : Reuss Voigt Hill
#
# Bulk Modulus (GPa) = 16.64162 32.12080 24.38121
# Shear Modulus (GPa) = 11.54916 29.29427 20.42171
#
# Velocity S-wave (km/s) = 2.14759 3.42033 2.85577
# Velocity P-wave (km/s) = 3.57706 5.33157 4.53988
#
# Compressibility (1/GPa) = 0.06009029
#
# Stress axis : x y z
#
# Youngs Moduli (GPa) = 60.61360 86.90489 30.17589
#
# Poissons Ratio (x) = 0.23769 0.04417
# Poissons Ratio (y) = 0.16578 -0.11081
# Poissons Ratio (z) = 0.08872 -0.31911
#
# Static dielectric constant tensor:
#      x y z
#    x 2.009270 0.000000 -0.086250 
#    y 0.000000 1.940520 0.000000 
#    z -0.086250 0.000000 2.196200 
# 
# From -- ./inp_files/205008.got.cif
#   From: 2010.05.17/outbox.cif.g08.bks.cpg/sg12_103_cif.got.tgz:205008.got - 2010.06.03 13:09:07.
