data_PCOD9197647
_publ_section_title
;
Structure prediction by ZEFSAII (Michael W. Deem and Ramdas Pophale) SiO2 
 PCOD9197647
Probable space group: C 2/M
;
_chemical_formula_sum "Si O2"
_cell_formula_units_Z 64
_cell_length_a 14.998441
_cell_length_b 9.937867
_cell_length_c 28.025796
_cell_angle_alpha 90.000000
_cell_angle_beta 130.427991
_cell_angle_gamma 90.000000
_cell_volume 3179.862577
_symmetry_space_group_name_H-M "C 2/M"
_symmetry_group_IT_number 12
_symmetry_cell_setting 'monoclinic'
loop_
_space_group_symop_operation_xyz
x,y,z
-x,y,-z
-x,-y,-z
x,-y,z
1/2+x,1/2+y,z
1/2-x,1/2+y,-z
1/2-x,1/2-y,-z
1/2+x,1/2-y,z
loop_
_atom_site_type_symbol
_atom_site_label
_atom_site_fract_x
_atom_site_fract_y
_atom_site_fract_z
Si Si1 0.613898 0.161700 0.617718
Si Si2 0.111703 0.153466 0.110668
Si Si3 0.169914 0.158453 0.363587
Si Si4 0.804298 0.338228 0.249508
Si Si5 0.550045 0.652850 0.770490
Si Si6 0.358554 0.163806 0.557436
Si Si7 0.403312 0.143220 0.037395
Si Si8 0.794594 0.256099 0.094806
O O1 0.699132 0.202614 0.604755
O O2 0.668313 0.206089 0.687242
O O3 0.476702 0.192332 0.568461
O O4 0.621951 0.000000 0.620887
O O5 0.175541 0.187393 0.182991
O O6 0.211743 0.171075 0.104916
O O7 0.999818 0.244025 0.062527
O O8 0.073559 0.000000 0.098567
O O9 0.121261 0.265775 0.384292
O O10 0.088135 0.160489 0.288121
O O11 0.169355 0.000000 0.380111
O O12 0.823512 0.500000 0.252823
O O13 0.889919 0.257363 0.244464
O O14 0.585738 0.500000 0.770693
O O15 0.600651 0.685716 0.839917
O O16 0.250000 0.250000 0.500000
O O17 0.341746 0.000000 0.553535
O O18 0.351001 0.156221 0.072431
O O19 0.462109 0.000000 0.051154
O O20 0.294565 0.158773 0.963916
#
# Coordination Sequence:
#
# PCOD9197647 Si02
#       8
#     8   8   8   8   8   8   8   8
#     4   9  19  37  62  88 121 161 199 235 286 355
#     4  10  22  38  61  86 114 154 201 248 300 366
#     4  10  21  38  63  93 122 156 200 247 294 351
#     4   9  18  36  60  85 118 158 199 241 296 362
#     4  10  20  35  61  90 118 150 197 254 305 349
#     4  11  23  42  66  92 126 164 200 240 288 345
#     4  11  24  40  59  84 117 156 203 255 308 364
#     4  10  23  40  59  82 118 160 200 246 307 369
#
# _framework density 20.126655
#
# number of rings (size 3 to 8) (size 9 to 14) (size 15 to 20)
#    0.000    2.000    1.250    1.500    1.750    7.500 
#    0.000    4.375    0.000    0.000    0.000    0.000 
#    0.000    0.000    0.000    0.000    0.000    0.000 
#
# Total GULP energy -178453.425173 kJ/mol
# GULP energy per Si atom -5576.669537 kJ/mol
# Density = 2.008085 g / cm^3
# Si number density = 20.126655 Si / 1000 Ang^3
#
#
#
# Elastic Constant Matrix: (Units=GPa)
#
#
# Indices 1 2 3 4 5 6 
#
# 1 59.0484 20.5403 10.4053 0.0000 23.3143 0.0000
# 2 20.5403 74.0940 36.3526 0.0000 18.3850 0.0000
# 3 10.4053 36.3526 93.2787 0.0000 14.9306 0.0000
# 4 0.0000 0.0000 0.0000 -426.0693 0.0000 184.1730
# 5 23.3143 18.3850 14.9306 0.0000 20.7816 0.0000
# 6 0.0000 0.0000 0.0000 184.1730 0.0000 -56.5491
#
#
#
# Elastic Compliance Matrix: (Units=1/GPa)
#
#
# Indices 1 2 3 4 5 6 
#
# 1 0.030913 -0.001020 0.002662 0.000000 -0.035690 0.000000
# 2 -0.001020 0.019511 -0.005549 0.000000 -0.012131 0.000000
# 3 0.002662 -0.005549 0.013874 0.000000 -0.008045 0.000000
# 4 0.000000 0.000000 0.000000 0.005755 0.000000 0.018744
# 5 -0.035690 -0.012131 -0.008045 0.000000 0.104671 0.000000
# 6 0.000000 0.000000 0.000000 0.018744 0.000000 0.043362
#
#
# Mechanical properties :
#
#
# Convention : Reuss Voigt Hill
#
# Bulk Modulus (GPa) = 17.70385 40.11307 28.90846
# Shear Modulus (GPa) = 20.43092 -81.75916 -30.66412
#
# Velocity S-wave (km/s) = 3.18955 -6.38048 -3.90751
# Velocity P-wave (km/s) = 4.73071 5.85723 2.44208
#
# Compressibility (1/GPa) = 0.05648489
#
# Stress axis : x y z
#
# Youngs Moduli (GPa) = 32.34934 51.25212 72.07855
#
# Poissons Ratio (x) = 0.05226 -0.19186
# Poissons Ratio (y) = 0.03299 0.39993
# Poissons Ratio (z) = -0.08611 0.28437
#
# Static dielectric constant tensor:
#      x y z
#    x 1.716230 0.000000 -0.014480 
#    y 0.000000 1.680460 0.000000 
#    z -0.014480 0.000000 1.772290 
# 
# From -- ./inp_files/375560.got.cif
#   From: 2010.05.17/outbox.cif.g08.bks.cpg/sg12_188_cif.got.tgz:375560.got - 2010.06.03 13:09:07.
