data_PCOD9197145
_publ_section_title
;
Structure prediction by ZEFSAII (Michael W. Deem and Ramdas Pophale) SiO2 
 PCOD9197145
Probable space group: C 2/M
;
_chemical_formula_sum "Si O2"
_cell_formula_units_Z 48
_cell_length_a 25.234170
_cell_length_b 7.764888
_cell_length_c 19.433912
_cell_angle_alpha 90.000000
_cell_angle_beta 146.889269
_cell_angle_gamma 90.000000
_cell_volume 2080.093886
_symmetry_space_group_name_H-M "C 2/M"
_symmetry_group_IT_number 12
_symmetry_cell_setting 'monoclinic'
loop_
_space_group_symop_operation_xyz
x,y,z
-x,y,-z
-x,-y,-z
x,-y,z
1/2+x,1/2+y,z
1/2-x,1/2+y,-z
1/2-x,1/2-y,-z
1/2+x,1/2-y,z
loop_
_atom_site_type_symbol
_atom_site_label
_atom_site_fract_x
_atom_site_fract_y
_atom_site_fract_z
Si Si1 0.185184 0.791495 0.525741
Si Si2 0.108861 0.802925 0.187752
Si Si3 0.097945 0.209180 0.572154
Si Si4 0.839317 0.295010 0.048126
Si Si5 0.697854 0.794940 0.145047
Si Si6 0.452541 0.705463 0.739979
O O1 0.285132 0.710509 0.660456
O O2 0.108373 0.754101 0.502881
O O3 0.137502 0.728575 0.403184
O O4 0.199200 0.000000 0.538827
O O5 0.122803 0.732391 0.126229
O O6 0.044428 0.721419 0.178779
O O7 0.079941 0.000000 0.147421
O O8 0.197133 0.271663 0.715563
O O9 0.000000 0.274354 0.500000
O O10 0.098033 0.000000 0.578479
O O11 0.843880 0.500000 0.049573
O O12 0.945453 0.233666 0.186394
O O13 0.750000 0.250000 0.000000
O O14 0.824962 0.223330 0.955004
O O15 0.706968 0.000000 0.147940
O O16 0.438453 0.500000 0.730340
#
# Coordination Sequence:
#
# PCOD9197145 Si02
#       6
#     8   8   8   8   8   8
#     4   9  18  33  55  83 117 154 190 233 284 348
#     4  10  20  35  58  88 120 150 187 243 297 338
#     4   8  14  26  51  80 101 135 186 231 270 322
#     4  11  25  42  61  84 114 153 194 242 289 340
#     4   9  20  38  58  81 111 150 195 236 282 346
#     4  10  22  38  58  85 117 158 198 233 286 348
#
# _framework density 23.075882
#
# number of rings (size 3 to 8) (size 9 to 14) (size 15 to 20)
#    0.000    2.500    0.000    2.500    2.333    4.000 
#    0.000    3.333    0.000    2.000    0.000    0.000 
#    0.000    0.000    0.000    0.000    0.000    0.000 
#
# Total GULP energy -134001.066407 kJ/mol
# GULP energy per Si atom -5583.377767 kJ/mol
# Density = 2.302336 g / cm^3
# Si number density = 23.075882 Si / 1000 Ang^3
#
#
#
# Elastic Constant Matrix: (Units=GPa)
#
#
# Indices 1 2 3 4 5 6 
#
# 1 121.3880 -2.9182 39.6088 0.0000 5.3444 0.0000
# 2 -2.9182 36.6302 -1.3931 0.0000 -8.0935 0.0000
# 3 39.6088 -1.3931 82.5952 0.0000 -13.5123 0.0000
# 4 0.0000 0.0000 0.0000 12.9204 0.0000 2.2440
# 5 5.3444 -8.0935 -13.5123 0.0000 42.7430 0.0000
# 6 0.0000 0.0000 0.0000 2.2440 0.0000 21.6978
#
#
#
# Elastic Compliance Matrix: (Units=1/GPa)
#
#
# Indices 1 2 3 4 5 6 
#
# 1 0.010107 -0.000051 -0.005332 0.000000 -0.002959 0.000000
# 2 -0.000051 0.028655 0.001473 0.000000 0.005898 0.000000
# 3 -0.005332 0.001473 0.015653 0.000000 0.005894 0.000000
# 4 0.000000 0.000000 0.000000 0.078813 0.000000 -0.008151
# 5 -0.002959 0.005898 0.005894 0.000000 0.026746 0.000000
# 6 0.000000 0.000000 0.000000 -0.008151 0.000000 0.046931
#
#
# Mechanical properties :
#
#
# Convention : Reuss Voigt Hill
#
# Bulk Modulus (GPa) = 21.46179 34.57870 28.02024
# Shear Modulus (GPa) = 21.71499 29.15996 25.43747
#
# Velocity S-wave (km/s) = 3.07094 3.55865 3.32375
# Velocity P-wave (km/s) = 4.67920 5.64824 5.18640
#
# Compressibility (1/GPa) = 0.04659444
#
# Stress axis : x y z
#
# Youngs Moduli (GPa) = 98.94324 34.89797 63.88496
#
# Poissons Ratio (x) = 0.00179 0.34061
# Poissons Ratio (y) = 0.00508 -0.09409
# Poissons Ratio (z) = 0.52753 -0.05140
#
# Static dielectric constant tensor:
#      x y z
#    x 1.907610 0.000000 -0.012320 
#    y 0.000000 1.832820 0.000000 
#    z -0.012320 0.000000 1.885840 
# 
# From -- ./inp_files/327306.got.cif
#   From: 2010.05.17/outbox.cif.g08.bks.cpg/sg12_164_cif.got.tgz:327306.got - 2010.06.03 13:09:07.
