data_PCOD9197680
_publ_section_title
;
Structure prediction by ZEFSAII (Michael W. Deem and Ramdas Pophale) SiO2 
 PCOD9197680
Probable space group: C 2/M
;
_chemical_formula_sum "Si O2"
_cell_formula_units_Z 52
_cell_length_a 22.965862
_cell_length_b 7.577177
_cell_length_c 21.749589
_cell_angle_alpha 90.000000
_cell_angle_beta 141.527649
_cell_angle_gamma 90.000000
_cell_volume 2354.654552
_symmetry_space_group_name_H-M "C 2/M"
_symmetry_group_IT_number 12
_symmetry_cell_setting 'monoclinic'
loop_
_space_group_symop_operation_xyz
x,y,z
-x,y,-z
-x,-y,-z
x,-y,z
1/2+x,1/2+y,z
1/2-x,1/2+y,-z
1/2-x,1/2-y,-z
1/2+x,1/2-y,z
loop_
_atom_site_type_symbol
_atom_site_label
_atom_site_fract_x
_atom_site_fract_y
_atom_site_fract_z
Si Si1 0.962816 0.286457 0.175190
Si Si2 0.853833 0.286705 0.750645
Si Si3 0.645947 0.000000 0.787745
Si Si4 0.795712 0.211159 0.471787
Si Si5 0.215606 0.300619 0.052768
Si Si6 0.491738 0.298513 0.339403
Si Si7 0.894023 0.205835 0.919647
O O1 0.964441 0.500000 0.188257
O O2 0.984764 0.203345 0.258949
O O3 0.045921 0.240430 0.196690
O O4 0.863926 0.246848 0.062044
O O5 0.851319 0.500000 0.750898
O O6 0.772122 0.222112 0.638030
O O7 0.847356 0.219226 0.814446
O O8 0.706557 0.154208 0.873772
O O9 0.584386 0.156982 0.703213
O O10 0.750000 0.250000 0.500000
O O11 0.903469 0.266881 0.558644
O O12 0.797852 0.000000 0.467950
O O13 0.248859 0.500000 0.067308
O O14 0.161335 0.303386 0.073219
O O15 0.477482 0.500000 0.349023
O O16 0.897425 0.000000 0.940994
O O17 0.000000 0.272108 0.000000
#
# Coordination Sequence:
#
# PCOD9197680 Si02
#       7
#     8   8   4   8   8   8   8
#     4  10  20  37  59  92 130 167 206 254 314 381
#     4  10  20  35  61  93 130 165 200 251 320 388
#     4  12  26  46  63  85 126 175 225 265 302 374
#     4  10  21  36  61  93 127 162 202 253 321 384
#     4  11  24  42  64  90 127 172 216 263 312 368
#     4  11  24  41  63  90 127 170 209 263 319 368
#     4  11  22  37  61  94 132 166 206 261 322 379
#
# _framework density 22.083919999999999
#
# number of rings (size 3 to 8) (size 9 to 14) (size 15 to 20)
#    0.000    1.385    4.615    0.923    2.154    2.462 
#    0.000    0.000    0.000    1.846    0.000    4.308 
#    0.000    0.000    0.000    0.000    0.000    0.000 
#
# Total GULP energy -144951.474064 kJ/mol
# GULP energy per Si atom -5575.056695 kJ/mol
# Density = 2.203366 g / cm^3
# Si number density = 22.083920 Si / 1000 Ang^3
#
#
#
# Elastic Constant Matrix: (Units=GPa)
#
#
# Indices 1 2 3 4 5 6 
#
# 1 50.0730 13.1567 14.8207 0.0000 -9.4214 0.0000
# 2 13.1567 103.6691 28.8494 0.0000 23.9602 0.0000
# 3 14.8207 28.8494 155.8562 0.0000 19.2556 0.0000
# 4 0.0000 0.0000 0.0000 28.9205 0.0000 0.9742
# 5 -9.4214 23.9602 19.2556 0.0000 32.0311 0.0000
# 6 0.0000 0.0000 0.0000 0.9742 0.0000 25.6224
#
#
#
# Elastic Compliance Matrix: (Units=1/GPa)
#
#
# Indices 1 2 3 4 5 6 
#
# 1 0.024701 -0.005319 -0.002974 0.000000 0.013032 0.000000
# 2 -0.005319 0.013008 -0.000547 0.000000 -0.010966 0.000000
# 3 -0.002974 -0.000547 0.007408 0.000000 -0.004919 0.000000
# 4 0.000000 0.000000 0.000000 0.034622 0.000000 -0.001316
# 5 0.013032 -0.010966 -0.004919 0.000000 0.046213 0.000000
# 6 0.000000 0.000000 0.000000 -0.001316 0.000000 0.039078
#
#
# Mechanical properties :
#
#
# Convention : Reuss Voigt Hill
#
# Bulk Modulus (GPa) = 36.44930 47.02800 41.73865
# Shear Modulus (GPa) = 26.06115 34.16621 30.11368
#
# Velocity S-wave (km/s) = 3.43898 3.93760 3.69670
# Velocity P-wave (km/s) = 5.68415 6.48184 6.09605
#
# Compressibility (1/GPa) = 0.02743537
#
# Stress axis : x y z
#
# Youngs Moduli (GPa) = 40.48433 76.87660 134.98890
#
# Poissons Ratio (x) = 0.40892 0.40151
# Poissons Ratio (y) = 0.21534 0.07386
# Poissons Ratio (z) = 0.12042 0.04206
#
# Static dielectric constant tensor:
#      x y z
#    x 1.872180 0.000000 0.035780 
#    y 0.000000 1.820760 0.000000 
#    z 0.035780 0.000000 1.799390 
# 
# From -- ./inp_files/351295.got.cif
#   From: 2010.05.17/outbox.cif.g08.bks.cpg/sg12_176_cif.got.tgz:351295.got - 2010.06.03 13:09:07.
