data_PCOD9197268
_publ_section_title
;
Structure prediction by ZEFSAII (Michael W. Deem and Ramdas Pophale) SiO2 
 PCOD9197268
Probable space group: C 2/M
;
_chemical_formula_sum "Si O2"
_cell_formula_units_Z 64
_cell_length_a 20.520824
_cell_length_b 8.917199
_cell_length_c 23.989153
_cell_angle_alpha 90.000000
_cell_angle_beta 50.363119
_cell_angle_gamma 90.000000
_cell_volume 3380.546062
_symmetry_space_group_name_H-M "C 2/M"
_symmetry_group_IT_number 12
_symmetry_cell_setting 'monoclinic'
loop_
_space_group_symop_operation_xyz
x,y,z
-x,y,-z
-x,-y,-z
x,-y,z
1/2+x,1/2+y,z
1/2-x,1/2+y,-z
1/2-x,1/2-y,-z
1/2+x,1/2-y,z
loop_
_atom_site_type_symbol
_atom_site_label
_atom_site_fract_x
_atom_site_fract_y
_atom_site_fract_z
Si Si1 0.875947 0.180648 0.898333
Si Si2 0.420495 0.821175 0.083048
Si Si3 0.961569 0.817460 0.260994
Si Si4 0.191547 0.320637 0.956251
Si Si5 0.334216 0.321105 0.667910
Si Si6 0.092690 0.670867 0.478279
Si Si7 0.487077 0.681270 0.373962
Si Si8 0.655761 0.321180 0.771985
O O1 0.867622 0.247174 0.964565
O O2 0.955743 0.231502 0.818818
O O3 0.878933 0.000000 0.900547
O O4 0.788015 0.223278 0.915897
O O5 0.411200 0.731528 0.144964
O O6 0.422501 0.000000 0.093559
O O7 0.500000 0.786813 0.000000
O O8 0.339833 0.784862 0.088225
O O9 0.880300 0.773587 0.268809
O O10 0.967016 0.769040 0.322058
O O11 0.963383 0.000000 0.261006
O O12 0.184818 0.500000 0.966355
O O13 0.328646 0.500000 0.671834
O O14 0.351247 0.262819 0.595911
O O15 0.416726 0.278346 0.659803
O O16 0.246124 0.251536 0.735352
O O17 0.123252 0.500000 0.467009
O O18 0.000000 0.667075 0.500000
O O19 0.076495 0.747725 0.546405
O O20 0.481507 0.500000 0.380207
O O21 0.662993 0.500000 0.768854
#
# Coordination Sequence:
#
# PCOD9197268 Si02
#       8
#     8   8   8   8   8   8   8   8
#     4   9  17  31  52  73  99 133 174 220 269 316
#     4  10  21  36  54  76 105 143 185 225 271 326
#     4   9  19  35  54  76 104 142 180 221 270 321
#     4   9  18  31  50  74 100 131 173 222 269 317
#     4  10  20  35  59  85 110 143 183 224 266 319
#     4   9  17  32  55  84 118 145 172 219 274 320
#     4   9  18  34  59  84 107 141 187 224 261 321
#     4  11  23  37  54  79 112 145 180 224 278 328
#
# _framework density 18.931851999999999
#
# number of rings (size 3 to 8) (size 9 to 14) (size 15 to 20)
#    0.000    2.500    0.000    1.875    1.750    2.750 
#    0.000    3.125    0.000    0.000    0.000    0.000 
#    0.000    0.000    0.000    0.000    0.000    0.000 
#
# Total GULP energy -178520.602154 kJ/mol
# GULP energy per Si atom -5578.768817 kJ/mol
# Density = 1.888876 g / cm^3
# Si number density = 18.931852 Si / 1000 Ang^3
#
#
#
# Elastic Constant Matrix: (Units=GPa)
#
#
# Indices 1 2 3 4 5 6 
#
# 1 73.4419 26.2861 32.0706 0.0000 20.7076 0.0004
# 2 26.2861 30.5491 22.9480 0.0000 4.9270 0.0007
# 3 32.0706 22.9480 72.1273 0.0000 16.0423 0.0000
# 4 0.0000 0.0000 0.0000 30.7441 0.0000 1.1825
# 5 20.7076 4.9270 16.0423 0.0000 29.5616 0.0000
# 6 0.0004 0.0007 0.0000 1.1825 0.0000 14.4115
#
#
#
# Elastic Compliance Matrix: (Units=1/GPa)
#
#
# Indices 1 2 3 4 5 6 
#
# 1 0.024487 -0.017038 -0.002597 0.000000 -0.012904 0.000000
# 2 -0.017038 0.054872 -0.011944 0.000000 0.009271 -0.000002
# 3 -0.002597 -0.011944 0.020439 0.000000 -0.007282 0.000001
# 4 0.000000 0.000000 0.000000 0.032630 0.000000 -0.002677
# 5 -0.012904 0.009271 -0.007282 0.000000 0.045273 0.000000
# 6 0.000000 -0.000002 0.000001 -0.002677 0.000000 0.069609
#
#
# Mechanical properties :
#
#
# Convention : Reuss Voigt Hill
#
# Bulk Modulus (GPa) = 27.29339 37.63642 32.46491
# Shear Modulus (GPa) = 15.49527 21.26435 18.37981
#
# Velocity S-wave (km/s) = 2.86401 3.35506 3.11921
# Velocity P-wave (km/s) = 5.03832 5.91030 5.49165
#
# Compressibility (1/GPa) = 0.03663891
#
# Stress axis : x y z
#
# Youngs Moduli (GPa) = 40.83863 18.22439 48.92622
#
# Poissons Ratio (x) = 0.31050 0.12706
# Poissons Ratio (y) = 0.69579 0.58439
# Poissons Ratio (z) = 0.10606 0.21768
#
# Static dielectric constant tensor:
#      x y z
#    x 1.679280 0.000000 -0.006950 
#    y 0.000000 1.635360 0.000000 
#    z -0.006950 0.000000 1.646880 
# 
# From -- ./inp_files/346059.got.cif
#   From: 2010.05.17/outbox.cif.g08.bks.cpg/sg12_174_cif.got.tgz:346059.got - 2010.06.03 13:09:07.
