data_PCOD9197104
_publ_section_title
;
Structure prediction by ZEFSAII (Michael W. Deem and Ramdas Pophale) SiO2 
 PCOD9197104
Probable space group: C 2/M
;
_chemical_formula_sum "Si O2"
_cell_formula_units_Z 64
_cell_length_a 14.805586
_cell_length_b 9.177892
_cell_length_c 29.635640
_cell_angle_alpha 90.000000
_cell_angle_beta 132.948403
_cell_angle_gamma 90.000000
_cell_volume 2947.641720
_symmetry_space_group_name_H-M "C 2/M"
_symmetry_group_IT_number 12
_symmetry_cell_setting 'monoclinic'
loop_
_space_group_symop_operation_xyz
x,y,z
-x,y,-z
-x,-y,-z
x,-y,z
1/2+x,1/2+y,z
1/2-x,1/2+y,-z
1/2-x,1/2-y,-z
1/2+x,1/2-y,z
loop_
_atom_site_type_symbol
_atom_site_label
_atom_site_fract_x
_atom_site_fract_y
_atom_site_fract_z
Si Si1 0.614194 0.669324 0.404923
Si Si2 0.882004 0.330813 0.354493
Si Si3 0.725746 0.330141 0.864343
Si Si4 0.416635 0.172935 0.103453
Si Si5 0.337823 0.168708 0.756603
Si Si6 0.362219 0.825852 0.450764
Si Si7 0.974968 0.163419 0.728304
Si Si8 0.523013 0.668497 0.061283
O O1 0.619137 0.500000 0.420878
O O2 0.516713 0.758842 0.400398
O O3 0.752653 0.730411 0.445204
O O4 0.556248 0.672038 0.334649
O O5 0.896161 0.500000 0.349872
O O6 0.787440 0.260198 0.287064
O O7 0.827015 0.313221 0.386143
O O8 0.754759 0.500000 0.882872
O O9 0.671022 0.254096 0.890686
O O10 0.618461 0.325561 0.790148
O O11 0.844929 0.244716 0.888508
O O12 0.556573 0.194014 0.170307
O O13 0.421747 0.245234 0.056052
O O14 0.390442 0.000000 0.093443
O O15 0.407674 0.213866 0.734388
O O16 0.304015 0.000000 0.745903
O O17 0.500000 0.764142 0.500000
O O18 0.369666 0.000000 0.463010
O O19 0.934717 0.000000 0.730499
O O20 0.524716 0.500000 0.076448
O O21 0.500000 0.673554 0.000000
#
# Coordination Sequence:
#
# PCOD9197104 Si02
#       8
#     8   8   8   8   8   8   8   8
#     4  10  20  36  57  84 118 154 191 237 292 346
#     4  11  22  36  56  86 117 152 196 240 290 348
#     4  10  21  38  62  90 121 156 197 244 296 356
#     4  10  22  40  62  89 120 157 199 245 296 353
#     4  10  20  35  58  87 120 153 191 238 292 348
#     4   9  19  38  61  81 111 157 200 239 288 345
#     4   9  18  35  58  85 118 154 191 233 291 353
#     4  11  25  43  62  87 120 158 202 247 293 351
#
# _framework density 21.712271000000001
#
# number of rings (size 3 to 8) (size 9 to 14) (size 15 to 20)
#    0.000    2.000    1.250    1.875    1.750    4.500 
#    0.000    0.000    0.000    2.625    0.000    0.000 
#    0.000    0.000    0.000    0.000    0.000    0.000 
#
# Total GULP energy -178789.274376 kJ/mol
# GULP energy per Si atom -5587.164824 kJ/mol
# Density = 2.166285 g / cm^3
# Si number density = 21.712271 Si / 1000 Ang^3
#
#
#
# Elastic Constant Matrix: (Units=GPa)
#
#
# Indices 1 2 3 4 5 6 
#
# 1 86.8340 27.6259 -4.8271 0.0000 5.6938 0.0000
# 2 27.6259 72.7906 11.6256 0.0000 -0.0590 0.0000
# 3 -4.8271 11.6256 19.8244 0.0000 -0.0059 0.0000
# 4 0.0000 0.0000 0.0000 12.1650 0.0000 5.4679
# 5 5.6938 -0.0590 -0.0059 0.0000 26.5950 0.0000
# 6 0.0000 0.0000 0.0000 5.4679 0.0000 31.2479
#
#
#
# Elastic Compliance Matrix: (Units=1/GPa)
#
#
# Indices 1 2 3 4 5 6 
#
# 1 0.014211 -0.006563 0.007308 0.000000 -0.003055 0.000000
# 2 -0.006563 0.018189 -0.012264 0.000000 0.001443 0.000000
# 3 0.007308 -0.012264 0.059414 0.000000 -0.001579 0.000000
# 4 0.000000 0.000000 0.000000 0.089220 0.000000 -0.015612
# 5 -0.003055 0.001443 -0.001579 0.000000 0.038258 0.000000
# 6 0.000000 0.000000 0.000000 -0.015612 0.000000 0.034734
#
#
# Mechanical properties :
#
#
# Convention : Reuss Voigt Hill
#
# Bulk Modulus (GPa) = 14.54010 27.58867 21.06438
# Shear Modulus (GPa) = 16.66729 23.66989 20.16859
#
# Velocity S-wave (km/s) = 2.77364 3.30534 3.05110
# Velocity P-wave (km/s) = 4.11931 5.22505 4.70478
#
# Compressibility (1/GPa) = 0.06877531
#
# Stress axis : x y z
#
# Youngs Moduli (GPa) = 70.36884 54.97899 16.83114
#
# Poissons Ratio (x) = 0.36083 -0.12300
# Poissons Ratio (y) = 0.46183 0.20642
# Poissons Ratio (z) = -0.51426 0.67426
#
# Static dielectric constant tensor:
#      x y z
#    x 1.794520 0.000000 0.011930 
#    y 0.000000 1.744130 0.000000 
#    z 0.011930 0.000000 1.848080 
# 
# From -- ./inp_files/375527.got.cif
#   From: 2010.05.17/outbox.cif.g08.bks.cpg/sg12_188_cif.got.tgz:375527.got - 2010.06.03 13:09:07.
