data_PCOD9197422
_publ_section_title
;
Structure prediction by ZEFSAII (Michael W. Deem and Ramdas Pophale) SiO2 
 PCOD9197422
Probable space group: C 2/M
;
_chemical_formula_sum "Si O2"
_cell_formula_units_Z 44
_cell_length_a 8.663744
_cell_length_b 27.623378
_cell_length_c 8.962459
_cell_angle_alpha 90.000000
_cell_angle_beta 71.667714
_cell_angle_gamma 90.000000
_cell_volume 2036.054740
_symmetry_space_group_name_H-M "C 2/M"
_symmetry_group_IT_number 12
_symmetry_cell_setting 'monoclinic'
loop_
_space_group_symop_operation_xyz
x,y,z
-x,y,-z
-x,-y,-z
x,-y,z
1/2+x,1/2+y,z
1/2-x,1/2+y,-z
1/2-x,1/2-y,-z
1/2+x,1/2-y,z
loop_
_atom_site_type_symbol
_atom_site_label
_atom_site_fract_x
_atom_site_fract_y
_atom_site_fract_z
Si Si1 0.788616 0.443121 0.147139
Si Si2 0.766704 0.312828 0.614164
Si Si3 0.000000 0.772483 0.500000
Si Si4 0.908951 0.946696 0.331015
Si Si5 0.184596 0.114473 0.901891
Si Si6 0.868168 0.398544 0.420564
O O1 0.825535 0.500000 0.102389
O O2 0.601027 0.442974 0.259327
O O3 0.891999 0.421746 0.252885
O O4 0.784276 0.404486 0.013540
O O5 0.586881 0.302763 0.603953
O O6 0.760625 0.346222 0.764566
O O7 0.860765 0.341018 0.450279
O O8 0.859139 0.262385 0.608031
O O9 0.842801 0.933830 0.188056
O O10 0.812488 0.912007 0.469056
O O11 0.863705 0.000000 0.393798
O O12 0.000000 0.130647 0.000000
O O13 0.000000 0.417607 0.500000
#
# Coordination Sequence:
#
# PCOD9197422 Si02
#       6
#     8   8   4   8   8   8
#     4  10  20  35  59  90 123 166 207 243 286 349
#     4  10  22  41  66  92 117 153 197 254 309 364
#     4  10  22  42  72  90 112 148 206 256 310 366
#     4   9  18  33  54  83 117 159 208 249 281 339
#     4   9  19  35  60  90 125 159 196 241 304 360
#     4  11  22  35  57  87 122 161 206 252 297 350
#
# _framework density 21.610420000000001
#
# number of rings (size 3 to 8) (size 9 to 14) (size 15 to 20)
#    0.000    2.182    0.909    1.636    7.636    5.091 
#    0.000    4.545    0.000    5.455    0.000    0.000 
#    0.000    0.000    0.000    0.000    0.000    0.000 
#
# Total GULP energy -122658.379851 kJ/mol
# GULP energy per Si atom -5575.380902 kJ/mol
# Density = 2.156123 g / cm^3
# Si number density = 21.610420 Si / 1000 Ang^3
#
#
#
# Elastic Constant Matrix: (Units=GPa)
#
#
# Indices 1 2 3 4 5 6 
#
# 1 100.8795 32.3963 50.9135 0.0000 18.0418 0.0000
# 2 32.3963 91.3048 39.3730 0.0000 18.6926 0.0000
# 3 50.9135 39.3730 103.7434 0.0000 30.8266 0.0000
# 4 0.0000 0.0000 0.0000 31.5657 0.0000 -1.3091
# 5 18.0418 18.6926 30.8266 0.0000 57.4902 0.0000
# 6 0.0000 0.0000 0.0000 -1.3091 0.0000 29.4335
#
#
#
# Elastic Compliance Matrix: (Units=1/GPa)
#
#
# Indices 1 2 3 4 5 6 
#
# 1 0.013588 -0.002282 -0.005657 0.000000 -0.000489 0.000000
# 2 -0.002282 0.013655 -0.003516 0.000000 -0.001838 0.000000
# 3 -0.005657 -0.003516 0.015325 0.000000 -0.005298 0.000000
# 4 0.000000 0.000000 0.000000 0.031739 0.000000 0.001412
# 5 -0.000489 -0.001838 -0.005298 0.000000 0.020986 0.000000
# 6 0.000000 0.000000 0.000000 0.001412 0.000000 0.034038
#
#
# Mechanical properties :
#
#
# Convention : Reuss Voigt Hill
#
# Bulk Modulus (GPa) = 50.87323 60.14370 55.50846
# Shear Modulus (GPa) = 31.48761 35.24753 33.36757
#
# Velocity S-wave (km/s) = 3.82128 4.04300 3.93370
# Velocity P-wave (km/s) = 6.56215 7.04881 6.80983
#
# Compressibility (1/GPa) = 0.01965670
#
# Stress axis : x y z
#
# Youngs Moduli (GPa) = 73.59295 73.23588 65.25498
#
# Poissons Ratio (x) = 0.16709 0.36918
# Poissons Ratio (y) = 0.16791 0.22945
# Poissons Ratio (z) = 0.41635 0.25752
#
# Static dielectric constant tensor:
#      x y z
#    x 1.862440 0.000000 -0.008350 
#    y 0.000000 1.783240 0.000000 
#    z -0.008350 0.000000 1.826440 
# 
# From -- ./inp_files/41598.got.cif
#   From: 2010.05.17/outbox.cif.g08.bks.cpg/sg12_21_cif.got.tgz:41598.got - 2010.06.03 13:09:07.
