data_PCOD9197554
_publ_section_title
;
Structure prediction by ZEFSAII (Michael W. Deem and Ramdas Pophale) SiO2 
 PCOD9197554
Probable space group: C 2/M
;
_chemical_formula_sum "Si O2"
_cell_formula_units_Z 56
_cell_length_a 28.773021
_cell_length_b 8.728084
_cell_length_c 17.391226
_cell_angle_alpha 90.000000
_cell_angle_beta 138.104946
_cell_angle_gamma 90.000000
_cell_volume 2916.489237
_symmetry_space_group_name_H-M "C 2/M"
_symmetry_group_IT_number 12
_symmetry_cell_setting 'monoclinic'
loop_
_space_group_symop_operation_xyz
x,y,z
-x,y,-z
-x,-y,-z
x,-y,z
1/2+x,1/2+y,z
1/2-x,1/2+y,-z
1/2-x,1/2-y,-z
1/2+x,1/2-y,z
loop_
_atom_site_type_symbol
_atom_site_label
_atom_site_fract_x
_atom_site_fract_y
_atom_site_fract_z
Si Si1 0.777005 0.320517 0.725652
Si Si2 0.625752 0.818920 0.728693
Si Si3 0.625265 0.182192 0.555014
Si Si4 0.950672 0.681933 0.695326
Si Si5 0.278151 0.180922 0.903920
Si Si6 0.679983 0.681418 0.375618
Si Si7 0.905489 0.180042 0.151966
O O1 0.784434 0.500000 0.716567
O O2 0.695616 0.274511 0.624279
O O3 0.799921 0.294551 0.841805
O O4 0.815756 0.222843 0.709104
O O5 0.601025 0.781572 0.611638
O O6 0.707789 0.776307 0.830977
O O7 0.590978 0.725498 0.754064
O O8 0.615784 0.000000 0.729743
O O9 0.571498 0.209751 0.420706
O O10 0.642561 0.000000 0.575673
O O11 0.958258 0.500000 0.715322
O O12 0.887381 0.743764 0.668479
O O13 0.023388 0.764638 0.799661
O O14 0.262735 0.000000 0.894718
O O15 0.339499 0.232769 0.034988
O O16 0.679392 0.500000 0.386656
O O17 0.750000 0.750000 0.500000
O O18 0.895645 0.000000 0.130922
#
# Coordination Sequence:
#
# PCOD9197554 Si02
#       7
#     8   8   8   8   8   8   8
#     4  10  20  35  60  90 118 148 189 242 293 339
#     4  10  20  37  61  88 116 151 196 243 290 344
#     4   9  19  35  58  86 116 151 191 238 291 345
#     4  11  23  40  60  85 118 155 194 241 293 347
#     4  10  21  39  62  88 116 151 196 245 291 340
#     4  12  23  37  60  90 121 154 192 234 284 343
#     4  12  25  40  57  82 117 159 198 240 292 347
#
# _framework density 19.201167000000002
#
# number of rings (size 3 to 8) (size 9 to 14) (size 15 to 20)
#    0.000    1.429    1.429    4.714    0.000    3.429 
#    0.000    3.571    0.000    4.286    0.000    0.000 
#    0.000    0.000    0.000    0.000    0.000    0.000 
#
# Total GULP energy -156536.550887 kJ/mol
# GULP energy per Si atom -5590.591103 kJ/mol
# Density = 1.915746 g / cm^3
# Si number density = 19.201167 Si / 1000 Ang^3
#
#
#
# Elastic Constant Matrix: (Units=GPa)
#
#
# Indices 1 2 3 4 5 6 
#
# 1 64.8921 5.2578 6.2812 0.0000 0.0266 0.0000
# 2 5.2578 41.3223 7.8174 0.0000 -11.4718 0.0000
# 3 6.2812 7.8174 9.6470 0.0000 -5.3745 0.0000
# 4 0.0000 0.0000 0.0000 21.6650 0.0000 0.1788
# 5 0.0266 -11.4718 -5.3745 0.0000 18.8987 0.0000
# 6 0.0000 0.0000 0.0000 0.1788 0.0000 36.3772
#
#
#
# Elastic Compliance Matrix: (Units=1/GPa)
#
#
# Indices 1 2 3 4 5 6 
#
# 1 0.016688 -0.000916 -0.012413 0.000000 -0.004109 0.000000
# 2 -0.000916 0.031494 -0.016960 0.000000 0.014295 0.000000
# 3 -0.012413 -0.016960 0.142305 0.000000 0.030192 0.000000
# 4 0.000000 0.000000 0.000000 0.046159 0.000000 -0.000227
# 5 -0.004109 0.014295 0.030192 0.000000 0.070183 0.000000
# 6 0.000000 0.000000 0.000000 -0.000227 0.000000 0.027491
#
#
# Mechanical properties :
#
#
# Convention : Reuss Voigt Hill
#
# Bulk Modulus (GPa) = 7.69772 17.17491 12.43632
# Shear Modulus (GPa) = 11.41033 21.82186 16.61609
#
# Velocity S-wave (km/s) = 2.44037 3.37484 2.94491
# Velocity P-wave (km/s) = 3.45807 4.91428 4.24903
#
# Compressibility (1/GPa) = 0.12990859
#
# Stress axis : x y z
#
# Youngs Moduli (GPa) = 59.92487 31.75234 7.02717
#
# Poissons Ratio (x) = 0.02908 0.08723
# Poissons Ratio (y) = 0.05489 0.11918
# Poissons Ratio (z) = 0.74382 0.53853
#
# Static dielectric constant tensor:
#      x y z
#    x 1.670360 0.000000 -0.024430 
#    y 0.000000 1.637260 0.000000 
#    z -0.024430 0.000000 1.659330 
# 
# From -- ./inp_files/292411.got.cif
#   From: 2010.05.17/outbox.cif.g08.bks.cpg/sg12_147_cif.got.tgz:292411.got - 2010.06.03 13:09:07.
