data_PCOD9197469
_publ_section_title
;
Structure prediction by ZEFSAII (Michael W. Deem and Ramdas Pophale) SiO2 
 PCOD9197469
Probable space group: C 2/M
;
_chemical_formula_sum "Si O2"
_cell_formula_units_Z 56
_cell_length_a 21.713197
_cell_length_b 30.070983
_cell_length_c 9.652172
_cell_angle_alpha 90.000000
_cell_angle_beta 28.113037
_cell_angle_gamma 90.000000
_cell_volume 2969.705155
_symmetry_space_group_name_H-M "C 2/M"
_symmetry_group_IT_number 12
_symmetry_cell_setting 'monoclinic'
loop_
_space_group_symop_operation_xyz
x,y,z
-x,y,-z
-x,-y,-z
x,-y,z
1/2+x,1/2+y,z
1/2-x,1/2+y,-z
1/2-x,1/2-y,-z
1/2+x,1/2-y,z
loop_
_atom_site_type_symbol
_atom_site_label
_atom_site_fract_x
_atom_site_fract_y
_atom_site_fract_z
Si Si1 0.400844 0.049036 0.065558
Si Si2 0.283127 0.207487 0.126375
Si Si3 0.367350 0.698801 0.844347
Si Si4 0.504842 0.856092 0.159028
Si Si5 0.649834 0.550209 0.749644
Si Si6 0.795683 0.140507 0.221553
Si Si7 0.357886 0.286535 0.323616
O O1 0.254791 0.054607 0.416685
O O2 0.409749 0.000000 0.979819
O O3 0.500000 0.047388 0.000000
O O4 0.442595 0.094430 0.908319
O O5 0.239926 0.190312 0.061925
O O6 0.163028 0.205048 0.472608
O O7 0.324325 0.258450 0.019189
O O8 0.399380 0.179957 0.965426
O O9 0.500000 0.708831 0.500000
O O10 0.376671 0.658294 0.931493
O O11 0.356929 0.850234 0.501921
O O12 0.500000 0.852630 0.000000
O O13 0.666627 0.500000 0.771055
O O14 0.684130 0.589017 0.787315
O O15 0.500000 0.555311 0.000000
O O16 0.834452 0.168907 0.280925
O O17 0.250000 0.250000 0.500000
O O18 0.500000 0.269469 0.000000
#
# Coordination Sequence:
#
# PCOD9197469 Si02
#       7
#     8   8   8   8   8   8   8
#     4   9  16  32  56  90 130 157 186 241 313 373
#     4  11  25  42  61  83 127 162 213 251 310 374
#     4  11  27  44  58  81 119 176 211 255 303 373
#     4  11  21  36  62  98 123 158 200 259 312 363
#     4  10  20  35  59  94 131 164 203 256 317 375
#     4  12  23  39  64  91 123 161 209 255 314 362
#     4  12  25  38  61  92 121 157 201 262 311 364
#
# _framework density 18.857091
#
# number of rings (size 3 to 8) (size 9 to 14) (size 15 to 20)
#    0.000    1.143    5.714    1.286    6.000    1.143 
#    0.000    0.000    0.000    1.286    0.000    2.000 
#    0.000    0.000    0.000    0.000    0.000    0.000 
#
# Total GULP energy -156427.075157 kJ/mol
# GULP energy per Si atom -5586.681256 kJ/mol
# Density = 1.881417 g / cm^3
# Si number density = 18.857091 Si / 1000 Ang^3
#
#
#
# Elastic Constant Matrix: (Units=GPa)
#
#
# Indices 1 2 3 4 5 6 
#
# 1 65.3428 45.2723 27.3901 0.0001 1.1476 0.0000
# 2 45.2723 89.2945 19.1006 0.0000 7.6130 0.0000
# 3 27.3901 19.1006 106.6157 0.0002 -12.8473 0.0000
# 4 0.0001 0.0000 0.0002 23.1435 -0.0001 -7.8741
# 5 1.1476 7.6130 -12.8473 -0.0001 34.1360 0.0000
# 6 0.0000 0.0000 0.0000 -7.8741 0.0000 9.7485
#
#
#
# Elastic Compliance Matrix: (Units=1/GPa)
#
#
# Indices 1 2 3 4 5 6 
#
# 1 0.025425 -0.011971 -0.004367 0.000000 0.000172 0.000000
# 2 -0.011971 0.017706 -0.000549 0.000000 -0.003753 0.000000
# 3 -0.004367 -0.000549 0.011137 0.000000 0.004461 0.000000
# 4 0.000000 0.000000 0.000000 0.059583 0.000000 0.048126
# 5 0.000172 -0.003753 0.004461 0.000000 0.031805 0.000000
# 6 0.000000 0.000000 0.000000 0.048126 0.000000 0.141453
#
#
# Mechanical properties :
#
#
# Convention : Reuss Voigt Hill
#
# Bulk Modulus (GPa) = 48.79233 49.41990 49.10611
# Shear Modulus (GPa) = 15.25724 24.70492 19.98108
#
# Velocity S-wave (km/s) = 2.84755 3.62347 3.25869
# Velocity P-wave (km/s) = 6.06155 6.61593 6.34480
#
# Compressibility (1/GPa) = 0.02049502
#
# Stress axis : x y z
#
# Youngs Moduli (GPa) = 39.33065 56.47901 89.79006
#
# Poissons Ratio (x) = 0.67613 0.39207
# Poissons Ratio (y) = 0.47084 0.04927
# Poissons Ratio (z) = 0.17174 0.03099
#
# Static dielectric constant tensor:
#      x y z
#    x 1.660660 0.000000 -0.016170 
#    y 0.000000 1.668380 0.000000 
#    z -0.016170 0.000000 1.673030 
# 
# From -- ./inp_files/91546.got.cif
#   From: 2010.05.17/outbox.cif.g08.bks.cpg/sg12_46_cif.got.tgz:91546.got - 2010.06.03 13:09:07.
