data_PCOD9197590
_publ_section_title
;
Structure prediction by ZEFSAII (Michael W. Deem and Ramdas Pophale) SiO2 
 PCOD9197590
Probable space group: C 2/M
;
_chemical_formula_sum "Si O2"
_cell_formula_units_Z 64
_cell_length_a 11.524779
_cell_length_b 26.903392
_cell_length_c 22.898577
_cell_angle_alpha 90.000000
_cell_angle_beta 153.647245
_cell_angle_gamma 90.000000
_cell_volume 3151.590652
_symmetry_space_group_name_H-M "C 2/M"
_symmetry_group_IT_number 12
_symmetry_cell_setting 'monoclinic'
loop_
_space_group_symop_operation_xyz
x,y,z
-x,y,-z
-x,-y,-z
x,-y,z
1/2+x,1/2+y,z
1/2-x,1/2+y,-z
1/2-x,1/2-y,-z
1/2+x,1/2-y,z
loop_
_atom_site_type_symbol
_atom_site_label
_atom_site_fract_x
_atom_site_fract_y
_atom_site_fract_z
Si Si1 0.941957 0.797135 0.766380
Si Si2 0.297696 0.197915 0.644942
Si Si3 0.189897 0.057998 0.873701
Si Si4 0.047438 0.128752 0.715610
Si Si5 0.960756 0.869040 0.089673
Si Si6 0.137744 0.693360 0.456796
Si Si7 0.263430 0.945978 0.157112
Si Si8 0.946578 0.385444 0.795140
O O1 0.953954 0.740575 0.750216
O O2 0.630735 0.808404 0.628292
O O3 0.091937 0.828811 0.784814
O O4 0.020053 0.817695 0.865357
O O5 0.410482 0.182898 0.633156
O O6 0.289365 0.151013 0.682666
O O7 0.000000 0.214997 0.500000
O O8 0.011554 0.080824 0.741086
O O9 0.131846 0.090093 0.904741
O O10 0.137937 0.000000 0.859128
O O11 0.500000 0.063668 0.000000
O O12 0.286521 0.113230 0.782413
O O13 0.832495 0.154905 0.576678
O O14 0.207337 0.897824 0.172061
O O15 0.732987 0.863820 0.939352
O O16 0.250000 0.750000 0.500000
O O17 0.493234 0.934661 0.214662
O O18 0.300529 0.000000 0.203061
O O19 0.000000 0.949615 0.000000
#
# Coordination Sequence:
#
# PCOD9197590 Si02
#       8
#     8   8   8   8   8   8   8   8
#     4  11  23  37  61  90 117 168 210 251 303 373
#     4  12  22  37  59  86 117 160 213 250 295 363
#     4  10  20  35  60  92 122 159 204 248 307 375
#     4  11  21  36  60  89 126 154 205 261 300 358
#     4  10  21  39  61  89 128 156 201 254 316 370
#     4  12  21  39  61  84 115 159 218 253 296 359
#     4   9  19  37  62  88 117 158 202 247 301 366
#     4  11  22  37  59  92 124 158 198 254 313 368
#
# _framework density 20.307206000000001
#
# number of rings (size 3 to 8) (size 9 to 14) (size 15 to 20)
#    0.000    1.250    5.000    1.500    0.000    1.500 
#    0.000    0.000    5.500    9.375    0.000    0.000 
#    0.000    0.000    0.000    0.000    0.000    0.000 
#
# Total GULP energy -178167.804994 kJ/mol
# GULP energy per Si atom -5567.743906 kJ/mol
# Density = 2.026099 g / cm^3
# Si number density = 20.307206 Si / 1000 Ang^3
#
#
#
# Elastic Constant Matrix: (Units=GPa)
#
#
# Indices 1 2 3 4 5 6 
#
# 1 85.4472 -2.8867 1.5745 0.0129 -3.8417 0.0018
# 2 -2.8867 57.1351 23.0258 0.0248 -15.8810 -0.0032
# 3 1.5745 23.0258 38.5296 0.0782 -13.5931 -0.0024
# 4 0.0129 0.0248 0.0782 22.0564 0.0170 -5.3559
# 5 -3.8417 -15.8810 -13.5931 0.0170 29.4362 -0.0024
# 6 0.0018 -0.0032 -0.0024 -5.3559 -0.0024 26.3848
#
#
#
# Elastic Compliance Matrix: (Units=1/GPa)
#
#
# Indices 1 2 3 4 5 6 
#
# 1 0.011853 0.001408 -0.000612 -0.000008 0.002024 -0.000002
# 2 0.001408 0.024598 -0.011959 0.000009 0.007932 0.000004
# 3 -0.000612 -0.011959 0.036821 -0.000131 0.010471 -0.000024
# 4 -0.000008 0.000009 -0.000131 0.047690 -0.000083 0.009681
# 5 0.002024 0.007932 0.010471 -0.000083 0.043351 -0.000011
# 6 -0.000002 0.000004 -0.000024 0.009681 -0.000011 0.039866
#
#
# Mechanical properties :
#
#
# Convention : Reuss Voigt Hill
#
# Bulk Modulus (GPa) = 19.62884 24.94878 22.28881
# Shear Modulus (GPa) = 20.53513 26.20202 23.36858
#
# Velocity S-wave (km/s) = 3.18342 3.59595 3.39596
# Velocity P-wave (km/s) = 4.81655 5.43631 5.13579
#
# Compressibility (1/GPa) = 0.05094546
#
# Stress axis : x y z
#
# Youngs Moduli (GPa) = 84.36700 40.65388 27.15878
#
# Poissons Ratio (x) = -0.05724 0.01661
# Poissons Ratio (y) = -0.11879 0.32480
# Poissons Ratio (z) = 0.05161 0.48619
#
# Static dielectric constant tensor:
#      x y z
#    x 1.826200 -0.000010 -0.014720 
#    y -0.000010 1.735680 -0.000010 
#    z -0.014720 -0.000010 1.742820 
# 
# From -- ./inp_files/337119.got.cif
#   From: 2010.05.17/outbox.cif.g08.bks.cpg/sg12_169_cif.got.tgz:337119.got - 2010.06.03 13:09:07.
