data_PCOD9197005
_publ_section_title
;
Structure prediction by ZEFSAII (Michael W. Deem and Ramdas Pophale) SiO2 
 PCOD9197005
Probable space group: C 2/M
;
_chemical_formula_sum "Si O2"
_cell_formula_units_Z 56
_cell_length_a 21.487521
_cell_length_b 8.854062
_cell_length_c 18.261466
_cell_angle_alpha 90.000000
_cell_angle_beta 121.586331
_cell_angle_gamma 90.000000
_cell_volume 2959.570003
_symmetry_space_group_name_H-M "C 2/M"
_symmetry_group_IT_number 12
_symmetry_cell_setting 'monoclinic'
loop_
_space_group_symop_operation_xyz
x,y,z
-x,y,-z
-x,-y,-z
x,-y,z
1/2+x,1/2+y,z
1/2-x,1/2+y,-z
1/2-x,1/2-y,-z
1/2+x,1/2-y,z
loop_
_atom_site_type_symbol
_atom_site_label
_atom_site_fract_x
_atom_site_fract_y
_atom_site_fract_z
Si Si1 0.649955 0.320897 0.267045
Si Si2 0.796987 0.822504 0.297298
Si Si3 0.917771 0.319306 0.471015
Si Si4 0.331738 0.319954 0.554077
Si Si5 0.235822 0.675187 0.873838
Si Si6 0.358356 0.176222 0.038123
Si Si7 0.481147 0.180237 0.904370
O O1 0.661775 0.500000 0.265019
O O2 0.723306 0.233082 0.291121
O O3 0.636496 0.292244 0.344928
O O4 0.585211 0.265948 0.174461
O O5 0.863936 0.732822 0.373541
O O6 0.787285 0.779948 0.206786
O O7 0.807062 0.000000 0.314045
O O8 0.916292 0.500000 0.477828
O O9 0.884102 0.247744 0.524045
O O10 0.000000 0.273018 0.500000
O O11 0.325291 0.500000 0.539499
O O12 0.250000 0.250000 0.500000
O O13 0.235890 0.500000 0.851296
O O14 0.180738 0.694314 0.908011
O O15 0.314887 0.723032 0.953223
O O16 0.443797 0.209095 0.092930
O O17 0.350153 0.000000 0.010890
O O18 0.465376 0.000000 0.893817
O O19 0.500000 0.221460 0.000000
#
# Coordination Sequence:
#
# PCOD9197005 Si02
#       7
#     8   8   8   8   8   8   8
#     4  11  24  40  62  92 123 158 205 255 309 374
#     4  12  24  39  62  88 118 157 203 253 307 374
#     4  11  25  44  66  93 127 164 205 260 321 378
#     4  11  23  41  67  95 127 166 209 261 315 379
#     4  10  20  35  58  85 118 158 201 250 302 364
#     4   9  19  36  56  83 119 160 202 246 302 365
#     4  10  21  37  58  86 122 160 202 251 302 361
#
# _framework density 18.921668
#
# number of rings (size 3 to 8) (size 9 to 14) (size 15 to 20)
#    0.000    1.429    1.429    3.857    0.000    6.571 
#    0.000    4.286    0.000    0.000    0.000    0.000 
#    0.000    0.000    0.000    0.000    0.000    0.000 
#
# Total GULP energy -156504.058339 kJ/mol
# GULP energy per Si atom -5589.430655 kJ/mol
# Density = 1.887860 g / cm^3
# Si number density = 18.921668 Si / 1000 Ang^3
#
#
#
# Elastic Constant Matrix: (Units=GPa)
#
#
# Indices 1 2 3 4 5 6 
#
# 1 108.0572 41.1778 37.7499 0.0000 14.2581 0.0000
# 2 41.1778 56.0152 29.0893 0.0000 -1.5858 0.0000
# 3 37.7499 29.0893 89.1156 0.0000 3.7056 0.0000
# 4 0.0000 0.0000 0.0000 57.1044 0.0000 -18.2109
# 5 14.2581 -1.5858 3.7056 0.0000 20.9165 0.0000
# 6 0.0000 0.0000 0.0000 -18.2109 0.0000 45.4582
#
#
#
# Elastic Compliance Matrix: (Units=1/GPa)
#
#
# Indices 1 2 3 4 5 6 
#
# 1 0.015608 -0.010338 -0.002783 0.000000 -0.010931 0.000000
# 2 -0.010338 0.028519 -0.005352 0.000000 0.010158 0.000000
# 3 -0.002783 -0.005352 0.014190 0.000000 -0.001023 0.000000
# 4 0.000000 0.000000 0.000000 0.020077 0.000000 0.008043
# 5 -0.010931 0.010158 -0.001023 0.000000 0.056211 0.000000
# 6 0.000000 0.000000 0.000000 0.008043 0.000000 0.025220
#
#
# Mechanical properties :
#
#
# Convention : Reuss Voigt Hill
#
# Bulk Modulus (GPa) = 46.79280 52.13580 49.46430
# Shear Modulus (GPa) = 24.52227 34.37389 29.44808
#
# Velocity S-wave (km/s) = 3.60389 4.26683 3.94930
# Velocity P-wave (km/s) = 6.48851 7.20332 6.85524
#
# Compressibility (1/GPa) = 0.02137081
#
# Stress axis : x y z
#
# Youngs Moduli (GPa) = 64.06772 35.06394 70.47342
#
# Poissons Ratio (x) = 0.36251 0.19610
# Poissons Ratio (y) = 0.66236 0.37719
# Poissons Ratio (z) = 0.17828 0.18767
#
# Static dielectric constant tensor:
#      x y z
#    x 1.651550 0.000000 -0.020020 
#    y 0.000000 1.641940 0.000000 
#    z -0.020020 0.000000 1.634830 
# 
# From -- ./inp_files/281758.got.cif
#   From: 2010.05.17/outbox.cif.g08.bks.cpg/sg12_141_cif.got.tgz:281758.got - 2010.06.03 13:09:07.
