data_PCOD9197151
_publ_section_title
;
Structure prediction by ZEFSAII (Michael W. Deem and Ramdas Pophale) SiO2 
 PCOD9197151
Probable space group: C 2/M
;
_chemical_formula_sum "Si O2"
_cell_formula_units_Z 64
_cell_length_a 26.596306
_cell_length_b 7.792018
_cell_length_c 22.274473
_cell_angle_alpha 90.000000
_cell_angle_beta 146.412794
_cell_angle_gamma 90.000000
_cell_volume 2553.672687
_symmetry_space_group_name_H-M "C 2/M"
_symmetry_group_IT_number 12
_symmetry_cell_setting 'monoclinic'
loop_
_space_group_symop_operation_xyz
x,y,z
-x,y,-z
-x,-y,-z
x,-y,z
1/2+x,1/2+y,z
1/2-x,1/2+y,-z
1/2-x,1/2-y,-z
1/2+x,1/2-y,z
loop_
_atom_site_type_symbol
_atom_site_label
_atom_site_fract_x
_atom_site_fract_y
_atom_site_fract_z
Si Si1 0.055196 0.192766 0.003113
Si Si2 0.665536 0.297166 0.764295
Si Si3 0.661705 0.196553 0.311305
Si Si4 0.488546 0.302653 0.749291
Si Si5 0.349931 0.291885 0.015889
Si Si6 0.977104 0.298655 0.542343
Si Si7 0.848333 0.698593 0.512740
Si Si8 0.223653 0.292009 0.239168
O O1 0.151603 0.183994 0.130143
O O2 0.017168 0.000000 0.955536
O O3 0.082019 0.278357 0.967970
O O4 0.000000 0.287322 0.000000
O O5 0.654001 0.500000 0.757354
O O6 0.566979 0.214600 0.673178
O O7 0.691085 0.255681 0.719722
O O8 0.747914 0.253852 0.892826
O O9 0.579652 0.296480 0.260686
O O10 0.757218 0.205656 0.441596
O O11 0.697362 0.254193 0.281171
O O12 0.631365 0.000000 0.276831
O O13 0.496348 0.500000 0.737445
O O14 0.591708 0.241672 0.867100
O O15 0.428786 0.205812 0.640973
O O16 0.353422 0.500000 0.017648
O O17 0.956356 0.500000 0.513271
O O18 0.000000 0.221630 0.500000
O O19 0.892089 0.225094 0.494907
O O20 0.823425 0.500000 0.479242
O O21 0.211672 0.500000 0.223167
#
# Coordination Sequence:
#
# PCOD9197151 Si02
#       8
#     8   8   8   8   8   8   8   8
#     4   9  16  27  45  71 103 140 184 229 272 323
#     4  10  20  35  58  88 121 154 191 240 293 343
#     4  11  22  37  58  84 118 157 195 237 287 344
#     4  11  23  40  61  84 114 154 199 242 286 338
#     4   9  19  35  55  79 111 153 196 238 284 339
#     4  10  22  41  65  91 118 150 188 233 288 349
#     4  11  24  41  61  86 115 147 189 240 291 346
#     4   9  19  32  48  77 113 147 182 223 276 333
#
# _framework density 25.061942999999999
#
# number of rings (size 3 to 8) (size 9 to 14) (size 15 to 20)
#    0.000    2.000    0.000    3.375    0.000    5.000 
#    0.000    3.125    0.000    0.000    0.000    0.000 
#    0.000    0.000    0.000    0.000    0.000    0.000 
#
# Total GULP energy -178350.372692 kJ/mol
# GULP energy per Si atom -5573.449147 kJ/mol
# Density = 2.500490 g / cm^3
# Si number density = 25.061943 Si / 1000 Ang^3
#
#
#
# Elastic Constant Matrix: (Units=GPa)
#
#
# Indices 1 2 3 4 5 6 
#
# 1 46.6703 -1.8986 17.1638 0.0000 13.1397 0.0000
# 2 -1.8986 42.2647 -5.8835 0.0000 -2.3881 0.0000
# 3 17.1638 -5.8835 105.8102 0.0000 -0.6774 0.0000
# 4 0.0000 0.0000 0.0000 32.0808 0.0000 -0.8628
# 5 13.1397 -2.3881 -0.6774 0.0000 31.1155 0.0000
# 6 0.0000 0.0000 0.0000 -0.8628 0.0000 9.8438
#
#
#
# Elastic Compliance Matrix: (Units=1/GPa)
#
#
# Indices 1 2 3 4 5 6 
#
# 1 0.026148 -0.000056 -0.004316 0.000000 -0.011140 0.000000
# 2 -0.000056 0.023953 0.001353 0.000000 0.001891 0.000000
# 3 -0.004316 0.001353 0.010240 0.000000 0.002149 0.000000
# 4 0.000000 0.000000 0.000000 0.031245 0.000000 0.002739
# 5 -0.011140 0.001891 0.002149 0.000000 0.037035 0.000000
# 6 0.000000 0.000000 0.000000 0.002739 0.000000 0.101826
#
#
# Mechanical properties :
#
#
# Convention : Reuss Voigt Hill
#
# Bulk Modulus (GPa) = 18.41478 23.72318 21.06898
# Shear Modulus (GPa) = 19.63970 26.96560 23.30265
#
# Velocity S-wave (km/s) = 2.80241 3.28374 3.05257
# Velocity P-wave (km/s) = 4.22315 4.88504 4.56610
#
# Compressibility (1/GPa) = 0.05430420
#
# Stress axis : x y z
#
# Youngs Moduli (GPa) = 38.24321 41.74824 97.65632
#
# Poissons Ratio (x) = 0.00232 0.42149
# Poissons Ratio (y) = 0.00213 -0.13213
# Poissons Ratio (z) = 0.16506 -0.05649
#
# Static dielectric constant tensor:
#      x y z
#    x 2.302640 0.000000 0.007860 
#    y 0.000000 1.904970 0.000000 
#    z 0.007860 0.000000 2.083670 
# 
# From -- ./inp_files/353538.got.cif
#   From: 2010.05.17/outbox.cif.g08.bks.cpg/sg12_177_cif.got.tgz:353538.got - 2010.06.03 13:09:07.
