data_PCOD9197298
_publ_section_title
;
Structure prediction by ZEFSAII (Michael W. Deem and Ramdas Pophale) SiO2 
 PCOD9197298
Probable space group: C 2/M
;
_chemical_formula_sum "Si O2"
_cell_formula_units_Z 48
_cell_length_a 19.646498
_cell_length_b 8.631719
_cell_length_c 22.571599
_cell_angle_alpha 90.000000
_cell_angle_beta 43.651098
_cell_angle_gamma 90.000000
_cell_volume 2642.169580
_symmetry_space_group_name_H-M "C 2/M"
_symmetry_group_IT_number 12
_symmetry_cell_setting 'monoclinic'
loop_
_space_group_symop_operation_xyz
x,y,z
-x,y,-z
-x,-y,-z
x,-y,z
1/2+x,1/2+y,z
1/2-x,1/2+y,-z
1/2-x,1/2-y,-z
1/2+x,1/2-y,z
loop_
_atom_site_type_symbol
_atom_site_label
_atom_site_fract_x
_atom_site_fract_y
_atom_site_fract_z
Si Si1 0.465931 0.685199 0.718986
Si Si2 0.430142 0.814098 0.098891
Si Si3 0.848213 0.685211 0.469956
Si Si4 0.711091 0.184424 0.241801
Si Si5 0.787457 0.815356 0.631021
Si Si6 0.432731 0.685156 0.223447
O O1 0.457789 0.500000 0.717956
O O2 0.557188 0.745151 0.622316
O O3 0.367268 0.764027 0.757622
O O4 0.493265 0.720810 0.769809
O O5 0.319628 0.750503 0.159966
O O6 0.466817 0.742975 0.137826
O O7 0.425906 0.000000 0.107029
O O8 0.500000 0.773643 0.000000
O O9 0.848660 0.500000 0.465546
O O10 0.750000 0.750000 0.500000
O O11 0.843881 0.738183 0.540878
O O12 0.680063 0.254290 0.325145
O O13 0.716021 0.000000 0.243643
O O14 0.672436 0.766138 0.697962
O O15 0.795954 0.000000 0.622858
O O16 0.416171 0.500000 0.232612
#
# Coordination Sequence:
#
# PCOD9197298 Si02
#       6
#     8   8   8   8   8   8
#     4  11  23  39  58  84 119 155 193 240 292 340
#     4  10  21  39  64  90 116 148 188 233 284 348
#     4  12  23  36  56  84 116 154 201 244 285 334
#     4  11  23  39  60  86 118 152 191 238 291 349
#     4  11  21  36  58  82 114 155 198 242 286 338
#     4  10  20  35  59  86 115 150 191 237 286 344
#
# _framework density 18.166888
#
# number of rings (size 3 to 8) (size 9 to 14) (size 15 to 20)
#    0.000    1.167    1.667    8.000    0.000    4.000 
#    0.000    4.167    0.000    0.000    0.000    0.000 
#    0.000    0.000    0.000    0.000    0.000    0.000 
#
# Total GULP energy -134195.627738 kJ/mol
# GULP energy per Si atom -5591.484489 kJ/mol
# Density = 1.812554 g / cm^3
# Si number density = 18.166888 Si / 1000 Ang^3
#
#
#
# Elastic Constant Matrix: (Units=GPa)
#
#
# Indices 1 2 3 4 5 6 
#
# 1 113.6984 20.3139 43.9838 0.0000 11.2596 0.0000
# 2 20.3139 57.3265 15.3429 0.0000 3.0367 0.0001
# 3 43.9838 15.3429 108.4291 0.0000 17.2487 0.0000
# 4 0.0000 0.0000 0.0000 30.2059 0.0000 3.5021
# 5 11.2596 3.0367 17.2487 0.0000 17.8855 0.0000
# 6 0.0000 0.0001 0.0000 3.5021 0.0000 32.1819
#
#
#
# Elastic Compliance Matrix: (Units=1/GPa)
#
#
# Indices 1 2 3 4 5 6 
#
# 1 0.010972 -0.002771 -0.003585 0.000000 -0.002980 0.000000
# 2 -0.002771 0.018838 -0.001548 0.000000 0.000038 0.000000
# 3 -0.003585 -0.001548 0.012397 0.000000 -0.009436 0.000000
# 4 0.000000 0.000000 0.000000 0.033529 0.000000 -0.003649
# 5 -0.002980 0.000038 -0.009436 0.000000 0.066881 0.000000
# 6 0.000000 0.000000 0.000000 -0.003649 0.000000 0.031470
#
#
# Mechanical properties :
#
#
# Convention : Reuss Voigt Hill
#
# Bulk Modulus (GPa) = 37.87818 48.74834 43.31326
# Shear Modulus (GPa) = 25.16437 29.37555 27.26996
#
# Velocity S-wave (km/s) = 3.72584 4.02554 3.87858
# Velocity P-wave (km/s) = 6.27730 6.96408 6.62959
#
# Compressibility (1/GPa) = 0.02640042
#
# Stress axis : x y z
#
# Youngs Moduli (GPa) = 91.14069 53.08422 80.66606
#
# Poissons Ratio (x) = 0.14708 0.28916
# Poissons Ratio (y) = 0.25253 0.12485
# Poissons Ratio (z) = 0.32671 0.08216
#
# Static dielectric constant tensor:
#      x y z
#    x 1.620840 0.000000 0.017160 
#    y 0.000000 1.605640 0.000000 
#    z 0.017160 0.000000 1.600970 
# 
# From -- ./inp_files/319548.got.cif
#   From: 2010.05.17/outbox.cif.g08.bks.cpg/sg12_160_cif.got.tgz:319548.got - 2010.06.03 13:09:07.
