data_PCOD9197358
_publ_section_title
;
Structure prediction by ZEFSAII (Michael W. Deem and Ramdas Pophale) SiO2 
 PCOD9197358
Probable space group: C 2/M
;
_chemical_formula_sum "Si O2"
_cell_formula_units_Z 40
_cell_length_a 18.135764
_cell_length_b 24.152581
_cell_length_c 6.954742
_cell_angle_alpha 90.000000
_cell_angle_beta 34.840977
_cell_angle_gamma 90.000000
_cell_volume 1740.384386
_symmetry_space_group_name_H-M "C 2/M"
_symmetry_group_IT_number 12
_symmetry_cell_setting 'monoclinic'
loop_
_space_group_symop_operation_xyz
x,y,z
-x,y,-z
-x,-y,-z
x,-y,z
1/2+x,1/2+y,z
1/2-x,1/2+y,-z
1/2-x,1/2-y,-z
1/2+x,1/2-y,z
loop_
_atom_site_type_symbol
_atom_site_label
_atom_site_fract_x
_atom_site_fract_y
_atom_site_fract_z
Si Si1 0.003790 0.144064 0.222318
Si Si2 0.779925 0.362788 0.225487
Si Si3 0.716497 0.434798 0.740167
Si Si4 0.371640 0.244684 0.883670
Si Si5 0.990928 0.437033 0.254220
O O1 0.081431 0.196583 0.135457
O O2 0.854401 0.139789 0.602881
O O3 0.081880 0.088573 0.103279
O O4 0.000000 0.151587 0.000000
O O5 0.744377 0.396418 0.494698
O O6 0.827909 0.299498 0.138583
O O7 0.903940 0.396183 0.885640
O O8 0.710995 0.500000 0.702885
O O9 0.839876 0.426722 0.612687
O O10 0.500000 0.222973 0.500000
O O11 0.250000 0.250000 0.000000
O O12 0.023609 0.500000 0.235047
O O13 0.000000 0.433663 0.000000
#
# Coordination Sequence:
#
# PCOD9197358 Si02
#       5
#     8   8   8   8   8
#     4  10  23  39  62  96 124 159 215 260 310 373
#     4  10  20  35  59  88 120 160 208 252 311 364
#     4   9  19  36  63  97 128 157 202 265 318 367
#     4  12  26  45  62  86 129 174 210 257 315 375
#     4   8  15  29  53  87 121 153 193 246 304 357
#
# _framework density 22.983428
#
# number of rings (size 3 to 8) (size 9 to 14) (size 15 to 20)
#    0.000    2.200    2.000    1.800    2.800   10.000 
#    0.000    0.000    0.000    5.400    0.000    0.000 
#    0.000    0.000    0.000    0.000    0.000    0.000 
#
# Total GULP energy -111600.215045 kJ/mol
# GULP energy per Si atom -5580.010752 kJ/mol
# Density = 2.293112 g / cm^3
# Si number density = 22.983428 Si / 1000 Ang^3
#
#
#
# Elastic Constant Matrix: (Units=GPa)
#
#
# Indices 1 2 3 4 5 6 
#
# 1 99.3927 68.5996 38.8738 0.0000 -15.9091 0.0000
# 2 68.5996 161.1164 64.0450 0.0000 -37.3352 0.0000
# 3 38.8738 64.0450 111.6275 0.0000 -47.8748 0.0000
# 4 0.0000 0.0000 0.0000 85.9627 0.0000 57.9580
# 5 -15.9091 -37.3352 -47.8748 0.0000 53.0214 0.0000
# 6 0.0000 0.0000 0.0000 57.9580 0.0000 138.3992
#
#
#
# Elastic Compliance Matrix: (Units=1/GPa)
#
#
# Indices 1 2 3 4 5 6 
#
# 1 0.014706 -0.005637 -0.002769 0.000000 -0.002058 0.000000
# 2 -0.005637 0.010400 -0.002592 0.000000 0.003291 0.000000
# 3 -0.002769 -0.002592 0.016762 0.000000 0.012479 0.000000
# 4 0.000000 0.000000 0.000000 0.016210 0.000000 -0.006788
# 5 -0.002058 0.003291 0.012479 0.000000 0.031828 0.000000
# 6 0.000000 0.000000 0.000000 -0.006788 0.000000 0.010068
#
#
# Mechanical properties :
#
#
# Convention : Reuss Voigt Hill
#
# Bulk Modulus (GPa) = 50.32760 79.46373 64.89567
# Shear Modulus (GPa) = 38.88206 68.85121 53.86663
#
# Velocity S-wave (km/s) = 4.11754 5.47923 4.84645
# Velocity P-wave (km/s) = 6.67461 8.64168 7.72105
#
# Compressibility (1/GPa) = 0.01986981
#
# Stress axis : x y z
#
# Youngs Moduli (GPa) = 68.00099 96.15384 59.65944
#
# Poissons Ratio (x) = 0.54205 0.16522
# Poissons Ratio (y) = 0.38334 0.15465
# Poissons Ratio (z) = 0.18832 0.24925
#
# Static dielectric constant tensor:
#      x y z
#    x 1.872020 0.000000 0.023770 
#    y 0.000000 1.820330 0.000000 
#    z 0.023770 0.000000 1.950610 
# 
# From -- ./inp_files/90539.got.cif
#   From: 2010.05.17/outbox.cif.g08.bks.cpg/sg12_46_cif.got.tgz:90539.got - 2010.06.03 13:09:07.
