data_PCOD9197990
_publ_section_title
;
Structure prediction by ZEFSAII (Michael W. Deem and Ramdas Pophale) SiO2 
 PCOD9197990
Probable space group: C 2/M
;
_chemical_formula_sum "Si O2"
_cell_formula_units_Z 44
_cell_length_a 17.267617
_cell_length_b 11.231743
_cell_length_c 12.289276
_cell_angle_alpha 90.000000
_cell_angle_beta 76.656222
_cell_angle_gamma 90.000000
_cell_volume 2319.102582
_symmetry_space_group_name_H-M "C 2/M"
_symmetry_group_IT_number 12
_symmetry_cell_setting 'monoclinic'
loop_
_space_group_symop_operation_xyz
x,y,z
-x,y,-z
-x,-y,-z
x,-y,z
1/2+x,1/2+y,z
1/2-x,1/2+y,-z
1/2-x,1/2-y,-z
1/2+x,1/2-y,z
loop_
_atom_site_type_symbol
_atom_site_label
_atom_site_fract_x
_atom_site_fract_y
_atom_site_fract_z
Si Si1 0.257420 0.287926 0.317719
Si Si2 0.618045 0.636123 0.876605
Si Si3 0.564053 0.363011 0.140447
Si Si4 0.152267 0.865614 0.496159
Si Si5 0.402626 0.871927 0.730197
Si Si6 0.000000 0.703822 0.500000
O O1 0.320009 0.275826 0.199834
O O2 0.215896 0.172257 0.383414
O O3 0.304796 0.347302 0.402173
O O4 0.183484 0.364208 0.298487
O O5 0.645577 0.500000 0.846914
O O6 0.530489 0.646371 0.852363
O O7 0.606759 0.649050 0.009360
O O8 0.578714 0.500000 0.175961
O O9 0.588320 0.251073 0.205949
O O10 0.075265 0.782828 0.511771
O O11 0.126745 0.000000 0.490714
O O12 0.468446 0.867194 0.613950
O O13 0.409440 0.000000 0.786870
#
# Coordination Sequence:
#
# PCOD9197990 Si02
#       6
#     8   8   8   8   8   4
#     4  10  21  34  53  78 110 147 178 216 275 333
#     4   9  17  36  60  80 103 141 186 228 270 319
#     4   9  20  37  60  83 106 139 188 233 266 311
#     4  10  20  36  55  81 109 139 182 232 272 315
#     4  11  22  36  53  80 114 148 179 217 271 332
#     4  10  22  36  58  80 103 140 185 224 269 322
#
# _framework density 18.972857000000001
#
# number of rings (size 3 to 8) (size 9 to 14) (size 15 to 20)
#    0.000    2.182    0.000    4.364    0.000    5.818 
#    0.000   10.000    0.000    0.000    0.000    0.000 
#    0.000    0.000    0.000    0.000    0.000    0.000 
#
# Total GULP energy -122669.882911 kJ/mol
# GULP energy per Si atom -5575.903769 kJ/mol
# Density = 1.892967 g / cm^3
# Si number density = 18.972857 Si / 1000 Ang^3
#
#
#
# Elastic Constant Matrix: (Units=GPa)
#
#
# Indices 1 2 3 4 5 6 
#
# 1 75.6259 42.3736 45.6372 0.0000 -8.9380 0.0000
# 2 42.3736 126.8652 42.1889 0.0000 14.3785 0.0000
# 3 45.6372 42.1889 76.0756 0.0000 -12.1627 0.0000
# 4 0.0000 0.0000 0.0000 0.2901 0.0000 -3.8170
# 5 -8.9380 14.3785 -12.1627 0.0000 33.1812 0.0000
# 6 0.0000 0.0000 0.0000 -3.8170 0.0000 -2.2077
#
#
#
# Elastic Compliance Matrix: (Units=1/GPa)
#
#
# Indices 1 2 3 4 5 6 
#
# 1 0.022493 -0.004584 -0.010267 0.000000 0.004282 0.000000
# 2 -0.004584 0.012147 -0.005338 0.000000 -0.008455 0.000000
# 3 -0.010267 -0.005338 0.023573 0.000000 0.008189 0.000000
# 4 0.000000 0.000000 0.000000 0.145149 0.000000 -0.250954
# 5 0.004282 -0.008455 0.008189 0.000000 0.037956 0.000000
# 6 0.000000 0.000000 0.000000 -0.250954 0.000000 -0.019074
#
#
# Mechanical properties :
#
#
# Convention : Reuss Voigt Hill
#
# Bulk Modulus (GPa) = 56.06774 59.88512 57.97643
# Shear Modulus (GPa) = 18.61734 16.14386 17.38060
#
# Velocity S-wave (km/s) = 3.13591 2.92017 3.02996
# Velocity P-wave (km/s) = 6.53664 6.55759 6.54712
#
# Compressibility (1/GPa) = 0.01783557
#
# Stress axis : x y z
#
# Youngs Moduli (GPa) = 44.45832 82.32534 42.42095
#
# Poissons Ratio (x) = 0.37737 0.43552
# Poissons Ratio (y) = 0.20379 0.22645
# Poissons Ratio (z) = 0.45644 0.43947
#
# Static dielectric constant tensor:
#      x y z
#    x 1.637850 0.000000 0.003410 
#    y 0.000000 1.661840 0.000000 
#    z 0.003410 0.000000 1.676610 
# 
# From -- ./inp_files/153432.got.cif
#   From: 2010.05.17/outbox.cif.g08.bks.cpg/sg12_77_cif.got.tgz:153432.got - 2010.06.03 13:09:07.
