data_PCOD9197646
_publ_section_title
;
Structure prediction by ZEFSAII (Michael W. Deem and Ramdas Pophale) SiO2 
 PCOD9197646
Probable space group: C 2/M
;
_chemical_formula_sum "Si O2"
_cell_formula_units_Z 64
_cell_length_a 29.175799
_cell_length_b 14.655366
_cell_length_c 12.564150
_cell_angle_alpha 90.000000
_cell_angle_beta 29.823108
_cell_angle_gamma 90.000000
_cell_volume 2671.725714
_symmetry_space_group_name_H-M "C 2/M"
_symmetry_group_IT_number 12
_symmetry_cell_setting 'monoclinic'
loop_
_space_group_symop_operation_xyz
x,y,z
-x,y,-z
-x,-y,-z
x,-y,z
1/2+x,1/2+y,z
1/2-x,1/2+y,-z
1/2-x,1/2-y,-z
1/2+x,1/2-y,z
loop_
_atom_site_type_symbol
_atom_site_label
_atom_site_fract_x
_atom_site_fract_y
_atom_site_fract_z
Si Si1 0.677830 0.322342 0.191515
Si Si2 0.657580 0.388833 0.684341
Si Si3 0.862241 0.389602 0.295056
Si Si4 0.753503 0.899217 0.146245
Si Si5 0.127807 0.890315 0.505715
Si Si6 0.420956 0.388532 0.944406
Si Si7 0.479069 0.110994 0.860142
Si Si8 0.951250 0.327969 0.496974
O O1 0.692675 0.352720 0.282485
O O2 0.581858 0.269294 0.389689
O O3 0.750000 0.250000 0.000000
O O4 0.693431 0.400798 0.074298
O O5 0.653809 0.500000 0.686852
O O6 0.758177 0.361358 0.522362
O O7 0.646730 0.356283 0.586218
O O8 0.584785 0.361398 0.920218
O O9 0.865474 0.500000 0.288823
O O10 0.931561 0.362751 0.248902
O O11 0.896651 0.364608 0.107191
O O12 0.649219 0.864984 0.339832
O O13 0.740334 0.000000 0.217943
O O14 0.830498 0.852459 0.065853
O O15 0.021076 0.866016 0.698025
O O16 0.135778 0.000000 0.488830
O O17 0.417158 0.500000 0.948151
O O18 0.484450 0.159781 0.735595
O O19 0.478806 0.000000 0.844655
O O20 0.000000 0.375596 0.500000
#
# Coordination Sequence:
#
# PCOD9197646 Si02
#       8
#     8   8   8   8   8   8   8   8
#     4  10  24  42  57  78 116 159 200 241 300 356
#     4   9  16  29  53  89 124 144 175 237 308 358
#     4   8  15  28  53  84 115 150 184 236 294 343
#     4  10  21  39  63  88 113 149 203 253 294 349
#     4  10  20  35  61  90 116 151 198 249 294 349
#     4   9  18  32  58  92 118 146 186 243 303 350
#     4   9  17  32  54  82 112 149 200 240 281 346
#     4  11  24  38  57  82 118 161 193 243 302 354
#
# _framework density 23.954554999999999
#
# number of rings (size 3 to 8) (size 9 to 14) (size 15 to 20)
#    0.000    2.500    0.000    2.625    1.750    6.500 
#    0.000    3.125    5.500    3.750    0.000    0.000 
#    0.000    0.000    0.000    0.000    0.000    0.000 
#
# Total GULP energy -178523.414918 kJ/mol
# GULP energy per Si atom -5578.856716 kJ/mol
# Density = 2.390003 g / cm^3
# Si number density = 23.954555 Si / 1000 Ang^3
#
#
#
# Elastic Constant Matrix: (Units=GPa)
#
#
# Indices 1 2 3 4 5 6 
#
# 1 84.7320 -4.0953 38.8430 0.0000 25.7179 0.0000
# 2 -4.0953 52.2866 7.4901 0.0000 -0.3338 0.0000
# 3 38.8430 7.4901 121.7863 0.0000 39.2304 0.0000
# 4 0.0000 0.0000 0.0000 73.9817 0.0000 45.2131
# 5 25.7179 -0.3338 39.2304 0.0000 40.9965 0.0000
# 6 0.0000 0.0000 0.0000 45.2131 0.0000 46.1052
#
#
#
# Elastic Compliance Matrix: (Units=1/GPa)
#
#
# Indices 1 2 3 4 5 6 
#
# 1 0.015228 0.001537 -0.002715 0.000000 -0.006942 0.000000
# 2 0.001537 0.019550 -0.002072 0.000000 0.001177 0.000000
# 3 -0.002715 -0.002072 0.012521 0.000000 -0.010295 0.000000
# 4 0.000000 0.000000 0.000000 0.033734 0.000000 -0.033082
# 5 -0.006942 0.001177 -0.010295 0.000000 0.038608 0.000000
# 6 0.000000 0.000000 0.000000 -0.033082 0.000000 0.054131
#
#
# Mechanical properties :
#
#
# Convention : Reuss Voigt Hill
#
# Bulk Modulus (GPa) = 24.51030 38.14228 31.32629
# Shear Modulus (GPa) = 25.79021 46.65450 36.22235
#
# Velocity S-wave (km/s) = 3.28476 4.41798 3.89283
# Velocity P-wave (km/s) = 4.96391 6.47936 5.77159
#
# Compressibility (1/GPa) = 0.04079918
#
# Stress axis : x y z
#
# Youngs Moduli (GPa) = 65.66858 51.15064 79.86705
#
# Poissons Ratio (x) = -0.07864 0.21686
# Poissons Ratio (y) = -0.10096 0.16549
# Poissons Ratio (z) = 0.17830 0.10598
#
# Static dielectric constant tensor:
#      x y z
#    x 1.997420 0.000000 -0.008080 
#    y 0.000000 2.044380 0.000000 
#    z -0.008080 0.000000 1.884670 
# 
# From -- ./inp_files/190015.got.cif
#   From: 2010.05.17/outbox.cif.g08.bks.cpg/sg12_96_cif.got.tgz:190015.got - 2010.06.03 13:09:07.
