data_PCOD9197293
_publ_section_title
;
Structure prediction by ZEFSAII (Michael W. Deem and Ramdas Pophale) SiO2 
 PCOD9197293
Probable space group: C 2/M
;
_chemical_formula_sum "Si O2"
_cell_formula_units_Z 56
_cell_length_a 19.257208
_cell_length_b 7.699886
_cell_length_c 19.381172
_cell_angle_alpha 90.000000
_cell_angle_beta 59.464938
_cell_angle_gamma 90.000000
_cell_volume 2475.263191
_symmetry_space_group_name_H-M "C 2/M"
_symmetry_group_IT_number 12
_symmetry_cell_setting 'monoclinic'
loop_
_space_group_symop_operation_xyz
x,y,z
-x,y,-z
-x,-y,-z
x,-y,z
1/2+x,1/2+y,z
1/2-x,1/2+y,-z
1/2-x,1/2-y,-z
1/2+x,1/2-y,z
loop_
_atom_site_type_symbol
_atom_site_label
_atom_site_fract_x
_atom_site_fract_y
_atom_site_fract_z
Si Si1 0.917927 0.212106 0.329176
Si Si2 0.184670 0.213681 0.315865
Si Si3 0.992003 0.211296 0.583173
Si Si4 0.742208 0.306902 0.425986
Si Si5 0.168815 0.792036 0.998767
Si Si6 0.005588 0.204501 0.150848
Si Si7 0.842408 0.703587 0.155647
O O1 0.833143 0.295443 0.352305
O O2 0.981501 0.268142 0.239121
O O3 0.941417 0.265036 0.394860
O O4 0.909928 0.000000 0.331347
O O5 0.094424 0.259952 0.340384
O O6 0.192088 0.280366 0.390915
O O7 0.261462 0.274438 0.233544
O O8 0.188084 0.000000 0.313986
O O9 0.000000 0.270921 0.500000
O O10 0.994753 0.000000 0.579369
O O11 0.709045 0.500000 0.446942
O O12 0.750000 0.250000 0.500000
O O13 0.087634 0.722798 0.077054
O O14 0.163154 0.000000 0.997499
O O15 0.250000 0.750000 0.000000
O O16 0.168412 0.726462 0.920527
O O17 0.926704 0.222531 0.141968
O O18 0.020195 0.000000 0.152181
O O19 0.846714 0.500000 0.169226
#
# Coordination Sequence:
#
# PCOD9197293 Si02
#       7
#     8   8   8   8   8   8   8
#     4  10  20  35  59  86 113 152 196 244 300 356
#     4   9  19  34  56  85 116 151 198 246 290 346
#     4   9  17  31  54  82 112 150 197 245 293 348
#     4  11  21  36  57  85 118 154 195 245 293 348
#     4  11  25  43  64  93 124 159 200 249 301 361
#     4  10  22  40  62  88 122 159 202 250 302 363
#     4  11  22  39  64  91 122 160 202 249 302 362
#
# _framework density 22.623856
#
# number of rings (size 3 to 8) (size 9 to 14) (size 15 to 20)
#    0.000    1.857    1.429    2.571    2.000    5.143 
#    0.000    0.000    0.000    4.714    0.000    0.000 
#    0.000    0.000    0.000    0.000    0.000    0.000 
#
# Total GULP energy -156329.133123 kJ/mol
# GULP energy per Si atom -5583.183326 kJ/mol
# Density = 2.257236 g / cm^3
# Si number density = 22.623856 Si / 1000 Ang^3
#
#
#
# Elastic Constant Matrix: (Units=GPa)
#
#
# Indices 1 2 3 4 5 6 
#
# 1 106.7827 -20.2283 25.8124 -0.0004 -6.7374 -0.0014
# 2 -20.2283 31.8943 -7.9499 -0.0010 -3.7173 -0.0040
# 3 25.8124 -7.9499 116.3219 0.0000 -3.9655 -0.0001
# 4 -0.0004 -0.0010 0.0000 15.9470 0.0000 1.9741
# 5 -6.7374 -3.7173 -3.9655 0.0000 43.4216 -0.0003
# 6 -0.0014 -0.0040 -0.0001 1.9741 -0.0003 20.4338
#
#
#
# Elastic Compliance Matrix: (Units=1/GPa)
#
#
# Indices 1 2 3 4 5 6 
#
# 1 0.011286 0.006922 -0.001957 0.000000 0.002165 0.000002
# 2 0.006922 0.036521 0.001107 0.000001 0.004302 0.000007
# 3 -0.001957 0.001107 0.009128 0.000000 0.000625 0.000000
# 4 0.000000 0.000001 0.000000 0.063467 0.000000 -0.006131
# 5 0.002165 0.004302 0.000625 0.000000 0.023791 0.000001
# 6 0.000002 0.000007 0.000000 -0.006131 0.000001 0.049531
#
#
# Mechanical properties :
#
#
# Convention : Reuss Voigt Hill
#
# Bulk Modulus (GPa) = 14.47646 27.80748 21.14197
# Shear Modulus (GPa) = 24.43706 33.11812 28.77759
#
# Velocity S-wave (km/s) = 3.29012 3.83019 3.57038
# Velocity P-wave (km/s) = 4.56573 5.64609 5.13441
#
# Compressibility (1/GPa) = 0.06907768
#
# Stress axis : x y z
#
# Youngs Moduli (GPa) = 88.60607 27.38151 109.55142
#
# Poissons Ratio (x) = -0.18954 0.21445
# Poissons Ratio (y) = -0.61335 -0.12123
# Poissons Ratio (z) = 0.17345 -0.03030
#
# Static dielectric constant tensor:
#      x y z
#    x 1.801400 0.000000 -0.024320 
#    y 0.000000 1.890950 0.000000 
#    z -0.024320 0.000000 1.870270 
# 
# From -- ./inp_files/275155.got.cif
#   From: 2010.05.17/outbox.cif.g08.bks.cpg/sg12_138_cif.got.tgz:275155.got - 2010.06.03 13:09:07.
