data_PCOD9197768
_publ_section_title
;
Structure prediction by ZEFSAII (Michael W. Deem and Ramdas Pophale) SiO2 
 PCOD9197768
Probable space group: C 2/M
;
_chemical_formula_sum "Si O2"
_cell_formula_units_Z 56
_cell_length_a 8.838043
_cell_length_b 28.338902
_cell_length_c 11.200366
_cell_angle_alpha 90.000000
_cell_angle_beta 68.262115
_cell_angle_gamma 90.000000
_cell_volume 2605.761379
_symmetry_space_group_name_H-M "C 2/M"
_symmetry_group_IT_number 12
_symmetry_cell_setting 'monoclinic'
loop_
_space_group_symop_operation_xyz
x,y,z
-x,y,-z
-x,-y,-z
x,-y,z
1/2+x,1/2+y,z
1/2-x,1/2+y,-z
1/2-x,1/2-y,-z
1/2+x,1/2-y,z
loop_
_atom_site_type_symbol
_atom_site_label
_atom_site_fract_x
_atom_site_fract_y
_atom_site_fract_z
Si Si1 0.741263 0.397824 0.142941
Si Si2 0.696089 0.446554 0.917294
Si Si3 0.189892 0.054463 0.410715
Si Si4 0.274917 0.772987 0.863877
Si Si5 0.861774 0.311059 0.240758
Si Si6 0.679551 0.142310 0.499519
Si Si7 0.880284 0.859406 0.209240
O O1 0.715668 0.431226 0.265183
O O2 0.856624 0.355724 0.152744
O O3 0.568640 0.372526 0.165251
O O4 0.780971 0.427567 0.013119
O O5 0.746661 0.500000 0.871716
O O6 0.712225 0.406314 0.812385
O O7 0.500000 0.448328 0.000000
O O8 0.293509 0.088869 0.463794
O O9 0.000000 0.061918 0.500000
O O10 0.229353 0.000000 0.417384
O O11 0.244084 0.731244 0.780041
O O12 0.454904 0.793386 0.801859
O O13 0.155223 0.816253 0.868599
O O14 0.250000 0.750000 0.000000
O O15 0.797861 0.327482 0.387627
O O16 0.500000 0.149369 0.500000
O O17 0.808013 0.153457 0.358820
#
# Coordination Sequence:
#
# PCOD9197768 Si02
#       7
#     8   8   8   8   8   8   8
#     4  10  20  39  65  94 131 172 212 273 323 384
#     4   9  19  35  61  96 129 167 214 264 319 379
#     4  10  20  35  63  97 128 172 222 267 314 375
#     4  12  25  44  67  96 126 165 217 270 329 394
#     4  11  25  42  67  94 128 169 212 268 328 389
#     4  11  23  44  63  92 133 173 214 265 329 389
#     4  11  22  40  66  94 130 170 213 267 325 386
#
# _framework density 21.490841
#
# number of rings (size 3 to 8) (size 9 to 14) (size 15 to 20)
#    0.000    1.429    2.857    2.571    0.000    4.286 
#    0.000    0.000    0.000    0.857    0.000    0.000 
#    0.000    0.000    0.000    0.000    0.000    0.000 
#
# Total GULP energy -156705.089864 kJ/mol
# GULP energy per Si atom -5596.610352 kJ/mol
# Density = 2.144193 g / cm^3
# Si number density = 21.490841 Si / 1000 Ang^3
#
#
#
# Elastic Constant Matrix: (Units=GPa)
#
#
# Indices 1 2 3 4 5 6 
#
# 1 44.7687 31.7883 19.5355 0.0000 20.3364 0.0000
# 2 31.7883 134.4026 48.3072 0.0000 15.6481 0.0000
# 3 19.5355 48.3072 97.9989 0.0000 17.4409 0.0000
# 4 0.0000 0.0000 0.0000 20.8977 0.0000 -1.4678
# 5 20.3364 15.6481 17.4409 0.0000 27.0834 0.0000
# 6 0.0000 0.0000 0.0000 -1.4678 0.0000 16.0273
#
#
#
# Elastic Compliance Matrix: (Units=1/GPa)
#
#
# Indices 1 2 3 4 5 6 
#
# 1 0.038032 -0.006028 -0.000166 0.000000 -0.024967 0.000000
# 2 -0.006028 0.010171 -0.004034 0.000000 0.001248 0.000000
# 3 -0.000166 -0.004034 0.013315 0.000000 -0.006119 0.000000
# 4 0.000000 0.000000 0.000000 0.048162 0.000000 0.004411
# 5 -0.024967 0.001248 -0.006119 0.000000 0.058889 0.000000
# 6 0.000000 0.000000 0.000000 0.004411 0.000000 0.062797
#
#
# Mechanical properties :
#
#
# Convention : Reuss Voigt Hill
#
# Bulk Modulus (GPa) = 24.35482 52.93690 38.64586
# Shear Modulus (GPa) = 18.83172 24.63763 21.73468
#
# Velocity S-wave (km/s) = 2.96339 3.38956 3.18362
# Velocity P-wave (km/s) = 4.80273 6.32492 5.61564
#
# Compressibility (1/GPa) = 0.04105963
#
# Stress axis : x y z
#
# Youngs Moduli (GPa) = 26.29399 98.32154 75.10471
#
# Poissons Ratio (x) = 0.59272 0.01250
# Poissons Ratio (y) = 0.15851 0.30296
# Poissons Ratio (z) = 0.00438 0.39662
#
# Static dielectric constant tensor:
#      x y z
#    x 1.778820 0.000000 0.001650 
#    y 0.000000 1.775190 0.000000 
#    z 0.001650 0.000000 1.784270 
# 
# From -- ./inp_files/124266.got.cif
#   From: 2010.05.17/outbox.cif.g08.bks.cpg/sg12_63_cif.got.tgz:124266.got - 2010.06.03 13:09:07.
