data_PCOD9197439
_publ_section_title
;
Structure prediction by ZEFSAII (Michael W. Deem and Ramdas Pophale) SiO2 
 PCOD9197439
Probable space group: C 2/M
;
_chemical_formula_sum "Si O2"
_cell_formula_units_Z 50
_cell_length_a 24.654608
_cell_length_b 7.453046
_cell_length_c 15.118186
_cell_angle_alpha 90.000000
_cell_angle_beta 127.432429
_cell_angle_gamma 90.000000
_cell_volume 2205.925148
_symmetry_space_group_name_H-M "C 2/M"
_symmetry_group_IT_number 12
_symmetry_cell_setting 'monoclinic'
loop_
_space_group_symop_operation_xyz
x,y,z
-x,y,-z
-x,-y,-z
x,-y,z
1/2+x,1/2+y,z
1/2-x,1/2+y,-z
1/2-x,1/2-y,-z
1/2+x,1/2-y,z
loop_
_atom_site_type_symbol
_atom_site_label
_atom_site_fract_x
_atom_site_fract_y
_atom_site_fract_z
Si Si1 0.056206 0.293448 0.948134
Si Si2 0.672986 0.213564 0.390660
Si Si3 0.331782 0.719449 0.297947
Si Si4 0.071473 0.217601 0.759763
Si Si5 0.500000 0.500000 0.000000
Si Si6 0.320098 0.781499 0.803477
Si Si7 0.573193 0.293461 0.449640
O O1 0.040482 0.500000 0.952637
O O2 0.073161 0.280099 0.861964
O O3 0.998156 0.158235 0.921250
O O4 0.120989 0.227275 0.070330
O O5 0.750000 0.250000 0.500000
O O6 0.667261 0.278846 0.284288
O O7 0.619001 0.289243 0.406739
O O8 0.662367 0.000000 0.379486
O O9 0.330458 0.500000 0.299861
O O10 0.364834 0.771728 0.237663
O O11 0.254603 0.778149 0.238941
O O12 0.381448 0.783223 0.426008
O O13 0.001104 0.283157 0.644884
O O14 0.069703 0.000000 0.760077
O O15 0.319979 0.000000 0.802709
O O16 0.560679 0.500000 0.462749
#
# Coordination Sequence:
#
# PCOD9197439 Si02
#       7
#     8   8   8   8   2   8   8
#     4  11  25  44  67  97 131 170 213 262 319 380
#     4  11  21  36  57  86 120 157 202 257 319 379
#     4   9  17  36  63  90 126 170 214 264 315 377
#     4  10  21  38  63  95 127 167 218 262 315 380
#     4  12  26  48  68  94 130 168 212 264 314 388
#     4   9  20  38  61  90 125 167 212 258 318 378
#     4  10  20  35  59  91 124 165 213 261 315 379
#
# _framework density 22.666228
#
# number of rings (size 3 to 8) (size 9 to 14) (size 15 to 20)
#    0.000    1.920    2.400    1.200    2.240    3.200 
#    1.440    0.800    1.760    1.920    0.000    0.000 
#    0.000    0.000    0.000    0.000    0.000    0.000 
#
# Total GULP energy -139585.083578 kJ/mol
# GULP energy per Si atom -5583.403343 kJ/mol
# Density = 2.261464 g / cm^3
# Si number density = 22.666228 Si / 1000 Ang^3
#
#
#
# Elastic Constant Matrix: (Units=GPa)
#
#
# Indices 1 2 3 4 5 6 
#
# 1 115.1029 8.8829 47.9449 0.0000 -24.7686 0.0000
# 2 8.8829 102.1244 9.7170 0.0000 -4.3118 0.0000
# 3 47.9449 9.7170 110.6312 0.0000 -1.3789 0.0000
# 4 0.0000 0.0000 0.0000 -7.6139 0.0000 -8.9281
# 5 -24.7686 -4.3118 -1.3789 0.0000 34.7840 0.0000
# 6 0.0000 0.0000 0.0000 -8.9281 0.0000 6.6922
#
#
#
# Elastic Compliance Matrix: (Units=1/GPa)
#
#
# Indices 1 2 3 4 5 6 
#
# 1 0.012905 -0.000225 -0.005461 0.000000 0.008945 0.000000
# 2 -0.000225 0.009928 -0.000761 0.000000 0.001040 0.000000
# 3 -0.005461 -0.000761 0.011429 0.000000 -0.003530 0.000000
# 4 0.000000 0.000000 0.000000 -0.051217 0.000000 -0.068328
# 5 0.008945 0.001040 -0.003530 0.000000 0.035107 0.000000
# 6 0.000000 0.000000 0.000000 -0.068328 0.000000 0.058270
#
#
# Mechanical properties :
#
#
# Convention : Reuss Voigt Hill
#
# Bulk Modulus (GPa) = 46.80431 51.21647 49.01039
# Shear Modulus (GPa) = 51.84555 24.19338 38.01946
#
# Velocity S-wave (km/s) = 4.78781 3.27062 4.10000
# Velocity P-wave (km/s) = 7.15950 6.07516 6.63950
#
# Compressibility (1/GPa) = 0.02136555
#
# Stress axis : x y z
#
# Youngs Moduli (GPa) = 77.48966 100.72591 87.49847
#
# Poissons Ratio (x) = 0.02268 0.47787
# Poissons Ratio (y) = 0.01745 0.06663
# Poissons Ratio (z) = 0.42320 0.07670
#
# Static dielectric constant tensor:
#      x y z
#    x 1.834320 0.000000 0.029920 
#    y 0.000000 1.914650 0.000000 
#    z 0.029920 0.000000 1.811610 
# 
# From -- ./inp_files/237940.got.cif
#   From: 2010.05.17/outbox.cif.g08.bks.cpg/sg12_119_cif.got.tgz:237940.got - 2010.06.03 13:09:07.
