data_PCOD9197249
_publ_section_title
;
Structure prediction by ZEFSAII (Michael W. Deem and Ramdas Pophale) SiO2 
 PCOD9197249
Probable space group: C 2/M
;
_chemical_formula_sum "Si O2"
_cell_formula_units_Z 48
_cell_length_a 24.614818
_cell_length_b 8.183389
_cell_length_c 12.351719
_cell_angle_alpha 90.000000
_cell_angle_beta 90.456389
_cell_angle_gamma 90.000000
_cell_volume 2487.960322
_symmetry_space_group_name_H-M "C 2/M"
_symmetry_group_IT_number 12
_symmetry_cell_setting 'monoclinic'
loop_
_space_group_symop_operation_xyz
x,y,z
-x,y,-z
-x,-y,-z
x,-y,z
1/2+x,1/2+y,z
1/2-x,1/2+y,-z
1/2-x,1/2-y,-z
1/2+x,1/2-y,z
loop_
_atom_site_type_symbol
_atom_site_label
_atom_site_fract_x
_atom_site_fract_y
_atom_site_fract_z
Si Si1 0.164720 0.802645 0.029013
Si Si2 0.456004 0.700144 0.910412
Si Si3 0.793629 0.697773 0.412026
Si Si4 0.232694 0.302912 0.830097
Si Si5 0.414954 0.804856 0.465341
Si Si6 0.983519 0.195184 0.669289
O O1 0.104571 0.746293 0.058439
O O2 0.210706 0.745584 0.115078
O O3 0.164566 0.000000 0.031089
O O4 0.185189 0.748470 0.911512
O O5 0.455918 0.500000 0.909631
O O6 0.471948 0.755222 0.790155
O O7 0.500000 0.751947 0.000000
O O8 0.794925 0.500000 0.409587
O O9 0.750000 0.750000 0.500000
O O10 0.777065 0.755703 0.291758
O O11 0.854125 0.756371 0.443462
O O12 0.234343 0.500000 0.827766
O O13 0.439098 0.754521 0.581828
O O14 0.457933 0.745213 0.376499
O O15 0.414372 0.000000 0.460829
O O16 0.981246 0.000000 0.670462
#
# Coordination Sequence:
#
# PCOD9197249 Si02
#       6
#     8   8   8   8   8   8
#     4   9  18  34  57  79 104 141 176 216 268 314
#     4   9  19  33  52  82 112 136 173 223 268 310
#     4  10  23  38  56  81 110 144 181 224 272 320
#     4   9  19  36  55  78 107 139 176 218 266 319
#     4  10  21  38  56  78 112 146 176 222 279 322
#     4  10  20  35  59  84 105 142 187 223 264 320
#
# _framework density 19.292912000000001
#
# number of rings (size 3 to 8) (size 9 to 14) (size 15 to 20)
#    0.000    2.500    0.000    2.000    4.667    2.000 
#    0.000    1.667    0.000    2.500    0.000    0.000 
#    0.000    0.000    0.000    0.000    0.000    0.000 
#
# Total GULP energy -133971.736058 kJ/mol
# GULP energy per Si atom -5582.155669 kJ/mol
# Density = 1.924900 g / cm^3
# Si number density = 19.292912 Si / 1000 Ang^3
#
#
#
# Elastic Constant Matrix: (Units=GPa)
#
#
# Indices 1 2 3 4 5 6 
#
# 1 188.5045 14.2929 138.3791 0.0000 -7.1344 0.0000
# 2 14.2929 17.0664 15.4259 0.0000 1.3771 0.0000
# 3 138.3791 15.4259 219.0604 0.0000 -12.2294 0.0000
# 4 0.0000 0.0000 0.0000 19.3568 0.0000 -5.4164
# 5 -7.1344 1.3771 -12.2294 0.0000 13.9309 0.0000
# 6 0.0000 0.0000 0.0000 -5.4164 0.0000 18.8755
#
#
#
# Elastic Compliance Matrix: (Units=1/GPa)
#
#
# Indices 1 2 3 4 5 6 
#
# 1 0.010020 -0.002857 -0.006127 0.000000 0.000036 0.000000
# 2 -0.002857 0.064909 -0.003371 0.000000 -0.010839 0.000000
# 3 -0.006127 -0.003371 0.008955 0.000000 0.005057 0.000000
# 4 0.000000 0.000000 0.000000 0.056172 0.000000 0.016119
# 5 0.000036 -0.010839 0.005057 0.000000 0.077312 0.000000
# 6 0.000000 0.000000 0.000000 0.016119 0.000000 0.057604
#
#
# Mechanical properties :
#
#
# Convention : Reuss Voigt Hill
#
# Bulk Modulus (GPa) = 16.89919 84.53633 50.71776
# Shear Modulus (GPa) = 15.65404 27.53486 21.59445
#
# Velocity S-wave (km/s) = 2.85158 3.78193 3.34922
# Velocity P-wave (km/s) = 4.42948 7.93619 6.42664
#
# Compressibility (1/GPa) = 0.05917444
#
# Stress axis : x y z
#
# Youngs Moduli (GPa) = 99.79655 15.40622 111.67229
#
# Poissons Ratio (x) = 0.04402 0.68417
# Poissons Ratio (y) = 0.28513 0.37645
# Poissons Ratio (z) = 0.61142 0.05193
#
# Static dielectric constant tensor:
#      x y z
#    x 1.658460 0.000000 0.015540 
#    y 0.000000 1.689560 0.000000 
#    z 0.015540 0.000000 1.651310 
# 
# From -- ./inp_files/172274.got.cif
#   From: 2010.05.17/outbox.cif.g08.bks.cpg/sg12_87_cif.got.tgz:172274.got - 2010.06.03 13:09:07.
