data_PCOD9197225
_publ_section_title
;
Structure prediction by ZEFSAII (Michael W. Deem and Ramdas Pophale) SiO2 
 PCOD9197225
Probable space group: C 2/M
;
_chemical_formula_sum "Si O2"
_cell_formula_units_Z 64
_cell_length_a 9.224033
_cell_length_b 20.309670
_cell_length_c 20.625821
_cell_angle_alpha 90.000000
_cell_angle_beta 120.847674
_cell_angle_gamma 90.000000
_cell_volume 3317.357131
_symmetry_space_group_name_H-M "C 2/M"
_symmetry_group_IT_number 12
_symmetry_cell_setting 'monoclinic'
loop_
_space_group_symop_operation_xyz
x,y,z
-x,y,-z
-x,-y,-z
x,-y,z
1/2+x,1/2+y,z
1/2-x,1/2+y,-z
1/2-x,1/2-y,-z
1/2+x,1/2-y,z
loop_
_atom_site_type_symbol
_atom_site_label
_atom_site_fract_x
_atom_site_fract_y
_atom_site_fract_z
Si Si1 0.301805 0.285085 0.946841
Si Si2 0.197073 0.191712 0.288109
Si Si3 0.705919 0.700935 0.797970
Si Si4 0.155580 0.243651 0.411346
Si Si5 0.121450 0.151856 0.590376
Si Si6 0.311814 0.428332 0.927629
Si Si7 0.302338 0.923522 0.741543
Si Si8 0.668790 0.073075 0.759790
O O1 0.265566 0.239647 0.876099
O O2 0.226497 0.359179 0.927191
O O3 0.500000 0.294634 0.000000
O O4 0.250000 0.250000 0.000000
O O5 0.249562 0.249965 0.251046
O O6 0.234540 0.198975 0.372959
O O7 0.285672 0.127680 0.280971
O O8 0.994139 0.191346 0.240043
O O9 0.779480 0.629969 0.793643
O O10 0.250000 0.250000 0.500000
O O11 0.198401 0.315616 0.390467
O O12 0.985080 0.207330 0.394571
O O13 0.171352 0.096113 0.653638
O O14 0.000000 0.135215 0.500000
O O15 0.231520 0.500000 0.925627
O O16 0.309131 0.424633 0.848986
O O17 0.500000 0.430211 0.000000
O O18 0.490284 0.916333 0.754828
O O19 0.279675 0.000000 0.755349
O O20 0.665913 0.000000 0.730704
#
# Coordination Sequence:
#
# PCOD9197225 Si02
#       8
#     8   8   8   8   8   8   8   8
#     4  11  24  39  60  91 124 160 205 258 312 373
#     4  12  21  38  63  92 122 159 205 256 309 370
#     4  12  24  38  64  91 124 162 207 261 314 367
#     4  10  20  35  58  93 125 153 197 250 309 369
#     4  10  21  38  60  92 124 163 203 252 317 374
#     4   9  19  38  62  88 121 160 205 251 314 382
#     4  11  24  42  62  89 126 168 214 260 315 380
#     4  10  23  40  64  92 123 165 212 262 320 380
#
# _framework density 19.292466000000001
#
# number of rings (size 3 to 8) (size 9 to 14) (size 15 to 20)
#    0.000    1.375    3.750    1.500    5.250    0.750 
#    0.000    0.625    0.000    0.750    0.000    3.500 
#    0.000    0.000    0.000    0.000    0.000    0.000 
#
# Total GULP energy -178146.645504 kJ/mol
# GULP energy per Si atom -5567.082672 kJ/mol
# Density = 1.924856 g / cm^3
# Si number density = 19.292466 Si / 1000 Ang^3
#
#
#
# Elastic Constant Matrix: (Units=GPa)
#
#
# Indices 1 2 3 4 5 6 
#
# 1 88.2327 58.9122 31.8483 0.0000 -3.5878 0.0000
# 2 58.9122 170.4174 58.0833 0.0000 -15.1612 0.0000
# 3 31.8483 58.0833 120.6626 0.0000 -19.3118 0.0000
# 4 0.0000 0.0000 0.0000 26.0265 0.0000 -6.2346
# 5 -3.5878 -15.1612 -19.3118 0.0000 26.5035 0.0000
# 6 0.0000 0.0000 0.0000 -6.2346 0.0000 26.7517
#
#
#
# Elastic Compliance Matrix: (Units=1/GPa)
#
#
# Indices 1 2 3 4 5 6 
#
# 1 0.015146 -0.004723 -0.002070 0.000000 -0.002160 0.000000
# 2 -0.004723 0.008565 -0.002484 0.000000 0.002450 0.000000
# 3 -0.002070 -0.002484 0.011046 0.000000 0.006347 0.000000
# 4 0.000000 0.000000 0.000000 0.040694 0.000000 0.009484
# 5 -0.002160 0.002450 0.006347 0.000000 0.043465 0.000000
# 6 0.000000 0.000000 0.000000 0.009484 0.000000 0.039591
#
#
# Mechanical properties :
#
#
# Convention : Reuss Voigt Hill
#
# Bulk Modulus (GPa) = 61.71669 75.22225 68.46947
# Shear Modulus (GPa) = 27.40286 31.22093 29.31190
#
# Velocity S-wave (km/s) = 3.77290 4.02717 3.90211
# Velocity P-wave (km/s) = 7.14417 7.79097 7.47457
#
# Compressibility (1/GPa) = 0.01620307
#
# Stress axis : x y z
#
# Youngs Moduli (GPa) = 66.02278 116.75099 90.53274
#
# Poissons Ratio (x) = 0.55136 0.18742
# Poissons Ratio (y) = 0.31179 0.22492
# Poissons Ratio (z) = 0.13668 0.29006
#
# Static dielectric constant tensor:
#      x y z
#    x 1.661360 0.000000 0.049700 
#    y 0.000000 1.724030 0.000000 
#    z 0.049700 0.000000 1.718480 
# 
# From -- ./inp_files/301738.got.cif
#   From: 2010.05.17/outbox.cif.g08.bks.cpg/sg12_151_cif.got.tgz:301738.got - 2010.06.03 13:09:07.
