data_PCOD9197376
_publ_section_title
;
Structure prediction by ZEFSAII (Michael W. Deem and Ramdas Pophale) SiO2 
 PCOD9197376
Probable space group: C 2/M
;
_chemical_formula_sum "Si O2"
_cell_formula_units_Z 64
_cell_length_a 19.044246
_cell_length_b 8.680017
_cell_length_c 20.300414
_cell_angle_alpha 90.000000
_cell_angle_beta 82.248576
_cell_angle_gamma 90.000000
_cell_volume 3325.084342
_symmetry_space_group_name_H-M "C 2/M"
_symmetry_group_IT_number 12
_symmetry_cell_setting 'monoclinic'
loop_
_space_group_symop_operation_xyz
x,y,z
-x,y,-z
-x,-y,-z
x,-y,z
1/2+x,1/2+y,z
1/2-x,1/2+y,-z
1/2-x,1/2-y,-z
1/2+x,1/2-y,z
loop_
_atom_site_type_symbol
_atom_site_label
_atom_site_fract_x
_atom_site_fract_y
_atom_site_fract_z
Si Si1 0.672484 0.182249 0.026041
Si Si2 0.837096 0.319282 0.213981
Si Si3 0.227869 0.816584 0.572787
Si Si4 0.803920 0.817523 0.691517
Si Si5 0.049856 0.681610 0.281642
Si Si6 0.409479 0.318072 0.333003
Si Si7 0.585735 0.681312 0.917848
Si Si8 0.060347 0.815521 0.134117
O O1 0.633724 0.255829 0.094192
O O2 0.678533 0.000000 0.033550
O O3 0.750000 0.250000 0.000000
O O4 0.619669 0.223880 0.972800
O O5 0.846768 0.500000 0.196679
O O6 0.755919 0.292408 0.244975
O O7 0.881027 0.275868 0.273633
O O8 0.865037 0.215249 0.151449
O O9 0.250000 0.750000 0.500000
O O10 0.271203 0.738122 0.626631
O O11 0.145142 0.788912 0.600880
O O12 0.239695 0.000000 0.573089
O O13 0.873731 0.725050 0.700276
O O14 0.818474 0.000000 0.687197
O O15 0.038221 0.500000 0.283373
O O16 0.046106 0.743786 0.207265
O O17 0.989435 0.764977 0.331993
O O18 0.406649 0.500000 0.317902
O O19 0.586348 0.500000 0.935027
O O20 0.505952 0.723277 0.905579
O O21 0.062174 0.000000 0.139971
#
# Coordination Sequence:
#
# PCOD9197376 Si02
#       8
#     8   8   8   8   8   8   8   8
#     4  12  27  45  64  87 120 158 204 258 311 370
#     4  10  20  35  59  89 118 154 201 249 297 357
#     4  10  21  39  65  94 126 164 207 248 298 358
#     4  10  22  39  60  88 126 164 202 250 305 356
#     4  12  24  38  61  92 126 161 204 255 306 360
#     4  10  20  37  60  89 124 161 200 246 297 355
#     4  11  23  40  64  89 120 158 200 249 307 370
#     4  11  24  43  65  89 121 160 203 249 308 372
#
# _framework density 19.247631999999999
#
# number of rings (size 3 to 8) (size 9 to 14) (size 15 to 20)
#    0.000    1.250    1.250    4.875    1.750    6.000 
#    0.000    0.625    0.000    3.750    0.000    0.000 
#    0.000    0.000    0.000    0.000    0.000    0.000 
#
# Total GULP energy -178938.076861 kJ/mol
# GULP energy per Si atom -5591.814902 kJ/mol
# Density = 1.920382 g / cm^3
# Si number density = 19.247632 Si / 1000 Ang^3
#
#
#
# Elastic Constant Matrix: (Units=GPa)
#
#
# Indices 1 2 3 4 5 6 
#
# 1 109.3551 35.4723 24.7976 0.0000 -11.1616 0.0000
# 2 35.4723 60.3115 14.8120 0.0000 -7.7673 0.0000
# 3 24.7976 14.8120 59.8162 0.0000 -20.3272 0.0000
# 4 0.0000 0.0000 0.0000 33.5043 0.0000 0.9468
# 5 -11.1616 -7.7673 -20.3272 0.0000 23.1825 0.0000
# 6 0.0000 0.0000 0.0000 0.9468 0.0000 32.3032
#
#
#
# Elastic Compliance Matrix: (Units=1/GPa)
#
#
# Indices 1 2 3 4 5 6 
#
# 1 0.011936 -0.006134 -0.003098 0.000000 0.000975 0.000000
# 2 -0.006134 0.020951 -0.001799 0.000000 0.002488 0.000000
# 3 -0.003098 -0.001799 0.025264 0.000000 0.020058 0.000000
# 4 0.000000 0.000000 0.000000 0.029872 0.000000 -0.000876
# 5 0.000975 0.002488 0.020058 0.000000 0.062026 0.000000
# 6 0.000000 0.000000 0.000000 -0.000876 0.000000 0.030982
#
#
# Mechanical properties :
#
#
# Convention : Reuss Voigt Hill
#
# Bulk Modulus (GPa) = 27.70981 42.18295 34.94638
# Shear Modulus (GPa) = 23.24250 28.09141 25.66695
#
# Velocity S-wave (km/s) = 3.47875 3.82445 3.65569
# Velocity P-wave (km/s) = 5.52841 6.43936 6.00120
#
# Compressibility (1/GPa) = 0.03608831
#
# Stress axis : x y z
#
# Youngs Moduli (GPa) = 83.77825 47.73132 39.58220
#
# Poissons Ratio (x) = 0.29278 0.12262
# Poissons Ratio (y) = 0.51389 0.07122
# Poissons Ratio (z) = 0.25954 0.08589
#
# Static dielectric constant tensor:
#      x y z
#    x 1.680890 0.000000 -0.011040 
#    y 0.000000 1.640770 0.000000 
#    z -0.011040 0.000000 1.645340 
# 
# From -- ./inp_files/314189.got.cif
#   From: 2010.05.17/outbox.cif.g08.bks.cpg/sg12_158_cif.got.tgz:314189.got - 2010.06.03 13:09:07.
