data_PCOD9197448
_publ_section_title
;
Structure prediction by ZEFSAII (Michael W. Deem and Ramdas Pophale) SiO2 
 PCOD9197448
Probable space group: C 2/M
;
_chemical_formula_sum "Si O2"
_cell_formula_units_Z 58
_cell_length_a 28.701592
_cell_length_b 7.500080
_cell_length_c 24.874520
_cell_angle_alpha 90.000000
_cell_angle_beta 149.098918
_cell_angle_gamma 90.000000
_cell_volume 2749.891954
_symmetry_space_group_name_H-M "C 2/M"
_symmetry_group_IT_number 12
_symmetry_cell_setting 'monoclinic'
loop_
_space_group_symop_operation_xyz
x,y,z
-x,y,-z
-x,-y,-z
x,-y,z
1/2+x,1/2+y,z
1/2-x,1/2+y,-z
1/2-x,1/2-y,-z
1/2+x,1/2-y,z
loop_
_atom_site_type_symbol
_atom_site_label
_atom_site_fract_x
_atom_site_fract_y
_atom_site_fract_z
Si Si1 0.804374 0.287182 0.607948
Si Si2 0.539492 0.795396 0.714712
Si Si3 0.911901 0.779065 0.000006
Si Si4 0.795264 0.297528 0.188977
Si Si5 0.500000 0.000000 0.000000
Si Si6 0.106114 0.784203 0.604723
Si Si7 0.350828 0.289366 0.470014
Si Si8 0.511900 0.298712 0.808516
O O1 0.817121 0.500000 0.626239
O O2 0.750000 0.250000 0.500000
O O3 0.737039 0.216763 0.586967
O O4 0.903043 0.204714 0.703114
O O5 0.630377 0.713775 0.778101
O O6 0.444179 0.725496 0.596344
O O7 0.539348 0.788399 0.779086
O O8 0.538964 0.000000 0.696577
O O9 0.805656 0.727624 0.900905
O O10 0.919646 0.000000 0.999330
O O11 0.954568 0.732631 0.100593
O O12 0.958713 0.659173 0.000285
O O13 0.779841 0.500000 0.154396
O O14 0.844208 0.294287 0.295008
O O15 0.140871 0.718612 0.581745
O O16 0.000000 0.744111 0.500000
O O17 0.115635 0.000000 0.617490
O O18 0.335438 0.500000 0.449566
O O19 0.545990 0.500000 0.837650
#
# Coordination Sequence:
#
# PCOD9197448 Si02
#       8
#     8   8   8   8   2   8   8   8
#     4  11  22  36  59  90 130 170 221 272 328 404
#     4  11  22  36  64  96 131 172 221 270 332 407
#     4  10  26  50  73 105 140 174 230 287 338 405
#     4  10  23  43  64  95 136 175 217 283 342 401
#     4  12  26  48  84 102 130 188 230 278 352 396
#     4  10  20  35  59  91 128 170 222 273 323 401
#     4  10  21  37  55  86 128 173 215 266 334 393
#     4  11  24  43  66  93 134 178 218 282 343 394
#
# _framework density 21.091737999999999
#
# number of rings (size 3 to 8) (size 9 to 14) (size 15 to 20)
#    0.000    1.517    2.759    1.448    2.897    3.586 
#    2.483    1.379    0.000    0.000    0.000    0.000 
#    0.000    0.000    0.000    0.000    0.000    0.000 
#
# Total GULP energy -161541.438596 kJ/mol
# GULP energy per Si atom -5570.394434 kJ/mol
# Density = 2.104373 g / cm^3
# Si number density = 21.091738 Si / 1000 Ang^3
#
#
#
# Elastic Constant Matrix: (Units=GPa)
#
#
# Indices 1 2 3 4 5 6 
#
# 1 206.8846 22.4923 68.7074 0.0000 5.6466 0.0000
# 2 22.4923 73.0453 4.6137 -0.0001 0.1060 0.0000
# 3 68.7074 4.6137 121.3018 0.0000 1.0126 0.0000
# 4 0.0000 -0.0001 0.0000 13.7689 0.0000 -3.4055
# 5 5.6466 0.1060 1.0126 0.0000 16.0012 0.0000
# 6 0.0000 0.0000 0.0000 -3.4055 0.0000 19.5160
#
#
#
# Elastic Compliance Matrix: (Units=1/GPa)
#
#
# Indices 1 2 3 4 5 6 
#
# 1 0.006213 -0.001693 -0.003438 0.000000 -0.001964 0.000000
# 2 -0.001693 0.014185 0.000416 0.000000 0.000477 0.000000
# 3 -0.003438 0.000416 0.010171 0.000000 0.000567 0.000000
# 4 0.000000 0.000000 0.000000 0.075903 0.000000 0.013245
# 5 -0.001964 0.000477 0.000567 0.000000 0.063149 0.000000
# 6 0.000000 0.000000 0.000000 0.013245 0.000000 0.053551
#
#
# Mechanical properties :
#
#
# Convention : Reuss Voigt Hill
#
# Bulk Modulus (GPa) = 47.31136 65.87315 56.59226
# Shear Modulus (GPa) = 20.86372 30.21844 25.54108
#
# Velocity S-wave (km/s) = 3.14855 3.78923 3.48365
# Velocity P-wave (km/s) = 5.97476 7.10238 6.56284
#
# Compressibility (1/GPa) = 0.02113657
#
# Stress axis : x y z
#
# Youngs Moduli (GPa) = 160.94697 70.49917 98.31891
#
# Poissons Ratio (x) = 0.11937 0.33807
# Poissons Ratio (y) = 0.27251 -0.04086
# Poissons Ratio (z) = 0.55341 -0.02930
#
# Static dielectric constant tensor:
#      x y z
#    x 1.872980 0.000000 0.027340 
#    y 0.000000 1.793380 0.000000 
#    z 0.027340 0.000000 1.734010 
# 
# From -- ./inp_files/351396.got.cif
#   From: 2010.05.17/outbox.cif.g08.bks.cpg/sg12_176_cif.got.tgz:351396.got - 2010.06.03 13:09:07.
