data_PCOD9197815
_publ_section_title
;
Structure prediction by ZEFSAII (Michael W. Deem and Ramdas Pophale) SiO2 
 PCOD9197815
Probable space group: C 2/M
;
_chemical_formula_sum "Si O2"
_cell_formula_units_Z 64
_cell_length_a 17.377162
_cell_length_b 17.671456
_cell_length_c 22.863564
_cell_angle_alpha 90.000000
_cell_angle_beta 148.871008
_cell_angle_gamma 90.000000
_cell_volume 3629.589812
_symmetry_space_group_name_H-M "C 2/M"
_symmetry_group_IT_number 12
_symmetry_cell_setting 'monoclinic'
loop_
_space_group_symop_operation_xyz
x,y,z
-x,y,-z
-x,-y,-z
x,-y,z
1/2+x,1/2+y,z
1/2-x,1/2+y,-z
1/2-x,1/2-y,-z
1/2+x,1/2-y,z
loop_
_atom_site_type_symbol
_atom_site_label
_atom_site_fract_x
_atom_site_fract_y
_atom_site_fract_z
Si Si1 0.523240 0.591480 0.948740
Si Si2 0.096515 0.087192 0.434284
Si Si3 0.719012 0.317437 0.410018
Si Si4 0.749644 0.589738 0.311276
Si Si5 0.062306 0.329560 0.655152
Si Si6 0.619703 0.320201 0.629531
Si Si7 0.143230 0.409136 0.829587
Si Si8 0.845958 0.651307 0.679224
O O1 0.513176 0.500000 0.944148
O O2 0.390935 0.615158 0.820154
O O3 0.500000 0.618898 0.000000
O O4 0.691645 0.609919 0.040290
O O5 0.118692 0.140948 0.392781
O O6 0.240895 0.100128 0.569355
O O7 0.958105 0.114374 0.383525
O O8 0.085683 0.000000 0.410080
O O9 0.735796 0.367689 0.363104
O O10 0.661502 0.235373 0.353375
O O11 0.886901 0.312150 0.544163
O O12 0.744998 0.500000 0.316517
O O13 0.895421 0.612709 0.369349
O O14 0.137928 0.251589 0.683487
O O15 0.116891 0.366784 0.750664
O O16 0.500000 0.298620 0.500000
O O17 0.766875 0.343478 0.690670
O O18 0.135852 0.500000 0.815419
O O19 0.010643 0.381765 0.784821
#
# Coordination Sequence:
#
# PCOD9197815 Si02
#       8
#     8   8   8   8   8   8   8   8
#     4   9  18  36  54  78 111 144 182 224 275 319
#     4  11  22  34  52  77 109 146 188 223 261 323
#     4  12  22  36  52  81 117 146 176 221 276 333
#     4  11  22  34  56  80 110 149 181 222 269 329
#     4  12  19  34  54  80 116 146 176 208 279 334
#     4  10  20  36  52  73 107 152 183 214 269 324
#     4  11  22  34  58  86 110 143 185 230 269 318
#     4  11  21  36  54  78 110 150 181 223 273 321
#
# _framework density 17.632846000000001
#
# number of rings (size 3 to 8) (size 9 to 14) (size 15 to 20)
#    0.000    1.125    6.250    2.625    0.000    4.750 
#    0.000    0.625    0.000    0.000    0.000    0.000 
#    0.000    4.000    0.000    0.000    0.000    0.000 
#
# Total GULP energy -178714.232555 kJ/mol
# GULP energy per Si atom -5584.819767 kJ/mol
# Density = 1.759271 g / cm^3
# Si number density = 17.632846 Si / 1000 Ang^3
#
#
#
# Elastic Constant Matrix: (Units=GPa)
#
#
# Indices 1 2 3 4 5 6 
#
# 1 112.6833 16.9349 13.2823 -0.0020 18.2564 0.0001
# 2 16.9349 56.6841 7.8200 0.0074 7.6281 0.0010
# 3 13.2823 7.8200 31.6005 0.0087 14.9323 0.0024
# 4 -0.0020 0.0074 0.0087 12.1291 0.0027 6.7138
# 5 18.2564 7.6281 14.9323 0.0027 24.7771 0.0002
# 6 0.0001 0.0010 0.0024 6.7138 0.0002 27.8493
#
#
#
# Elastic Compliance Matrix: (Units=1/GPa)
#
#
# Indices 1 2 3 4 5 6 
#
# 1 0.010335 -0.002108 -0.000742 0.000006 -0.006519 -0.000001
# 2 -0.002108 0.018991 -0.002495 -0.000011 -0.002790 0.000002
# 3 -0.000742 -0.002495 0.044676 -0.000027 -0.025610 0.000003
# 4 0.000006 -0.000011 -0.000027 0.095142 0.000005 -0.022936
# 5 -0.006519 -0.002790 -0.025610 0.000005 0.061456 0.000001
# 6 -0.000001 0.000002 0.000003 -0.022936 0.000001 0.041437
#
#
# Mechanical properties :
#
#
# Convention : Reuss Voigt Hill
#
# Bulk Modulus (GPa) = 15.79500 30.78249 23.28875
# Shear Modulus (GPa) = 16.45651 23.81317 20.13484
#
# Velocity S-wave (km/s) = 3.05829 3.67890 3.38286
# Velocity P-wave (km/s) = 4.63120 5.96164 5.33803
#
# Compressibility (1/GPa) = 0.06331116
#
# Stress axis : x y z
#
# Youngs Moduli (GPa) = 96.76006 52.65631 22.38347
#
# Poissons Ratio (x) = 0.11100 0.01661
# Poissons Ratio (y) = 0.20397 0.05586
# Poissons Ratio (z) = 0.07178 0.13140
#
# Static dielectric constant tensor:
#      x y z
#    x 1.622500 0.000000 0.013870 
#    y 0.000000 1.600380 0.000000 
#    z 0.013870 0.000000 1.588080 
# 
# From -- ./inp_files/344374.got.cif
#   From: 2010.05.17/outbox.cif.g08.bks.cpg/sg12_173_cif.got.tgz:344374.got - 2010.06.03 13:09:07.
