data_PCOD9197392
_publ_section_title
;
Structure prediction by ZEFSAII (Michael W. Deem and Ramdas Pophale) SiO2 
 PCOD9197392
Probable space group: C 2/M
;
_chemical_formula_sum "Si O2"
_cell_formula_units_Z 48
_cell_length_a 11.833047
_cell_length_b 15.270806
_cell_length_c 19.493349
_cell_angle_alpha 90.000000
_cell_angle_beta 42.704018
_cell_angle_gamma 90.000000
_cell_volume 2388.966000
_symmetry_space_group_name_H-M "C 2/M"
_symmetry_group_IT_number 12
_symmetry_cell_setting 'monoclinic'
loop_
_space_group_symop_operation_xyz
x,y,z
-x,y,-z
-x,-y,-z
x,-y,z
1/2+x,1/2+y,z
1/2-x,1/2+y,-z
1/2-x,1/2-y,-z
1/2+x,1/2-y,z
loop_
_atom_site_type_symbol
_atom_site_label
_atom_site_fract_x
_atom_site_fract_y
_atom_site_fract_z
Si Si1 0.903548 0.656800 0.858118
Si Si2 0.927207 0.097336 0.928669
Si Si3 0.740053 0.396514 0.273837
Si Si4 0.977784 0.156251 0.759599
Si Si5 0.704621 0.099981 0.232548
Si Si6 0.660628 0.218863 0.381619
O O1 0.917560 0.752712 0.819724
O O2 0.897477 0.599320 0.791727
O O3 0.066304 0.627389 0.827327
O O4 0.735057 0.648316 0.975884
O O5 0.948354 0.093713 0.837379
O O6 0.108104 0.131517 0.871077
O O7 0.906005 0.000000 0.966811
O O8 0.725328 0.500000 0.298228
O O9 0.623237 0.375347 0.260858
O O10 0.692099 0.321850 0.351389
O O11 0.173878 0.174594 0.659497
O O12 0.639682 0.166778 0.318830
O O13 0.716523 0.000000 0.253654
O O14 0.500000 0.208330 0.500000
#
# Coordination Sequence:
#
# PCOD9197392 Si02
#       6
#     8   8   8   8   8   8
#     4  11  21  38  60  89 125 166 201 242 299 364
#     4  10  20  35  59  89 121 162 204 246 294 353
#     4  11  23  41  63  90 127 162 198 251 306 363
#     4  10  22  40  60  87 125 159 201 250 300 357
#     4  10  20  38  62  90 123 158 205 258 299 351
#     4  10  23  43  67  89 117 158 207 255 309 363
#
# _framework density 20.092375000000001
#
# number of rings (size 3 to 8) (size 9 to 14) (size 15 to 20)
#    0.000    1.667    1.667    3.000    0.000    4.000 
#    3.000    1.667    0.000    0.000    0.000    0.000 
#    0.000    0.000    0.000    0.000    0.000    0.000 
#
# Total GULP energy -133875.895315 kJ/mol
# GULP energy per Si atom -5578.162305 kJ/mol
# Density = 2.004664 g / cm^3
# Si number density = 20.092375 Si / 1000 Ang^3
#
#
#
# Elastic Constant Matrix: (Units=GPa)
#
#
# Indices 1 2 3 4 5 6 
#
# 1 110.2789 18.8975 29.8147 0.0000 -11.5935 0.0000
# 2 18.8975 128.5338 51.3425 -0.0001 -4.2520 0.0000
# 3 29.8147 51.3425 142.3679 -0.0004 -23.3156 0.0002
# 4 0.0000 -0.0001 -0.0004 11.0262 0.0001 0.1521
# 5 -11.5935 -4.2520 -23.3156 0.0001 11.1892 -0.0001
# 6 0.0000 0.0000 0.0002 0.1521 -0.0001 25.0880
#
#
#
# Elastic Compliance Matrix: (Units=1/GPa)
#
#
# Indices 1 2 3 4 5 6 
#
# 1 0.010352 -0.001147 -0.000105 0.000000 0.010071 0.000000
# 2 -0.001147 0.009414 -0.004195 0.000000 -0.006353 0.000000
# 3 -0.000105 -0.004195 0.012570 0.000000 0.024489 0.000000
# 4 0.000000 0.000000 0.000000 0.090700 -0.000001 -0.000550
# 5 0.010071 -0.006353 0.024489 -0.000001 0.148423 0.000000
# 6 0.000000 0.000000 0.000000 -0.000550 0.000000 0.039863
#
#
# Mechanical properties :
#
#
# Convention : Reuss Voigt Hill
#
# Bulk Modulus (GPa) = 46.63884 64.58777 55.61330
# Shear Modulus (GPa) = 15.18078 28.20239 21.69159
#
# Velocity S-wave (km/s) = 2.75171 3.75058 3.28928
# Velocity P-wave (km/s) = 5.77568 7.13940 6.49344
#
# Compressibility (1/GPa) = 0.02144136
#
# Stress axis : x y z
#
# Youngs Moduli (GPa) = 96.60367 106.22090 79.55692
#
# Poissons Ratio (x) = 0.12182 0.00834
# Poissons Ratio (y) = 0.11079 0.33377
# Poissons Ratio (z) = 0.01013 0.44564
#
# Static dielectric constant tensor:
#      x y z
#    x 1.757870 0.000000 -0.011640 
#    y 0.000000 1.812480 0.000000 
#    z -0.011640 0.000000 1.674530 
# 
# From -- ./inp_files/131781.got.cif
#   From: 2010.05.17/outbox.cif.g08.bks.cpg/sg12_66_cif.got.tgz:131781.got - 2010.06.03 13:09:07.
