data_PCOD9197732
_publ_section_title
;
Structure prediction by ZEFSAII (Michael W. Deem and Ramdas Pophale) SiO2 
 PCOD9197732
Probable space group: C 2/M
;
_chemical_formula_sum "Si O2"
_cell_formula_units_Z 64
_cell_length_a 15.168556
_cell_length_b 18.447449
_cell_length_c 13.864073
_cell_angle_alpha 90.000000
_cell_angle_beta 125.816999
_cell_angle_gamma 90.000000
_cell_volume 3145.817062
_symmetry_space_group_name_H-M "C 2/M"
_symmetry_group_IT_number 12
_symmetry_cell_setting 'monoclinic'
loop_
_space_group_symop_operation_xyz
x,y,z
-x,y,-z
-x,-y,-z
x,-y,z
1/2+x,1/2+y,z
1/2-x,1/2+y,-z
1/2-x,1/2-y,-z
1/2+x,1/2-y,z
loop_
_atom_site_type_symbol
_atom_site_label
_atom_site_fract_x
_atom_site_fract_y
_atom_site_fract_z
Si Si1 0.308912 0.585994 0.621085
Si Si2 0.106078 0.423763 0.005033
Si Si3 0.095429 0.580910 0.777564
Si Si4 0.378522 0.416809 0.441714
Si Si5 0.324715 0.773421 0.136798
Si Si6 0.780108 0.680791 0.780592
Si Si7 0.422041 0.834711 0.540395
Si Si8 0.425158 0.266402 0.721340
O O1 0.312758 0.500000 0.655784
O O2 0.342118 0.584166 0.529458
O O3 0.188564 0.621981 0.557118
O O4 0.390742 0.649355 0.711646
O O5 0.169748 0.500000 0.052263
O O6 0.063272 0.418914 0.869305
O O7 0.170125 0.358720 0.093851
O O8 0.000000 0.428319 0.000000
O O9 0.127307 0.500000 0.769033
O O10 0.187369 0.641840 0.843950
O O11 0.997302 0.610479 0.650854
O O12 0.500000 0.386943 0.500000
O O13 0.381035 0.500000 0.409953
O O14 0.287878 0.375185 0.324811
O O15 0.300887 0.736868 0.223265
O O16 0.447146 0.750459 0.188107
O O17 0.250000 0.750000 0.000000
O O18 0.864410 0.720362 0.764788
O O19 0.500000 0.814316 0.500000
O O20 0.395150 0.767511 0.595741
#
# Coordination Sequence:
#
# PCOD9197732 Si02
#       8
#     8   8   8   8   8   8   8   8
#     4  11  24  43  63  95 137 177 222 271 327 402
#     4  10  20  35  62  96 127 158 206 273 337 392
#     4  10  22  41  61  93 130 164 213 274 327 392
#     4  10  22  40  64  96 133 173 216 271 334 398
#     4  11  24  43  65  95 130 169 220 270 329 393
#     4  12  23  40  69  91 132 174 218 272 331 392
#     4  11  24  42  70  97 133 174 223 278 330 397
#     4  11  26  43  65 101 129 173 226 273 330 398
#
# _framework density 20.344476
#
# number of rings (size 3 to 8) (size 9 to 14) (size 15 to 20)
#    0.000    1.250    2.500    3.375    3.500    1.500 
#    0.000    1.250    0.000    0.000    0.000    1.750 
#    0.000    0.000    0.000    0.000    0.000    0.000 
#
# Total GULP energy -178441.435668 kJ/mol
# GULP energy per Si atom -5576.294865 kJ/mol
# Density = 2.029817 g / cm^3
# Si number density = 20.344476 Si / 1000 Ang^3
#
#
#
# Elastic Constant Matrix: (Units=GPa)
#
#
# Indices 1 2 3 4 5 6 
#
# 1 103.6880 21.1642 23.5781 0.0000 7.0440 0.0000
# 2 21.1642 131.5479 33.0914 0.0000 7.8874 0.0000
# 3 23.5781 33.0914 65.3863 0.0000 8.0001 0.0000
# 4 0.0000 0.0000 0.0000 17.8202 0.0000 3.4918
# 5 7.0440 7.8874 8.0001 0.0000 28.7399 0.0000
# 6 0.0000 0.0000 0.0000 3.4918 0.0000 20.4552
#
#
#
# Elastic Compliance Matrix: (Units=1/GPa)
#
#
# Indices 1 2 3 4 5 6 
#
# 1 0.010649 -0.000807 -0.003250 0.000000 -0.001484 0.000000
# 2 -0.000807 0.008812 -0.004035 0.000000 -0.001098 0.000000
# 3 -0.003250 -0.004035 0.018919 0.000000 -0.003362 0.000000
# 4 0.000000 0.000000 0.000000 0.058058 0.000000 -0.009911
# 5 -0.001484 -0.001098 -0.003362 0.000000 0.036396 0.000000
# 6 0.000000 0.000000 0.000000 -0.009911 0.000000 0.050579
#
#
# Mechanical properties :
#
#
# Convention : Reuss Voigt Hill
#
# Bulk Modulus (GPa) = 45.05063 50.69883 47.87473
# Shear Modulus (GPa) = 24.15516 28.25563 26.20539
#
# Velocity S-wave (km/s) = 3.44947 3.73078 3.59288
# Velocity P-wave (km/s) = 6.16905 6.59793 6.38709
#
# Compressibility (1/GPa) = 0.02219725
#
# Stress axis : x y z
#
# Youngs Moduli (GPa) = 93.90693 113.47743 52.85692
#
# Poissons Ratio (x) = 0.09154 0.17179
# Poissons Ratio (y) = 0.07575 0.21326
# Poissons Ratio (z) = 0.30521 0.45784
#
# Static dielectric constant tensor:
#      x y z
#    x 1.674590 0.000000 0.009360 
#    y 0.000000 1.929000 0.000000 
#    z 0.009360 0.000000 1.692630 
# 
# From -- ./inp_files/216824.got.cif
#   From: 2010.05.17/outbox.cif.g08.bks.cpg/sg12_109_cif.got.tgz:216824.got - 2010.06.03 13:09:07.
