data_PCOD9197338
_publ_section_title
;
Structure prediction by ZEFSAII (Michael W. Deem and Ramdas Pophale) SiO2 
 PCOD9197338
Probable space group: C 2/M
;
_chemical_formula_sum "Si O2"
_cell_formula_units_Z 64
_cell_length_a 34.437333
_cell_length_b 14.705271
_cell_length_c 9.178287
_cell_angle_alpha 90.000000
_cell_angle_beta 47.901938
_cell_angle_gamma 90.000000
_cell_volume 3448.793678
_symmetry_space_group_name_H-M "C 2/M"
_symmetry_group_IT_number 12
_symmetry_cell_setting 'monoclinic'
loop_
_space_group_symop_operation_xyz
x,y,z
-x,y,-z
-x,-y,-z
x,-y,z
1/2+x,1/2+y,z
1/2-x,1/2+y,-z
1/2-x,1/2-y,-z
1/2+x,1/2-y,z
loop_
_atom_site_type_symbol
_atom_site_label
_atom_site_fract_x
_atom_site_fract_y
_atom_site_fract_z
Si Si1 0.273751 0.898767 0.186461
Si Si2 0.844825 0.600574 0.720047
Si Si3 0.829174 0.777874 0.575664
Si Si4 0.983389 0.892374 0.878798
Si Si5 0.810204 0.730140 0.308958
Si Si6 0.438567 0.896032 0.685028
Si Si7 0.090514 0.108045 0.434463
Si Si8 0.601437 0.291619 0.096414
O O1 0.226290 0.829510 0.281387
O O2 0.306209 0.869207 0.247410
O O3 0.252447 0.000000 0.256728
O O4 0.311677 0.896070 0.952574
O O5 0.837554 0.500000 0.673296
O O6 0.827433 0.683375 0.665701
O O7 0.904777 0.611233 0.621342
O O8 0.841088 0.751060 0.378883
O O9 0.870687 0.843268 0.549498
O O10 0.032312 0.881223 0.645983
O O11 0.934914 0.840154 0.930866
O O12 0.971058 0.000000 0.918506
O O13 0.000000 0.862923 0.000000
O O14 0.750000 0.750000 0.500000
O O15 0.838890 0.788294 0.111227
O O16 0.500000 0.885867 0.500000
O O17 0.418531 0.812096 0.832034
O O18 0.429258 0.000000 0.763287
O O19 0.096242 0.156709 0.263585
O O20 0.101272 0.000000 0.395096
#
# Coordination Sequence:
#
# PCOD9197338 Si02
#       8
#     8   8   8   8   8   8   8   8
#     4  10  20  38  60  82 112 156 199 241 299 362
#     4  10  20  36  60  85 115 152 197 249 301 354
#     4  11  21  37  57  86 121 151 194 247 301 358
#     4  10  22  39  60  90 129 165 198 241 301 363
#     4  10  23  39  57  81 115 158 202 249 299 354
#     4  10  20  35  59  88 115 148 194 242 292 349
#     4  11  22  37  60  92 125 159 200 248 298 360
#     4  12  21  38  62  87 115 162 207 247 296 359
#
# _framework density 18.557213999999998
#
# number of rings (size 3 to 8) (size 9 to 14) (size 15 to 20)
#    0.000    1.500    2.500    3.000    0.000    2.500 
#    0.000    5.625    0.000    1.125    0.000    0.000 
#    0.000    0.000    0.000    0.000    0.000    0.000 
#
# Total GULP energy -178459.157828 kJ/mol
# GULP energy per Si atom -5576.848682 kJ/mol
# Density = 1.851498 g / cm^3
# Si number density = 18.557214 Si / 1000 Ang^3
#
#
#
# Elastic Constant Matrix: (Units=GPa)
#
#
# Indices 1 2 3 4 5 6 
#
# 1 90.7387 56.5904 29.7517 0.0000 0.2241 0.0000
# 2 56.5904 127.8310 50.7408 0.0000 1.6186 0.0000
# 3 29.7517 50.7408 86.2480 0.0000 2.1941 0.0000
# 4 0.0000 0.0000 0.0000 14.9547 0.0000 -2.8682
# 5 0.2241 1.6186 2.1941 0.0000 28.2324 0.0000
# 6 0.0000 0.0000 0.0000 -2.8682 0.0000 37.3229
#
#
#
# Elastic Compliance Matrix: (Units=1/GPa)
#
#
# Indices 1 2 3 4 5 6 
#
# 1 0.015416 -0.006151 -0.001708 0.000000 0.000363 0.000000
# 2 -0.006151 0.012661 -0.005320 0.000000 -0.000264 0.000000
# 3 -0.001708 -0.005320 0.015336 0.000000 -0.000873 0.000000
# 4 0.000000 0.000000 0.000000 0.067869 0.000000 0.005216
# 5 0.000363 -0.000264 -0.000873 0.000000 0.035500 0.000000
# 6 0.000000 0.000000 0.000000 0.005216 0.000000 0.027194
#
#
# Mechanical properties :
#
#
# Convention : Reuss Voigt Hill
#
# Bulk Modulus (GPa) = 58.63753 64.33149 61.48451
# Shear Modulus (GPa) = 24.26949 27.28430 25.77690
#
# Velocity S-wave (km/s) = 3.62030 3.83858 3.73104
# Velocity P-wave (km/s) = 7.01016 7.37483 7.19480
#
# Compressibility (1/GPa) = 0.01705392
#
# Stress axis : x y z
#
# Youngs Moduli (GPa) = 64.86703 78.98271 65.20680
#
# Poissons Ratio (x) = 0.48584 0.11139
# Poissons Ratio (y) = 0.39901 0.34690
# Poissons Ratio (z) = 0.11081 0.42019
#
# Static dielectric constant tensor:
#      x y z
#    x 1.653230 0.000000 -0.010780 
#    y 0.000000 1.646470 0.000000 
#    z -0.010780 0.000000 1.652220 
# 
# From -- ./inp_files/111626.got.cif
#   From: 2010.05.17/outbox.cif.g08.bks.cpg/sg12_56_cif.got.tgz:111626.got - 2010.06.03 13:09:07.
