data_PCOD9197487
_publ_section_title
;
Structure prediction by ZEFSAII (Michael W. Deem and Ramdas Pophale) SiO2 
 PCOD9197487
Probable space group: C 2/M
;
_chemical_formula_sum "Si O2"
_cell_formula_units_Z 48
_cell_length_a 9.315198
_cell_length_b 23.790570
_cell_length_c 11.752075
_cell_angle_alpha 90.000000
_cell_angle_beta 78.297850
_cell_angle_gamma 90.000000
_cell_volume 2550.290416
_symmetry_space_group_name_H-M "C 2/M"
_symmetry_group_IT_number 12
_symmetry_cell_setting 'monoclinic'
loop_
_space_group_symop_operation_xyz
x,y,z
-x,y,-z
-x,-y,-z
x,-y,z
1/2+x,1/2+y,z
1/2-x,1/2+y,-z
1/2-x,1/2-y,-z
1/2+x,1/2-y,z
loop_
_atom_site_type_symbol
_atom_site_label
_atom_site_fract_x
_atom_site_fract_y
_atom_site_fract_z
Si Si1 0.398887 0.116597 0.270993
Si Si2 0.634736 0.000000 0.811192
Si Si3 0.549962 0.713043 0.817820
Si Si4 0.710156 0.812019 0.919702
Si Si5 0.726240 0.878006 0.150029
Si Si6 0.117743 0.281990 0.579031
Si Si7 0.209212 0.500000 0.057674
O O1 0.342834 0.053815 0.270970
O O2 0.349045 0.142559 0.159265
O O3 0.576300 0.118000 0.245935
O O4 0.339219 0.157698 0.376644
O O5 0.463741 0.000000 0.879703
O O6 0.719894 0.000000 0.918277
O O7 0.623768 0.755795 0.896982
O O8 0.382115 0.699305 0.872071
O O9 0.646184 0.656152 0.806782
O O10 0.560209 0.745344 0.695606
O O11 0.687807 0.839028 0.046697
O O12 0.767401 0.940735 0.099325
O O13 0.250000 0.250000 0.500000
O O14 0.000000 0.289628 0.500000
#
# Coordination Sequence:
#
# PCOD9197487 Si02
#       7
#     8   4   8   8   8   8   4
#     4  10  20  35  60  84 109 148 187 228 275 336
#     4   9  16  34  56  86 115 145 188 217 273 335
#     4  11  23  36  54  81 109 149 188 232 283 333
#     4  11  21  35  52  82 118 150 177 221 276 343
#     4  11  20  35  55  84 119 148 181 214 272 342
#     4  11  22  39  57  77 106 142 191 244 292 323
#     4   9  18  32  56  83 118 159 175 215 266 336
#
# _framework density 18.821386
#
# number of rings (size 3 to 8) (size 9 to 14) (size 15 to 20)
#    0.000    1.500    1.667    6.500    0.000    2.667 
#    0.000    2.917    0.000    1.000    0.000    2.333 
#    0.000    0.000    0.000    0.000    0.000    0.000 
#
# Total GULP energy -134037.401330 kJ/mol
# GULP energy per Si atom -5584.891722 kJ/mol
# Density = 1.877855 g / cm^3
# Si number density = 18.821386 Si / 1000 Ang^3
#
#
#
# Elastic Constant Matrix: (Units=GPa)
#
#
# Indices 1 2 3 4 5 6 
#
# 1 51.2021 21.3052 -6.5989 0.0000 -0.1522 0.0000
# 2 21.3052 150.1887 32.7028 0.0000 2.8615 0.0000
# 3 -6.5989 32.7028 65.1553 0.0000 7.1146 0.0000
# 4 0.0000 0.0000 0.0000 26.9047 0.0000 2.3504
# 5 -0.1522 2.8615 7.1146 0.0000 29.6470 0.0000
# 6 0.0000 0.0000 0.0000 2.3504 0.0000 19.7983
#
#
#
# Elastic Compliance Matrix: (Units=1/GPa)
#
#
# Indices 1 2 3 4 5 6 
#
# 1 0.021745 -0.004004 0.004270 0.000000 -0.000527 0.000000
# 2 -0.004004 0.008214 -0.004559 0.000000 0.000281 0.000000
# 3 0.004270 -0.004559 0.018503 0.000000 -0.003978 0.000000
# 4 0.000000 0.000000 0.000000 0.037558 0.000000 -0.004459
# 5 -0.000527 0.000281 -0.003978 0.000000 0.034655 0.000000
# 6 0.000000 0.000000 0.000000 -0.004459 0.000000 0.051039
#
#
# Mechanical properties :
#
#
# Convention : Reuss Voigt Hill
#
# Bulk Modulus (GPa) = 25.07834 40.15160 32.61497
# Shear Modulus (GPa) = 25.82750 29.87914 27.85332
#
# Velocity S-wave (km/s) = 3.70840 3.98868 3.85109
# Velocity P-wave (km/s) = 5.62935 6.52626 6.09433
#
# Compressibility (1/GPa) = 0.03987505
#
# Stress axis : x y z
#
# Youngs Moduli (GPa) = 45.98678 121.74845 54.04533
#
# Poissons Ratio (x) = 0.48753 -0.23076
# Poissons Ratio (y) = 0.18415 0.24638
# Poissons Ratio (z) = -0.19635 0.55503
#
# Static dielectric constant tensor:
#      x y z
#    x 1.633980 0.000000 -0.008090 
#    y 0.000000 1.693520 0.000000 
#    z -0.008090 0.000000 1.645630 
# 
# From -- ./inp_files/122470.got.cif
#   From: 2010.05.17/outbox.cif.g08.bks.cpg/sg12_62_cif.got.tgz:122470.got - 2010.06.03 13:09:07.
