data_PCOD9197740
_publ_section_title
;
Structure prediction by ZEFSAII (Michael W. Deem and Ramdas Pophale) SiO2 
 PCOD9197740
Probable space group: C 2/M
;
_chemical_formula_sum "Si O2"
_cell_formula_units_Z 48
_cell_length_a 21.324096
_cell_length_b 24.282942
_cell_length_c 9.610845
_cell_angle_alpha 90.000000
_cell_angle_beta 28.073164
_cell_angle_gamma 90.000000
_cell_volume 2341.985451
_symmetry_space_group_name_H-M "C 2/M"
_symmetry_group_IT_number 12
_symmetry_cell_setting 'monoclinic'
loop_
_space_group_symop_operation_xyz
x,y,z
-x,y,-z
-x,-y,-z
x,-y,z
1/2+x,1/2+y,z
1/2-x,1/2+y,-z
1/2-x,1/2-y,-z
1/2+x,1/2-y,z
loop_
_atom_site_type_symbol
_atom_site_label
_atom_site_fract_x
_atom_site_fract_y
_atom_site_fract_z
Si Si1 0.618278 0.747518 0.661945
Si Si2 0.866746 0.061994 0.586183
Si Si3 0.347668 0.061280 0.750505
Si Si4 0.160419 0.937899 0.677484
Si Si5 0.503849 0.323967 0.331261
Si Si6 0.774029 0.350430 0.667702
O O1 0.750000 0.750000 0.500000
O O2 0.601927 0.704916 0.565666
O O3 0.615136 0.807863 0.599648
O O4 0.500000 0.735951 0.000000
O O5 0.805573 0.066107 0.551790
O O6 0.973130 0.110565 0.391905
O O7 0.924719 0.000000 0.484921
O O8 0.753135 0.068877 0.923561
O O9 0.500000 0.062800 0.500000
O O10 0.324014 0.108395 0.686588
O O11 0.320882 0.000000 0.745246
O O12 0.222685 0.888770 0.642900
O O13 0.195628 0.000000 0.657014
O O14 0.000000 0.933303 0.000000
O O15 0.500000 0.305081 0.500000
O O16 0.649110 0.317186 0.978216
#
# Coordination Sequence:
#
# PCOD9197740 Si02
#       6
#     8   8   8   8   8   8
#     4  12  28  50  72  97 136 188 234 290 349 409
#     4  10  21  38  66 101 138 173 214 275 346 408
#     4  10  23  43  65  96 139 181 221 273 345 419
#     4  10  20  35  63 101 136 170 217 278 339 411
#     4  12  25  44  68 103 136 174 229 292 342 412
#     4  12  24  42  69  98 132 177 229 283 342 407
#
# _framework density 20.495432000000001
#
# number of rings (size 3 to 8) (size 9 to 14) (size 15 to 20)
#    0.000    1.000    5.000    1.500    0.000    5.000 
#    0.000    0.000    0.000    5.000    0.000    0.000 
#    0.000    0.000    0.000    0.000    0.000    0.000 
#
# Total GULP energy -134135.794405 kJ/mol
# GULP energy per Si atom -5588.991434 kJ/mol
# Density = 2.044878 g / cm^3
# Si number density = 20.495432 Si / 1000 Ang^3
#
#
#
# Elastic Constant Matrix: (Units=GPa)
#
#
# Indices 1 2 3 4 5 6 
#
# 1 119.1517 44.8038 27.0676 -0.0017 25.0693 -0.0002
# 2 44.8038 89.8236 9.6462 -0.0025 19.1068 0.0005
# 3 27.0676 9.6462 29.7071 -0.0011 13.1680 -0.0011
# 4 -0.0017 -0.0025 -0.0011 29.1968 0.0013 5.5824
# 5 25.0693 19.1068 13.1680 0.0013 32.1880 0.0002
# 6 -0.0002 0.0005 -0.0011 5.5824 0.0002 40.7360
#
#
#
# Elastic Compliance Matrix: (Units=1/GPa)
#
#
# Indices 1 2 3 4 5 6 
#
# 1 0.012900 -0.004719 -0.008562 0.000000 -0.003743 0.000000
# 2 -0.004719 0.014490 0.002172 0.000001 -0.005815 0.000000
# 3 -0.008562 0.002172 0.046874 0.000002 -0.013796 0.000001
# 4 0.000000 0.000001 0.000002 0.035172 -0.000003 -0.004820
# 5 -0.003743 -0.005815 -0.013796 -0.000003 0.043078 0.000000
# 6 0.000000 0.000000 0.000001 -0.004820 0.000000 0.025209
#
#
# Mechanical properties :
#
#
# Convention : Reuss Voigt Hill
#
# Bulk Modulus (GPa) = 19.21398 44.63527 31.92462
# Shear Modulus (GPa) = 23.01084 30.90183 26.95634
#
# Velocity S-wave (km/s) = 3.35435 3.88718 3.63055
# Velocity P-wave (km/s) = 4.93937 6.47860 5.76063
#
# Compressibility (1/GPa) = 0.05204544
#
# Stress axis : x y z
#
# Youngs Moduli (GPa) = 77.52235 69.01204 21.33395
#
# Poissons Ratio (x) = 0.32564 0.18266
# Poissons Ratio (y) = 0.36579 -0.04633
# Poissons Ratio (z) = 0.66375 -0.14987
#
# Static dielectric constant tensor:
#      x y z
#    x 1.747050 0.000000 0.019820 
#    y 0.000000 1.747880 0.000000 
#    z 0.019820 0.000000 1.735460 
# 
# From -- ./inp_files/91190.got.cif
#   From: 2010.05.17/outbox.cif.g08.bks.cpg/sg12_46_cif.got.tgz:91190.got - 2010.06.03 13:09:07.
