data_PCOD9197039
_publ_section_title
;
Structure prediction by ZEFSAII (Michael W. Deem and Ramdas Pophale) SiO2 
 PCOD9197039
Probable space group: C 2/M
;
_chemical_formula_sum "Si O2"
_cell_formula_units_Z 40
_cell_length_a 8.531466
_cell_length_b 27.949908
_cell_length_c 10.913722
_cell_angle_alpha 90.000000
_cell_angle_beta 48.371761
_cell_angle_gamma 90.000000
_cell_volume 1945.230861
_symmetry_space_group_name_H-M "C 2/M"
_symmetry_group_IT_number 12
_symmetry_cell_setting 'monoclinic'
loop_
_space_group_symop_operation_xyz
x,y,z
-x,y,-z
-x,-y,-z
x,-y,z
1/2+x,1/2+y,z
1/2-x,1/2+y,-z
1/2-x,1/2-y,-z
1/2+x,1/2-y,z
loop_
_atom_site_type_symbol
_atom_site_label
_atom_site_fract_x
_atom_site_fract_y
_atom_site_fract_z
Si Si1 0.096534 0.199426 0.814820
Si Si2 0.880989 0.602661 0.192082
Si Si3 0.631899 0.000000 0.307173
Si Si4 0.765100 0.000000 0.673547
Si Si5 0.349981 0.102327 0.696682
Si Si6 0.227390 0.297064 0.813374
O O1 0.213121 0.149064 0.744710
O O2 0.232832 0.247918 0.734245
O O3 0.907788 0.204242 0.819275
O O4 0.000000 0.198934 0.000000
O O5 0.758886 0.552219 0.252366
O O6 0.752835 0.652280 0.264993
O O7 0.028236 0.605777 0.236468
O O8 0.000000 0.603605 0.000000
O O9 0.500000 0.000000 0.500000
O O10 0.442504 0.000000 0.306218
O O11 0.757244 0.950222 0.238602
O O12 0.000000 0.000000 0.500000
O O13 0.500000 0.099916 0.500000
O O14 0.000000 0.297479 0.000000
#
# Coordination Sequence:
#
# PCOD9197039 Si02
#       6
#     8   8   4   4   8   8
#     4  11  20  36  60  86 115 155 198 240 290 350
#     4  10  20  38  59  84 117 156 196 238 283 344
#     4   8  18  37  57  75 114 157 186 225 286 348
#     4  10  21  35  58  89 119 151 191 241 296 342
#     4  10  21  39  60  86 119 156 193 242 296 344
#     4  10  20  35  58  86 116 152 194 242 290 344
#
# _framework density 20.563110999999999
#
# number of rings (size 3 to 8) (size 9 to 14) (size 15 to 20)
#    0.000    2.000    0.000    6.300    0.000    4.800 
#    0.000    5.500    0.000    0.000    0.000    0.000 
#    0.000    0.000    0.000    0.000    0.000    0.000 
#
# Total GULP energy -111377.374884 kJ/mol
# GULP energy per Si atom -5568.868744 kJ/mol
# Density = 2.051631 g / cm^3
# Si number density = 20.563111 Si / 1000 Ang^3
#
#
#
# Elastic Constant Matrix: (Units=GPa)
#
#
# Indices 1 2 3 4 5 6 
#
# 1 124.5306 75.8755 20.6061 0.0000 8.1925 0.0000
# 2 75.8755 274.9048 34.4897 0.0000 -16.5977 0.0000
# 3 20.6061 34.4897 42.5893 0.0000 5.6938 0.0000
# 4 0.0000 0.0000 0.0000 23.5075 0.0000 -3.6762
# 5 8.1925 -16.5977 5.6938 0.0000 22.9869 0.0000
# 6 0.0000 0.0000 0.0000 -3.6762 0.0000 49.7993
#
#
#
# Elastic Compliance Matrix: (Units=1/GPa)
#
#
# Indices 1 2 3 4 5 6 
#
# 1 0.010532 -0.002990 -0.001948 0.000000 -0.005430 0.000000
# 2 -0.002990 0.005259 -0.003581 0.000000 0.005750 0.000000
# 3 -0.001948 -0.003581 0.028520 0.000000 -0.008956 0.000000
# 4 0.000000 0.000000 0.000000 0.043036 0.000000 0.003177
# 5 -0.005430 0.005750 -0.008956 0.000000 0.051809 0.000000
# 6 0.000000 0.000000 0.000000 0.003177 0.000000 0.020315
#
#
# Mechanical properties :
#
#
# Convention : Reuss Voigt Hill
#
# Bulk Modulus (GPa) = 36.66739 78.21859 57.44299
# Shear Modulus (GPa) = 26.93950 39.99564 33.46757
#
# Velocity S-wave (km/s) = 3.62344 4.41502 4.03867
# Velocity P-wave (km/s) = 5.94778 8.00692 7.05290
#
# Compressibility (1/GPa) = 0.02727219
#
# Stress axis : x y z
#
# Youngs Moduli (GPa) = 94.95182 190.13460 35.06301
#
# Poissons Ratio (x) = 0.56855 0.06830
# Poissons Ratio (y) = 0.28393 0.12557
# Poissons Ratio (z) = 0.18497 0.68091
#
# Static dielectric constant tensor:
#      x y z
#    x 1.736770 0.000000 0.004480 
#    y 0.000000 1.858090 0.000000 
#    z 0.004480 0.000000 1.751870 
# 
# From -- ./inp_files/123423.got.cif
#   From: 2010.05.17/outbox.cif.g08.bks.cpg/sg12_62_cif.got.tgz:123423.got - 2010.06.03 13:09:07.
