data_PCOD9197467
_publ_section_title
;
Structure prediction by ZEFSAII (Michael W. Deem and Ramdas Pophale) SiO2 
 PCOD9197467
Probable space group: C 2/M
;
_chemical_formula_sum "Si O2"
_cell_formula_units_Z 36
_cell_length_a 5.062824
_cell_length_b 34.495057
_cell_length_c 11.286352
_cell_angle_alpha 90.000000
_cell_angle_beta 72.068235
_cell_angle_gamma 90.000000
_cell_volume 1875.328379
_symmetry_space_group_name_H-M "C 2/M"
_symmetry_group_IT_number 12
_symmetry_cell_setting 'monoclinic'
loop_
_space_group_symop_operation_xyz
x,y,z
-x,y,-z
-x,-y,-z
x,-y,z
1/2+x,1/2+y,z
1/2-x,1/2+y,-z
1/2-x,1/2-y,-z
1/2+x,1/2-y,z
loop_
_atom_site_type_symbol
_atom_site_label
_atom_site_fract_x
_atom_site_fract_y
_atom_site_fract_z
Si Si1 0.000000 0.830261 0.500000
Si Si2 0.006370 0.154802 0.858536
Si Si3 0.661002 0.724584 0.688353
Si Si4 0.604559 0.878580 0.727190
Si Si5 0.185329 0.544452 0.588839
O O1 0.349675 0.697016 0.424753
O O2 0.220495 0.856536 0.399286
O O3 0.025173 0.199142 0.811379
O O4 0.287493 0.134872 0.771516
O O5 0.748369 0.134552 0.829397
O O6 0.000000 0.152114 0.000000
O O7 0.463065 0.760794 0.684292
O O8 0.630812 0.923974 0.696638
O O9 0.500000 0.546622 0.500000
O O10 0.126415 0.500000 0.632756
O O11 0.000000 0.554046 0.500000
#
# Coordination Sequence:
#
# PCOD9197467 Si02
#       5
#     4   8   8   8   8
#     4  10  22  36  59  90 118 150 184 242 303 374
#     4  11  25  42  60  83 112 160 210 244 286 338
#     4  11  23  38  57  83 114 151 190 247 304 352
#     4  11  22  38  63  88 121 155 191 243 290 351
#     4  10  20  35  59  94 130 155 181 228 292 356
#
# _framework density 19.196636999999999
#
# number of rings (size 3 to 8) (size 9 to 14) (size 15 to 20)
#    0.000    1.333    1.111    5.333    3.111    4.444 
#    0.000    0.000    0.000    4.000    0.000    0.000 
#    0.000    0.000    0.000    0.000    0.000    0.000 
#
# Total GULP energy -100713.779113 kJ/mol
# GULP energy per Si atom -5595.209951 kJ/mol
# Density = 1.915294 g / cm^3
# Si number density = 19.196637 Si / 1000 Ang^3
#
#
#
# Elastic Constant Matrix: (Units=GPa)
#
#
# Indices 1 2 3 4 5 6 
#
# 1 69.0786 -5.4722 -15.6675 0.0000 0.9939 0.0000
# 2 -5.4722 78.6505 24.1788 0.0000 11.1098 0.0000
# 3 -15.6675 24.1788 52.7226 0.0000 10.0270 0.0000
# 4 0.0000 0.0000 0.0000 10.7344 0.0000 -1.1655
# 5 0.9939 11.1098 10.0270 0.0000 26.3620 0.0000
# 6 0.0000 0.0000 0.0000 -1.1655 0.0000 25.6592
#
#
#
# Elastic Compliance Matrix: (Units=1/GPa)
#
#
# Indices 1 2 3 4 5 6 
#
# 1 0.015681 -0.000156 0.005208 0.000000 -0.002506 0.000000
# 2 -0.000156 0.015193 -0.006249 0.000000 -0.004020 0.000000
# 3 0.005208 -0.006249 0.024704 0.000000 -0.006959 0.000000
# 4 0.000000 0.000000 0.000000 0.093620 0.000000 0.004252
# 5 -0.002506 -0.004020 -0.006959 0.000000 0.042369 0.000000
# 6 0.000000 0.000000 0.000000 0.004252 0.000000 0.039166
#
#
# Mechanical properties :
#
#
# Convention : Reuss Voigt Hill
#
# Bulk Modulus (GPa) = 18.80264 22.94776 20.87520
# Shear Modulus (GPa) = 19.93183 25.71196 22.82190
#
# Velocity S-wave (km/s) = 3.22576 3.66375 3.45171
# Velocity P-wave (km/s) = 4.86724 5.46602 5.17530
#
# Compressibility (1/GPa) = 0.05318402
#
# Stress axis : x y z
#
# Youngs Moduli (GPa) = 63.77054 65.82157 40.47875
#
# Poissons Ratio (x) = 0.01027 -0.21082
# Poissons Ratio (y) = 0.00995 0.25296
# Poissons Ratio (z) = -0.33213 0.41133
#
# Static dielectric constant tensor:
#      x y z
#    x 1.653910 0.000000 0.003480 
#    y 0.000000 1.679960 0.000000 
#    z 0.003480 0.000000 1.652190 
# 
# From -- ./inp_files/115820.got.cif
#   From: 2010.05.17/outbox.cif.g08.bks.cpg/sg12_58_cif.got.tgz:115820.got - 2010.06.03 13:09:07.
