data_PCOD9197153
_publ_section_title
;
Structure prediction by ZEFSAII (Michael W. Deem and Ramdas Pophale) SiO2 
 PCOD9197153
Probable space group: C 2/M
;
_chemical_formula_sum "Si O2"
_cell_formula_units_Z 48
_cell_length_a 22.951621
_cell_length_b 9.641042
_cell_length_c 19.909612
_cell_angle_alpha 90.000000
_cell_angle_beta 27.633271
_cell_angle_gamma 90.000000
_cell_volume 2043.340638
_symmetry_space_group_name_H-M "C 2/M"
_symmetry_group_IT_number 12
_symmetry_cell_setting 'monoclinic'
loop_
_space_group_symop_operation_xyz
x,y,z
-x,y,-z
-x,-y,-z
x,-y,z
1/2+x,1/2+y,z
1/2-x,1/2+y,-z
1/2-x,1/2-y,-z
1/2+x,1/2-y,z
loop_
_atom_site_type_symbol
_atom_site_label
_atom_site_fract_x
_atom_site_fract_y
_atom_site_fract_z
Si Si1 0.496330 0.350429 0.158610
Si Si2 0.011378 0.655379 0.347288
Si Si3 0.157039 0.155007 0.552480
Si Si4 0.644007 0.338109 0.826797
Si Si5 0.361499 0.334975 0.676218
Si Si6 0.651945 0.849808 0.066071
O O1 0.553283 0.500000 0.080562
O O2 0.452407 0.364496 0.280125
O O3 0.379371 0.325295 0.229366
O O4 0.590407 0.222709 0.064644
O O5 0.985670 0.500000 0.401414
O O6 0.117214 0.738813 0.279780
O O7 0.052847 0.633470 0.227963
O O8 0.895652 0.761331 0.457190
O O9 0.250000 0.250000 0.500000
O O10 0.204624 0.000000 0.487218
O O11 0.677340 0.500000 0.806261
O O12 0.747644 0.235637 0.751113
O O13 0.500000 0.314745 0.000000
O O14 0.500000 0.322650 0.500000
O O15 0.340569 0.500000 0.708766
O O16 0.705354 0.000000 0.995580
O O17 0.750000 0.750000 0.000000
#
# Coordination Sequence:
#
# PCOD9197153 Si02
#       6
#     8   8   8   8   8   8
#     4   9  20  38  58  85 120 158 204 254 309 371
#     4  10  22  40  61  87 119 161 210 258 313 376
#     4  10  20  35  58  88 121 158 201 254 313 374
#     4  10  23  43  67  95 128 169 215 264 316 380
#     4  11  26  45  65  95 131 170 214 266 323 382
#     4  10  21  36  59  89 120 157 200 252 314 372
#
# _framework density 23.490943000000001
#
# number of rings (size 3 to 8) (size 9 to 14) (size 15 to 20)
#    0.000    2.000    0.000    2.000    4.667    5.000 
#    0.000    0.000    0.000    0.000    0.000    0.000 
#    0.000    0.000    0.000    0.000    0.000    0.000 
#
# Total GULP energy -133880.808105 kJ/mol
# GULP energy per Si atom -5578.367004 kJ/mol
# Density = 2.343748 g / cm^3
# Si number density = 23.490943 Si / 1000 Ang^3
#
#
#
# Elastic Constant Matrix: (Units=GPa)
#
#
# Indices 1 2 3 4 5 6 
#
# 1 132.8070 97.5922 18.2748 0.0000 -30.3258 0.0000
# 2 97.5922 262.3760 41.0144 0.0000 -55.1409 0.0000
# 3 18.2748 41.0144 59.1330 0.0000 -9.6908 0.0000
# 4 0.0000 0.0000 0.0000 23.5151 0.0000 -14.2682
# 5 -30.3258 -55.1409 -9.6908 0.0000 41.9481 0.0000
# 6 0.0000 0.0000 0.0000 -14.2682 0.0000 34.5165
#
#
#
# Elastic Compliance Matrix: (Units=1/GPa)
#
#
# Indices 1 2 3 4 5 6 
#
# 1 0.010730 -0.003181 -0.000544 0.000000 0.003450 0.000000
# 2 -0.003181 0.006630 -0.002665 0.000000 0.005800 0.000000
# 3 -0.000544 -0.002665 0.019009 0.000000 0.000495 0.000000
# 4 0.000000 0.000000 0.000000 0.056763 0.000000 0.023464
# 5 0.003450 0.005800 0.000495 0.000000 0.034071 0.000000
# 6 0.000000 0.000000 0.000000 0.023464 0.000000 0.038671
#
#
# Mechanical properties :
#
#
# Convention : Reuss Voigt Hill
#
# Bulk Modulus (GPa) = 42.39432 85.34209 63.86820
# Shear Modulus (GPa) = 26.80714 39.82492 33.31603
#
# Velocity S-wave (km/s) = 3.38178 4.12191 3.77005
# Velocity P-wave (km/s) = 5.77364 7.68519 6.79695
#
# Compressibility (1/GPa) = 0.02358807
#
# Stress axis : x y z
#
# Youngs Moduli (GPa) = 93.19779 150.83034 52.60733
#
# Poissons Ratio (x) = 0.47978 0.02864
# Poissons Ratio (y) = 0.29645 0.14020
# Poissons Ratio (z) = 0.05073 0.40196
#
# Static dielectric constant tensor:
#      x y z
#    x 1.891770 0.000000 0.081320 
#    y 0.000000 1.949540 0.000000 
#    z 0.081320 0.000000 2.024770 
# 
# From -- ./inp_files/348759.got.cif
#   From: 2010.05.17/outbox.cif.g08.bks.cpg/sg12_175_cif.got.tgz:348759.got - 2010.06.03 13:09:07.
