data_PCOD9197400
_publ_section_title
;
Structure prediction by ZEFSAII (Michael W. Deem and Ramdas Pophale) SiO2 
 PCOD9197400
Probable space group: C 2/M
;
_chemical_formula_sum "Si O2"
_cell_formula_units_Z 64
_cell_length_a 20.266288
_cell_length_b 14.337636
_cell_length_c 11.120559
_cell_angle_alpha 90.000000
_cell_angle_beta 88.986778
_cell_angle_gamma 90.000000
_cell_volume 3230.802929
_symmetry_space_group_name_H-M "C 2/M"
_symmetry_group_IT_number 12
_symmetry_cell_setting 'monoclinic'
loop_
_space_group_symop_operation_xyz
x,y,z
-x,y,-z
-x,-y,-z
x,-y,z
1/2+x,1/2+y,z
1/2-x,1/2+y,-z
1/2-x,1/2-y,-z
1/2+x,1/2-y,z
loop_
_atom_site_type_symbol
_atom_site_label
_atom_site_fract_x
_atom_site_fract_y
_atom_site_fract_z
Si Si1 0.007159 0.398335 0.307774
Si Si2 0.931153 0.399423 0.071039
Si Si3 0.734493 0.609730 0.953491
Si Si4 0.056107 0.218018 0.579516
Si Si5 0.345065 0.891572 0.767736
Si Si6 0.687786 0.733716 0.416649
Si Si7 0.135686 0.240240 0.812289
Si Si8 0.756095 0.610891 0.232868
O O1 0.016173 0.500000 0.366041
O O2 0.076255 0.377106 0.238039
O O3 0.951744 0.407810 0.209052
O O4 0.981922 0.314070 0.387516
O O5 0.897963 0.500000 0.038021
O O6 0.897995 0.298634 0.077889
O O7 0.000000 0.396763 0.000000
O O8 0.720941 0.500000 0.943423
O O9 0.806369 0.627508 0.892110
O O10 0.682852 0.665612 0.874092
O O11 0.734960 0.631413 0.095366
O O12 0.120436 0.226091 0.493667
O O13 0.087057 0.195728 0.712450
O O14 0.000000 0.164910 0.500000
O O15 0.316851 0.823111 0.669194
O O16 0.333358 0.000000 0.738291
O O17 0.750000 0.750000 0.500000
O O18 0.702120 0.644992 0.330539
O O19 0.181477 0.320540 0.748843
O O20 0.770270 0.500000 0.242246
#
# Coordination Sequence:
#
# PCOD9197400 Si02
#       8
#     8   8   8   8   8   8   8   8
#     4   9  19  33  52  86 123 159 195 240 302 376
#     4   9  19  32  51  85 123 157 198 245 306 382
#     4  10  22  40  64  95 126 163 211 263 315 375
#     4  11  22  39  60  88 125 167 209 257 306 378
#     4  10  20  35  59  89 123 161 200 245 310 379
#     4  12  23  40  58  87 125 165 215 259 305 366
#     4  11  21  39  63  89 127 167 207 258 321 375
#     4  11  24  40  64  93 126 166 209 261 318 377
#
# _framework density 19.809318000000001
#
# number of rings (size 3 to 8) (size 9 to 14) (size 15 to 20)
#    0.000    1.625    3.750    0.750    1.750    1.750 
#    0.000    0.625    0.000    1.875    0.000    0.000 
#    0.000    0.000    0.000    0.000    0.000    0.000 
#
# Total GULP energy -178278.755321 kJ/mol
# GULP energy per Si atom -5571.211104 kJ/mol
# Density = 1.976423 g / cm^3
# Si number density = 19.809318 Si / 1000 Ang^3
#
#
#
# Elastic Constant Matrix: (Units=GPa)
#
#
# Indices 1 2 3 4 5 6 
#
# 1 107.8560 37.1952 49.5134 0.0000 2.9307 0.0000
# 2 37.1952 53.6551 33.1813 0.0000 3.0628 0.0000
# 3 49.5134 33.1813 97.9041 0.0000 5.9169 0.0000
# 4 0.0000 0.0000 0.0000 17.4260 0.0000 -2.5076
# 5 2.9307 3.0628 5.9169 0.0000 47.5425 0.0000
# 6 0.0000 0.0000 0.0000 -2.5076 0.0000 23.8894
#
#
#
# Elastic Compliance Matrix: (Units=1/GPa)
#
#
# Indices 1 2 3 4 5 6 
#
# 1 0.013702 -0.006600 -0.004703 0.000000 0.000166 0.000000
# 2 -0.006600 0.026772 -0.005699 0.000000 -0.000609 0.000000
# 3 -0.004703 -0.005699 0.014594 0.000000 -0.001159 0.000000
# 4 0.000000 0.000000 0.000000 0.058265 0.000000 0.006116
# 5 0.000166 -0.000609 -0.001159 0.000000 0.021207 0.000000
# 6 0.000000 0.000000 0.000000 0.006116 0.000000 0.042502
#
#
# Mechanical properties :
#
#
# Convention : Reuss Voigt Hill
#
# Bulk Modulus (GPa) = 47.47260 55.46611 51.46936
# Shear Modulus (GPa) = 22.92880 27.07327 25.00103
#
# Velocity S-wave (km/s) = 3.40586 3.70089 3.55644
# Velocity P-wave (km/s) = 6.28358 6.80610 6.55005
#
# Compressibility (1/GPa) = 0.02106478
#
# Stress axis : x y z
#
# Youngs Moduli (GPa) = 72.98184 37.35278 68.52151
#
# Poissons Ratio (x) = 0.24652 0.32224
# Poissons Ratio (y) = 0.48166 0.39050
# Poissons Ratio (z) = 0.34322 0.21287
#
# Static dielectric constant tensor:
#      x y z
#    x 1.763370 0.000000 0.021090 
#    y 0.000000 1.778610 0.000000 
#    z 0.021090 0.000000 1.750780 
# 
# From -- ./inp_files/156609.got.cif
#   From: 2010.05.17/outbox.cif.g08.bks.cpg/sg12_79_cif.got.tgz:156609.got - 2010.06.03 13:09:07.
