data_PCOD9197900
_publ_section_title
;
Structure prediction by ZEFSAII (Michael W. Deem and Ramdas Pophale) SiO2 
 PCOD9197900
Probable space group: C 2/M
;
_chemical_formula_sum "Si O2"
_cell_formula_units_Z 44
_cell_length_a 23.540096
_cell_length_b 11.103534
_cell_length_c 9.355206
_cell_angle_alpha 90.000000
_cell_angle_beta 107.508314
_cell_angle_gamma 90.000000
_cell_volume 2331.967203
_symmetry_space_group_name_H-M "C 2/M"
_symmetry_group_IT_number 12
_symmetry_cell_setting 'monoclinic'
loop_
_space_group_symop_operation_xyz
x,y,z
-x,y,-z
-x,-y,-z
x,-y,z
1/2+x,1/2+y,z
1/2-x,1/2+y,-z
1/2-x,1/2-y,-z
1/2+x,1/2-y,z
loop_
_atom_site_type_symbol
_atom_site_label
_atom_site_fract_x
_atom_site_fract_y
_atom_site_fract_z
Si Si1 0.179723 0.631664 0.855790
Si Si2 0.811858 0.205864 0.887014
Si Si3 0.000000 0.814491 0.500000
Si Si4 0.713535 0.140795 0.395445
Si Si5 0.603507 0.866214 0.511443
Si Si6 0.484649 0.500000 0.235110
Si Si7 0.402386 0.500000 0.890201
O O1 0.165392 0.500000 0.905527
O O2 0.250386 0.639828 0.880591
O O3 0.146438 0.642904 0.681080
O O4 0.162100 0.736850 0.949571
O O5 0.791975 0.316511 0.771360
O O6 0.858911 0.115960 0.851401
O O7 0.945977 0.733221 0.512591
O O8 0.980952 0.890628 0.345755
O O9 0.750000 0.250000 0.500000
O O10 0.647587 0.144973 0.411636
O O11 0.734825 0.000000 0.428875
O O12 0.576551 0.000000 0.489592
O O13 0.547865 0.500000 0.196824
O O14 0.435965 0.500000 0.070590
#
# Coordination Sequence:
#
# PCOD9197900 Si02
#       7
#     8   8   4   8   8   4   4
#     4  10  20  36  54  85 117 153 198 246 292 362
#     4  11  21  35  58  83 118 159 196 244 302 363
#     4  11  21  42  58  88 115 157 202 260 306 351
#     4  11  23  39  58  89 124 162 201 248 301 365
#     4  10  21  38  61  84 117 156 201 250 301 361
#     4  10  24  40  60  86 122 150 212 255 297 373
#     4  11  22  40  62  86 116 169 198 252 315 358
#
# _framework density 18.868188
#
# number of rings (size 3 to 8) (size 9 to 14) (size 15 to 20)
#    0.000    1.455    2.727    3.000    1.273    0.000 
#    3.273    0.000    0.000    0.000    0.000   15.273 
#    0.000    0.000    0.000    0.000    0.000    0.000 
#
# Total GULP energy -122687.877414 kJ/mol
# GULP energy per Si atom -5576.721701 kJ/mol
# Density = 1.882524 g / cm^3
# Si number density = 18.868188 Si / 1000 Ang^3
#
#
#
# Elastic Constant Matrix: (Units=GPa)
#
#
# Indices 1 2 3 4 5 6 
#
# 1 40.4044 28.3070 -14.1837 0.0000 -4.7409 0.0000
# 2 28.3070 109.5593 12.4935 0.0000 -3.4011 0.0000
# 3 -14.1837 12.4935 44.6706 0.0000 -8.3431 0.0000
# 4 0.0000 0.0000 0.0000 39.0419 0.0000 -11.9864
# 5 -4.7409 -3.4011 -8.3431 0.0000 23.4962 0.0000
# 6 0.0000 0.0000 0.0000 -11.9864 0.0000 34.7399
#
#
#
# Elastic Compliance Matrix: (Units=1/GPa)
#
#
# Indices 1 2 3 4 5 6 
#
# 1 0.042010 -0.012647 0.019404 0.000000 0.013536 0.000000
# 2 -0.012647 0.013240 -0.008394 0.000000 -0.003616 0.000000
# 3 0.019404 -0.008394 0.033629 0.000000 0.014641 0.000000
# 4 0.000000 0.000000 0.000000 0.028648 0.000000 0.009885
# 5 0.013536 -0.003616 0.014641 0.000000 0.049967 0.000000
# 6 0.000000 0.000000 0.000000 0.009885 0.000000 0.032196
#
#
# Mechanical properties :
#
#
# Convention : Reuss Voigt Hill
#
# Bulk Modulus (GPa) = 11.68142 27.54088 19.61115
# Shear Modulus (GPa) = 21.59846 30.65678 26.12762
#
# Velocity S-wave (km/s) = 3.38702 4.03524 3.72525
# Velocity P-wave (km/s) = 4.63685 6.02818 5.37770
#
# Compressibility (1/GPa) = 0.08560600
#
# Stress axis : x y z
#
# Youngs Moduli (GPa) = 23.80399 75.52902 29.73596
#
# Poissons Ratio (x) = 0.95519 -0.57699
# Poissons Ratio (y) = 0.30104 0.24960
# Poissons Ratio (z) = -0.46189 0.63398
#
# Static dielectric constant tensor:
#      x y z
#    x 1.628210 0.000000 -0.006920 
#    y 0.000000 1.687880 0.000000 
#    z -0.006920 0.000000 1.654110 
# 
# From -- ./inp_files/84189.got.cif
#   From: 2010.05.17/outbox.cif.g08.bks.cpg/sg12_43_cif.got.tgz:84189.got - 2010.06.03 13:09:07.
