data_PCOD9197702
_publ_section_title
;
Structure prediction by ZEFSAII (Michael W. Deem and Ramdas Pophale) SiO2 
 PCOD9197702
Probable space group: C 2/M
;
_chemical_formula_sum "Si O2"
_cell_formula_units_Z 56
_cell_length_a 7.987106
_cell_length_b 20.428638
_cell_length_c 18.843947
_cell_angle_alpha 90.000000
_cell_angle_beta 122.911999
_cell_angle_gamma 90.000000
_cell_volume 2581.217422
_symmetry_space_group_name_H-M "C 2/M"
_symmetry_group_IT_number 12
_symmetry_cell_setting 'monoclinic'
loop_
_space_group_symop_operation_xyz
x,y,z
-x,y,-z
-x,-y,-z
x,-y,z
1/2+x,1/2+y,z
1/2-x,1/2+y,-z
1/2-x,1/2-y,-z
1/2+x,1/2-y,z
loop_
_atom_site_type_symbol
_atom_site_label
_atom_site_fract_x
_atom_site_fract_y
_atom_site_fract_z
Si Si1 0.268263 0.574914 0.811452
Si Si2 0.316280 0.072410 0.536938
Si Si3 0.612614 0.169315 0.661746
Si Si4 0.709668 0.377902 0.882027
Si Si5 0.591851 0.571647 0.636102
Si Si6 0.560837 0.691699 0.722302
Si Si7 0.134443 0.576211 0.939943
O O1 0.212018 0.500000 0.786369
O O2 0.131498 0.621159 0.733084
O O3 0.496325 0.585874 0.838792
O O4 0.232294 0.588624 0.886242
O O5 0.461579 0.134122 0.573542
O O6 0.204771 0.073476 0.587261
O O7 0.142090 0.076449 0.438600
O O8 0.413327 0.000000 0.553649
O O9 0.567358 0.240653 0.682192
O O10 0.830713 0.174689 0.679472
O O11 0.664642 0.313636 0.823822
O O12 0.895381 0.414592 0.887382
O O13 0.779501 0.375575 0.979962
O O14 0.626888 0.500000 0.677421
O O15 0.651855 0.632605 0.697431
O O16 0.179342 0.500000 0.969678
#
# Coordination Sequence:
#
# PCOD9197702 Si02
#       7
#     8   8   8   8   8   8   8
#     4  10  21  37  61  90 119 154 199 256 308 359
#     4   9  19  39  64  91 123 152 193 244 291 361
#     4  11  24  40  59  84 120 159 207 241 298 357
#     4  10  21  37  57  88 121 152 200 249 299 364
#     4   9  20  38  63  93 120 154 193 240 302 352
#     4  11  25  40  60  84 120 163 197 254 293 355
#     4  10  20  35  62  90 117 157 194 249 313 361
#
# _framework density 21.695188999999999
#
# number of rings (size 3 to 8) (size 9 to 14) (size 15 to 20)
#    0.000    2.000    0.000    4.286    4.000    6.286 
#    0.000    2.143    3.143    0.000    0.000    0.000 
#    0.000    0.000    0.000    0.000    0.000    0.000 
#
# Total GULP energy -156349.644737 kJ/mol
# GULP energy per Si atom -5583.915883 kJ/mol
# Density = 2.164581 g / cm^3
# Si number density = 21.695189 Si / 1000 Ang^3
#
#
#
# Elastic Constant Matrix: (Units=GPa)
#
#
# Indices 1 2 3 4 5 6 
#
# 1 78.7275 31.0861 22.3601 0.0000 -5.2771 0.0000
# 2 31.0861 110.8179 47.7241 0.0000 -13.2817 0.0000
# 3 22.3601 47.7241 72.1329 0.0000 -3.1406 0.0000
# 4 0.0000 0.0000 0.0000 130.0361 0.0000 -79.0118
# 5 -5.2771 -13.2817 -3.1406 0.0000 28.3838 0.0000
# 6 0.0000 0.0000 0.0000 -79.0118 0.0000 79.8192
#
#
#
# Elastic Compliance Matrix: (Units=1/GPa)
#
#
# Indices 1 2 3 4 5 6 
#
# 1 0.014642 -0.002855 -0.002602 0.000000 0.001098 0.000000
# 2 -0.002855 0.013926 -0.008107 0.000000 0.005089 0.000000
# 3 -0.002602 -0.008107 0.019943 0.000000 -0.002071 0.000000
# 4 0.000000 0.000000 0.000000 0.019296 0.000000 0.019101
# 5 0.001098 0.005089 -0.002071 0.000000 0.037588 0.000000
# 6 0.000000 0.000000 0.000000 0.019101 0.000000 0.031436
#
#
# Mechanical properties :
#
#
# Convention : Reuss Voigt Hill
#
# Bulk Modulus (GPa) = 46.76577 51.55766 49.16171
# Shear Modulus (GPa) = 29.22490 58.34836 43.78663
#
# Velocity S-wave (km/s) = 3.67422 5.19163 4.49738
# Velocity P-wave (km/s) = 6.29305 7.73004 7.04826
#
# Compressibility (1/GPa) = 0.02138316
#
# Stress axis : x y z
#
# Youngs Moduli (GPa) = 68.29647 71.80879 50.14195
#
# Poissons Ratio (x) = 0.20502 0.13047
# Poissons Ratio (y) = 0.19499 0.40650
# Poissons Ratio (z) = 0.17771 0.58215
#
# Static dielectric constant tensor:
#      x y z
#    x 1.808720 0.000000 0.005320 
#    y 0.000000 1.797530 0.000000 
#    z 0.005320 0.000000 1.824250 
# 
# From -- ./inp_files/300912.got.cif
#   From: 2010.05.17/outbox.cif.g08.bks.cpg/sg12_151_cif.got.tgz:300912.got - 2010.06.03 13:09:07.
