data_PCOD9197664
_publ_section_title
;
Structure prediction by ZEFSAII (Michael W. Deem and Ramdas Pophale) SiO2 
 PCOD9197664
Probable space group: C 2/M
;
_chemical_formula_sum "Si O2"
_cell_formula_units_Z 48
_cell_length_a 10.118332
_cell_length_b 29.065475
_cell_length_c 7.949296
_cell_angle_alpha 90.000000
_cell_angle_beta 101.917474
_cell_angle_gamma 90.000000
_cell_volume 2287.451548
_symmetry_space_group_name_H-M "C 2/M"
_symmetry_group_IT_number 12
_symmetry_cell_setting 'monoclinic'
loop_
_space_group_symop_operation_xyz
x,y,z
-x,y,-z
-x,-y,-z
x,-y,z
1/2+x,1/2+y,z
1/2-x,1/2+y,-z
1/2-x,1/2-y,-z
1/2+x,1/2-y,z
loop_
_atom_site_type_symbol
_atom_site_label
_atom_site_fract_x
_atom_site_fract_y
_atom_site_fract_z
Si Si1 0.564895 0.656231 0.701148
Si Si2 0.421351 0.500000 0.747364
Si Si3 0.394960 0.752978 0.123977
Si Si4 0.291550 0.500000 0.336276
Si Si5 0.324529 0.599048 0.773307
Si Si6 0.306716 0.901373 0.635412
Si Si7 0.565934 0.144059 0.832238
O O1 0.500000 0.653461 0.500000
O O2 0.585522 0.708898 0.754919
O O3 0.457958 0.630507 0.793204
O O4 0.706092 0.629723 0.721052
O O5 0.358163 0.500000 0.541301
O O6 0.582102 0.500000 0.758114
O O7 0.370540 0.546864 0.818574
O O8 0.413391 0.802719 0.214253
O O9 0.500000 0.749889 0.000000
O O10 0.250000 0.750000 0.000000
O O11 0.205895 0.453566 0.302925
O O12 0.252492 0.599808 0.569596
O O13 0.210690 0.619326 0.864512
O O14 0.456611 0.881797 0.688874
O O15 0.500000 0.143869 0.000000
#
# Coordination Sequence:
#
# PCOD9197664 Si02
#       7
#     8   4   8   4   8   8   8
#     4  10  20  35  61  92 115 143 192 251 291 330
#     4   9  16  33  61  90 114 146 189 234 281 344
#     4  11  23  41  60  80 112 161 201 232 285 355
#     4   9  16  33  61  88 116 148 185 230 285 350
#     4  10  20  36  61  89 116 148 191 240 286 340
#     4  10  20  36  60  89 118 148 187 236 295 340
#     4  11  24  40  55  79 117 159 193 236 284 345
#
# _framework density 20.984051000000001
#
# number of rings (size 3 to 8) (size 9 to 14) (size 15 to 20)
#    0.000    1.833    1.667    3.500    0.000    2.000 
#    0.000    8.333    0.000    1.000    0.000    0.000 
#    0.000    0.000    0.000    0.000    0.000    0.000 
#
# Total GULP energy -134210.883657 kJ/mol
# GULP energy per Si atom -5592.120152 kJ/mol
# Density = 2.093629 g / cm^3
# Si number density = 20.984051 Si / 1000 Ang^3
#
#
#
# Elastic Constant Matrix: (Units=GPa)
#
#
# Indices 1 2 3 4 5 6 
#
# 1 127.4654 58.8635 19.0225 0.0000 -19.0295 0.0000
# 2 58.8635 192.7467 25.8696 0.0000 -16.1363 0.0000
# 3 19.0225 25.8696 46.7331 0.0000 -4.0445 0.0000
# 4 0.0000 0.0000 0.0000 66.4751 0.0000 -10.9398
# 5 -19.0295 -16.1363 -4.0445 0.0000 28.9100 0.0000
# 6 0.0000 0.0000 0.0000 -10.9398 0.0000 25.3073
#
#
#
# Elastic Compliance Matrix: (Units=1/GPa)
#
#
# Indices 1 2 3 4 5 6 
#
# 1 0.010012 -0.002326 -0.002359 0.000000 0.004962 0.000000
# 2 -0.002326 0.006366 -0.002432 0.000000 0.001682 0.000000
# 3 -0.002359 -0.002432 0.023740 0.000000 0.000412 0.000000
# 4 0.000000 0.000000 0.000000 0.016195 0.000000 0.007001
# 5 0.004962 0.001682 0.000412 0.000000 0.038853 0.000000
# 6 0.000000 0.000000 0.000000 0.007001 0.000000 0.042541
#
#
# Mechanical properties :
#
#
# Convention : Reuss Voigt Hill
#
# Bulk Modulus (GPa) = 38.63092 63.82850 51.22971
# Shear Modulus (GPa) = 31.13982 41.68445 36.41213
#
# Velocity S-wave (km/s) = 3.85642 4.46183 4.17013
# Velocity P-wave (km/s) = 6.18700 7.55166 6.90313
#
# Compressibility (1/GPa) = 0.02588600
#
# Stress axis : x y z
#
# Youngs Moduli (GPa) = 99.87974 157.09568 42.12343
#
# Poissons Ratio (x) = 0.36535 0.09935
# Poissons Ratio (y) = 0.23228 0.10242
# Poissons Ratio (z) = 0.23557 0.38198
#
# Static dielectric constant tensor:
#      x y z
#    x 1.720000 0.000000 0.000250 
#    y 0.000000 1.746190 0.000000 
#    z 0.000250 0.000000 1.783820 
# 
# From -- ./inp_files/42303.got.cif
#   From: 2010.05.17/outbox.cif.g08.bks.cpg/sg12_22_cif.got.tgz:42303.got - 2010.06.03 13:09:07.
