data_PCOD9197811
_publ_section_title
;
Structure prediction by ZEFSAII (Michael W. Deem and Ramdas Pophale) SiO2 
 PCOD9197811
Probable space group: C 2/M
;
_chemical_formula_sum "Si O2"
_cell_formula_units_Z 64
_cell_length_a 25.226654
_cell_length_b 8.648962
_cell_length_c 21.599784
_cell_angle_alpha 90.000000
_cell_angle_beta 127.877361
_cell_angle_gamma 90.000000
_cell_volume 3719.888007
_symmetry_space_group_name_H-M "C 2/M"
_symmetry_group_IT_number 12
_symmetry_cell_setting 'monoclinic'
loop_
_space_group_symop_operation_xyz
x,y,z
-x,y,-z
-x,-y,-z
x,-y,z
1/2+x,1/2+y,z
1/2-x,1/2+y,-z
1/2-x,1/2-y,-z
1/2+x,1/2-y,z
loop_
_atom_site_type_symbol
_atom_site_label
_atom_site_fract_x
_atom_site_fract_y
_atom_site_fract_z
Si Si1 0.987708 0.312839 0.205318
Si Si2 0.647632 0.185989 0.948781
Si Si3 0.274960 0.813656 0.368616
Si Si4 0.839383 0.687392 0.284994
Si Si5 0.638705 0.814128 0.320386
Si Si6 0.377873 0.186913 0.548801
Si Si7 0.263610 0.814184 0.106764
Si Si8 0.023140 0.184151 0.664206
O O1 0.985992 0.500000 0.209600
O O2 0.064052 0.267806 0.244549
O O3 0.929579 0.266445 0.115874
O O4 0.971109 0.246735 0.261230
O O5 0.686651 0.233574 0.913614
O O6 0.650135 0.000000 0.954152
O O7 0.690341 0.253203 0.035818
O O8 0.306019 0.763655 0.325477
O O9 0.200113 0.755384 0.326998
O O10 0.323244 0.762522 0.459490
O O11 0.274246 0.000000 0.368581
O O12 0.843052 0.500000 0.286638
O O13 0.794149 0.737350 0.193878
O O14 0.913915 0.751893 0.328769
O O15 0.642445 0.768090 0.395720
O O16 0.642765 0.000000 0.320732
O O17 0.451498 0.254456 0.588810
O O18 0.382740 0.000000 0.551106
O O19 0.261946 0.000000 0.105836
O O20 0.023590 0.000000 0.664859
#
# Coordination Sequence:
#
# PCOD9197811 Si02
#       8
#     8   8   8   8   8   8   8   8
#     4   9  17  33  53  74 102 136 164 196 250 304
#     4   9  16  28  49  74 100 128 160 199 240 290
#     4  10  21  35  54  74  94 130 177 209 240 294
#     4  10  20  36  52  68 100 141 169 197 243 303
#     4   9  18  32  53  75 100 128 159 206 258 296
#     4   9  19  36  54  73  98 131 165 204 253 303
#     4   9  17  29  47  71 100 131 160 198 242 288
#     4  11  21  31  49  77 102 129 164 208 250 290
#
# _framework density 17.204818
#
# number of rings (size 3 to 8) (size 9 to 14) (size 15 to 20)
#    0.000    2.500    1.250    2.250    0.000    4.500 
#    0.000    2.500    0.000    0.750    0.000    5.250 
#    0.000    0.000    0.000    0.000    0.000    0.000 
#
# Total GULP energy -178454.693284 kJ/mol
# GULP energy per Si atom -5576.709165 kJ/mol
# Density = 1.716566 g / cm^3
# Si number density = 17.204818 Si / 1000 Ang^3
#
#
#
# Elastic Constant Matrix: (Units=GPa)
#
#
# Indices 1 2 3 4 5 6 
#
# 1 123.2225 18.4708 41.1459 0.0000 25.6929 0.0000
# 2 18.4708 6.1498 7.9413 0.0000 5.5755 0.0000
# 3 41.1459 7.9413 51.0361 0.0000 28.5018 0.0000
# 4 0.0000 0.0000 0.0000 21.4723 0.0000 6.7535
# 5 25.6929 5.5755 28.5018 0.0000 21.4321 0.0000
# 6 0.0000 0.0000 0.0000 6.7535 0.0000 24.2599
#
#
#
# Elastic Compliance Matrix: (Units=1/GPa)
#
#
# Indices 1 2 3 4 5 6 
#
# 1 0.016553 -0.040717 -0.007163 0.000000 0.000273 0.000000
# 2 -0.040717 0.313909 0.009045 0.000000 -0.044879 0.000000
# 3 -0.007163 0.009045 0.079590 0.000000 -0.099611 0.000000
# 4 0.000000 0.000000 0.000000 0.051041 0.000000 -0.014209
# 5 0.000273 -0.044879 -0.099611 0.000000 0.190475 0.000000
# 6 0.000000 0.000000 0.000000 -0.014209 0.000000 0.045176
#
#
# Mechanical properties :
#
#
# Convention : Reuss Voigt Hill
#
# Bulk Modulus (GPa) = 3.00857 35.05824 19.03341
# Shear Modulus (GPa) = 5.64839 20.95622 13.30231
#
# Velocity S-wave (km/s) = 1.81388 3.49383 2.78362
# Velocity P-wave (km/s) = 2.47777 6.05781 4.62798
#
# Compressibility (1/GPa) = 0.33238398
#
# Stress axis : x y z
#
# Youngs Moduli (GPa) = 60.41021 3.18563 12.56440
#
# Poissons Ratio (x) = 0.12971 0.08999
# Poissons Ratio (y) = 2.45971 -0.11365
# Poissons Ratio (z) = 0.43269 -0.02881
#
# Static dielectric constant tensor:
#      x y z
#    x 1.560640 0.000000 0.011400 
#    y 0.000000 1.587240 0.000000 
#    z 0.011400 0.000000 1.594570 
# 
# From -- ./inp_files/320130.got.cif
#   From: 2010.05.17/outbox.cif.g08.bks.cpg/sg12_161_cif.got.tgz:320130.got - 2010.06.03 13:09:07.
