data_PCOD9197764
_publ_section_title
;
Structure prediction by ZEFSAII (Michael W. Deem and Ramdas Pophale) SiO2 
 PCOD9197764
Probable space group: C 2/M
;
_chemical_formula_sum "Si O2"
_cell_formula_units_Z 48
_cell_length_a 14.929345
_cell_length_b 18.931921
_cell_length_c 7.201096
_cell_angle_alpha 90.000000
_cell_angle_beta 72.145176
_cell_angle_gamma 90.000000
_cell_volume 1937.297732
_symmetry_space_group_name_H-M "C 2/M"
_symmetry_group_IT_number 12
_symmetry_cell_setting 'monoclinic'
loop_
_space_group_symop_operation_xyz
x,y,z
-x,y,-z
-x,-y,-z
x,-y,z
1/2+x,1/2+y,z
1/2-x,1/2+y,-z
1/2-x,1/2-y,-z
1/2+x,1/2-y,z
loop_
_atom_site_type_symbol
_atom_site_label
_atom_site_fract_x
_atom_site_fract_y
_atom_site_fract_z
Si Si1 0.786080 0.879118 0.736627
Si Si2 0.939491 0.731104 0.288896
Si Si3 0.078677 0.000000 0.846336
Si Si4 0.643944 0.232213 0.248518
Si Si5 0.092372 0.425067 0.815958
Si Si6 0.065268 0.000000 0.324190
Si Si7 0.307736 0.642697 0.282636
O O1 0.796143 0.802684 0.822181
O O2 0.691720 0.918715 0.857965
O O3 0.782245 0.867742 0.516217
O O4 0.875758 0.927281 0.717406
O O5 0.906091 0.745768 0.520452
O O6 0.912692 0.649717 0.280100
O O7 0.880970 0.791802 0.221617
O O8 0.051533 0.730149 0.180106
O O9 0.052111 0.000000 0.587443
O O10 0.139762 0.071152 0.807910
O O11 0.961151 0.000000 0.897496
O O12 0.712785 0.166205 0.237158
O O13 0.095356 0.500000 0.706210
O O14 0.000000 0.427564 0.000000
#
# Coordination Sequence:
#
# PCOD9197764 Si02
#       7
#     8   8   4   8   8   4   8
#     4  11  19  38  66  92 118 150 219 261 294 365
#     4  10  20  38  62  88 123 155 202 252 309 374
#     4  12  28  44  58  94 136 161 197 266 326 367
#     4  10  20  35  63  95 115 156 203 260 308 363
#     4  11  23  40  58  84 121 159 203 260 306 355
#     4  12  22  38  71  95 114 169 219 254 313 377
#     4  11  20  40  66  88 125 163 203 257 310 374
#
# _framework density 24.776779000000001
#
# number of rings (size 3 to 8) (size 9 to 14) (size 15 to 20)
#    0.000    1.167    5.833    2.000    2.333    0.667 
#    4.500    1.667    0.000    0.000    0.000    0.000 
#    0.000    0.000    0.000    0.000    0.000    0.000 
#
# Total GULP energy -134016.221739 kJ/mol
# GULP energy per Si atom -5584.009239 kJ/mol
# Density = 2.472039 g / cm^3
# Si number density = 24.776779 Si / 1000 Ang^3
#
#
#
# Elastic Constant Matrix: (Units=GPa)
#
#
# Indices 1 2 3 4 5 6 
#
# 1 160.0169 68.1396 49.1348 0.0000 -40.5740 0.0000
# 2 68.1396 182.7270 33.6823 0.0000 -24.3225 0.0000
# 3 49.1348 33.6823 98.2260 0.0000 -7.1299 0.0000
# 4 0.0000 0.0000 0.0000 28.4586 0.0000 -7.6743
# 5 -40.5740 -24.3225 -7.1299 0.0000 26.6895 0.0000
# 6 0.0000 0.0000 0.0000 -7.6743 0.0000 38.2691
#
#
#
# Elastic Compliance Matrix: (Units=1/GPa)
#
#
# Indices 1 2 3 4 5 6 
#
# 1 0.012438 -0.001656 -0.004478 0.000000 0.016203 0.000000
# 2 -0.001656 0.006761 -0.001250 0.000000 0.003310 0.000000
# 3 -0.004478 -0.001250 0.012515 0.000000 -0.004603 0.000000
# 4 0.000000 0.000000 0.000000 0.037148 0.000000 0.007449
# 5 0.016203 0.003310 -0.004603 0.000000 0.063887 0.000000
# 6 0.000000 0.000000 0.000000 0.007449 0.000000 0.027625
#
#
# Mechanical properties :
#
#
# Convention : Reuss Voigt Hill
#
# Bulk Modulus (GPa) = 59.00781 82.54257 70.77519
# Shear Modulus (GPa) = 27.65652 38.01765 32.83708
#
# Velocity S-wave (km/s) = 3.34462 3.92140 3.64444
# Velocity P-wave (km/s) = 6.22758 7.34098 6.80708
#
# Compressibility (1/GPa) = 0.01694691
#
# Stress axis : x y z
#
# Youngs Moduli (GPa) = 80.39955 147.90357 79.90457
#
# Poissons Ratio (x) = 0.24493 0.35779
# Poissons Ratio (y) = 0.13314 0.09987
# Poissons Ratio (z) = 0.36001 0.18485
#
# Static dielectric constant tensor:
#      x y z
#    x 39.578340 0.000000 77.616570 
#    y 0.000000 1.901430 0.000000 
#    z 77.616570 0.000000 162.111130 
# 
# From -- ./inp_files/144819.got.cif
#   From: 2010.05.17/outbox.cif.g08.bks.cpg/sg12_73_cif.got.tgz:144819.got - 2010.06.03 13:09:07.
