data_PCOD9197246
_publ_section_title
;
Structure prediction by ZEFSAII (Michael W. Deem and Ramdas Pophale) SiO2 
 PCOD9197246
Probable space group: C 2/M
;
_chemical_formula_sum "Si O2"
_cell_formula_units_Z 48
_cell_length_a 8.508126
_cell_length_b 24.379401
_cell_length_c 16.269209
_cell_angle_alpha 90.000000
_cell_angle_beta 130.820965
_cell_angle_gamma 90.000000
_cell_volume 2553.754854
_symmetry_space_group_name_H-M "C 2/M"
_symmetry_group_IT_number 12
_symmetry_cell_setting 'monoclinic'
loop_
_space_group_symop_operation_xyz
x,y,z
-x,y,-z
-x,-y,-z
x,-y,z
1/2+x,1/2+y,z
1/2-x,1/2+y,-z
1/2-x,1/2-y,-z
1/2+x,1/2-y,z
loop_
_atom_site_type_symbol
_atom_site_label
_atom_site_fract_x
_atom_site_fract_y
_atom_site_fract_z
Si Si1 0.089561 0.000000 0.656766
Si Si2 0.155369 0.500000 0.429106
Si Si3 0.706694 0.622446 0.710007
Si Si4 0.202405 0.704380 0.123749
Si Si5 0.489903 0.116790 0.644721
Si Si6 0.660502 0.303344 0.230935
Si Si7 0.786480 0.193398 0.559638
O O1 0.147515 0.059726 0.712617
O O2 0.215634 0.000000 0.613012
O O3 0.842458 0.000000 0.557965
O O4 0.018741 0.554167 0.385643
O O5 0.821317 0.652868 0.823484
O O6 0.845866 0.622454 0.676075
O O7 0.502007 0.659572 0.622632
O O8 0.411558 0.694772 0.143182
O O9 0.235919 0.757169 0.193800
O O10 0.000000 0.712439 0.000000
O O11 0.715821 0.140599 0.742041
O O12 0.382373 0.152585 0.536849
O O13 0.716876 0.290998 0.345274
O O14 0.750000 0.250000 0.500000
#
# Coordination Sequence:
#
# PCOD9197246 Si02
#       7
#     4   4   8   8   8   8   8
#     4   9  16  34  56  85 112 153 193 224 261 337
#     4   9  18  32  56  84 118 158 187 211 268 330
#     4  10  20  35  59  83 112 150 195 230 274 329
#     4  11  23  42  61  81 107 144 193 246 291 333
#     4  11  20  35  56  86 120 152 185 221 270 340
#     4  11  24  37  55  84 112 147 187 230 290 336
#     4  11  21  33  52  83 120 153 182 222 274 342
#
# _framework density 18.795852
#
# number of rings (size 3 to 8) (size 9 to 14) (size 15 to 20)
#    0.000    1.500    1.667    5.500    0.000    2.667 
#    0.000    5.417    0.000    0.000    0.000    4.083 
#    0.000    0.000    0.000    0.000    0.000    0.000 
#
# Total GULP energy -133998.546175 kJ/mol
# GULP energy per Si atom -5583.272757 kJ/mol
# Density = 1.875307 g / cm^3
# Si number density = 18.795852 Si / 1000 Ang^3
#
#
#
# Elastic Constant Matrix: (Units=GPa)
#
#
# Indices 1 2 3 4 5 6 
#
# 1 77.6399 37.7639 35.7264 0.0000 19.1458 0.0000
# 2 37.7639 169.7180 52.6194 0.0000 9.4356 0.0000
# 3 35.7264 52.6194 63.6674 0.0000 18.3737 0.0000
# 4 0.0000 0.0000 0.0000 17.4545 0.0000 -0.1244
# 5 19.1458 9.4356 18.3737 0.0000 23.6214 0.0000
# 6 0.0000 0.0000 0.0000 -0.1244 0.0000 22.5356
#
#
#
# Elastic Compliance Matrix: (Units=1/GPa)
#
#
# Indices 1 2 3 4 5 6 
#
# 1 0.019100 -0.001690 -0.006509 0.000000 -0.009743 0.000000
# 2 -0.001690 0.008187 -0.006794 0.000000 0.003385 0.000000
# 3 -0.006509 -0.006794 0.029230 0.000000 -0.014747 0.000000
# 4 0.000000 0.000000 0.000000 0.057294 0.000000 0.000316
# 5 -0.009743 0.003385 -0.014747 0.000000 0.060350 0.000000
# 6 0.000000 0.000000 0.000000 0.000316 0.000000 0.044376
#
#
# Mechanical properties :
#
#
# Convention : Reuss Voigt Hill
#
# Bulk Modulus (GPa) = 37.69427 62.58275 50.13851
# Shear Modulus (GPa) = 19.42751 25.04999 22.23875
#
# Velocity S-wave (km/s) = 3.21846 3.65463 3.44346
# Velocity P-wave (km/s) = 5.82318 7.15379 6.52251
#
# Compressibility (1/GPa) = 0.02652923
#
# Stress axis : x y z
#
# Youngs Moduli (GPa) = 52.35640 122.15184 34.21117
#
# Poissons Ratio (x) = 0.20645 0.22269
# Poissons Ratio (y) = 0.08849 0.23244
# Poissons Ratio (z) = 0.34080 0.82994
#
# Static dielectric constant tensor:
#      x y z
#    x 1.720630 0.000000 0.000170 
#    y 0.000000 1.655310 0.000000 
#    z 0.000170 0.000000 1.630460 
# 
# From -- ./inp_files/259045.got.cif
#   From: 2010.05.17/outbox.cif.g08.bks.cpg/sg12_130_cif.got.tgz:259045.got - 2010.06.03 13:09:07.
