data_PCOD9197656
_publ_section_title
;
Structure prediction by ZEFSAII (Michael W. Deem and Ramdas Pophale) SiO2 
 PCOD9197656
Probable space group: C 2/M
;
_chemical_formula_sum "Si O2"
_cell_formula_units_Z 60
_cell_length_a 13.686005
_cell_length_b 19.082568
_cell_length_c 12.075060
_cell_angle_alpha 90.000000
_cell_angle_beta 108.442247
_cell_angle_gamma 90.000000
_cell_volume 2991.614444
_symmetry_space_group_name_H-M "C 2/M"
_symmetry_group_IT_number 12
_symmetry_cell_setting 'monoclinic'
loop_
_space_group_symop_operation_xyz
x,y,z
-x,y,-z
-x,-y,-z
x,-y,z
1/2+x,1/2+y,z
1/2-x,1/2+y,-z
1/2-x,1/2-y,-z
1/2+x,1/2-y,z
loop_
_atom_site_type_symbol
_atom_site_label
_atom_site_fract_x
_atom_site_fract_y
_atom_site_fract_z
Si Si1 0.809027 0.661310 0.588616
Si Si2 0.607548 0.417647 0.605257
Si Si3 0.067181 0.584077 0.190798
Si Si4 0.155056 0.583460 0.992518
Si Si5 0.026654 0.081822 0.242449
Si Si6 0.500000 0.356354 0.000000
Si Si7 0.722303 0.684460 0.334165
Si Si8 0.279953 0.693811 0.918401
O O1 0.699776 0.628829 0.591380
O O2 0.897262 0.619107 0.683670
O O3 0.805589 0.658607 0.454231
O O4 0.815927 0.741439 0.631098
O O5 0.500000 0.410293 0.500000
O O6 0.638109 0.500000 0.612048
O O7 0.570404 0.398872 0.715247
O O8 0.073573 0.500000 0.201833
O O9 0.952288 0.600980 0.108211
O O10 0.142093 0.606161 0.115871
O O11 0.166163 0.500000 0.996536
O O12 0.244280 0.620536 0.957929
O O13 0.127690 0.129187 0.299684
O O14 0.995313 0.095561 0.105859
O O15 0.049961 0.000000 0.272819
O O16 0.402008 0.307056 0.952270
O O17 0.760383 0.697558 0.222249
O O18 0.250000 0.750000 0.000000
#
# Coordination Sequence:
#
# PCOD9197656 Si02
#       8
#     8   8   8   8   8   4   8   8
#     4  11  21  39  59  86 124 157 208 254 298 371
#     4  10  20  35  61  91 120 162 206 252 307 364
#     4   9  19  37  65  92 115 154 207 258 299 354
#     4   9  20  39  61  89 121 154 198 255 310 351
#     4  10  21  39  60  88 125 159 199 250 308 370
#     4  10  25  40  60  96 119 154 204 250 309 368
#     4  10  24  39  55  87 121 161 197 248 314 358
#     4  11  24  42  63  87 121 163 201 247 308 375
#
# _framework density 20.056061
#
# number of rings (size 3 to 8) (size 9 to 14) (size 15 to 20)
#    0.000    2.000    1.333    2.200    3.733    6.400 
#    0.000    0.667    0.000    1.600    0.000    0.000 
#    0.000    0.000    0.000    0.000    0.000    0.000 
#
# Total GULP energy -167483.554757 kJ/mol
# GULP energy per Si atom -5582.785159 kJ/mol
# Density = 2.001041 g / cm^3
# Si number density = 20.056061 Si / 1000 Ang^3
#
#
#
# Elastic Constant Matrix: (Units=GPa)
#
#
# Indices 1 2 3 4 5 6 
#
# 1 33.8236 12.0749 30.6018 0.0000 -12.9290 0.0000
# 2 12.0749 49.6618 34.4283 0.0000 -1.7262 0.0000
# 3 30.6018 34.4283 155.3995 0.0000 -12.0827 0.0000
# 4 0.0000 0.0000 0.0000 31.7213 0.0000 -6.0703
# 5 -12.9290 -1.7262 -12.0827 0.0000 25.8453 0.0000
# 6 0.0000 0.0000 0.0000 -6.0703 0.0000 7.7998
#
#
#
# Elastic Compliance Matrix: (Units=1/GPa)
#
#
# Indices 1 2 3 4 5 6 
#
# 1 0.044335 -0.006015 -0.005920 0.000000 0.019009 0.000000
# 2 -0.006015 0.024627 -0.004543 0.000000 -0.003488 0.000000
# 3 -0.005920 -0.004543 0.008668 0.000000 0.000788 0.000000
# 4 0.000000 0.000000 0.000000 0.037041 0.000000 0.028828
# 5 0.019009 -0.003488 0.000788 0.000000 0.048336 0.000000
# 6 0.000000 0.000000 0.000000 0.028828 0.000000 0.150644
#
#
# Mechanical properties :
#
#
# Convention : Reuss Voigt Hill
#
# Bulk Modulus (GPa) = 22.38398 43.67720 33.03059
# Shear Modulus (GPa) = 13.83135 23.85862 18.84498
#
# Velocity S-wave (km/s) = 2.62894 3.45279 3.06864
# Velocity P-wave (km/s) = 4.51664 6.14171 5.39076
#
# Compressibility (1/GPa) = 0.04467481
#
# Stress axis : x y z
#
# Youngs Moduli (GPa) = 22.55568 40.60633 115.36062
#
# Poissons Ratio (x) = 0.24424 0.68293
# Poissons Ratio (y) = 0.13567 0.52405
# Poissons Ratio (z) = 0.13353 0.18446
#
# Static dielectric constant tensor:
#      x y z
#    x 1.692610 0.000000 -0.000440 
#    y 0.000000 1.695970 0.000000 
#    z -0.000440 0.000000 1.775860 
# 
# From -- ./inp_files/146204.got.cif
#   From: 2010.05.17/outbox.cif.g08.bks.cpg/sg12_74_cif.got.tgz:146204.got - 2010.06.03 13:09:07.
