data_PCOD9197087
_publ_section_title
;
Structure prediction by ZEFSAII (Michael W. Deem and Ramdas Pophale) SiO2 
 PCOD9197087
Probable space group: C 2/M
;
_chemical_formula_sum "Si O2"
_cell_formula_units_Z 52
_cell_length_a 16.331889
_cell_length_b 11.683989
_cell_length_c 15.092310
_cell_angle_alpha 90.000000
_cell_angle_beta 128.501053
_cell_angle_gamma 90.000000
_cell_volume 2253.830736
_symmetry_space_group_name_H-M "C 2/M"
_symmetry_group_IT_number 12
_symmetry_cell_setting 'monoclinic'
loop_
_space_group_symop_operation_xyz
x,y,z
-x,y,-z
-x,-y,-z
x,-y,z
1/2+x,1/2+y,z
1/2-x,1/2+y,-z
1/2-x,1/2-y,-z
1/2+x,1/2-y,z
loop_
_atom_site_type_symbol
_atom_site_label
_atom_site_fract_x
_atom_site_fract_y
_atom_site_fract_z
Si Si1 0.607562 0.000000 0.805273
Si Si2 0.279792 0.000000 0.288574
Si Si3 0.126084 0.730184 0.926484
Si Si4 0.200728 0.768789 0.318994
Si Si5 0.590559 0.367235 0.737718
Si Si6 0.587131 0.000000 0.454800
Si Si7 0.888267 0.758193 0.553503
Si Si8 0.339893 0.865059 0.868231
O O1 0.601804 0.111863 0.860279
O O2 0.707910 0.000000 0.808687
O O3 0.518685 0.000000 0.671832
O O4 0.224344 0.883222 0.280181
O O5 0.386064 0.000000 0.421996
O O6 0.078379 0.829047 0.832576
O O7 0.250000 0.750000 0.000000
O O8 0.107881 0.707869 0.017797
O O9 0.146018 0.802553 0.373825
O O10 0.308919 0.706309 0.422742
O O11 0.136529 0.683826 0.212960
O O12 0.564158 0.500000 0.708250
O O13 0.509655 0.290576 0.626298
O O14 0.712845 0.351468 0.795007
O O15 0.631681 0.877937 0.455730
O O16 0.363534 0.000000 0.892849
#
# Coordination Sequence:
#
# PCOD9197087 Si02
#       8
#     4   4   8   8   8   4   8   8
#     4  12  19  36  63  87 115 151 185 251 297 338
#     4  10  21  36  56  89 117 147 195 240 291 350
#     4  10  20  35  58  87 117 152 188 235 297 345
#     4  10  23  39  59  84 121 154 196 236 288 344
#     4  10  21  37  61  87 117 151 195 238 291 349
#     4  10  21  36  59  86 112 151 198 241 292 343
#     4  10  22  40  60  83 115 163 192 235 290 349
#     4  10  21  39  59  90 114 150 198 244 281 341
#
# _framework density 23.071831
#
# number of rings (size 3 to 8) (size 9 to 14) (size 15 to 20)
#    0.000    1.846    2.308    2.077    3.231    1.231 
#    1.385    2.308    0.000    2.769    0.000    0.000 
#    0.000    0.000    0.000    0.000    0.000    0.000 
#
# Total GULP energy -145147.457132 kJ/mol
# GULP energy per Si atom -5582.594505 kJ/mol
# Density = 2.301932 g / cm^3
# Si number density = 23.071831 Si / 1000 Ang^3
#
#
#
# Elastic Constant Matrix: (Units=GPa)
#
#
# Indices 1 2 3 4 5 6 
#
# 1 36.7220 7.9209 29.8555 0.0000 -6.1075 0.0000
# 2 7.9209 66.4700 16.3603 0.0000 -2.2681 0.0000
# 3 29.8555 16.3603 89.1291 0.0000 -6.1765 0.0000
# 4 0.0000 0.0000 0.0000 25.5623 0.0000 1.9344
# 5 -6.1075 -2.2681 -6.1765 0.0000 43.2170 0.0000
# 6 0.0000 0.0000 0.0000 1.9344 0.0000 -39.0460
#
#
#
# Elastic Compliance Matrix: (Units=1/GPa)
#
#
# Indices 1 2 3 4 5 6 
#
# 1 0.038089 -0.001401 -0.012255 0.000000 0.003558 0.000000
# 2 -0.001401 0.015815 -0.002414 0.000000 0.000287 0.000000
# 3 -0.012255 -0.002414 0.015795 0.000000 0.000399 0.000000
# 4 0.000000 0.000000 0.000000 0.038974 0.000000 0.001931
# 5 0.003558 0.000287 0.000399 0.000000 0.023714 0.000000
# 6 0.000000 0.000000 0.000000 0.001931 0.000000 -0.025515
#
#
# Mechanical properties :
#
#
# Convention : Reuss Voigt Hill
#
# Bulk Modulus (GPa) = 26.62411 33.39940 30.01175
# Shear Modulus (GPa) = 32.99631 15.15894 24.07763
#
# Velocity S-wave (km/s) = 3.78584 2.56605 3.23398
# Velocity P-wave (km/s) = 5.53849 4.82568 5.19432
#
# Compressibility (1/GPa) = 0.03755995
#
# Stress axis : x y z
#
# Youngs Moduli (GPa) = 26.25432 63.23016 63.30956
#
# Poissons Ratio (x) = 0.08860 0.77585
# Poissons Ratio (y) = 0.03679 0.15281
# Poissons Ratio (z) = 0.32174 0.15262
#
# Static dielectric constant tensor:
#      x y z
#    x 1.991930 0.000000 0.022260 
#    y 0.000000 1.780080 0.000000 
#    z 0.022260 0.000000 1.885890 
# 
# From -- ./inp_files/232361.got.cif
#   From: 2010.05.17/outbox.cif.g08.bks.cpg/sg12_117_cif.got.tgz:232361.got - 2010.06.03 13:09:07.
