data_PCOD9197234
_publ_section_title
;
Structure prediction by ZEFSAII (Michael W. Deem and Ramdas Pophale) SiO2 
 PCOD9197234
Probable space group: C 2/M
;
_chemical_formula_sum "Si O2"
_cell_formula_units_Z 44
_cell_length_a 18.076795
_cell_length_b 17.947060
_cell_length_c 13.557330
_cell_angle_alpha 90.000000
_cell_angle_beta 29.943024
_cell_angle_gamma 90.000000
_cell_volume 2195.381689
_symmetry_space_group_name_H-M "C 2/M"
_symmetry_group_IT_number 12
_symmetry_cell_setting 'monoclinic'
loop_
_space_group_symop_operation_xyz
x,y,z
-x,y,-z
-x,-y,-z
x,-y,z
1/2+x,1/2+y,z
1/2-x,1/2+y,-z
1/2-x,1/2-y,-z
1/2+x,1/2-y,z
loop_
_atom_site_type_symbol
_atom_site_label
_atom_site_fract_x
_atom_site_fract_y
_atom_site_fract_z
Si Si1 0.231651 0.320408 0.233604
Si Si2 0.426822 0.293160 0.715229
Si Si3 0.256201 0.678811 0.566131
Si Si4 0.500000 0.234408 0.000000
Si Si5 0.162231 0.638543 0.107054
Si Si6 0.652523 0.083536 0.516773
O O1 0.395612 0.289143 0.057354
O O2 0.212905 0.374021 0.161622
O O3 0.133991 0.249463 0.311619
O O4 0.176808 0.359576 0.396913
O O5 0.591973 0.319656 0.547409
O O6 0.744832 0.110032 0.504525
O O7 0.399304 0.224411 0.824441
O O8 0.308124 0.358440 0.872706
O O9 0.250000 0.750000 0.500000
O O10 0.113985 0.687283 0.801945
O O11 0.019779 0.589318 0.252369
O O12 0.689017 0.000000 0.443558
#
# Coordination Sequence:
#
# PCOD9197234 Si02
#       6
#     8   8   8   4   8   8
#     4  10  20  35  58  95 122 162 212 263 322 374
#     4   9  19  36  63  88 122 154 223 268 305 364
#     4  12  21  40  62  94 126 169 220 275 310 378
#     4  12  22  34  72  94 124 160 224 282 316 354
#     4   9  18  35  58  90 121 164 210 263 312 380
#     4  12  25  39  59  93 141 177 203 257 336 403
#
# _framework density 20.042072000000001
#
# number of rings (size 3 to 8) (size 9 to 14) (size 15 to 20)
#    1.091    0.364    3.636    2.727    2.545    1.455 
#    0.000    1.818    0.000    0.000    0.000    2.545 
#    0.000    0.000    0.000    0.000    0.000    0.000 
#
# Total GULP energy -122535.847816 kJ/mol
# GULP energy per Si atom -5569.811264 kJ/mol
# Density = 1.999646 g / cm^3
# Si number density = 20.042072 Si / 1000 Ang^3
#
#
#
# Elastic Constant Matrix: (Units=GPa)
#
#
# Indices 1 2 3 4 5 6 
#
# 1 123.1240 42.7141 54.9128 -0.0005 -21.5310 0.0002
# 2 42.7141 48.7133 30.3953 -0.0003 -0.1979 0.0001
# 3 54.9128 30.3953 130.4579 -0.0004 -16.7615 0.0001
# 4 -0.0005 -0.0003 -0.0004 10.7404 0.0001 -1.6700
# 5 -21.5310 -0.1979 -16.7615 0.0001 40.9780 0.0000
# 6 0.0002 0.0001 0.0001 -1.6700 0.0000 -0.8859
#
#
#
# Elastic Compliance Matrix: (Units=1/GPa)
#
#
# Indices 1 2 3 4 5 6 
#
# 1 0.014109 -0.010700 -0.002639 0.000000 0.006282 0.000001
# 2 -0.010700 0.032340 -0.003941 0.000000 -0.007078 -0.000001
# 3 -0.002639 -0.003941 0.010041 0.000000 0.002702 0.000000
# 4 0.000000 0.000000 0.000000 0.072001 0.000000 -0.135734
# 5 0.006282 -0.007078 0.002702 0.000000 0.028775 0.000000
# 6 0.000001 -0.000001 0.000000 -0.135734 0.000000 -0.872933
#
#
# Mechanical properties :
#
#
# Convention : Reuss Voigt Hill
#
# Bulk Modulus (GPa) = 45.59391 62.03771 53.81581
# Shear Modulus (GPa) = -7.42064 21.78470 7.18203
#
# Velocity S-wave (km/s) = -1.92628 3.30047 1.89506
# Velocity P-wave (km/s) = 4.22505 6.74871 5.63010
#
# Compressibility (1/GPa) = 0.02193275
#
# Stress axis : x y z
#
# Youngs Moduli (GPa) = 70.87496 30.92126 99.58870
#
# Poissons Ratio (x) = 0.33085 0.26280
# Poissons Ratio (y) = 0.75834 0.39243
# Poissons Ratio (z) = 0.18703 0.12185
#
# Static dielectric constant tensor:
#      x y z
#    x 1.761150 0.000000 0.053270 
#    y 0.000000 1.690750 0.000000 
#    z 0.053270 0.000000 1.817730 
# 
# From -- ./inp_files/290643.got.cif
#   From: 2010.05.17/outbox.cif.g08.bks.cpg/sg12_146_cif.got.tgz:290643.got - 2010.06.03 13:09:07.
