data_PCOD9197363
_publ_section_title
;
Structure prediction by ZEFSAII (Michael W. Deem and Ramdas Pophale) SiO2 
 PCOD9197363
Probable space group: C 2/M
;
_chemical_formula_sum "Si O2"
_cell_formula_units_Z 56
_cell_length_a 23.346160
_cell_length_b 8.789051
_cell_length_c 14.897395
_cell_angle_alpha 90.000000
_cell_angle_beta 66.066799
_cell_angle_gamma 90.000000
_cell_volume 2793.978217
_symmetry_space_group_name_H-M "C 2/M"
_symmetry_group_IT_number 12
_symmetry_cell_setting 'monoclinic'
loop_
_space_group_symop_operation_xyz
x,y,z
-x,y,-z
-x,-y,-z
x,-y,z
1/2+x,1/2+y,z
1/2-x,1/2+y,-z
1/2-x,1/2-y,-z
1/2+x,1/2-y,z
loop_
_atom_site_type_symbol
_atom_site_label
_atom_site_fract_x
_atom_site_fract_y
_atom_site_fract_z
Si Si1 0.470714 0.677957 0.118379
Si Si2 0.989811 0.819745 0.400777
Si Si3 0.932565 0.680292 0.801419
Si Si4 0.739859 0.319052 0.651236
Si Si5 0.346003 0.317709 0.467036
Si Si6 0.157881 0.319410 0.851386
Si Si7 0.818395 0.181407 0.970364
O O1 0.461087 0.500000 0.146747
O O2 0.518426 0.752372 0.157485
O O3 0.404816 0.764035 0.158862
O O4 0.500000 0.686868 0.000000
O O5 0.918785 0.773993 0.420293
O O6 0.000000 0.799985 0.500000
O O7 0.039955 0.727308 0.311851
O O8 0.996597 0.000000 0.375709
O O9 0.928022 0.500000 0.814084
O O10 0.866176 0.755642 0.865995
O O11 0.740150 0.500000 0.665892
O O12 0.689522 0.284518 0.603827
O O13 0.806120 0.263262 0.570222
O O14 0.716698 0.234124 0.754655
O O15 0.342866 0.500000 0.483100
O O16 0.157792 0.500000 0.863314
O O17 0.158272 0.237880 0.947308
O O18 0.817087 0.000000 0.968833
O O19 0.750000 0.250000 0.000000
#
# Coordination Sequence:
#
# PCOD9197363 Si02
#       7
#     8   8   8   8   8   8   8
#     4  11  22  38  64  94 127 166 207 260 317 375
#     4  10  22  41  65  90 121 165 214 262 312 371
#     4  12  25  42  66  96 130 168 211 263 319 379
#     4  10  20  35  59  88 122 162 203 253 314 374
#     4   9  19  37  59  86 120 157 205 260 315 370
#     4  12  24  39  62  94 129 165 209 257 311 377
#     4  12  26  46  67  90 124 166 211 257 309 372
#
# _framework density 20.043106999999999
#
# number of rings (size 3 to 8) (size 9 to 14) (size 15 to 20)
#    0.000    1.143    1.429    5.571    0.000    4.286 
#    0.000    4.286    0.000    0.000    0.000    0.000 
#    0.000    0.000    0.000    0.000    0.000    0.000 
#
# Total GULP energy -156707.532414 kJ/mol
# GULP energy per Si atom -5596.697586 kJ/mol
# Density = 1.999749 g / cm^3
# Si number density = 20.043107 Si / 1000 Ang^3
#
#
#
# Elastic Constant Matrix: (Units=GPa)
#
#
# Indices 1 2 3 4 5 6 
#
# 1 73.9547 28.3185 22.6447 0.0000 -23.5209 0.0000
# 2 28.3185 124.7899 51.1763 0.0000 -7.8442 0.0000
# 3 22.6447 51.1763 95.8206 0.0000 -22.9618 0.0000
# 4 0.0000 0.0000 0.0000 35.7417 0.0000 -3.4512
# 5 -23.5209 -7.8442 -22.9618 0.0000 25.6086 0.0000
# 6 0.0000 0.0000 0.0000 -3.4512 0.0000 29.2068
#
#
#
# Elastic Compliance Matrix: (Units=1/GPa)
#
#
# Indices 1 2 3 4 5 6 
#
# 1 0.020795 -0.004354 0.002125 0.000000 0.019671 0.000000
# 2 -0.004354 0.011276 -0.006526 0.000000 -0.006397 0.000000
# 3 0.002125 -0.006526 0.017078 0.000000 0.015265 0.000000
# 4 0.000000 0.000000 0.000000 0.028301 0.000000 0.003344
# 5 0.019671 -0.006397 0.015265 0.000000 0.068845 0.000000
# 6 0.000000 0.000000 0.000000 0.003344 0.000000 0.034634
#
#
# Mechanical properties :
#
#
# Convention : Reuss Voigt Hill
#
# Bulk Modulus (GPa) = 31.60786 55.42714 43.51750
# Shear Modulus (GPa) = 23.92527 30.93977 27.43252
#
# Velocity S-wave (km/s) = 3.45873 3.93321 3.70358
# Velocity P-wave (km/s) = 5.63512 6.95276 6.32833
#
# Compressibility (1/GPa) = 0.03163770
#
# Stress axis : x y z
#
# Youngs Moduli (GPa) = 48.08946 88.68578 58.55639
#
# Poissons Ratio (x) = 0.38612 -0.12442
# Poissons Ratio (y) = 0.20937 0.38215
# Poissons Ratio (z) = -0.10218 0.57878
#
# Static dielectric constant tensor:
#      x y z
#    x 1.659750 0.000000 -0.003560 
#    y 0.000000 1.664480 0.000000 
#    z -0.003560 0.000000 1.701460 
# 
# From -- ./inp_files/238239.got.cif
#   From: 2010.05.17/outbox.cif.g08.bks.cpg/sg12_120_cif.got.tgz:238239.got - 2010.06.03 13:09:07.
