data_PCOD9197014
_publ_section_title
;
Structure prediction by ZEFSAII (Michael W. Deem and Ramdas Pophale) SiO2 
 PCOD9197014
Probable space group: C 2/M
;
_chemical_formula_sum "Si O2"
_cell_formula_units_Z 48
_cell_length_a 27.496398
_cell_length_b 14.167578
_cell_length_c 21.162864
_cell_angle_alpha 90.000000
_cell_angle_beta 165.238330
_cell_angle_gamma 90.000000
_cell_volume 2100.600313
_symmetry_space_group_name_H-M "C 2/M"
_symmetry_group_IT_number 12
_symmetry_cell_setting 'monoclinic'
loop_
_space_group_symop_operation_xyz
x,y,z
-x,y,-z
-x,-y,-z
x,-y,z
1/2+x,1/2+y,z
1/2-x,1/2+y,-z
1/2-x,1/2-y,-z
1/2+x,1/2-y,z
loop_
_atom_site_type_symbol
_atom_site_label
_atom_site_fract_x
_atom_site_fract_y
_atom_site_fract_z
Si Si1 0.733648 0.107833 0.799931
Si Si2 0.287230 0.887355 0.364886
Si Si3 0.669567 0.766400 0.829224
Si Si4 0.683240 0.778655 0.485617
Si Si5 0.397164 0.889083 0.804859
Si Si6 0.152624 0.389373 0.002205
O O1 0.500000 0.112607 0.500000
O O2 0.804744 0.132121 0.819025
O O3 0.791636 0.171951 0.931858
O O4 0.783462 0.000000 0.876454
O O5 0.480521 0.826560 0.602746
O O6 0.204576 0.850292 0.327016
O O7 0.317770 0.000000 0.405641
O O8 0.750000 0.750000 0.000000
O O9 0.655230 0.668013 0.772962
O O10 0.750000 0.750000 0.500000
O O11 0.717020 0.679095 0.564818
O O12 0.496905 0.840400 0.233605
O O13 0.557368 0.875998 0.951227
O O14 0.342879 0.000000 0.736028
O O15 0.500000 0.866801 0.000000
O O16 0.172136 0.500000 0.015168
#
# Coordination Sequence:
#
# PCOD9197014 Si02
#       6
#     8   8   8   8   8   8
#     4   8  17  33  53  78 108 146 188 233 280 331
#     4  10  20  38  62  83 115 155 191 237 291 340
#     4  11  20  31  55  88 116 149 192 228 286 346
#     4  10  20  35  58  86 110 150 193 231 280 341
#     4   9  20  39  61  83 108 146 191 234 283 338
#     4  10  21  37  57  82 117 153 186 231 286 340
#
# _framework density 22.850611000000001
#
# number of rings (size 3 to 8) (size 9 to 14) (size 15 to 20)
#    0.000    2.333    1.667    2.000    2.333    1.333 
#    0.000    2.500    0.000   10.500    0.000    0.000 
#    0.000    0.000    0.000    0.000    0.000    0.000 
#
# Total GULP energy -133614.414359 kJ/mol
# GULP energy per Si atom -5567.267265 kJ/mol
# Density = 2.279860 g / cm^3
# Si number density = 22.850611 Si / 1000 Ang^3
#
#
#
# Elastic Constant Matrix: (Units=GPa)
#
#
# Indices 1 2 3 4 5 6 
#
# 1 171.3587 88.4207 38.4007 0.0093 -40.8442 0.0067
# 2 88.4207 133.8217 39.3116 0.0167 -25.3880 0.0123
# 3 38.4007 39.3116 59.2696 0.0196 -8.7000 0.0155
# 4 0.0093 0.0167 0.0196 28.2813 0.0084 -15.1420
# 5 -40.8442 -25.3880 -8.7000 0.0084 28.7707 0.0060
# 6 0.0067 0.0123 0.0155 -15.1420 0.0060 37.3613
#
#
#
# Elastic Compliance Matrix: (Units=1/GPa)
#
#
# Indices 1 2 3 4 5 6 
#
# 1 0.011611 -0.004685 -0.002723 -0.000004 0.011525 -0.000003
# 2 -0.004685 0.012557 -0.004859 -0.000006 0.002960 -0.000004
# 3 -0.002723 -0.004859 0.021622 -0.000018 -0.001615 -0.000014
# 4 -0.000004 -0.000006 -0.000018 0.045158 -0.000033 0.018302
# 5 0.011525 0.002960 -0.001615 -0.000033 0.053243 -0.000025
# 6 -0.000003 -0.000004 -0.000014 0.018302 -0.000025 0.034183
#
#
# Mechanical properties :
#
#
# Convention : Reuss Voigt Hill
#
# Bulk Modulus (GPa) = 47.04643 77.41290 62.22967
# Shear Modulus (GPa) = 23.81025 32.10377 27.95701
#
# Velocity S-wave (km/s) = 3.23150 3.75232 3.50161
# Velocity P-wave (km/s) = 5.87851 7.26117 6.60611
#
# Compressibility (1/GPa) = 0.02125560
#
# Stress axis : x y z
#
# Youngs Moduli (GPa) = 86.12877 79.63603 46.24911
#
# Poissons Ratio (x) = 0.37309 0.12595
# Poissons Ratio (y) = 0.40351 0.22471
# Poissons Ratio (z) = 0.23455 0.38693
#
# Static dielectric constant tensor:
#      x y z
#    x 2.014640 -0.000010 0.152570 
#    y -0.000010 1.863440 -0.000010 
#    z 0.152570 -0.000010 2.056900 
# 
# From -- ./inp_files/328011.got.cif
#   From: 2010.05.17/outbox.cif.g08.bks.cpg/sg12_165_cif.got.tgz:328011.got - 2010.06.03 13:09:07.
