data_PCOD9197996
_publ_section_title
;
Structure prediction by ZEFSAII (Michael W. Deem and Ramdas Pophale) SiO2 
 PCOD9197996
Probable space group: C 2/M
;
_chemical_formula_sum "Si O2"
_cell_formula_units_Z 44
_cell_length_a 20.465451
_cell_length_b 13.378074
_cell_length_c 7.246689
_cell_angle_alpha 90.000000
_cell_angle_beta 80.181749
_cell_angle_gamma 90.000000
_cell_volume 1954.999533
_symmetry_space_group_name_H-M "C 2/M"
_symmetry_group_IT_number 12
_symmetry_cell_setting 'monoclinic'
loop_
_space_group_symop_operation_xyz
x,y,z
-x,y,-z
-x,-y,-z
x,-y,z
1/2+x,1/2+y,z
1/2-x,1/2+y,-z
1/2-x,1/2-y,-z
1/2+x,1/2-y,z
loop_
_atom_site_type_symbol
_atom_site_label
_atom_site_fract_x
_atom_site_fract_y
_atom_site_fract_z
Si Si1 0.819335 0.671919 0.955640
Si Si2 0.815759 0.709633 0.371594
Si Si3 0.742788 0.000000 0.539387
Si Si4 0.903768 0.780997 0.634211
Si Si5 0.281467 0.500000 0.098671
Si Si6 0.625625 0.500000 0.266591
Si Si7 0.537674 0.889049 0.171230
O O1 0.815274 0.724745 0.154135
O O2 0.759438 0.597905 0.944831
O O3 0.838370 0.750945 0.788116
O O4 0.885389 0.605319 0.923166
O O5 0.750000 0.750000 0.500000
O O6 0.806276 0.592664 0.412071
O O7 0.880150 0.754346 0.440053
O O8 0.803678 0.000000 0.655311
O O9 0.777682 0.000000 0.322227
O O10 0.958730 0.704771 0.689696
O O11 0.912795 0.898392 0.662233
O O12 0.351305 0.500000 0.958653
O O13 0.516514 0.000000 0.249469
O O14 0.500000 0.865757 0.000000
#
# Coordination Sequence:
#
# PCOD9197996 Si02
#       7
#     8   8   4   8   4   4   8
#     4  10  20  36  55  82 113 149 188 236 286 334
#     4  12  22  34  52  83 120 157 187 225 278 350
#     4  12  22  30  50  77 118 154 193 217 275 333
#     4  10  23  37  56  81 115 152 191 239 284 338
#     4  12  20  34  55  82 118 161 183 231 281 343
#     4  12  24  36  51  83 119 155 197 220 278 356
#     4   9  19  40  65  85 109 144 193 249 296 332
#
# _framework density 22.506398000000001
#
# number of rings (size 3 to 8) (size 9 to 14) (size 15 to 20)
#    1.091    0.182    6.364    0.000    3.818    1.455 
#    0.000    1.364    0.000    2.182    0.000    1.273 
#    0.000    0.000    0.000    0.000    0.000    0.000 
#
# Total GULP energy -122792.912803 kJ/mol
# GULP energy per Si atom -5581.496036 kJ/mol
# Density = 2.245517 g / cm^3
# Si number density = 22.506398 Si / 1000 Ang^3
#
#
#
# Elastic Constant Matrix: (Units=GPa)
#
#
# Indices 1 2 3 4 5 6 
#
# 1 39.8552 32.0326 2.7177 0.0000 10.9356 0.0000
# 2 32.0326 165.0154 15.1006 0.0000 19.4299 0.0000
# 3 2.7177 15.1006 114.3412 0.0000 13.2316 0.0000
# 4 0.0000 0.0000 0.0000 24.8721 0.0000 15.1079
# 5 10.9356 19.4299 13.2316 0.0000 24.2274 0.0000
# 6 0.0000 0.0000 0.0000 15.1079 0.0000 14.9793
#
#
#
# Elastic Compliance Matrix: (Units=1/GPa)
#
#
# Indices 1 2 3 4 5 6 
#
# 1 0.032101 -0.005033 0.001186 0.000000 -0.011101 0.000000
# 2 -0.005033 0.007489 -0.000467 0.000000 -0.003480 0.000000
# 3 0.001186 -0.000467 0.009391 0.000000 -0.005290 0.000000
# 4 0.000000 0.000000 0.000000 0.103792 0.000000 -0.104683
# 5 -0.011101 -0.003480 -0.005290 0.000000 0.051966 0.000000
# 6 0.000000 0.000000 0.000000 -0.104683 0.000000 0.172340
#
#
# Mechanical properties :
#
#
# Convention : Reuss Voigt Hill
#
# Bulk Modulus (GPa) = 24.77999 46.54595 35.66297
# Shear Modulus (GPa) = 12.52634 30.77315 21.64974
#
# Velocity S-wave (km/s) = 2.36173 3.70172 3.10488
# Velocity P-wave (km/s) = 4.29780 6.24471 5.36039
#
# Compressibility (1/GPa) = 0.04035514
#
# Stress axis : x y z
#
# Youngs Moduli (GPa) = 31.15173 133.52104 106.48061
#
# Poissons Ratio (x) = 0.67199 -0.12632
# Poissons Ratio (y) = 0.15678 0.04971
# Poissons Ratio (z) = -0.03696 0.06233
#
# Static dielectric constant tensor:
#      x y z
#    x 1.827450 0.000000 -0.004850 
#    y 0.000000 1.858450 0.000000 
#    z -0.004850 0.000000 1.842040 
# 
# From -- ./inp_files/95332.got.cif
#   From: 2010.05.17/outbox.cif.g08.bks.cpg/sg12_48_cif.got.tgz:95332.got - 2010.06.03 13:09:07.
