data_PCOD9197949
_publ_section_title
;
Structure prediction by ZEFSAII (Michael W. Deem and Ramdas Pophale) SiO2 
 PCOD9197949
Probable space group: C 2/M
;
_chemical_formula_sum "Si O2"
_cell_formula_units_Z 56
_cell_length_a 19.463991
_cell_length_b 9.091308
_cell_length_c 25.548275
_cell_angle_alpha 90.000000
_cell_angle_beta 45.297593
_cell_angle_gamma 90.000000
_cell_volume 3213.282367
_symmetry_space_group_name_H-M "C 2/M"
_symmetry_group_IT_number 12
_symmetry_cell_setting 'monoclinic'
loop_
_space_group_symop_operation_xyz
x,y,z
-x,y,-z
-x,-y,-z
x,-y,z
1/2+x,1/2+y,z
1/2-x,1/2+y,-z
1/2-x,1/2-y,-z
1/2+x,1/2-y,z
loop_
_atom_site_type_symbol
_atom_site_label
_atom_site_fract_x
_atom_site_fract_y
_atom_site_fract_z
Si Si1 0.088818 0.822401 0.918133
Si Si2 0.353005 0.824800 0.433018
Si Si3 0.303143 0.175577 0.806835
Si Si4 0.799740 0.829090 0.697659
Si Si5 0.985879 0.676237 0.261612
Si Si6 0.607521 0.675978 0.786628
Si Si7 0.517663 0.163938 0.429348
O O1 0.194927 0.791643 0.885806
O O2 0.086178 0.775953 0.858333
O O3 0.080529 0.000000 0.921189
O O4 0.000000 0.764191 0.000000
O O5 0.250000 0.750000 0.500000
O O6 0.414032 0.778019 0.348190
O O7 0.424429 0.802121 0.444159
O O8 0.336999 0.000000 0.436504
O O9 0.307638 0.272398 0.752591
O O10 0.401458 0.204676 0.785336
O O11 0.303458 0.000000 0.794076
O O12 0.715099 0.734033 0.717148
O O13 0.902412 0.787537 0.619584
O O14 0.776801 0.000000 0.706451
O O15 0.974763 0.500000 0.262123
O O16 0.959141 0.755225 0.222102
O O17 0.604163 0.500000 0.786821
O O18 0.500000 0.152842 0.500000
O O19 0.552250 0.000000 0.392411
#
# Coordination Sequence:
#
# PCOD9197949 Si02
#       7
#     8   8   8   8   8   8   8
#     4   8  15  31  57  85 108 137 180 224 264 316
#     4  10  22  38  54  76 108 143 181 227 275 323
#     4   9  17  34  58  79 106 144 180 216 266 323
#     4  11  21  34  54  79 106 137 179 228 269 319
#     4  10  20  36  55  77 110 146 182 224 270 324
#     4  10  21  35  55  80 109 144 182 222 268 323
#     4  10  21  38  57  76 102 139 182 225 272 327
#
# _framework density 17.427662000000002
#
# number of rings (size 3 to 8) (size 9 to 14) (size 15 to 20)
#    0.000    2.286    1.429    2.571    2.000    2.000 
#    0.000    0.714    0.000   10.714    0.000    0.000 
#    0.000    0.000    0.000    0.000    0.000    0.000 
#
# Total GULP energy -155951.708457 kJ/mol
# GULP energy per Si atom -5569.703873 kJ/mol
# Density = 1.738800 g / cm^3
# Si number density = 17.427662 Si / 1000 Ang^3
#
#
#
# Elastic Constant Matrix: (Units=GPa)
#
#
# Indices 1 2 3 4 5 6 
#
# 1 130.5539 43.7523 70.1763 0.0000 -8.2527 0.0001
# 2 43.7523 33.7097 26.0888 0.0000 -4.7699 0.0003
# 3 70.1763 26.0888 102.7906 0.0000 -20.8288 0.0000
# 4 0.0000 0.0000 0.0000 28.3205 0.0000 0.9456
# 5 -8.2527 -4.7699 -20.8288 0.0000 21.2850 0.0000
# 6 0.0001 0.0003 0.0000 0.9456 0.0000 29.9682
#
#
#
# Elastic Compliance Matrix: (Units=1/GPa)
#
#
# Indices 1 2 3 4 5 6 
#
# 1 0.017843 -0.016978 -0.009033 0.000000 -0.005726 0.000000
# 2 -0.016978 0.053093 -0.001007 0.000000 0.004330 -0.000001
# 3 -0.009033 -0.001007 0.019203 0.000000 0.015064 0.000000
# 4 0.000000 0.000000 0.000000 0.035347 0.000000 -0.001115
# 5 -0.005726 0.004330 0.015064 0.000000 0.060472 0.000000
# 6 0.000000 -0.000001 0.000000 -0.001115 0.000000 0.033404
#
#
# Mechanical properties :
#
#
# Convention : Reuss Voigt Hill
#
# Bulk Modulus (GPa) = 27.69771 60.78765 44.24268
# Shear Modulus (GPa) = 17.51731 24.38388 20.95060
#
# Velocity S-wave (km/s) = 3.17384 3.74458 3.47096
# Velocity P-wave (km/s) = 5.41835 7.32472 6.44244
#
# Compressibility (1/GPa) = 0.03610407
#
# Stress axis : x y z
#
# Youngs Moduli (GPa) = 56.04503 18.83489 52.07507
#
# Poissons Ratio (x) = 0.31978 0.47037
# Poissons Ratio (y) = 0.95154 0.05243
# Poissons Ratio (z) = 0.50623 0.01896
#
# Static dielectric constant tensor:
#      x y z
#    x 1.603440 0.000000 -0.016610 
#    y 0.000000 1.596670 0.000000 
#    z -0.016610 0.000000 1.631940 
# 
# From -- ./inp_files/342257.got.cif
#   From: 2010.05.17/outbox.cif.g08.bks.cpg/sg12_172_cif.got.tgz:342257.got - 2010.06.03 13:09:07.
