data_PCOD9197776
_publ_section_title
;
Structure prediction by ZEFSAII (Michael W. Deem and Ramdas Pophale) SiO2 
 PCOD9197776
Probable space group: C 2/M
;
_chemical_formula_sum "Si O2"
_cell_formula_units_Z 36
_cell_length_a 17.224171
_cell_length_b 15.012080
_cell_length_c 13.395934
_cell_angle_alpha 90.000000
_cell_angle_beta 145.984452
_cell_angle_gamma 90.000000
_cell_volume 1937.708839
_symmetry_space_group_name_H-M "C 2/M"
_symmetry_group_IT_number 12
_symmetry_cell_setting 'monoclinic'
loop_
_space_group_symop_operation_xyz
x,y,z
-x,y,-z
-x,-y,-z
x,-y,z
1/2+x,1/2+y,z
1/2-x,1/2+y,-z
1/2-x,1/2-y,-z
1/2+x,1/2-y,z
loop_
_atom_site_type_symbol
_atom_site_label
_atom_site_fract_x
_atom_site_fract_y
_atom_site_fract_z
Si Si1 0.735749 0.676240 0.617961
Si Si2 0.840080 0.500000 0.375240
Si Si3 0.833767 0.861295 0.687173
Si Si4 0.160328 0.500000 0.161756
Si Si5 0.635973 0.500000 0.777493
Si Si6 0.500000 0.346819 0.500000
Si Si7 0.422098 0.500000 0.052058
O O1 0.840275 0.758835 0.728246
O O2 0.695030 0.647626 0.462410
O O3 0.783354 0.587263 0.723633
O O4 0.607423 0.708459 0.549450
O O5 0.792441 0.415341 0.393698
O O6 0.000000 0.500000 0.500000
O O7 0.720144 0.500000 0.161573
O O8 0.974941 0.916129 0.856268
O O9 0.208747 0.500000 0.098884
O O10 0.000000 0.500000 0.000000
O O11 0.566697 0.413794 0.652508
O O12 0.616666 0.500000 0.873242
#
# Coordination Sequence:
#
# PCOD9197776 Si02
#       7
#     8   4   8   4   4   4   4
#     4  10  20  35  64  87 118 150 197 246 297 358
#     4  11  26  41  60  84 122 167 203 249 294 353
#     4  10  21  38  62  90 114 157 198 244 299 354
#     4  10  21  34  55  85 119 155 185 246 295 345
#     4   9  17  31  58  85 111 152 197 238 293 346
#     4   9  16  32  58  87 116 144 190 247 292 353
#     4  11  20  40  62  87 119 161 205 241 292 367
#
# _framework density 18.578641999999999
#
# number of rings (size 3 to 8) (size 9 to 14) (size 15 to 20)
#    0.000    2.000    2.222    3.333    1.556    3.556 
#    0.000    0.000    0.000    6.667    0.000    0.000 
#    0.000    0.000    0.000    0.000    0.000    0.000 
#
# Total GULP energy -100249.818353 kJ/mol
# GULP energy per Si atom -5569.434353 kJ/mol
# Density = 1.853636 g / cm^3
# Si number density = 18.578642 Si / 1000 Ang^3
#
#
#
# Elastic Constant Matrix: (Units=GPa)
#
#
# Indices 1 2 3 4 5 6 
#
# 1 168.3954 45.7570 62.1020 0.0000 5.0366 0.0000
# 2 45.7570 107.4680 31.5698 0.0000 1.9770 0.0000
# 3 62.1020 31.5698 82.6800 0.0000 14.3636 0.0000
# 4 0.0000 0.0000 0.0000 -112.2837 0.0000 43.0995
# 5 5.0366 1.9770 14.3636 0.0000 33.3996 0.0000
# 6 0.0000 0.0000 0.0000 43.0995 0.0000 6.6628
#
#
#
# Elastic Compliance Matrix: (Units=1/GPa)
#
#
# Indices 1 2 3 4 5 6 
#
# 1 0.008631 -0.001943 -0.005982 0.000000 0.001386 0.000000
# 2 -0.001943 0.010962 -0.002879 0.000000 0.000882 0.000000
# 3 -0.005982 -0.002879 0.018914 0.000000 -0.007062 0.000000
# 4 0.000000 0.000000 0.000000 -0.002557 0.000000 0.016541
# 5 0.001386 0.000882 -0.007062 0.000000 0.032716 0.000000
# 6 0.000000 0.000000 0.000000 0.016541 0.000000 0.043092
#
#
# Mechanical properties :
#
#
# Convention : Reuss Voigt Hill
#
# Bulk Modulus (GPa) = 59.17682 70.82232 64.99957
# Shear Modulus (GPa) = 35.97151 0.16338 18.06744
#
# Velocity S-wave (km/s) = 4.40497 0.29687 3.12185
# Velocity P-wave (km/s) = 7.60217 6.19036 6.93230
#
# Compressibility (1/GPa) = 0.01689851
#
# Stress axis : x y z
#
# Youngs Moduli (GPa) = 115.86302 91.22374 52.87119
#
# Poissons Ratio (x) = 0.17726 0.31625
# Poissons Ratio (y) = 0.22514 0.15224
# Poissons Ratio (z) = 0.69304 0.26267
#
# Static dielectric constant tensor:
#      x y z
#    x 1.687110 0.000000 0.034960 
#    y 0.000000 1.583840 0.000000 
#    z 0.034960 0.000000 1.687400 
# 
# From -- ./inp_files/225061.got.cif
#   From: 2010.05.17/outbox.cif.g08.bks.cpg/sg12_113_cif.got.tgz:225061.got - 2010.06.03 13:09:07.
