data_PCOD9197577
_publ_section_title
;
Structure prediction by ZEFSAII (Michael W. Deem and Ramdas Pophale) SiO2 
 PCOD9197577
Probable space group: C 2/M
;
_chemical_formula_sum "Si O2"
_cell_formula_units_Z 40
_cell_length_a 26.815392
_cell_length_b 9.123187
_cell_length_c 21.889588
_cell_angle_alpha 90.000000
_cell_angle_beta 159.348042
_cell_angle_gamma 90.000000
_cell_volume 1888.695308
_symmetry_space_group_name_H-M "C 2/M"
_symmetry_group_IT_number 12
_symmetry_cell_setting 'monoclinic'
loop_
_space_group_symop_operation_xyz
x,y,z
-x,y,-z
-x,-y,-z
x,-y,z
1/2+x,1/2+y,z
1/2-x,1/2+y,-z
1/2-x,1/2-y,-z
1/2+x,1/2-y,z
loop_
_atom_site_type_symbol
_atom_site_label
_atom_site_fract_x
_atom_site_fract_y
_atom_site_fract_z
Si Si1 0.737778 0.827761 0.087516
Si Si2 0.647575 0.829377 0.204840
Si Si3 0.833144 0.674866 0.317295
Si Si4 0.443272 0.167011 0.234523
Si Si5 0.768546 0.167742 0.584798
O O1 0.750560 0.734204 0.163240
O O2 0.867961 0.779070 0.193379
O O3 0.742555 0.000000 0.108047
O O4 0.604214 0.801526 0.889701
O O5 0.765898 0.752536 0.298815
O O6 0.636579 0.751615 0.257607
O O7 0.682144 0.000000 0.253179
O O8 0.500000 0.818098 0.000000
O O9 0.819112 0.500000 0.306818
O O10 0.000000 0.708712 0.500000
O O11 0.610309 0.167949 0.431290
O O12 0.392501 0.000000 0.190018
O O13 0.750000 0.250000 0.500000
O O14 0.813828 0.000000 0.627770
#
# Coordination Sequence:
#
# PCOD9197577 Si02
#       5
#     8   8   8   8   8
#     4  10  20  35  60  91 122 159 204 254 310 374
#     4  11  26  46  67  94 131 171 217 272 325 381
#     4  11  24  41  63  92 128 167 211 263 321 384
#     4   9  20  38  58  86 125 161 200 256 313 366
#     4  11  24  42  65  92 126 167 213 261 314 378
#
# _framework density 21.178642
#
# number of rings (size 3 to 8) (size 9 to 14) (size 15 to 20)
#    0.000    1.600    0.000    3.600    2.800   10.400 
#    0.000    0.000    0.000    0.000    0.000    0.000 
#    0.000    0.000    0.000    0.000    0.000    0.000 
#
# Total GULP energy -111876.539703 kJ/mol
# GULP energy per Si atom -5593.826985 kJ/mol
# Density = 2.113044 g / cm^3
# Si number density = 21.178642 Si / 1000 Ang^3
#
#
#
# Elastic Constant Matrix: (Units=GPa)
#
#
# Indices 1 2 3 4 5 6 
#
# 1 97.5645 61.8977 19.6948 0.0000 -30.5722 0.0000
# 2 61.8977 129.7127 42.2462 0.0000 -21.9977 0.0000
# 3 19.6948 42.2462 46.5042 0.0000 -17.6960 0.0000
# 4 0.0000 0.0000 0.0000 27.9661 0.0000 -5.1687
# 5 -30.5722 -21.9977 -17.6960 0.0000 38.8640 0.0000
# 6 0.0000 0.0000 0.0000 -5.1687 0.0000 36.1685
#
#
#
# Elastic Compliance Matrix: (Units=1/GPa)
#
#
# Indices 1 2 3 4 5 6 
#
# 1 0.018137 -0.007989 0.003974 0.000000 0.011554 0.000000
# 2 -0.007989 0.014601 -0.011040 0.000000 -0.003047 0.000000
# 3 0.003974 -0.011040 0.034668 0.000000 0.012662 0.000000
# 4 0.000000 0.000000 0.000000 0.036728 0.000000 0.005249
# 5 0.011554 -0.003047 0.012662 0.000000 0.038861 0.000000
# 6 0.000000 0.000000 0.000000 0.005249 0.000000 0.028398
#
#
# Mechanical properties :
#
#
# Convention : Reuss Voigt Hill
#
# Bulk Modulus (GPa) = 26.81387 57.93987 42.37687
# Shear Modulus (GPa) = 23.37161 30.59589 26.98375
#
# Velocity S-wave (km/s) = 3.32557 3.80499 3.57333
# Velocity P-wave (km/s) = 5.23777 6.83528 6.08914
#
# Compressibility (1/GPa) = 0.03729414
#
# Stress axis : x y z
#
# Youngs Moduli (GPa) = 55.13638 68.49054 28.84510
#
# Poissons Ratio (x) = 0.54720 -0.11462
# Poissons Ratio (y) = 0.44051 0.31844
# Poissons Ratio (z) = -0.21909 0.75612
#
# Static dielectric constant tensor:
#      x y z
#    x 1.766980 0.000000 -0.005490 
#    y 0.000000 1.733370 0.000000 
#    z -0.005490 0.000000 1.776440 
# 
# From -- ./inp_files/162589.got.cif
#   From: 2010.05.17/outbox.cif.g08.bks.cpg/sg12_82_cif.got.tgz:162589.got - 2010.06.03 13:09:07.
