data_PCOD9197401
_publ_section_title
;
Structure prediction by ZEFSAII (Michael W. Deem and Ramdas Pophale) SiO2 
 PCOD9197401
Probable space group: C 2/M
;
_chemical_formula_sum "Si O2"
_cell_formula_units_Z 56
_cell_length_a 25.739386
_cell_length_b 8.774786
_cell_length_c 14.875347
_cell_angle_alpha 90.000000
_cell_angle_beta 58.282940
_cell_angle_gamma 90.000000
_cell_volume 2857.952999
_symmetry_space_group_name_H-M "C 2/M"
_symmetry_group_IT_number 12
_symmetry_cell_setting 'monoclinic'
loop_
_space_group_symop_operation_xyz
x,y,z
-x,y,-z
-x,-y,-z
x,-y,z
1/2+x,1/2+y,z
1/2-x,1/2+y,-z
1/2-x,1/2-y,-z
1/2+x,1/2-y,z
loop_
_atom_site_type_symbol
_atom_site_label
_atom_site_fract_x
_atom_site_fract_y
_atom_site_fract_z
Si Si1 0.577580 0.319499 0.690927
Si Si2 0.748981 0.317924 0.769077
Si Si3 0.516961 0.178524 0.088362
Si Si4 0.508061 0.683881 0.389910
Si Si5 0.791797 0.681129 0.383641
Si Si6 0.840524 0.318110 0.002022
Si Si7 0.862257 0.316367 0.781432
O O1 0.589904 0.500000 0.677979
O O2 0.525284 0.281299 0.810844
O O3 0.548802 0.271829 0.621359
O O4 0.638925 0.233143 0.661377
O O5 0.747752 0.500000 0.759453
O O6 0.730372 0.241363 0.692811
O O7 0.702153 0.269343 0.889903
O O8 0.816026 0.272316 0.744119
O O9 0.505677 0.000000 0.121466
O O10 0.500000 0.200666 0.000000
O O11 0.588464 0.207444 0.038161
O O12 0.500000 0.734275 0.500000
O O13 0.511508 0.500000 0.385135
O O14 0.570908 0.748309 0.293087
O O15 0.787780 0.500000 0.388707
O O16 0.750000 0.750000 0.500000
O O17 0.828569 0.500000 0.020404
O O18 0.834235 0.270957 0.903567
O O19 0.867364 0.500000 0.778583
#
# Coordination Sequence:
#
# PCOD9197401 Si02
#       7
#     8   8   8   8   8   8   8
#     4  11  23  41  65  95 128 161 207 260 312 370
#     4  11  24  41  63  95 130 166 215 264 312 374
#     4  10  20  35  59  89 124 166 210 254 307 370
#     4  10  23  41  63  94 128 165 209 257 314 375
#     4  12  27  47  69  92 124 166 211 261 319 376
#     4  10  20  37  60  91 131 171 211 256 314 374
#     4  10  22  40  63  94 129 168 213 259 312 375
#
# _framework density 19.594442999999998
#
# number of rings (size 3 to 8) (size 9 to 14) (size 15 to 20)
#    0.000    1.429    1.429    3.429    2.000    4.571 
#    0.000    0.000    0.000    0.000    0.000    0.000 
#    0.000    0.000    0.000    0.000    0.000    0.000 
#
# Total GULP energy -156579.465774 kJ/mol
# GULP energy per Si atom -5592.123778 kJ/mol
# Density = 1.954985 g / cm^3
# Si number density = 19.594443 Si / 1000 Ang^3
#
#
#
# Elastic Constant Matrix: (Units=GPa)
#
#
# Indices 1 2 3 4 5 6 
#
# 1 143.8390 48.3917 33.7466 0.0000 26.5646 0.0000
# 2 48.3917 57.5297 21.5490 0.0000 9.4717 0.0000
# 3 33.7466 21.5490 66.8839 0.0000 19.8009 0.0000
# 4 0.0000 0.0000 0.0000 35.1455 0.0000 -8.0933
# 5 26.5646 9.4717 19.8009 0.0000 30.7346 0.0000
# 6 0.0000 0.0000 0.0000 -8.0933 0.0000 12.5204
#
#
#
# Elastic Compliance Matrix: (Units=1/GPa)
#
#
# Indices 1 2 3 4 5 6 
#
# 1 0.011023 -0.007785 -0.001165 0.000000 -0.006377 0.000000
# 2 -0.007785 0.025418 -0.004862 0.000000 0.002028 0.000000
# 3 -0.001165 -0.004862 0.020220 0.000000 -0.010522 0.000000
# 4 0.000000 0.000000 0.000000 0.033429 0.000000 0.021609
# 5 -0.006377 0.002028 -0.010522 0.000000 0.044202 0.000000
# 6 0.000000 0.000000 0.000000 0.021609 0.000000 0.093838
#
#
# Mechanical properties :
#
#
# Convention : Reuss Voigt Hill
#
# Bulk Modulus (GPa) = 34.43891 52.84749 43.64320
# Shear Modulus (GPa) = 18.83707 26.65112 22.74409
#
# Velocity S-wave (km/s) = 3.10392 3.69200 3.41066
# Velocity P-wave (km/s) = 5.51904 6.72337 6.15075
#
# Compressibility (1/GPa) = 0.02903692
#
# Stress axis : x y z
#
# Youngs Moduli (GPa) = 90.72309 39.34191 49.45486
#
# Poissons Ratio (x) = 0.30629 0.05763
# Poissons Ratio (y) = 0.70631 0.24043
# Poissons Ratio (z) = 0.10571 0.19126
#
# Static dielectric constant tensor:
#      x y z
#    x 1.682320 0.000000 0.018220 
#    y 0.000000 1.671080 0.000000 
#    z 0.018220 0.000000 1.651230 
# 
# From -- ./inp_files/238415.got.cif
#   From: 2010.05.17/outbox.cif.g08.bks.cpg/sg12_120_cif.got.tgz:238415.got - 2010.06.03 13:09:07.
