data_PCOD9197433
_publ_section_title
;
Structure prediction by ZEFSAII (Michael W. Deem and Ramdas Pophale) SiO2 
 PCOD9197433
Probable space group: C 2/M
;
_chemical_formula_sum "Si O2"
_cell_formula_units_Z 56
_cell_length_a 24.078971
_cell_length_b 15.658191
_cell_length_c 8.486984
_cell_angle_alpha 90.000000
_cell_angle_beta 113.570293
_cell_angle_gamma 90.000000
_cell_volume 2932.909199
_symmetry_space_group_name_H-M "C 2/M"
_symmetry_group_IT_number 12
_symmetry_cell_setting 'monoclinic'
loop_
_space_group_symop_operation_xyz
x,y,z
-x,y,-z
-x,-y,-z
x,-y,z
1/2+x,1/2+y,z
1/2-x,1/2+y,-z
1/2-x,1/2-y,-z
1/2+x,1/2-y,z
loop_
_atom_site_type_symbol
_atom_site_label
_atom_site_fract_x
_atom_site_fract_y
_atom_site_fract_z
Si Si1 0.338443 0.219185 0.462588
Si Si2 0.277258 0.702486 0.876156
Si Si3 0.835107 0.640188 0.783134
Si Si4 0.442787 0.247103 0.326868
Si Si5 0.954297 0.595492 0.092420
Si Si6 0.630558 0.594137 0.853391
Si Si7 0.196263 0.092465 0.587744
O O1 0.276921 0.188706 0.307515
O O2 0.354635 0.159553 0.626724
O O3 0.389294 0.221323 0.386690
O O4 0.324462 0.316461 0.507135
O O5 0.323459 0.769445 0.853671
O O6 0.250000 0.750000 0.000000
O O7 0.314632 0.620363 0.969931
O O8 0.768344 0.598654 0.700580
O O9 0.887014 0.595349 0.940979
O O10 0.500000 0.268966 0.500000
O O11 0.457213 0.169131 0.226421
O O12 0.418549 0.330365 0.206827
O O13 0.967804 0.500000 0.169463
O O14 0.000000 0.613397 0.000000
O O15 0.606303 0.500000 0.860088
O O16 0.661340 0.592769 0.715096
O O17 0.183523 0.000000 0.495773
#
# Coordination Sequence:
#
# PCOD9197433 Si02
#       7
#     8   8   8   8   8   8   8
#     4  10  21  34  56  87 116 156 196 238 294 356
#     4  11  16  34  57  85 119 155 195 243 294 344
#     4  11  19  35  56  81 118 156 192 235 293 364
#     4  11  22  41  63  85 116 158 199 247 300 349
#     4  11  24  41  62  85 112 152 198 246 301 359
#     4  10  20  35  59  91 120 152 199 243 287 351
#     4   9  17  30  52  81 114 149 189 234 283 342
#
# _framework density 19.093668000000001
#
# number of rings (size 3 to 8) (size 9 to 14) (size 15 to 20)
#    0.000    1.571    5.714    3.000    0.000    0.571 
#    0.000    5.000    0.000    0.429    0.000    0.000 
#    0.000    0.000    0.000    0.000    0.000    0.000 
#
# Total GULP energy -156194.501961 kJ/mol
# GULP energy per Si atom -5578.375070 kJ/mol
# Density = 1.905021 g / cm^3
# Si number density = 19.093668 Si / 1000 Ang^3
#
#
#
# Elastic Constant Matrix: (Units=GPa)
#
#
# Indices 1 2 3 4 5 6 
#
# 1 66.0105 24.8129 3.1666 0.0000 1.8609 0.0000
# 2 24.8129 109.7386 35.1744 0.0000 -2.7763 0.0000
# 3 3.1666 35.1744 51.8297 0.0000 2.1017 0.0000
# 4 0.0000 0.0000 0.0000 -0.8147 0.0000 -2.6141
# 5 1.8609 -2.7763 2.1017 0.0000 25.9301 0.0000
# 6 0.0000 0.0000 0.0000 -2.6141 0.0000 16.7594
#
#
#
# Elastic Compliance Matrix: (Units=1/GPa)
#
#
# Indices 1 2 3 4 5 6 
#
# 1 0.016801 -0.004526 0.002120 0.000000 -0.001862 0.000000
# 2 -0.004526 0.012958 -0.008615 0.000000 0.002411 0.000000
# 3 0.002120 -0.008615 0.025138 0.000000 -0.003112 0.000000
# 4 0.000000 0.000000 0.000000 -0.818031 0.000000 -0.127594
# 5 -0.001862 0.002411 -0.003112 0.000000 0.039209 0.000000
# 6 0.000000 0.000000 0.000000 -0.127594 0.000000 0.039766
#
#
# Mechanical properties :
#
#
# Convention : Reuss Voigt Hill
#
# Bulk Modulus (GPa) = 30.43632 39.32073 34.87853
# Shear Modulus (GPa) = -7.67854 19.33661 5.82904
#
# Velocity S-wave (km/s) = -2.00755 3.18578 1.74914
# Velocity P-wave (km/s) = 3.25599 5.84556 4.73139
#
# Compressibility (1/GPa) = 0.03285548
#
# Stress axis : x y z
#
# Youngs Moduli (GPa) = 59.52012 77.17034 39.78109
#
# Poissons Ratio (x) = 0.34924 -0.08435
# Poissons Ratio (y) = 0.26937 0.34273
# Poissons Ratio (z) = -0.12621 0.66486
#
# Static dielectric constant tensor:
#      x y z
#    x 1.661560 0.000000 -0.000080 
#    y 0.000000 1.704700 0.000000 
#    z -0.000080 0.000000 1.667370 
# 
# From -- ./inp_files/96481.got.cif
#   From: 2010.05.17/outbox.cif.g08.bks.cpg/sg12_49_cif.got.tgz:96481.got - 2010.06.03 13:09:07.
