data_PCOD9197752
_publ_section_title
;
Structure prediction by ZEFSAII (Michael W. Deem and Ramdas Pophale) SiO2 
 PCOD9197752
Probable space group: C 2/M
;
_chemical_formula_sum "Si O2"
_cell_formula_units_Z 40
_cell_length_a 10.304667
_cell_length_b 20.044956
_cell_length_c 18.140798
_cell_angle_alpha 90.000000
_cell_angle_beta 36.027110
_cell_angle_gamma 90.000000
_cell_volume 2203.925117
_symmetry_space_group_name_H-M "C 2/M"
_symmetry_group_IT_number 12
_symmetry_cell_setting 'monoclinic'
loop_
_space_group_symop_operation_xyz
x,y,z
-x,y,-z
-x,-y,-z
x,-y,z
1/2+x,1/2+y,z
1/2-x,1/2+y,-z
1/2-x,1/2-y,-z
1/2+x,1/2-y,z
loop_
_atom_site_type_symbol
_atom_site_label
_atom_site_fract_x
_atom_site_fract_y
_atom_site_fract_z
Si Si1 0.755936 0.717876 0.078053
Si Si2 0.866323 0.866678 0.262814
Si Si3 0.871102 0.000000 0.481875
Si Si4 0.934967 0.720649 0.693617
Si Si5 0.348123 0.352842 0.440290
Si Si6 0.896231 0.500000 0.631017
O O1 0.627676 0.646800 0.140551
O O2 0.616844 0.764508 0.198051
O O3 0.750000 0.750000 0.000000
O O4 0.000000 0.712804 0.000000
O O5 0.769557 0.812914 0.251665
O O6 0.781623 0.853307 0.384763
O O7 0.761080 0.936507 0.289037
O O8 0.928860 0.927516 0.420333
O O9 0.602806 0.000000 0.592889
O O10 0.000000 0.000000 0.500000
O O11 0.142524 0.671952 0.583635
O O12 0.980413 0.792101 0.634164
O O13 0.000000 0.500000 0.500000
#
# Coordination Sequence:
#
# PCOD9197752 Si02
#       6
#     8   8   4   8   8   4
#     4  11  23  41  60  90 123 163 216 263 307 356
#     4  11  20  38  68  89 123 167 208 258 307 380
#     4  12  24  36  54  89 140 162 189 248 310 398
#     4  10  20  35  63  92 121 155 207 259 308 365
#     4  10  21  36  57  95 126 160 198 248 323 377
#     4  12  20  40  65  90 126 166 207 242 322 397
#
# _framework density 18.149436999999999
#
# number of rings (size 3 to 8) (size 9 to 14) (size 15 to 20)
#    0.000    1.200    6.000    0.600    0.000    4.800 
#    0.000    0.500    0.000    3.600    0.000    0.000 
#    0.000    0.000    0.000    0.000    0.000    0.000 
#
# Total GULP energy -111436.234018 kJ/mol
# GULP energy per Si atom -5571.811701 kJ/mol
# Density = 1.810813 g / cm^3
# Si number density = 18.149437 Si / 1000 Ang^3
#
#
#
# Elastic Constant Matrix: (Units=GPa)
#
#
# Indices 1 2 3 4 5 6 
#
# 1 110.3428 40.6032 47.7209 0.0017 -2.6764 -0.0025
# 2 40.6032 131.4979 34.1063 0.0006 -6.4033 -0.0010
# 3 47.7209 34.1063 94.9595 -0.0094 2.4774 0.0020
# 4 0.0017 0.0006 -0.0094 19.1882 0.0022 -6.2414
# 5 -2.6764 -6.4033 2.4774 0.0022 29.4959 0.0001
# 6 -0.0025 -0.0010 0.0020 -6.2414 0.0001 21.4854
#
#
#
# Elastic Compliance Matrix: (Units=1/GPa)
#
#
# Indices 1 2 3 4 5 6 
#
# 1 0.012265 -0.002349 -0.005348 -0.000004 0.001052 0.000001
# 2 -0.002349 0.008965 -0.002089 -0.000001 0.001909 0.000000
# 3 -0.005348 -0.002089 0.014024 0.000008 -0.002117 0.000000
# 4 -0.000004 -0.000001 0.000008 0.057553 -0.000006 0.016719
# 5 0.001052 0.001909 -0.002117 -0.000006 0.034591 -0.000001
# 6 0.000001 0.000000 0.000000 0.016719 -0.000001 0.051400
#
#
# Mechanical properties :
#
#
# Convention : Reuss Voigt Hill
#
# Bulk Modulus (GPa) = 63.76592 64.62898 64.19745
# Shear Modulus (GPa) = 24.55837 28.32523 26.44180
#
# Velocity S-wave (km/s) = 3.68247 3.95481 3.82107
# Velocity P-wave (km/s) = 7.30006 7.51936 7.41052
#
# Compressibility (1/GPa) = 0.01568236
#
# Stress axis : x y z
#
# Youngs Moduli (GPa) = 81.53115 111.54744 71.30757
#
# Poissons Ratio (x) = 0.26202 0.38132
# Poissons Ratio (y) = 0.19151 0.14898
# Poissons Ratio (z) = 0.43599 0.23304
#
# Static dielectric constant tensor:
#      x y z
#    x 1.652140 0.000000 -0.031180 
#    y 0.000000 1.645400 0.000000 
#    z -0.031180 0.000000 1.644440 
# 
# From -- ./inp_files/257867.got.cif
#   From: 2010.05.17/outbox.cif.g08.bks.cpg/sg12_129_cif.got.tgz:257867.got - 2010.06.03 13:09:07.
