data_PCOD9197899
_publ_section_title
;
Structure prediction by ZEFSAII (Michael W. Deem and Ramdas Pophale) SiO2 
 PCOD9197899
Probable space group: C 2/M
;
_chemical_formula_sum "Si O2"
_cell_formula_units_Z 64
_cell_length_a 13.816204
_cell_length_b 24.513701
_cell_length_c 17.331637
_cell_angle_alpha 90.000000
_cell_angle_beta 31.545083
_cell_angle_gamma 90.000000
_cell_volume 3070.997462
_symmetry_space_group_name_H-M "C 2/M"
_symmetry_group_IT_number 12
_symmetry_cell_setting 'monoclinic'
loop_
_space_group_symop_operation_xyz
x,y,z
-x,y,-z
-x,-y,-z
x,-y,z
1/2+x,1/2+y,z
1/2-x,1/2+y,-z
1/2-x,1/2-y,-z
1/2+x,1/2-y,z
loop_
_atom_site_type_symbol
_atom_site_label
_atom_site_fract_x
_atom_site_fract_y
_atom_site_fract_z
Si Si1 0.870274 0.277875 0.305506
Si Si2 0.618420 0.124039 0.176173
Si Si3 0.546777 0.938234 0.079496
Si Si4 0.323846 0.641504 0.814828
Si Si5 0.872130 0.360539 0.658000
Si Si6 0.983469 0.174919 0.871140
Si Si7 0.606472 0.562883 0.354249
Si Si8 0.479166 0.738384 0.630987
O O1 0.953516 0.238075 0.182963
O O2 0.648920 0.280608 0.461494
O O3 0.933819 0.251209 0.343723
O O4 0.961508 0.336900 0.246283
O O5 0.617660 0.073327 0.118448
O O6 0.588118 0.111622 0.286621
O O7 0.806325 0.160650 0.043660
O O8 0.325875 0.934680 0.221944
O O9 0.600897 0.000000 0.018380
O O10 0.641686 0.891017 0.964393
O O11 0.419456 0.657388 0.829547
O O12 0.440958 0.597401 0.688233
O O13 0.323532 0.693414 0.757297
O O14 0.657929 0.360318 0.779761
O O15 0.000000 0.378798 0.500000
O O16 0.914245 0.296503 0.644497
O O17 0.500000 0.585191 0.500000
O O18 0.554297 0.500000 0.379176
#
# Coordination Sequence:
#
# PCOD9197899 Si02
#       8
#     8   8   8   8   8   8   8   8
#     4   9  17  33  53  77 117 149 191 236 283 334
#     4  10  22  35  59  87 113 157 203 248 289 350
#     4  10  22  42  63  86 116 152 195 253 315 357
#     4  10  21  36  61  84 114 156 200 238 286 358
#     4  11  21  36  57  83 123 167 196 234 289 346
#     4  10  20  36  54  84 122 157 201 236 280 345
#     4  10  22  38  59  87 117 147 189 250 313 365
#     4   9  19  32  51  84 113 152 193 233 277 338
#
# _framework density 20.840133999999999
#
# number of rings (size 3 to 8) (size 9 to 14) (size 15 to 20)
#    0.000    2.125    1.250    1.500    3.500    3.500 
#    0.000    3.750    0.000    7.125    0.000    0.000 
#    0.000    0.000    0.000    0.000    0.000    0.000 
#
# Total GULP energy -178550.917240 kJ/mol
# GULP energy per Si atom -5579.716164 kJ/mol
# Density = 2.079270 g / cm^3
# Si number density = 20.840134 Si / 1000 Ang^3
#
#
#
# Elastic Constant Matrix: (Units=GPa)
#
#
# Indices 1 2 3 4 5 6 
#
# 1 61.9400 4.1684 20.4289 0.0246 10.3328 -0.0195
# 2 4.1684 44.0481 16.8557 -0.0081 2.4487 -0.0028
# 3 20.4289 16.8557 85.4802 -0.0144 13.2118 -0.0231
# 4 0.0246 -0.0081 -0.0144 23.0916 -0.0157 9.5438
# 5 10.3328 2.4487 13.2118 -0.0157 38.8924 0.0209
# 6 -0.0195 -0.0028 -0.0231 9.5438 0.0209 -6.4478
#
#
#
# Elastic Compliance Matrix: (Units=1/GPa)
#
#
# Indices 1 2 3 4 5 6 
#
# 1 0.017966 -0.000075 -0.003738 -0.000001 -0.003499 -0.000054
# 2 -0.000075 0.024556 -0.004843 0.000002 0.000119 0.000010
# 3 -0.003738 -0.004843 0.014086 0.000018 -0.003487 -0.000022
# 4 -0.000001 0.000002 0.000018 0.026869 -0.000016 0.039770
# 5 -0.003499 0.000119 -0.003487 -0.000016 0.027818 0.000089
# 6 -0.000054 0.000010 -0.000022 0.039770 0.000089 -0.096225
#
#
# Mechanical properties :
#
#
# Convention : Reuss Voigt Hill
#
# Bulk Modulus (GPa) = 25.44777 30.48601 27.96689
# Shear Modulus (GPa) = 109.93688 21.10827 65.52257
#
# Velocity S-wave (km/s) = 7.27097 3.18601 5.61327
# Velocity P-wave (km/s) = 9.09543 5.30985 7.44719
#
# Compressibility (1/GPa) = 0.03929618
#
# Stress axis : x y z
#
# Youngs Moduli (GPa) = 55.65987 40.72317 70.99337
#
# Poissons Ratio (x) = 0.00306 0.26539
# Poissons Ratio (y) = 0.00419 0.34379
# Poissons Ratio (z) = 0.20807 0.19720
#
# Static dielectric constant tensor:
#      x y z
#    x 1.765780 0.000000 0.021170 
#    y 0.000000 1.745760 0.000010 
#    z 0.021170 0.000010 1.796230 
# 
# From -- ./inp_files/272799.got.cif
#   From: 2010.05.17/outbox.cif.g08.bks.cpg/sg12_137_cif.got.tgz:272799.got - 2010.06.03 13:09:07.
