data_PCOD9197216
_publ_section_title
;
Structure prediction by ZEFSAII (Michael W. Deem and Ramdas Pophale) SiO2 
 PCOD9197216
Probable space group: C 2/M
;
_chemical_formula_sum "Si O2"
_cell_formula_units_Z 52
_cell_length_a 11.445693
_cell_length_b 23.393213
_cell_length_c 11.149525
_cell_angle_alpha 90.000000
_cell_angle_beta 115.561695
_cell_angle_gamma 90.000000
_cell_volume 2693.104592
_symmetry_space_group_name_H-M "C 2/M"
_symmetry_group_IT_number 12
_symmetry_cell_setting 'monoclinic'
loop_
_space_group_symop_operation_xyz
x,y,z
-x,y,-z
-x,-y,-z
x,-y,z
1/2+x,1/2+y,z
1/2-x,1/2+y,-z
1/2-x,1/2-y,-z
1/2+x,1/2-y,z
loop_
_atom_site_type_symbol
_atom_site_label
_atom_site_fract_x
_atom_site_fract_y
_atom_site_fract_z
Si Si1 0.996511 0.893825 0.367551
Si Si2 0.822472 0.000000 0.597072
Si Si3 0.459285 0.678661 0.121734
Si Si4 0.704320 0.110604 0.960445
Si Si5 0.695126 0.904509 0.219769
Si Si6 0.483936 0.191175 0.848809
Si Si7 0.924592 0.500000 0.668462
Si Si8 0.268244 0.000000 0.180970
O O1 0.000000 0.863657 0.500000
O O2 0.021347 0.858588 0.256350
O O3 0.848099 0.915183 0.292535
O O4 0.099028 0.945122 0.414512
O O5 0.674354 0.000000 0.486545
O O6 0.817998 0.000000 0.738738
O O7 0.486616 0.743944 0.171775
O O8 0.500000 0.671199 0.000000
O O9 0.311518 0.656896 0.048967
O O10 0.592343 0.147468 0.848540
O O11 0.755479 0.058102 0.904706
O O12 0.654894 0.084951 0.064254
O O13 0.653679 0.839334 0.234456
O O14 0.617437 0.945702 0.271725
O O15 0.500000 0.191649 0.000000
O O16 0.078264 0.500000 0.718290
#
# Coordination Sequence:
#
# PCOD9197216 Si02
#       8
#     8   4   8   8   8   8   4   4
#     4  11  22  41  64  86 118 163 211 247 293 361
#     4  12  25  41  59  83 118 170 204 238 310 371
#     4  10  21  37  60  88 122 160 198 246 298 358
#     4  10  20  35  58  92 123 154 191 244 309 359
#     4  10  20  35  63  92 114 154 205 252 292 357
#     4   9  18  35  59  88 121 156 196 241 304 361
#     4  12  21  38  61  84 124 155 204 245 308 356
#     4  12  24  36  59  94 127 151 195 258 307 356
#
# _framework density 19.308571000000001
#
# number of rings (size 3 to 8) (size 9 to 14) (size 15 to 20)
#    0.000    1.538    3.077    2.769    0.000    3.692 
#    0.000    4.615    3.385    0.000    0.000    0.000 
#    0.000    0.000    0.000    0.000    0.000    0.000 
#
# Total GULP energy -144855.384277 kJ/mol
# GULP energy per Si atom -5571.360934 kJ/mol
# Density = 1.926462 g / cm^3
# Si number density = 19.308571 Si / 1000 Ang^3
#
#
#
# Elastic Constant Matrix: (Units=GPa)
#
#
# Indices 1 2 3 4 5 6 
#
# 1 43.7236 14.6096 9.5497 0.0000 -6.5191 0.0000
# 2 14.6096 100.1433 25.1302 0.0000 -14.1107 0.0000
# 3 9.5497 25.1302 68.0497 0.0000 -18.0861 0.0000
# 4 0.0000 0.0000 0.0000 -1.5948 0.0000 -6.7859
# 5 -6.5191 -14.1107 -18.0861 0.0000 36.3047 0.0000
# 6 0.0000 0.0000 0.0000 -6.7859 0.0000 20.1929
#
#
#
# Elastic Compliance Matrix: (Units=1/GPa)
#
#
# Indices 1 2 3 4 5 6 
#
# 1 0.024555 -0.002795 -0.001764 0.000000 0.002444 0.000000
# 2 -0.002795 0.011540 -0.003240 0.000000 0.002370 0.000000
# 3 -0.001764 -0.003240 0.018119 0.000000 0.007451 0.000000
# 4 0.000000 0.000000 0.000000 -0.258046 0.000000 -0.086718
# 5 0.002444 0.002370 0.007451 0.000000 0.032616 0.000000
# 6 0.000000 0.000000 0.000000 -0.086718 0.000000 0.020381
#
#
# Mechanical properties :
#
#
# Convention : Reuss Voigt Hill
#
# Bulk Modulus (GPa) = 25.89577 34.49952 30.19765
# Shear Modulus (GPa) = -40.86135 21.82237 -9.51949
#
# Velocity S-wave (km/s) = -4.60524 3.36548 -2.22281
# Velocity P-wave (km/s) = 3.85188 5.74527 3.01423
#
# Compressibility (1/GPa) = 0.03861634
#
# Stress axis : x y z
#
# Youngs Moduli (GPa) = 40.72559 86.65262 55.18975
#
# Poissons Ratio (x) = 0.24221 0.09736
# Poissons Ratio (y) = 0.11383 0.17880
# Poissons Ratio (z) = 0.07184 0.28073
#
# Static dielectric constant tensor:
#      x y z
#    x 1.721220 0.000000 0.011200 
#    y 0.000000 1.696250 0.000000 
#    z 0.011200 0.000000 1.700740 
# 
# From -- ./inp_files/133833.got.cif
#   From: 2010.05.17/outbox.cif.g08.bks.cpg/sg12_67_cif.got.tgz:133833.got - 2010.06.03 13:09:07.
