data_PCOD9197380
_publ_section_title
;
Structure prediction by ZEFSAII (Michael W. Deem and Ramdas Pophale) SiO2 
 PCOD9197380
Probable space group: C 2/M
;
_chemical_formula_sum "Si O2"
_cell_formula_units_Z 56
_cell_length_a 17.923532
_cell_length_b 13.478966
_cell_length_c 14.700424
_cell_angle_alpha 90.000000
_cell_angle_beta 56.704199
_cell_angle_gamma 90.000000
_cell_volume 2968.500536
_symmetry_space_group_name_H-M "C 2/M"
_symmetry_group_IT_number 12
_symmetry_cell_setting 'monoclinic'
loop_
_space_group_symop_operation_xyz
x,y,z
-x,y,-z
-x,-y,-z
x,-y,z
1/2+x,1/2+y,z
1/2-x,1/2+y,-z
1/2-x,1/2-y,-z
1/2+x,1/2-y,z
loop_
_atom_site_type_symbol
_atom_site_label
_atom_site_fract_x
_atom_site_fract_y
_atom_site_fract_z
Si Si1 0.116501 0.884757 0.184207
Si Si2 0.838988 0.705401 0.250486
Si Si3 0.461376 0.225794 0.624175
Si Si4 0.634155 0.114704 0.582723
Si Si5 0.968223 0.776762 0.922809
Si Si6 0.789530 0.386655 0.669416
Si Si7 0.822157 0.613209 0.072831
O O1 0.076297 0.814372 0.289253
O O2 0.069474 0.856911 0.121220
O O3 0.222550 0.866807 0.104123
O O4 0.103815 0.000000 0.215423
O O5 0.816861 0.665596 0.365242
O O6 0.786837 0.806303 0.261488
O O7 0.818234 0.628078 0.184497
O O8 0.944157 0.726549 0.178030
O O9 0.500000 0.258922 0.500000
O O10 0.541959 0.170349 0.621072
O O11 0.380072 0.150427 0.657533
O O12 0.690547 0.116409 0.452003
O O13 0.615783 0.000000 0.617832
O O14 0.893368 0.692520 0.989230
O O15 0.000000 0.815486 0.000000
O O16 0.768154 0.500000 0.709206
O O17 0.847612 0.500000 0.033893
#
# Coordination Sequence:
#
# PCOD9197380 Si02
#       7
#     8   8   8   8   8   8   8
#     4  11  22  41  64  86 120 157 195 243 297 357
#     4  11  20  36  60  86 123 155 191 244 294 354
#     4  10  20  39  63  88 120 155 201 248 287 345
#     4  10  20  35  59  89 119 158 201 245 292 339
#     4  10  23  40  62  86 117 153 194 248 294 351
#     4  10  21  37  58  87 123 159 198 241 291 353
#     4  10  22  40  63  87 114 152 198 249 298 345
#
# _framework density 18.864743000000001
#
# number of rings (size 3 to 8) (size 9 to 14) (size 15 to 20)
#    0.000    1.714    2.857    1.714    0.000    6.000 
#    0.000    2.143    0.000    0.000    0.000    0.000 
#    0.000    0.000    0.000    0.000    0.000    0.000 
#
# Total GULP energy -156320.969836 kJ/mol
# GULP energy per Si atom -5582.891780 kJ/mol
# Density = 1.882181 g / cm^3
# Si number density = 18.864743 Si / 1000 Ang^3
#
#
#
# Elastic Constant Matrix: (Units=GPa)
#
#
# Indices 1 2 3 4 5 6 
#
# 1 62.1380 14.2784 8.0660 0.0000 0.5257 0.0000
# 2 14.2784 76.6334 18.1610 0.0000 -18.1689 0.0000
# 3 8.0660 18.1610 35.4326 0.0000 -3.3306 0.0000
# 4 0.0000 0.0000 0.0000 23.8855 0.0000 12.0059
# 5 0.5257 -18.1689 -3.3306 0.0000 22.7515 0.0000
# 6 0.0000 0.0000 0.0000 12.0059 0.0000 3.0367
#
#
#
# Elastic Compliance Matrix: (Units=1/GPa)
#
#
# Indices 1 2 3 4 5 6 
#
# 1 0.017240 -0.003459 -0.002483 0.000000 -0.003524 0.000000
# 2 -0.003459 0.018794 -0.007531 0.000000 0.013986 0.000000
# 3 -0.002483 -0.007531 0.032536 0.000000 -0.001194 0.000000
# 4 0.000000 0.000000 0.000000 -0.042407 0.000000 0.167661
# 5 -0.003524 0.013986 -0.001194 0.000000 0.055029 0.000000
# 6 0.000000 0.000000 0.000000 0.167661 0.000000 -0.333557
#
#
# Mechanical properties :
#
#
# Convention : Reuss Voigt Hill
#
# Bulk Modulus (GPa) = 24.02458 28.35719 26.19089
# Shear Modulus (GPa) = -23.63568 18.84800 -2.39384
#
# Velocity S-wave (km/s) = -3.54348 3.16430 -1.12770
# Velocity P-wave (km/s) = 1.99469 5.33056 3.49543
#
# Compressibility (1/GPa) = 0.04162403
#
# Stress axis : x y z
#
# Youngs Moduli (GPa) = 58.00388 53.20731 30.73560
#
# Poissons Ratio (x) = 0.18407 0.07631
# Poissons Ratio (y) = 0.20066 0.23147
# Poissons Ratio (z) = 0.14401 0.40070
#
# Static dielectric constant tensor:
#      x y z
#    x 1.641050 0.000000 0.013190 
#    y 0.000000 1.620880 0.000000 
#    z 0.013190 0.000000 1.661280 
# 
# From -- ./inp_files/223709.got.cif
#   From: 2010.05.17/outbox.cif.g08.bks.cpg/sg12_112_cif.got.tgz:223709.got - 2010.06.03 13:09:07.
