data_PCOD9197934
_publ_section_title
;
Structure prediction by ZEFSAII (Michael W. Deem and Ramdas Pophale) SiO2 
 PCOD9197934
Probable space group: C 2/M
;
_chemical_formula_sum "Si O2"
_cell_formula_units_Z 56
_cell_length_a 30.415458
_cell_length_b 11.898397
_cell_length_c 9.111905
_cell_angle_alpha 90.000000
_cell_angle_beta 62.132755
_cell_angle_gamma 90.000000
_cell_volume 2915.147089
_symmetry_space_group_name_H-M "C 2/M"
_symmetry_group_IT_number 12
_symmetry_cell_setting 'monoclinic'
loop_
_space_group_symop_operation_xyz
x,y,z
-x,y,-z
-x,-y,-z
x,-y,z
1/2+x,1/2+y,z
1/2-x,1/2+y,-z
1/2-x,1/2-y,-z
1/2+x,1/2-y,z
loop_
_atom_site_type_symbol
_atom_site_label
_atom_site_fract_x
_atom_site_fract_y
_atom_site_fract_z
Si Si1 0.527917 0.872424 0.113387
Si Si2 0.856065 0.373707 0.023592
Si Si3 0.492336 0.627558 0.188692
Si Si4 0.697540 0.734206 0.660134
Si Si5 0.824403 0.787445 0.811551
Si Si6 0.123676 0.871601 0.549835
Si Si7 0.242468 0.881696 0.845635
O O1 0.514187 0.749782 0.205769
O O2 0.517024 0.000000 0.195239
O O3 0.500000 0.872644 0.000000
O O4 0.587516 0.867913 0.006866
O O5 0.845032 0.500000 0.993734
O O6 0.819496 0.337057 0.211096
O O7 0.848758 0.291825 0.897036
O O8 0.510019 0.500000 0.210611
O O9 0.434325 0.633791 0.320988
O O10 0.500000 0.626612 0.000000
O O11 0.750000 0.750000 0.500000
O O12 0.655031 0.705007 0.611347
O O13 0.706465 0.635794 0.764276
O O14 0.863244 0.836706 0.636535
O O15 0.783131 0.715575 0.788623
O O16 0.791286 0.873767 0.956787
O O17 0.140424 0.000000 0.544365
O O18 0.268850 0.000000 0.794951
#
# Coordination Sequence:
#
# PCOD9197934 Si02
#       7
#     8   8   8   8   8   8   8
#     4   9  17  34  59  86 113 146 192 246 303 362
#     4  10  22  39  61  85 118 159 198 247 305 364
#     4   9  18  34  58  86 116 151 191 244 307 366
#     4  11  21  36  54  87 119 150 196 245 291 356
#     4  10  21  38  55  81 115 155 204 240 290 357
#     4  11  22  38  60  88 122 156 198 253 307 357
#     4  10  20  36  55  76 111 158 199 238 285 342
#
# _framework density 19.21001
#
# number of rings (size 3 to 8) (size 9 to 14) (size 15 to 20)
#    0.000    2.000    1.429    3.000    0.000    1.143 
#    0.000    5.714    0.000    3.429    0.000    0.000 
#    0.000    0.000    0.000    0.000    0.000    0.000 
#
# Total GULP energy -155912.507955 kJ/mol
# GULP energy per Si atom -5568.303856 kJ/mol
# Density = 1.916629 g / cm^3
# Si number density = 19.210010 Si / 1000 Ang^3
#
#
#
# Elastic Constant Matrix: (Units=GPa)
#
#
# Indices 1 2 3 4 5 6 
#
# 1 45.5090 7.4194 8.1632 0.0000 -5.3769 0.0000
# 2 7.4194 115.4741 6.8590 0.0000 -9.6931 0.0000
# 3 8.1632 6.8590 88.8283 0.0000 -14.5470 0.0000
# 4 0.0000 0.0000 0.0000 29.6583 0.0000 -60.0976
# 5 -5.3769 -9.6931 -14.5470 0.0000 25.2736 0.0000
# 6 0.0000 0.0000 0.0000 -60.0976 0.0000 134.9932
#
#
#
# Elastic Compliance Matrix: (Units=1/GPa)
#
#
# Indices 1 2 3 4 5 6 
#
# 1 0.022833 -0.001078 -0.001421 0.000000 0.003626 0.000000
# 2 -0.001078 0.009001 -0.000075 0.000000 0.003179 0.000000
# 3 -0.001421 -0.000075 0.012520 0.000000 0.006875 0.000000
# 4 0.000000 0.000000 0.000000 0.344419 0.000000 0.153332
# 5 0.003626 0.003179 0.006875 0.000000 0.045515 0.000000
# 6 0.000000 0.000000 0.000000 0.153332 0.000000 0.075670
#
#
# Mechanical properties :
#
#
# Convention : Reuss Voigt Hill
#
# Bulk Modulus (GPa) = 25.50767 32.74385 29.12576
# Shear Modulus (GPa) = 9.46657 53.14301 31.30479
#
# Velocity S-wave (km/s) = 2.22230 5.26539 4.04122
# Velocity P-wave (km/s) = 4.46004 7.35173 6.08029
#
# Compressibility (1/GPa) = 0.03920389
#
# Stress axis : x y z
#
# Youngs Moduli (GPa) = 43.79666 111.10400 79.87227
#
# Poissons Ratio (x) = 0.11980 0.11352
# Poissons Ratio (y) = 0.04722 0.00601
# Poissons Ratio (z) = 0.06225 0.00836
#
# Static dielectric constant tensor:
#      x y z
#    x 1.625020 0.000000 -0.011290 
#    y 0.000000 1.721820 0.000000 
#    z -0.011290 0.000000 1.627350 
# 
# From -- ./inp_files/110341.got.cif
#   From: 2010.05.17/outbox.cif.g08.bks.cpg/sg12_56_cif.got.tgz:110341.got - 2010.06.03 13:09:07.
