data_PCOD9197379
_publ_section_title
;
Structure prediction by ZEFSAII (Michael W. Deem and Ramdas Pophale) SiO2 
 PCOD9197379
Probable space group: C 2/M
;
_chemical_formula_sum "Si O2"
_cell_formula_units_Z 56
_cell_length_a 20.452234
_cell_length_b 13.639663
_cell_length_c 17.528470
_cell_angle_alpha 90.000000
_cell_angle_beta 30.790429
_cell_angle_gamma 90.000000
_cell_volume 2503.070028
_symmetry_space_group_name_H-M "C 2/M"
_symmetry_group_IT_number 12
_symmetry_cell_setting 'monoclinic'
loop_
_space_group_symop_operation_xyz
x,y,z
-x,y,-z
-x,-y,-z
x,-y,z
1/2+x,1/2+y,z
1/2-x,1/2+y,-z
1/2-x,1/2-y,-z
1/2+x,1/2-y,z
loop_
_atom_site_type_symbol
_atom_site_label
_atom_site_fract_x
_atom_site_fract_y
_atom_site_fract_z
Si Si1 0.851571 0.881355 0.425830
Si Si2 0.271985 0.241447 0.159318
Si Si3 0.425856 0.618444 0.913544
Si Si4 0.130149 0.117260 0.418034
Si Si5 0.453491 0.892651 0.631915
Si Si6 0.204432 0.383492 0.011427
Si Si7 0.075038 0.615815 0.658745
O O1 0.894899 0.856583 0.468306
O O2 0.706305 0.846566 0.560559
O O3 0.946147 0.855095 0.261862
O O4 0.851133 0.000000 0.423929
O O5 0.240483 0.185214 0.269864
O O6 0.267017 0.159354 0.099380
O O7 0.154536 0.313085 0.260186
O O8 0.393769 0.311813 0.018195
O O9 0.427042 0.500000 0.929169
O O10 0.311123 0.638741 0.967774
O O11 0.000000 0.131943 0.500000
O O12 0.161818 0.000000 0.382414
O O13 0.500000 0.898940 0.500000
O O14 0.568794 0.872889 0.573840
O O15 0.400513 0.000000 0.708919
O O16 0.202372 0.500000 0.007780
O O17 0.063091 0.347639 0.176256
O O18 0.074808 0.500000 0.676539
#
# Coordination Sequence:
#
# PCOD9197379 Si02
#       7
#     8   8   8   8   8   8   8
#     4   9  19  38  65  91 120 160 206 258 315 364
#     4  12  21  34  59  88 123 161 201 249 309 361
#     4  10  20  35  59  92 122 156 206 256 303 365
#     4  10  21  38  61  91 126 164 208 255 307 370
#     4  10  21  37  61  92 123 159 206 253 300 365
#     4  10  20  35  59  89 119 153 203 254 304 366
#     4   9  18  37  63  90 118 156 204 253 306 365
#
# _framework density 22.372527000000002
#
# number of rings (size 3 to 8) (size 9 to 14) (size 15 to 20)
#    0.000    2.000    1.429    2.571    0.000    2.286 
#    0.000    1.429    3.143    3.429    0.000    5.000 
#    0.000    1.143    0.000    0.000    0.000    0.000 
#
# Total GULP energy -156381.478882 kJ/mol
# GULP energy per Si atom -5585.052817 kJ/mol
# Density = 2.232161 g / cm^3
# Si number density = 22.372527 Si / 1000 Ang^3
#
#
#
# Elastic Constant Matrix: (Units=GPa)
#
#
# Indices 1 2 3 4 5 6 
#
# 1 50.4582 1.2753 29.2107 0.0000 -6.2866 0.0000
# 2 1.2753 105.2629 39.4305 0.0000 0.3216 0.0000
# 3 29.2107 39.4305 127.9676 0.0000 2.7193 0.0000
# 4 0.0000 0.0000 0.0000 45.2524 0.0000 1.3640
# 5 -6.2866 0.3216 2.7193 0.0000 32.6275 0.0000
# 6 0.0000 0.0000 0.0000 1.3640 0.0000 -34.8580
#
#
#
# Elastic Compliance Matrix: (Units=1/GPa)
#
#
# Indices 1 2 3 4 5 6 
#
# 1 0.024000 0.002020 -0.006210 0.000000 0.005122 0.000000
# 2 0.002020 0.010911 -0.003836 0.000000 0.000601 0.000000
# 3 -0.006210 -0.003836 0.010457 0.000000 -0.002030 0.000000
# 4 0.000000 0.000000 0.000000 0.022072 0.000000 0.000864
# 5 0.005122 0.000601 -0.002030 0.000000 0.031799 0.000000
# 6 0.000000 0.000000 0.000000 0.000864 0.000000 -0.028654
#
#
# Mechanical properties :
#
#
# Convention : Reuss Voigt Hill
#
# Bulk Modulus (GPa) = 34.11045 47.05794 40.58420
# Shear Modulus (GPa) = 51.86264 22.85584 37.35924
#
# Velocity S-wave (km/s) = 4.81993 3.19972 4.09084
# Velocity P-wave (km/s) = 6.80113 5.89325 6.36340
#
# Compressibility (1/GPa) = 0.02931653
#
# Stress axis : x y z
#
# Youngs Moduli (GPa) = 41.66623 91.65466 95.63033
#
# Poissons Ratio (x) = -0.18511 0.59383
# Poissons Ratio (y) = -0.08415 0.36680
# Poissons Ratio (z) = 0.25873 0.35155
#
# Static dielectric constant tensor:
#      x y z
#    x 1.793980 0.000000 0.024080 
#    y 0.000000 1.914230 0.000000 
#    z 0.024080 0.000000 1.858710 
# 
# From -- ./inp_files/284509.got.cif
#   From: 2010.05.17/outbox.cif.g08.bks.cpg/sg12_143_cif.got.tgz:284509.got - 2010.06.03 13:09:07.
