data_PCOD9197877
_publ_section_title
;
Structure prediction by ZEFSAII (Michael W. Deem and Ramdas Pophale) SiO2 
 PCOD9197877
Probable space group: C 2/M
;
_chemical_formula_sum "Si O2"
_cell_formula_units_Z 64
_cell_length_a 23.551095
_cell_length_b 27.669176
_cell_length_c 19.464786
_cell_angle_alpha 90.000000
_cell_angle_beta 164.498375
_cell_angle_gamma 90.000000
_cell_volume 3390.003915
_symmetry_space_group_name_H-M "C 2/M"
_symmetry_group_IT_number 12
_symmetry_cell_setting 'monoclinic'
loop_
_space_group_symop_operation_xyz
x,y,z
-x,y,-z
-x,-y,-z
x,-y,z
1/2+x,1/2+y,z
1/2-x,1/2+y,-z
1/2-x,1/2-y,-z
1/2+x,1/2-y,z
loop_
_atom_site_type_symbol
_atom_site_label
_atom_site_fract_x
_atom_site_fract_y
_atom_site_fract_z
Si Si1 0.378600 0.202180 0.177703
Si Si2 0.252030 0.051591 0.697128
Si Si3 0.569493 0.647381 0.511526
Si Si4 0.663127 0.189127 0.296773
Si Si5 0.743061 0.556847 0.522091
Si Si6 0.989710 0.150027 0.790463
Si Si7 0.107891 0.370235 0.930646
Si Si8 0.137964 0.793001 0.229669
O O1 0.441309 0.168840 0.185793
O O2 0.605127 0.211873 0.478458
O O3 0.250000 0.250000 0.000000
O O4 0.221456 0.170119 0.041378
O O5 0.174480 0.096252 0.650443
O O6 0.226354 0.060308 0.585588
O O7 0.149864 0.000000 0.595077
O O8 0.500000 0.048139 0.000000
O O9 0.500000 0.673378 0.500000
O O10 0.725160 0.677334 0.644829
O O11 0.360661 0.630209 0.226503
O O12 0.836006 0.178150 0.557273
O O13 0.474421 0.152889 0.094226
O O14 0.580001 0.243102 0.200476
O O15 0.728211 0.500000 0.486790
O O16 0.563511 0.593514 0.284125
O O17 0.968583 0.581141 0.761733
O O18 0.924221 0.164548 0.790737
O O19 0.000000 0.796412 0.000000
#
# Coordination Sequence:
#
# PCOD9197877 Si02
#       8
#     8   8   8   8   8   8   8   8
#     4  12  21  39  67  94 124 170 212 246 311 388
#     4  10  20  36  54  78 118 165 209 264 319 361
#     4  12  24  34  55  88 122 164 210 263 304 360
#     4  11  22  41  59  85 122 169 205 250 301 378
#     4  10  20  38  65  89 117 164 221 265 310 375
#     4  11  21  43  67  86 129 166 206 261 314 374
#     4  11  21  37  61  86 120 163 210 253 313 365
#     4  12  26  40  64  96 127 165 207 256 322 376
#
# _framework density 18.879033
#
# number of rings (size 3 to 8) (size 9 to 14) (size 15 to 20)
#    0.000    0.875    7.500    1.875    1.750    1.250 
#    0.000    0.625    0.000    0.375    0.000    0.875 
#    0.000    0.000    0.000    0.000    0.000    0.000 
#
# Total GULP energy -178553.383294 kJ/mol
# GULP energy per Si atom -5579.793228 kJ/mol
# Density = 1.883606 g / cm^3
# Si number density = 18.879033 Si / 1000 Ang^3
#
#
#
# Elastic Constant Matrix: (Units=GPa)
#
#
# Indices 1 2 3 4 5 6 
#
# 1 58.4991 26.7611 21.3930 -0.0006 -0.3768 0.0018
# 2 26.7611 122.2580 36.7865 -0.0005 -3.1897 0.0010
# 3 21.3930 36.7865 94.1942 -0.0081 1.3377 0.0143
# 4 -0.0006 -0.0005 -0.0081 33.1664 -0.0017 -14.8314
# 5 -0.3768 -3.1897 1.3377 -0.0017 30.8616 0.0038
# 6 0.0018 0.0010 0.0143 -14.8314 0.0038 44.6837
#
#
#
# Elastic Compliance Matrix: (Units=1/GPa)
#
#
# Indices 1 2 3 4 5 6 
#
# 1 0.019802 -0.003377 -0.003179 0.000000 0.000030 0.000000
# 2 -0.003377 0.009883 -0.003109 0.000000 0.001115 0.000001
# 3 -0.003179 -0.003109 0.012565 0.000001 -0.000905 -0.000003
# 4 0.000000 0.000000 0.000001 0.035406 0.000000 0.011752
# 5 0.000030 0.001115 -0.000905 0.000000 0.032558 -0.000002
# 6 0.000000 0.000001 -0.000003 0.011752 -0.000002 0.026280
#
#
# Mechanical properties :
#
#
# Convention : Reuss Voigt Hill
#
# Bulk Modulus (GPa) = 43.62803 49.42583 46.52693
# Shear Modulus (GPa) = 30.58781 34.40972 32.49876
#
# Velocity S-wave (km/s) = 4.02954 4.27387 4.15350
# Velocity P-wave (km/s) = 6.69395 7.11279 6.90655
#
# Compressibility (1/GPa) = 0.02292105
#
# Stress axis : x y z
#
# Youngs Moduli (GPa) = 50.50026 101.18311 79.58492
#
# Poissons Ratio (x) = 0.34171 0.25299
# Poissons Ratio (y) = 0.17055 0.24739
# Poissons Ratio (z) = 0.16053 0.31453
#
# Static dielectric constant tensor:
#      x y z
#    x 1.675880 0.000000 0.010500 
#    y 0.000000 1.685380 0.000000 
#    z 0.010500 0.000000 1.744450 
# 
# From -- ./inp_files/286695.got.cif
#   From: 2010.05.17/outbox.cif.g08.bks.cpg/sg12_144_cif.got.tgz:286695.got - 2010.06.03 13:09:07.
