data_PCOD9197766
_publ_section_title
;
Structure prediction by ZEFSAII (Michael W. Deem and Ramdas Pophale) SiO2 
 PCOD9197766
Probable space group: C 2/M
;
_chemical_formula_sum "Si O2"
_cell_formula_units_Z 52
_cell_length_a 14.471876
_cell_length_b 17.002538
_cell_length_c 14.896827
_cell_angle_alpha 90.000000
_cell_angle_beta 138.421078
_cell_angle_gamma 90.000000
_cell_volume 2432.608155
_symmetry_space_group_name_H-M "C 2/M"
_symmetry_group_IT_number 12
_symmetry_cell_setting 'monoclinic'
loop_
_space_group_symop_operation_xyz
x,y,z
-x,y,-z
-x,-y,-z
x,-y,z
1/2+x,1/2+y,z
1/2-x,1/2+y,-z
1/2-x,1/2-y,-z
1/2+x,1/2-y,z
loop_
_atom_site_type_symbol
_atom_site_label
_atom_site_fract_x
_atom_site_fract_y
_atom_site_fract_z
Si Si1 0.262771 0.908939 0.919662
Si Si2 0.676873 0.228336 0.353909
Si Si3 0.780750 0.500000 0.409110
Si Si4 0.500000 0.350603 0.000000
Si Si5 0.087725 0.344665 0.799418
Si Si6 0.533417 0.613321 0.218471
Si Si7 0.243422 0.232354 0.784548
Si Si8 0.905982 0.500000 0.302102
O O1 0.280512 0.855227 0.844693
O O2 0.097768 0.911889 0.819370
O O3 0.314076 0.000000 0.954850
O O4 0.329623 0.855138 0.047369
O O5 0.750000 0.250000 0.500000
O O6 0.576620 0.154169 0.297011
O O7 0.562090 0.294582 0.246949
O O8 0.774201 0.228400 0.336274
O O9 0.678177 0.572983 0.350439
O O10 0.829180 0.500000 0.341070
O O11 0.926680 0.500000 0.565274
O O12 0.500708 0.401565 0.910481
O O13 0.368528 0.292472 0.897708
O O14 0.122822 0.271725 0.758087
O O15 0.132071 0.421671 0.777257
#
# Coordination Sequence:
#
# PCOD9197766 Si02
#       8
#     8   8   4   4   8   8   8   4
#     4  12  23  41  66 100 138 172 218 275 345 400
#     4  11  25  44  68  95 128 179 230 272 330 397
#     4  11  24  38  61  91 138 174 226 275 331 394
#     4  10  20  35  63  96 128 164 220 270 340 388
#     4  12  23  43  68  98 139 172 223 275 338 406
#     4  11  21  38  63  94 127 170 215 279 332 393
#     4  11  23  42  67  98 133 173 221 282 329 402
#     4  11  24  41  58  95 133 183 218 278 335 391
#
# _framework density 21.376234
#
# number of rings (size 3 to 8) (size 9 to 14) (size 15 to 20)
#    0.000    0.769    4.615    5.077    0.000    2.154 
#    1.385    1.154    0.000    0.923    0.000    0.000 
#    0.000    0.000    0.000    0.000    0.000    0.000 
#
# Total GULP energy -145132.952200 kJ/mol
# GULP energy per Si atom -5582.036623 kJ/mol
# Density = 2.132758 g / cm^3
# Si number density = 21.376234 Si / 1000 Ang^3
#
#
#
# Elastic Constant Matrix: (Units=GPa)
#
#
# Indices 1 2 3 4 5 6 
#
# 1 88.2938 20.4250 37.5854 0.0000 -14.6691 -0.0001
# 2 20.4250 74.2938 -4.8128 0.0000 -18.6030 -0.0001
# 3 37.5854 -4.8128 85.3662 -0.0001 -17.4275 -0.0003
# 4 0.0000 0.0000 -0.0001 26.1856 -0.0001 12.8396
# 5 -14.6691 -18.6030 -17.4275 -0.0001 42.6245 -0.0002
# 6 -0.0001 -0.0001 -0.0003 12.8396 -0.0002 37.5030
#
#
#
# Elastic Compliance Matrix: (Units=1/GPa)
#
#
# Indices 1 2 3 4 5 6 
#
# 1 0.015421 -0.004572 -0.006951 0.000000 0.000469 0.000000
# 2 -0.004572 0.016931 0.004533 0.000000 0.007669 0.000000
# 3 -0.006951 0.004533 0.016307 0.000000 0.006254 0.000000
# 4 0.000000 0.000000 0.000000 0.045893 0.000000 -0.015712
# 5 0.000469 0.007669 0.006254 0.000000 0.029526 0.000000
# 6 0.000000 0.000000 0.000000 -0.015712 0.000000 0.032044
#
#
# Mechanical properties :
#
#
# Convention : Reuss Voigt Hill
#
# Bulk Modulus (GPa) = 28.83658 39.37214 34.10436
# Shear Modulus (GPa) = 27.52364 34.24637 30.88500
#
# Velocity S-wave (km/s) = 3.59218 4.00694 3.80521
# Velocity P-wave (km/s) = 5.54295 6.31396 5.94097
#
# Compressibility (1/GPa) = 0.03467818
#
# Stress axis : x y z
#
# Youngs Moduli (GPa) = 64.84820 59.06263 61.32297
#
# Poissons Ratio (x) = 0.27005 0.42628
# Poissons Ratio (y) = 0.29650 -0.27800
# Poissons Ratio (z) = 0.45079 -0.26775
#
# Static dielectric constant tensor:
#      x y z
#    x 1.835560 0.000000 -0.005490 
#    y 0.000000 1.849200 0.000000 
#    z -0.005490 0.000000 1.762450 
# 
# From -- ./inp_files/216905.got.cif
#   From: 2010.05.17/outbox.cif.g08.bks.cpg/sg12_109_cif.got.tgz:216905.got - 2010.06.03 13:09:07.
