data_PCOD9197211
_publ_section_title
;
Structure prediction by ZEFSAII (Michael W. Deem and Ramdas Pophale) SiO2 
 PCOD9197211
Probable space group: C 2/M
;
_chemical_formula_sum "Si O2"
_cell_formula_units_Z 40
_cell_length_a 23.057503
_cell_length_b 8.351170
_cell_length_c 11.297337
_cell_angle_alpha 90.000000
_cell_angle_beta 125.604076
_cell_angle_gamma 90.000000
_cell_volume 1768.715286
_symmetry_space_group_name_H-M "C 2/M"
_symmetry_group_IT_number 12
_symmetry_cell_setting 'monoclinic'
loop_
_space_group_symop_operation_xyz
x,y,z
-x,y,-z
-x,-y,-z
x,-y,z
1/2+x,1/2+y,z
1/2-x,1/2+y,-z
1/2-x,1/2-y,-z
1/2+x,1/2-y,z
loop_
_atom_site_type_symbol
_atom_site_label
_atom_site_fract_x
_atom_site_fract_y
_atom_site_fract_z
Si Si1 0.284593 0.178988 0.318186
Si Si2 0.442597 0.186426 0.522048
Si Si3 0.307242 0.821135 0.976242
Si Si4 0.356218 0.313787 0.618456
Si Si5 0.081201 0.694593 0.065749
O O1 0.365602 0.186322 0.365912
O O2 0.238822 0.311047 0.199348
O O3 0.300278 0.210382 0.474641
O O4 0.255854 0.000000 0.264088
O O5 0.500000 0.251585 0.500000
O O6 0.427895 0.280597 0.625226
O O7 0.459483 0.000000 0.570731
O O8 0.382416 0.751206 0.015723
O O9 0.321952 0.000000 0.034486
O O10 0.250000 0.750000 0.000000
O O11 0.338518 0.500000 0.592122
O O12 0.371874 0.258241 0.768773
O O13 0.083240 0.500000 0.067285
O O14 0.000000 0.742950 0.000000
#
# Coordination Sequence:
#
# PCOD9197211 Si02
#       5
#     8   8   8   8   8
#     4   9  19  37  60  87 120 159 203 250 303 369
#     4   8  16  32  54  81 117 162 204 242 294 364
#     4  11  24  42  65  92 124 164 208 259 315 372
#     4  10  20  35  58  91 124 154 198 259 316 360
#     4  10  23  44  66  88 120 168 216 253 303 377
#
# _framework density 22.615285
#
# number of rings (size 3 to 8) (size 9 to 14) (size 15 to 20)
#    1.200    1.200    0.000    2.400    0.000    4.800 
#    0.000    8.000    0.000    0.000    0.000    0.000 
#    0.000    0.000    0.000    0.000    0.000    0.000 
#
# Total GULP energy -111366.927958 kJ/mol
# GULP energy per Si atom -5568.346398 kJ/mol
# Density = 2.256381 g / cm^3
# Si number density = 22.615285 Si / 1000 Ang^3
#
#
#
# Elastic Constant Matrix: (Units=GPa)
#
#
# Indices 1 2 3 4 5 6 
#
# 1 192.1367 15.5844 12.7876 0.0000 -33.2124 0.0000
# 2 15.5844 44.2216 0.4475 0.0000 -5.0975 0.0000
# 3 12.7876 0.4475 44.4173 0.0000 -6.8407 0.0000
# 4 0.0000 0.0000 0.0000 25.8990 0.0000 -7.7153
# 5 -33.2124 -5.0975 -6.8407 0.0000 27.6662 0.0000
# 6 0.0000 0.0000 0.0000 -7.7153 0.0000 21.8079
#
#
#
# Elastic Compliance Matrix: (Units=1/GPa)
#
#
# Indices 1 2 3 4 5 6 
#
# 1 0.006681 -0.001475 -0.000744 0.000000 0.007565 0.000000
# 2 -0.001475 0.023438 0.000604 0.000000 0.002697 0.000000
# 3 -0.000744 0.000604 0.023496 0.000000 0.005028 0.000000
# 4 0.000000 0.000000 0.000000 0.043160 0.000000 0.015269
# 5 0.007565 0.002697 0.005028 0.000000 0.046967 0.000000
# 6 0.000000 0.000000 0.000000 0.015269 0.000000 0.051257
#
#
# Mechanical properties :
#
#
# Convention : Reuss Voigt Hill
#
# Bulk Modulus (GPa) = 19.84675 37.60162 28.72418
# Shear Modulus (GPa) = 23.25308 31.87168 27.56238
#
# Velocity S-wave (km/s) = 3.21004 3.75813 3.49485
# Velocity P-wave (km/s) = 4.74700 5.95770 5.38647
#
# Compressibility (1/GPa) = 0.05038609
#
# Stress axis : x y z
#
# Youngs Moduli (GPa) = 149.66743 42.66575 42.56022
#
# Poissons Ratio (x) = 0.06293 0.03165
# Poissons Ratio (y) = 0.22077 -0.02570
# Poissons Ratio (z) = 0.11129 -0.02577
#
# Static dielectric constant tensor:
#      x y z
#    x 2.019190 0.000000 0.000550 
#    y 0.000000 1.793750 0.000000 
#    z 0.000550 0.000000 1.825870 
# 
# From -- ./inp_files/172577.got.cif
#   From: 2010.05.17/outbox.cif.g08.bks.cpg/sg12_87_cif.got.tgz:172577.got - 2010.06.03 13:09:07.
