data_PCOD9197778
_publ_section_title
;
Structure prediction by ZEFSAII (Michael W. Deem and Ramdas Pophale) SiO2 
 PCOD9197778
Probable space group: C 2/M
;
_chemical_formula_sum "Si O2"
_cell_formula_units_Z 50
_cell_length_a 17.379232
_cell_length_b 27.635831
_cell_length_c 8.459425
_cell_angle_alpha 90.000000
_cell_angle_beta 143.214305
_cell_angle_gamma 90.000000
_cell_volume 2433.004465
_symmetry_space_group_name_H-M "C 2/M"
_symmetry_group_IT_number 12
_symmetry_cell_setting 'monoclinic'
loop_
_space_group_symop_operation_xyz
x,y,z
-x,y,-z
-x,-y,-z
x,-y,z
1/2+x,1/2+y,z
1/2-x,1/2+y,-z
1/2-x,1/2-y,-z
1/2+x,1/2-y,z
loop_
_atom_site_type_symbol
_atom_site_label
_atom_site_fract_x
_atom_site_fract_y
_atom_site_fract_z
Si Si1 0.000000 0.166805 0.000000
Si Si2 0.083449 0.640243 0.998224
Si Si3 0.675821 0.296145 0.564952
Si Si4 0.890558 0.913404 0.026499
Si Si5 0.000000 0.855070 0.500000
Si Si6 0.144525 0.400883 0.782014
Si Si7 0.398217 0.802249 0.456199
Si Si8 0.500000 0.500000 0.000000
O O1 0.926299 0.196992 0.744876
O O2 0.104533 0.130466 0.093035
O O3 0.147539 0.603820 0.976516
O O4 0.983654 0.672670 0.732398
O O5 0.192979 0.675144 0.247746
O O6 0.000000 0.616725 0.000000
O O7 0.612132 0.321785 0.613052
O O8 0.692689 0.239502 0.628899
O O9 0.956644 0.889364 0.286761
O O10 0.964237 0.957579 0.070850
O O11 0.751406 0.929351 0.861878
O O12 0.162778 0.346094 0.743328
O O13 0.000000 0.415543 0.500000
O O14 0.500000 0.779346 0.500000
#
# Coordination Sequence:
#
# PCOD9197778 Si02
#       8
#     4   8   8   8   4   8   8   2
#     4   9  24  31  56  86 122 154 202 257 300 339
#     4  10  22  35  51  78 113 162 213 252 292 334
#     4  11  20  36  53  81 117 168 207 261 283 343
#     4  10  20  43  60  94 117 152 192 240 313 358
#     4  10  20  35  64  88 118 156 206 239 294 358
#     4   9  20  38  61  83 118 165 196 245 290 363
#     4   9  21  35  51  81 113 163 217 247 299 331
#     4  10  24  42  74  96 124 138 182 252 306 382
#
# _framework density 20.550723000000001
#
# number of rings (size 3 to 8) (size 9 to 14) (size 15 to 20)
#    0.000    2.560    2.400    0.000    5.600    6.080 
#    0.000    0.400    0.000    0.000    0.000    1.680 
#    0.000    0.000    0.000    0.000    0.000    0.000 
#
# Total GULP energy -139197.770534 kJ/mol
# GULP energy per Si atom -5567.910821 kJ/mol
# Density = 2.050395 g / cm^3
# Si number density = 20.550723 Si / 1000 Ang^3
#
#
#
# Elastic Constant Matrix: (Units=GPa)
#
#
# Indices 1 2 3 4 5 6 
#
# 1 117.1902 13.1496 14.9263 0.0000 -7.5215 0.0000
# 2 13.1496 44.2103 0.8328 0.0000 -16.3047 0.0000
# 3 14.9263 0.8328 42.1843 0.0000 -15.2334 0.0000
# 4 0.0000 0.0000 0.0000 -1.6998 0.0000 -5.7139
# 5 -7.5215 -16.3047 -15.2334 0.0000 24.5321 0.0000
# 6 0.0000 0.0000 0.0000 -5.7139 0.0000 23.3643
#
#
#
# Elastic Compliance Matrix: (Units=1/GPa)
#
#
# Indices 1 2 3 4 5 6 
#
# 1 0.009286 -0.003342 -0.003859 0.000000 -0.001771 0.000000
# 2 -0.003342 0.033738 0.010627 0.000000 0.027998 0.000000
# 3 -0.003859 0.010627 0.034784 0.000000 0.027479 0.000000
# 4 0.000000 0.000000 0.000000 -0.322877 0.000000 -0.078962
# 5 -0.001771 0.027998 0.027479 0.000000 0.075891 0.000000
# 6 0.000000 0.000000 0.000000 -0.078962 0.000000 0.023490
#
#
# Mechanical properties :
#
#
# Convention : Reuss Voigt Hill
#
# Bulk Modulus (GPa) = 11.81201 29.04470 20.42835
# Shear Modulus (GPa) = -40.21950 20.88439 -9.66756
#
# Velocity S-wave (km/s) = -4.42869 3.19130 -2.17128
# Velocity P-wave (km/s) = 4.51563 5.26717 1.91731
#
# Compressibility (1/GPa) = 0.08465960
#
# Stress axis : x y z
#
# Youngs Moduli (GPa) = 107.68832 29.63975 28.74858
#
# Poissons Ratio (x) = 0.09906 0.11095
# Poissons Ratio (y) = 0.35993 -0.30551
# Poissons Ratio (z) = 0.41559 -0.31498
#
# Static dielectric constant tensor:
#      x y z
#    x 1.823530 0.000000 0.026740 
#    y 0.000000 1.641070 0.000000 
#    z 0.026740 0.000000 1.751820 
# 
# From -- ./inp_files/79922.got.cif
#   From: 2010.05.17/outbox.cif.g08.bks.cpg/sg12_40_cif.got.tgz:79922.got - 2010.06.03 13:09:07.
