data_PCOD9197629
_publ_section_title
;
Structure prediction by ZEFSAII (Michael W. Deem and Ramdas Pophale) SiO2 
 PCOD9197629
Probable space group: C 2/M
;
_chemical_formula_sum "Si O2"
_cell_formula_units_Z 40
_cell_length_a 14.244512
_cell_length_b 10.321681
_cell_length_c 14.313352
_cell_angle_alpha 90.000000
_cell_angle_beta 85.952695
_cell_angle_gamma 90.000000
_cell_volume 2099.205365
_symmetry_space_group_name_H-M "C 2/M"
_symmetry_group_IT_number 12
_symmetry_cell_setting 'monoclinic'
loop_
_space_group_symop_operation_xyz
x,y,z
-x,y,-z
-x,-y,-z
x,-y,z
1/2+x,1/2+y,z
1/2-x,1/2+y,-z
1/2-x,1/2-y,-z
1/2+x,1/2-y,z
loop_
_atom_site_type_symbol
_atom_site_label
_atom_site_fract_x
_atom_site_fract_y
_atom_site_fract_z
Si Si1 0.382425 0.500000 0.842038
Si Si2 0.496570 0.847703 0.605339
Si Si3 0.341160 0.232165 0.752665
Si Si4 0.303207 0.000000 0.899201
Si Si5 0.843332 0.500000 0.105767
Si Si6 0.125839 0.263703 0.763699
Si Si7 0.413497 0.500000 0.125689
O O1 0.388583 0.365251 0.784534
O O2 0.271584 0.500000 0.878751
O O3 0.472972 0.500000 0.905818
O O4 0.500000 0.794537 0.500000
O O5 0.396858 0.826758 0.662266
O O6 0.568268 0.788279 0.674524
O O7 0.517859 0.000000 0.598961
O O8 0.331998 0.126479 0.836835
O O9 0.235444 0.263903 0.731672
O O10 0.188196 0.000000 0.922840
O O11 0.357101 0.000000 0.993856
O O12 0.884512 0.376122 0.157330
O O13 0.099062 0.128724 0.812152
#
# Coordination Sequence:
#
# PCOD9197629 Si02
#       7
#     4   8   8   4   4   8   4
#     4  10  20  35  61  86 119 157 187 243 297 341
#     4  11  22  39  65  91 114 152 205 242 285 355
#     4  10  21  39  62  86 123 156 190 242 297 346
#     4  10  22  40  60  83 118 164 202 236 284 352
#     4  10  22  40  60  83 118 164 202 236 284 352
#     4  10  21  39  62  86 123 156 190 242 297 346
#     4  10  20  35  61  86 119 157 187 243 297 341
#
# _framework density 19.054829999999999
#
# number of rings (size 3 to 8) (size 9 to 14) (size 15 to 20)
#    0.000    1.800    4.000    0.000    0.000    8.400 
#    0.000    4.000    0.000    0.000    0.000    0.000 
#    0.000    0.000    0.000    0.000    0.000    0.000 
#
# Total GULP energy -111446.517857 kJ/mol
# GULP energy per Si atom -5572.325893 kJ/mol
# Density = 1.901146 g / cm^3
# Si number density = 19.054830 Si / 1000 Ang^3
#
#
#
# Elastic Constant Matrix: (Units=GPa)
#
#
# Indices 1 2 3 4 5 6 
#
# 1 62.2116 10.2319 47.1643 0.0000 28.9303 0.0000
# 2 10.2319 121.4803 42.3193 0.0000 12.5346 0.0000
# 3 47.1643 42.3193 209.7573 0.0000 58.0486 0.0000
# 4 0.0000 0.0000 0.0000 -6.6390 0.0000 10.8530
# 5 28.9303 12.5346 58.0486 0.0000 48.9479 0.0000
# 6 0.0000 0.0000 0.0000 10.8530 0.0000 67.6078
#
#
#
# Elastic Compliance Matrix: (Units=1/GPa)
#
#
# Indices 1 2 3 4 5 6 
#
# 1 0.022759 -0.000064 -0.002064 0.000000 -0.010988 0.000000
# 2 -0.000064 0.008856 -0.001719 0.000000 -0.000191 0.000000
# 3 -0.002064 -0.001719 0.007620 0.000000 -0.007376 0.000000
# 4 0.000000 0.000000 0.000000 -0.119315 0.000000 0.019153
# 5 -0.010988 -0.000191 -0.007376 0.000000 0.035721 0.000000
# 6 0.000000 0.000000 0.000000 0.019153 0.000000 0.011717
#
#
# Mechanical properties :
#
#
# Convention : Reuss Voigt Hill
#
# Bulk Modulus (GPa) = 31.70621 65.87558 48.79089
# Shear Modulus (GPa) = -346.38350 41.56559 -152.40895
#
# Velocity S-wave (km/s) = -13.49730 4.67558 -8.95310
# Velocity P-wave (km/s) = 15.04085 7.98716 9.01201
#
# Compressibility (1/GPa) = 0.03153956
#
# Stress axis : x y z
#
# Youngs Moduli (GPa) = 43.93895 112.91929 131.23895
#
# Poissons Ratio (x) = 0.00726 0.27083
# Poissons Ratio (y) = 0.00282 0.22566
# Poissons Ratio (z) = 0.09067 0.19416
#
# Static dielectric constant tensor:
#      x y z
#    x 1.717870 0.000000 0.006880 
#    y 0.000000 1.634590 0.000000 
#    z 0.006880 0.000000 1.634010 
# 
# From -- ./inp_files/141170.got.cif
#   From: 2010.05.17/outbox.cif.g08.bks.cpg/sg12_71_cif.got.tgz:141170.got - 2010.06.03 13:09:07.
