data_PCOD9197102
_publ_section_title
;
Structure prediction by ZEFSAII (Michael W. Deem and Ramdas Pophale) SiO2 
 PCOD9197102
Probable space group: C 2/M
;
_chemical_formula_sum "Si O2"
_cell_formula_units_Z 64
_cell_length_a 29.446144
_cell_length_b 8.001551
_cell_length_c 16.655799
_cell_angle_alpha 90.000000
_cell_angle_beta 134.851302
_cell_angle_gamma 90.000000
_cell_volume 2782.129068
_symmetry_space_group_name_H-M "C 2/M"
_symmetry_group_IT_number 12
_symmetry_cell_setting 'monoclinic'
loop_
_space_group_symop_operation_xyz
x,y,z
-x,y,-z
-x,-y,-z
x,-y,z
1/2+x,1/2+y,z
1/2-x,1/2+y,-z
1/2-x,1/2-y,-z
1/2+x,1/2-y,z
loop_
_atom_site_type_symbol
_atom_site_label
_atom_site_fract_x
_atom_site_fract_y
_atom_site_fract_z
Si Si1 0.560092 0.301256 0.524542
Si Si2 0.774787 0.196234 0.916437
Si Si3 0.200385 0.197219 0.683348
Si Si4 0.971072 0.304694 0.084837
Si Si5 0.598305 0.302676 0.152882
Si Si6 0.735851 0.699980 0.391296
Si Si7 0.149777 0.694318 0.851083
Si Si8 0.514075 0.796216 0.714291
O O1 0.500000 0.229513 0.500000
O O2 0.562507 0.500000 0.542343
O O3 0.631686 0.233918 0.627726
O O4 0.543510 0.270213 0.410673
O O5 0.759141 0.220528 0.804436
O O6 0.709823 0.267010 0.878077
O O7 0.782160 0.000000 0.943199
O O8 0.832244 0.288401 0.032361
O O9 0.211057 0.229836 0.603172
O O10 0.202524 0.000000 0.701073
O O11 0.955401 0.500000 0.070228
O O12 0.981203 0.240224 0.187801
O O13 0.039174 0.282653 0.125153
O O14 0.917266 0.222939 0.960911
O O15 0.594268 0.500000 0.163988
O O16 0.666299 0.241103 0.271553
O O17 0.736736 0.500000 0.386490
O O18 0.750000 0.750000 0.500000
O O19 0.147396 0.500000 0.826763
O O20 0.079517 0.765661 0.752819
O O21 0.512677 0.000000 0.711592
#
# Coordination Sequence:
#
# PCOD9197102 Si02
#       8
#     8   8   8   8   8   8   8   8
#     4  10  23  42  63  89 122 162 208 256 307 363
#     4  10  20  35  58  87 119 158 202 246 296 358
#     4  11  24  41  63  90 122 162 206 252 308 366
#     4  10  21  37  61  93 123 156 198 244 301 363
#     4  10  22  41  63  88 120 157 199 246 301 359
#     4  11  26  45  66  93 125 162 207 253 306 367
#     4   9  19  36  56  84 123 160 196 243 300 361
#     4  10  22  37  58  89 119 154 199 247 302 361
#
# _framework density 23.003965000000001
#
# number of rings (size 3 to 8) (size 9 to 14) (size 15 to 20)
#    0.000    1.875    0.000    3.375    3.500    5.250 
#    0.000    0.000    0.000    0.000    0.000    0.000 
#    0.000    0.000    0.000    0.000    0.000    0.000 
#
# Total GULP energy -178845.211613 kJ/mol
# GULP energy per Si atom -5588.912863 kJ/mol
# Density = 2.295161 g / cm^3
# Si number density = 23.003965 Si / 1000 Ang^3
#
#
#
# Elastic Constant Matrix: (Units=GPa)
#
#
# Indices 1 2 3 4 5 6 
#
# 1 65.5269 0.1427 29.2503 0.0000 2.2334 0.0000
# 2 0.1427 40.8938 -5.5213 0.0000 5.0355 0.0000
# 3 29.2503 -5.5213 128.6431 0.0000 5.1451 0.0000
# 4 0.0000 0.0000 0.0000 32.1803 0.0000 -6.5377
# 5 2.2334 5.0355 5.1451 0.0000 42.4789 0.0000
# 6 0.0000 0.0000 0.0000 -6.5377 0.0000 15.8215
#
#
#
# Elastic Compliance Matrix: (Units=1/GPa)
#
#
# Indices 1 2 3 4 5 6 
#
# 1 0.017004 -0.000538 -0.003875 0.000000 -0.000361 0.000000
# 2 -0.000538 0.025015 0.001320 0.000000 -0.003097 0.000000
# 3 -0.003875 0.001320 0.008752 0.000000 -0.001013 0.000000
# 4 0.000000 0.000000 0.000000 0.033923 0.000000 0.014018
# 5 -0.000361 -0.003097 -0.001013 0.000000 0.024050 0.000000
# 6 0.000000 0.000000 0.000000 0.014018 0.000000 0.068998
#
#
# Mechanical properties :
#
#
# Convention : Reuss Voigt Hill
#
# Bulk Modulus (GPa) = 22.42940 31.42302 26.92621
# Shear Modulus (GPa) = 25.15232 32.17561 28.66397
#
# Velocity S-wave (km/s) = 3.31023 3.74398 3.53377
# Velocity P-wave (km/s) = 4.93777 5.69028 5.32733
#
# Compressibility (1/GPa) = 0.04458433
#
# Stress axis : x y z
#
# Youngs Moduli (GPa) = 58.80929 39.97603 114.26384
#
# Poissons Ratio (x) = 0.02151 0.44277
# Poissons Ratio (y) = 0.03164 -0.15081
# Poissons Ratio (z) = 0.22788 -0.05276
#
# Static dielectric constant tensor:
#      x y z
#    x 1.907460 0.000000 -0.029320 
#    y 0.000000 1.810620 0.000000 
#    z -0.029320 0.000000 1.876850 
# 
# From -- ./inp_files/249940.got.cif
#   From: 2010.05.17/outbox.cif.g08.bks.cpg/sg12_125_cif.got.tgz:249940.got - 2010.06.03 13:09:07.
