data_PCOD9197861
_publ_section_title
;
Structure prediction by ZEFSAII (Michael W. Deem and Ramdas Pophale) SiO2 
 PCOD9197861
Probable space group: C 2/M
;
_chemical_formula_sum "Si O2"
_cell_formula_units_Z 40
_cell_length_a 33.457759
_cell_length_b 12.832142
_cell_length_c 5.055580
_cell_angle_alpha 90.000000
_cell_angle_beta 109.968309
_cell_angle_gamma 90.000000
_cell_volume 2040.046959
_symmetry_space_group_name_H-M "C 2/M"
_symmetry_group_IT_number 12
_symmetry_cell_setting 'monoclinic'
loop_
_space_group_symop_operation_xyz
x,y,z
-x,y,-z
-x,-y,-z
x,-y,z
1/2+x,1/2+y,z
1/2-x,1/2+y,-z
1/2-x,1/2-y,-z
1/2+x,1/2-y,z
loop_
_atom_site_type_symbol
_atom_site_label
_atom_site_fract_x
_atom_site_fract_y
_atom_site_fract_z
Si Si1 0.719831 0.328666 0.775154
Si Si2 0.774574 0.500000 0.627981
Si Si3 0.834039 0.500000 0.265962
Si Si4 0.969491 0.000000 0.180812
Si Si5 0.867105 0.280724 0.502049
Si Si6 0.103407 0.830563 0.951614
Si Si7 0.173558 0.000000 0.040206
O O1 0.745213 0.399066 0.619560
O O2 0.680959 0.262365 0.571019
O O3 0.750000 0.250000 0.000000
O O4 0.699840 0.409931 0.936077
O O5 0.794791 0.500000 0.385504
O O6 0.812583 0.500000 0.928546
O O7 0.861234 0.397374 0.385741
O O8 0.938903 0.898929 0.116502
O O9 0.000000 0.000000 0.500000
O O10 0.000000 0.000000 0.000000
O O11 0.889719 0.211357 0.328538
O O12 0.891924 0.262800 0.829806
O O13 0.142156 0.909941 0.095939
#
# Coordination Sequence:
#
# PCOD9197861 Si02
#       7
#     8   4   4   4   8   8   4
#     4  10  20  36  54  75 111 156 213 267 319 336
#     4  11  24  36  51  76 107 149 210 286 313 345
#     4  12  24  38  55  80 110 153 220 258 294 334
#     4  11  22  40  72 110 132 144 180 236 291 377
#     4  11  23  39  58  81 117 167 207 252 298 363
#     4  10  22  41  62  88 126 157 188 227 312 378
#     4   8  20  34  54  78 111 156 196 238 300 367
#
# _framework density 19.607391
#
# number of rings (size 3 to 8) (size 9 to 14) (size 15 to 20)
#    0.000    1.600    2.000    2.400    2.800   14.400 
#    0.000    0.000    0.000    0.000    0.000   14.000 
#    0.000    0.000    0.000    0.000    0.000    0.000 
#
# Total GULP energy -111369.167966 kJ/mol
# GULP energy per Si atom -5568.458398 kJ/mol
# Density = 1.956276 g / cm^3
# Si number density = 19.607391 Si / 1000 Ang^3
#
#
#
# Elastic Constant Matrix: (Units=GPa)
#
#
# Indices 1 2 3 4 5 6 
#
# 1 84.2501 13.8095 9.6103 0.0000 2.9382 0.0000
# 2 13.8095 86.9185 -16.0670 0.0000 15.4460 0.0000
# 3 9.6103 -16.0670 60.9327 0.0000 9.7565 0.0000
# 4 0.0000 0.0000 0.0000 20.9525 0.0000 0.6709
# 5 2.9382 15.4460 9.7565 0.0000 27.4243 0.0000
# 6 0.0000 0.0000 0.0000 0.6709 0.0000 19.7504
#
#
#
# Elastic Compliance Matrix: (Units=1/GPa)
#
#
# Indices 1 2 3 4 5 6 
#
# 1 0.012612 -0.002764 -0.002917 0.000000 0.001243 0.000000
# 2 -0.002764 0.014865 0.005990 0.000000 -0.010207 0.000000
# 3 -0.002917 0.005990 0.020085 0.000000 -0.010207 0.000000
# 4 0.000000 0.000000 0.000000 0.047779 0.000000 -0.001623
# 5 0.001243 -0.010207 -0.010207 0.000000 0.045711 0.000000
# 6 0.000000 0.000000 0.000000 -0.001623 0.000000 0.050687
#
#
# Mechanical properties :
#
#
# Convention : Reuss Voigt Hill
#
# Bulk Modulus (GPa) = 20.75507 27.42300 24.08904
# Shear Modulus (GPa) = 24.13343 28.60868 26.37105
#
# Velocity S-wave (km/s) = 3.51213 3.82393 3.67134
# Velocity P-wave (km/s) = 5.20145 5.78904 5.50309
#
# Compressibility (1/GPa) = 0.04818099
#
# Stress axis : x y z
#
# Youngs Moduli (GPa) = 79.29054 67.27053 49.78734
#
# Poissons Ratio (x) = 0.18593 0.14523
# Poissons Ratio (y) = 0.21915 -0.29823
# Poissons Ratio (z) = 0.23129 -0.40296
#
# Static dielectric constant tensor:
#      x y z
#    x 1.660870 0.000000 0.005580 
#    y 0.000000 1.387790 0.000000 
#    z 0.005580 0.000000 1.728100 
# 
# From -- ./inp_files/30792.got.cif
#   From: 2010.05.17/outbox.cif.g08.bks.cpg/sg12_16_cif.got.tgz:30792.got - 2010.06.03 13:09:07.
