data_PCOD9197168
_publ_section_title
;
Structure prediction by ZEFSAII (Michael W. Deem and Ramdas Pophale) SiO2 
 PCOD9197168
Probable space group: C 2/M
;
_chemical_formula_sum "Si O2"
_cell_formula_units_Z 56
_cell_length_a 15.580480
_cell_length_b 8.036719
_cell_length_c 29.778795
_cell_angle_alpha 90.000000
_cell_angle_beta 132.569401
_cell_angle_gamma 90.000000
_cell_volume 2746.091464
_symmetry_space_group_name_H-M "C 2/M"
_symmetry_group_IT_number 12
_symmetry_cell_setting 'monoclinic'
loop_
_space_group_symop_operation_xyz
x,y,z
-x,y,-z
-x,-y,-z
x,-y,z
1/2+x,1/2+y,z
1/2-x,1/2+y,-z
1/2-x,1/2-y,-z
1/2+x,1/2-y,z
loop_
_atom_site_type_symbol
_atom_site_label
_atom_site_fract_x
_atom_site_fract_y
_atom_site_fract_z
Si Si1 0.106436 0.297130 0.005203
Si Si2 0.992299 0.304566 0.122933
Si Si3 0.831628 0.195379 0.139617
Si Si4 0.245531 0.695402 0.792661
Si Si5 0.310813 0.798979 0.568121
Si Si6 0.925076 0.299937 0.345279
Si Si7 0.616198 0.701246 0.567713
O O1 0.106998 0.500000 0.003757
O O2 0.226999 0.242562 0.070178
O O3 0.079777 0.237297 0.945514
O O4 0.000000 0.248262 0.000000
O O5 0.968543 0.500000 0.118727
O O6 0.949473 0.221834 0.153631
O O7 0.128341 0.280040 0.161064
O O8 0.820641 0.281519 0.183659
O O9 0.812611 0.000000 0.140701
O O10 0.266839 0.500000 0.792902
O O11 0.166004 0.762170 0.724009
O O12 0.250000 0.750000 0.500000
O O13 0.443366 0.736526 0.616108
O O14 0.229169 0.741208 0.580043
O O15 0.313888 0.000000 0.570839
O O16 0.929012 0.500000 0.342090
O O17 0.888000 0.258703 0.382667
O O18 0.500000 0.756974 0.500000
O O19 0.615424 0.500000 0.567304
#
# Coordination Sequence:
#
# PCOD9197168 Si02
#       7
#     8   8   8   8   8   8   8
#     4   9  17  34  60  89 119 153 197 248 302 359
#     4  11  22  39  63  89 120 159 201 249 306 360
#     4  11  22  39  63  90 122 158 199 250 304 359
#     4  11  24  42  59  84 121 161 208 252 295 355
#     4  10  20  36  58  85 115 147 183 230 285 340
#     4  10  23  40  59  84 117 154 194 240 290 346
#     4  10  20  35  58  89 119 147 186 233 286 349
#
# _framework density 20.392620999999998
#
# number of rings (size 3 to 8) (size 9 to 14) (size 15 to 20)
#    0.000    1.714    2.857    1.714    0.000    3.143 
#    0.000    4.286    0.000    0.000    0.000    0.000 
#    0.000    0.000    0.000    0.000    0.000    0.000 
#
# Total GULP energy -156466.761771 kJ/mol
# GULP energy per Si atom -5588.098635 kJ/mol
# Density = 2.034621 g / cm^3
# Si number density = 20.392621 Si / 1000 Ang^3
#
#
#
# Elastic Constant Matrix: (Units=GPa)
#
#
# Indices 1 2 3 4 5 6 
#
# 1 125.0321 -6.2975 35.2017 0.0000 -23.1510 0.0000
# 2 -6.2975 17.0970 2.0133 0.0000 3.7586 0.0000
# 3 35.2017 2.0133 118.1519 0.0000 -26.9379 0.0000
# 4 0.0000 0.0000 0.0000 20.6774 0.0000 -2.7961
# 5 -23.1510 3.7586 -26.9379 0.0000 19.9091 0.0000
# 6 0.0000 0.0000 0.0000 -2.7961 0.0000 21.7378
#
#
#
# Elastic Compliance Matrix: (Units=1/GPa)
#
#
# Indices 1 2 3 4 5 6 
#
# 1 0.010246 0.001471 -0.000614 0.000000 0.010806 0.000000
# 2 0.001471 0.063620 -0.005598 0.000000 -0.017874 0.000000
# 3 -0.000614 -0.005598 0.012755 0.000000 0.017601 0.000000
# 4 0.000000 0.000000 0.000000 0.049218 0.000000 0.006331
# 5 0.010806 -0.017874 0.017601 0.000000 0.089982 0.000000
# 6 0.000000 0.000000 0.000000 0.006331 0.000000 0.046817
#
#
# Mechanical properties :
#
#
# Convention : Reuss Voigt Hill
#
# Bulk Modulus (GPa) = 12.96362 35.79067 24.37715
# Shear Modulus (GPa) = 16.24260 27.75577 21.99918
#
# Velocity S-wave (km/s) = 2.82528 3.69327 3.28804
# Velocity P-wave (km/s) = 4.12478 5.98129 5.13759
#
# Compressibility (1/GPa) = 0.07713893
#
# Stress axis : x y z
#
# Youngs Moduli (GPa) = 97.60236 15.71829 78.40172
#
# Poissons Ratio (x) = -0.02312 0.04814
# Poissons Ratio (y) = -0.14354 0.43886
# Poissons Ratio (z) = 0.05993 0.08798
#
# Static dielectric constant tensor:
#      x y z
#    x 1.703360 0.000000 0.013440 
#    y 0.000000 1.724180 0.000000 
#    z 0.013440 0.000000 1.706730 
# 
# From -- ./inp_files/375130.got.cif
#   From: 2010.05.17/outbox.cif.g08.bks.cpg/sg12_188_cif.got.tgz:375130.got - 2010.06.03 13:09:07.
