data_PCOD9197027
_publ_section_title
;
Structure prediction by ZEFSAII (Michael W. Deem and Ramdas Pophale) SiO2 
 PCOD9197027
Probable space group: C 2/M
;
_chemical_formula_sum "Si O2"
_cell_formula_units_Z 32
_cell_length_a 15.967440
_cell_length_b 16.743905
_cell_length_c 10.451832
_cell_angle_alpha 90.000000
_cell_angle_beta 26.795172
_cell_angle_gamma 90.000000
_cell_volume 1259.710103
_symmetry_space_group_name_H-M "C 2/M"
_symmetry_group_IT_number 12
_symmetry_cell_setting 'monoclinic'
loop_
_space_group_symop_operation_xyz
x,y,z
-x,y,-z
-x,-y,-z
x,-y,z
1/2+x,1/2+y,z
1/2-x,1/2+y,-z
1/2-x,1/2-y,-z
1/2+x,1/2-y,z
loop_
_atom_site_type_symbol
_atom_site_label
_atom_site_fract_x
_atom_site_fract_y
_atom_site_fract_z
Si Si1 0.510494 0.662015 0.182480
Si Si2 0.843654 0.253814 0.623960
Si Si3 0.758041 0.908137 0.900238
Si Si4 0.109604 0.408002 0.724293
O O1 0.434921 0.738358 0.363998
O O2 0.634997 0.611038 0.114012
O O3 0.316582 0.621370 0.413693
O O4 0.656825 0.696154 0.882802
O O5 0.811953 0.165277 0.731613
O O6 0.000000 0.292631 0.500000
O O7 0.802793 0.000000 0.799416
O O8 0.534437 0.905584 0.196891
O O9 0.138856 0.500000 0.719059
O O10 0.000000 0.373105 0.000000
#
# Coordination Sequence:
#
# PCOD9197027 Si02
#       4
#     8   8   8   8
#     4  11  22  39  59  87 120 155 188 240 293 340
#     4  10  21  37  59  86 118 152 195 237 285 350
#     4  10  20  35  58  86 114 147 193 246 290 327
#     4  10  20  35  58  91 117 143 197 248 285 338
#
# _framework density 25.402667999999998
#
# number of rings (size 3 to 8) (size 9 to 14) (size 15 to 20)
#    0.000    1.750    2.500    3.750    0.000    5.500 
#    0.000    0.000    0.000   13.500    0.000   14.000 
#    0.000    0.000    0.000    0.000    0.000    0.000 
#
# Total GULP energy -89377.234936 kJ/mol
# GULP energy per Si atom -5586.077183 kJ/mol
# Density = 2.534485 g / cm^3
# Si number density = 25.402668 Si / 1000 Ang^3
#
#
#
# Elastic Constant Matrix: (Units=GPa)
#
#
# Indices 1 2 3 4 5 6 
#
# 1 97.9040 29.4667 79.3843 -0.0020 -35.9228 0.0008
# 2 29.4667 108.4304 57.4341 -0.0009 -12.6180 0.0002
# 3 79.3843 57.4341 227.1630 -0.0098 -53.5907 0.0021
# 4 -0.0020 -0.0009 -0.0098 33.6861 0.0008 -5.0788
# 5 -35.9228 -12.6180 -53.5907 0.0008 59.7899 -0.0005
# 6 0.0008 0.0002 0.0021 -5.0788 -0.0005 15.1140
#
#
#
# Elastic Compliance Matrix: (Units=1/GPa)
#
#
# Indices 1 2 3 4 5 6 
#
# 1 0.015903 -0.001649 -0.003765 0.000000 0.005833 0.000000
# 2 -0.001649 0.010822 -0.002352 0.000000 -0.000815 0.000000
# 3 -0.003765 -0.002352 0.007180 0.000002 0.003677 0.000000
# 4 0.000000 0.000000 0.000002 0.031270 0.000001 0.010508
# 5 0.005833 -0.000815 0.003677 0.000001 0.023353 0.000000
# 6 0.000000 0.000000 0.000000 0.010508 0.000000 0.069695
#
#
# Mechanical properties :
#
#
# Convention : Reuss Voigt Hill
#
# Bulk Modulus (GPa) = 54.42721 85.11861 69.77291
# Shear Modulus (GPa) = 27.79654 39.53216 33.66435
#
# Velocity S-wave (km/s) = 3.31151 3.94918 3.64432
# Velocity P-wave (km/s) = 6.00781 7.37395 6.72566
#
# Compressibility (1/GPa) = 0.01837316
#
# Stress axis : x y z
#
# Youngs Moduli (GPa) = 62.88174 92.40742 139.27799
#
# Poissons Ratio (x) = 0.15238 0.52432
# Poissons Ratio (y) = 0.10369 0.32760
# Poissons Ratio (z) = 0.23672 0.21735
#
# Static dielectric constant tensor:
#      x y z
#    x 2.071780 0.000000 -0.009280 
#    y 0.000000 2.056490 0.000000 
#    z -0.009280 0.000000 1.999680 
# 
# From -- ./inp_files/74267.got.cif
#   From: 2010.05.17/outbox.cif.g08.bks.cpg/sg12_38_cif.got.tgz:74267.got - 2010.06.03 13:09:07.
