data_PCOD9197921
_publ_section_title
;
Structure prediction by ZEFSAII (Michael W. Deem and Ramdas Pophale) SiO2 
 PCOD9197921
Probable space group: C 2/M
;
_chemical_formula_sum "Si O2"
_cell_formula_units_Z 60
_cell_length_a 18.485712
_cell_length_b 32.578958
_cell_length_c 5.691232
_cell_angle_alpha 90.000000
_cell_angle_beta 121.189984
_cell_angle_gamma 90.000000
_cell_volume 2932.086187
_symmetry_space_group_name_H-M "C 2/M"
_symmetry_group_IT_number 12
_symmetry_cell_setting 'monoclinic'
loop_
_space_group_symop_operation_xyz
x,y,z
-x,y,-z
-x,-y,-z
x,-y,z
1/2+x,1/2+y,z
1/2-x,1/2+y,-z
1/2-x,1/2-y,-z
1/2+x,1/2-y,z
loop_
_atom_site_type_symbol
_atom_site_label
_atom_site_fract_x
_atom_site_fract_y
_atom_site_fract_z
Si Si1 0.160969 0.858028 0.714577
Si Si2 0.141121 0.413198 0.430693
Si Si3 0.088041 0.293362 0.030382
Si Si4 0.447405 0.000000 0.664786
Si Si5 0.101391 0.766096 0.704859
Si Si6 0.222597 0.289127 0.602799
Si Si7 0.866199 0.372092 0.084684
Si Si8 0.178062 0.126443 0.231480
O O1 0.131170 0.810595 0.676087
O O2 0.134014 0.873813 0.411790
O O3 0.263935 0.863226 0.900482
O O4 0.130259 0.879907 0.903403
O O5 0.110578 0.459536 0.413857
O O6 0.112295 0.392012 0.627978
O O7 0.242081 0.404040 0.610230
O O8 0.112365 0.397038 0.120989
O O9 0.111207 0.247511 0.990144
O O10 0.086839 0.328521 0.836149
O O11 0.153511 0.311060 0.324532
O O12 0.000000 0.289713 0.000000
O O13 0.500000 0.000000 0.500000
O O14 0.500000 0.000000 0.000000
O O15 0.167251 0.733035 0.708797
O O16 0.000000 0.760799 0.500000
O O17 0.250000 0.250000 0.500000
O O18 0.286948 0.326423 0.746781
#
# Coordination Sequence:
#
# PCOD9197921 Si02
#       8
#     8   8   8   4   8   8   8   8
#     4  10  20  36  55  75  99 139 188 225 281 338
#     4  10  21  40  58  82 106 137 187 233 273 333
#     4  12  24  35  48  76 107 141 187 245 295 335
#     4  12  26  42  60  88 120 156 185 220 299 364
#     4  12  24  34  49  75 111 146 181 243 294 340
#     4  12  21  37  54  72 102 144 194 233 284 335
#     4  10  21  39  61  78 102 142 193 237 282 328
#     4  10  20  37  58  79  97 138 194 236 274 320
#
# _framework density 20.463244
#
# number of rings (size 3 to 8) (size 9 to 14) (size 15 to 20)
#    0.000    1.067    5.333    3.200    0.000    3.200 
#    0.000    0.000    0.000    0.000    0.000    0.000 
#    0.000    0.000    0.000   57.600    0.000    0.000 
#
# Total GULP energy -167005.404944 kJ/mol
# GULP energy per Si atom -5566.846831 kJ/mol
# Density = 2.041667 g / cm^3
# Si number density = 20.463244 Si / 1000 Ang^3
#
#
#
# Elastic Constant Matrix: (Units=GPa)
#
#
# Indices 1 2 3 4 5 6 
#
# 1 48.0672 33.2809 29.6049 0.0000 -22.8925 0.0000
# 2 33.2809 96.9242 16.6411 0.0000 -16.6348 0.0000
# 3 29.6049 16.6411 114.2418 0.0000 -37.0340 0.0000
# 4 0.0000 0.0000 0.0000 649.9601 0.0000 875.4161
# 5 -22.8925 -16.6348 -37.0340 0.0000 29.9847 0.0000
# 6 0.0000 0.0000 0.0000 875.4161 0.0000 1270.8561
#
#
#
# Elastic Compliance Matrix: (Units=1/GPa)
#
#
# Indices 1 2 3 4 5 6 
#
# 1 0.038932 -0.009194 -0.001280 0.000000 0.023042 0.000000
# 2 -0.009194 0.013603 0.000954 0.000000 0.001706 0.000000
# 3 -0.001280 0.000954 0.014677 0.000000 0.017680 0.000000
# 4 0.000000 0.000000 0.000000 0.021304 0.000000 -0.014675
# 5 0.023042 0.001706 0.017680 0.000000 0.073725 0.000000
# 6 0.000000 0.000000 0.000000 -0.014675 0.000000 0.010896
#
#
# Mechanical properties :
#
#
# Convention : Reuss Voigt Hill
#
# Bulk Modulus (GPa) = 20.75852 46.47632 33.61742
# Shear Modulus (GPa) = 24.01121 402.14061 213.07591
#
# Velocity S-wave (km/s) = 3.42918 14.03371 10.21529
# Velocity P-wave (km/s) = 5.08384 16.89245 12.47398
#
# Compressibility (1/GPa) = 0.04817299
#
# Stress axis : x y z
#
# Youngs Moduli (GPa) = 25.68554 73.51226 68.13152
#
# Poissons Ratio (x) = 0.67586 0.08722
# Poissons Ratio (y) = 0.23615 -0.06499
# Poissons Ratio (z) = 0.03288 -0.07012
#
# Static dielectric constant tensor:
#      x y z
#    x 1.888190 0.000000 -0.047950 
#    y 0.000000 1.752500 0.000000 
#    z -0.047950 0.000000 1.874870 
# 
# From -- ./inp_files/18336.got.cif
#   From: 2010.05.17/outbox.cif.g08.bks.cpg/sg12_10_cif.got.tgz:18336.got - 2010.06.03 13:09:07.
