data_PCOD9197584
_publ_section_title
;
Structure prediction by ZEFSAII (Michael W. Deem and Ramdas Pophale) SiO2 
 PCOD9197584
Probable space group: C 2/M
;
_chemical_formula_sum "Si O2"
_cell_formula_units_Z 64
_cell_length_a 14.903304
_cell_length_b 8.835693
_cell_length_c 30.539960
_cell_angle_alpha 90.000000
_cell_angle_beta 48.957127
_cell_angle_gamma 90.000000
_cell_volume 3033.114448
_symmetry_space_group_name_H-M "C 2/M"
_symmetry_group_IT_number 12
_symmetry_cell_setting 'monoclinic'
loop_
_space_group_symop_operation_xyz
x,y,z
-x,y,-z
-x,-y,-z
x,-y,z
1/2+x,1/2+y,z
1/2-x,1/2+y,-z
1/2-x,1/2-y,-z
1/2+x,1/2-y,z
loop_
_atom_site_type_symbol
_atom_site_label
_atom_site_fract_x
_atom_site_fract_y
_atom_site_fract_z
Si Si1 0.371379 0.179944 0.100271
Si Si2 0.576350 0.819645 0.753597
Si Si3 0.341108 0.174793 0.868883
Si Si4 0.765194 0.179174 0.221772
Si Si5 0.621899 0.175764 0.044217
Si Si6 0.293369 0.318996 0.440382
Si Si7 0.054743 0.682185 0.352088
Si Si8 0.783805 0.180067 0.622612
O O1 0.280174 0.232183 0.092442
O O2 0.307619 0.235741 0.165013
O O3 0.506703 0.240188 0.056276
O O4 0.380008 0.000000 0.097700
O O5 0.437631 0.779049 0.801435
O O6 0.645123 0.724758 0.768136
O O7 0.650725 0.798966 0.685525
O O8 0.583069 0.000000 0.762036
O O9 0.406141 0.184169 0.894767
O O10 0.308611 0.000000 0.871899
O O11 0.636286 0.216682 0.283498
O O12 0.769067 0.000000 0.212380
O O13 0.634956 0.000000 0.027971
O O14 0.750000 0.250000 0.000000
O O15 0.288277 0.500000 0.442958
O O16 0.250000 0.250000 0.500000
O O17 0.427935 0.261368 0.390465
O O18 0.215528 0.255004 0.425078
O O19 0.041979 0.500000 0.358929
O O20 0.126560 0.743550 0.371492
O O21 0.806428 0.000000 0.613058
#
# Coordination Sequence:
#
# PCOD9197584 Si02
#       8
#     8   8   8   8   8   8   8   8
#     4  11  23  39  59  89 123 159 201 251 304 361
#     4   9  18  36  61  87 125 162 197 246 303 362
#     4  10  21  39  60  88 122 161 201 246 303 362
#     4  10  20  35  60  91 125 161 201 247 301 364
#     4  10  23  43  64  84 119 161 204 253 304 358
#     4  12  26  44  65  91 124 165 212 259 307 368
#     4  10  22  41  63  92 127 164 207 256 308 365
#     4  10  21  39  64  94 126 164 204 253 311 368
#
# _framework density 21.100424
#
# number of rings (size 3 to 8) (size 9 to 14) (size 15 to 20)
#    0.000    1.750    1.250    2.625    1.750    5.000 
#    0.000    5.000    0.000    0.000    0.000    0.000 
#    0.000    0.000    0.000    0.000    0.000    0.000 
#
# Total GULP energy -178815.820740 kJ/mol
# GULP energy per Si atom -5587.994398 kJ/mol
# Density = 2.105240 g / cm^3
# Si number density = 21.100424 Si / 1000 Ang^3
#
#
#
# Elastic Constant Matrix: (Units=GPa)
#
#
# Indices 1 2 3 4 5 6 
#
# 1 66.9672 11.9916 1.8178 0.0000 -7.8671 0.0000
# 2 11.9916 59.6251 14.2266 0.0000 -6.0408 0.0000
# 3 1.8178 14.2266 38.0384 0.0000 0.2755 0.0000
# 4 0.0000 0.0000 0.0000 29.6185 0.0000 -0.7391
# 5 -7.8671 -6.0408 0.2755 0.0000 33.3281 0.0000
# 6 0.0000 0.0000 0.0000 -0.7391 0.0000 34.5276
#
#
#
# Elastic Compliance Matrix: (Units=1/GPa)
#
#
# Indices 1 2 3 4 5 6 
#
# 1 0.015826 -0.002934 0.000318 0.000000 0.003201 0.000000
# 2 -0.002934 0.019351 -0.007118 0.000000 0.002874 0.000000
# 3 0.000318 -0.007118 0.028947 0.000000 -0.001454 0.000000
# 4 0.000000 0.000000 0.000000 0.033781 0.000000 0.000723
# 5 0.003201 0.002874 -0.001454 0.000000 0.031293 0.000000
# 6 0.000000 0.000000 0.000000 0.000723 0.000000 0.028978
#
#
# Mechanical properties :
#
#
# Convention : Reuss Voigt Hill
#
# Bulk Modulus (GPa) = 22.39410 24.52254 23.45832
# Shear Modulus (GPa) = 25.97013 28.60114 27.28563
#
# Velocity S-wave (km/s) = 3.51206 3.68567 3.59992
# Velocity P-wave (km/s) = 5.20406 5.45521 5.33112
#
# Compressibility (1/GPa) = 0.04465463
#
# Stress axis : x y z
#
# Youngs Moduli (GPa) = 63.18893 51.67663 34.54620
#
# Poissons Ratio (x) = 0.15164 -0.01099
# Poissons Ratio (y) = 0.18542 0.24590
# Poissons Ratio (z) = -0.02009 0.36784
#
# Static dielectric constant tensor:
#      x y z
#    x 1.785160 0.000000 0.006550 
#    y 0.000000 1.707880 0.000000 
#    z 0.006550 0.000000 1.787820 
# 
# From -- ./inp_files/375484.got.cif
#   From: 2010.05.17/outbox.cif.g08.bks.cpg/sg12_188_cif.got.tgz:375484.got - 2010.06.03 13:09:07.
