data_PCOD9197337
_publ_section_title
;
Structure prediction by ZEFSAII (Michael W. Deem and Ramdas Pophale) SiO2 
 PCOD9197337
Probable space group: C 2/M
;
_chemical_formula_sum "Si O2"
_cell_formula_units_Z 40
_cell_length_a 14.124716
_cell_length_b 25.471170
_cell_length_c 11.787571
_cell_angle_alpha 90.000000
_cell_angle_beta 28.476608
_cell_angle_gamma 90.000000
_cell_volume 2022.037109
_symmetry_space_group_name_H-M "C 2/M"
_symmetry_group_IT_number 12
_symmetry_cell_setting 'monoclinic'
loop_
_space_group_symop_operation_xyz
x,y,z
-x,y,-z
-x,-y,-z
x,-y,z
1/2+x,1/2+y,z
1/2-x,1/2+y,-z
1/2-x,1/2-y,-z
1/2+x,1/2-y,z
loop_
_atom_site_type_symbol
_atom_site_label
_atom_site_fract_x
_atom_site_fract_y
_atom_site_fract_z
Si Si1 0.380513 0.864805 0.895212
Si Si2 0.633871 0.673602 0.961226
Si Si3 0.226878 0.713598 0.801818
Si Si4 0.661575 0.658494 0.541374
Si Si5 0.923177 0.060012 0.710247
O O1 0.290310 0.861972 0.864059
O O2 0.612459 0.852673 0.659147
O O3 0.271102 0.819804 0.085304
O O4 0.300955 0.917943 0.038415
O O5 0.752422 0.725033 0.796447
O O6 0.500000 0.650977 0.000000
O O7 0.462529 0.689389 0.232897
O O8 0.343350 0.688764 0.573656
O O9 0.000000 0.708714 0.000000
O O10 0.557842 0.601818 0.635342
O O11 0.000000 0.062546 0.500000
O O12 0.938898 0.000000 0.731937
#
# Coordination Sequence:
#
# PCOD9197337 Si02
#       5
#     8   8   8   8   8
#     4  10  20  36  56  82 113 150 186 230 281 336
#     4  10  22  36  53  81 115 155 197 230 270 327
#     4   9  18  33  53  80 111 148 190 223 277 331
#     4  10  21  38  57  81 120 151 184 236 282 332
#     4  10  20  35  59  88 115 144 179 231 294 345
#
# _framework density 19.782029999999999
#
# number of rings (size 3 to 8) (size 9 to 14) (size 15 to 20)
#    0.000    2.200    2.000    0.600    0.000    8.800 
#    0.000   14.000    0.000    9.600    0.000   11.200 
#    0.000    0.000    0.000    0.000    0.000    0.000 
#
# Total GULP energy -111539.791474 kJ/mol
# GULP energy per Si atom -5576.989574 kJ/mol
# Density = 1.973701 g / cm^3
# Si number density = 19.782030 Si / 1000 Ang^3
#
#
#
# Elastic Constant Matrix: (Units=GPa)
#
#
# Indices 1 2 3 4 5 6 
#
# 1 98.1760 20.2440 22.7695 0.0001 1.6098 -0.0005
# 2 20.2440 77.8600 20.9543 0.0000 -3.4634 -0.0006
# 3 22.7695 20.9543 91.3095 -0.0045 -16.9281 0.0017
# 4 0.0001 0.0000 -0.0045 15.8825 0.0021 -6.8364
# 5 1.6098 -3.4634 -16.9281 0.0021 24.0594 -0.0016
# 6 -0.0005 -0.0006 0.0017 -6.8364 -0.0016 15.1487
#
#
#
# Elastic Compliance Matrix: (Units=1/GPa)
#
#
# Indices 1 2 3 4 5 6 
#
# 1 0.011385 -0.002323 -0.002886 0.000000 -0.003127 0.000000
# 2 -0.002323 0.014164 -0.002604 0.000000 0.000362 0.000001
# 3 -0.002886 -0.002604 0.014071 0.000003 0.009718 0.000001
# 4 0.000000 0.000000 0.000003 0.078141 -0.000002 0.035264
# 5 -0.003127 0.000362 0.009718 -0.000002 0.048663 0.000003
# 6 0.000000 0.000001 0.000001 0.035264 0.000003 0.081927
#
#
# Mechanical properties :
#
#
# Convention : Reuss Voigt Hill
#
# Bulk Modulus (GPa) = 41.67504 43.92013 42.79758
# Shear Modulus (GPa) = 18.38406 24.57664 21.48035
#
# Velocity S-wave (km/s) = 3.05180 3.52855 3.29880
# Velocity P-wave (km/s) = 5.79058 6.23307 6.01590
#
# Compressibility (1/GPa) = 0.02399518
#
# Stress axis : x y z
#
# Youngs Moduli (GPa) = 87.83278 70.59933 71.06967
#
# Poissons Ratio (x) = 0.16398 0.20509
# Poissons Ratio (y) = 0.20401 0.18508
# Poissons Ratio (z) = 0.25346 0.18386
#
# Static dielectric constant tensor:
#      x y z
#    x 1.744290 0.000000 -0.010090 
#    y 0.000000 1.689550 0.000000 
#    z -0.010090 0.000000 1.754700 
# 
# From -- ./inp_files/148802.got.cif
#   From: 2010.05.17/outbox.cif.g08.bks.cpg/sg12_75_cif.got.tgz:148802.got - 2010.06.03 13:09:07.
