data_PCOD9197395
_publ_section_title
;
Structure prediction by ZEFSAII (Michael W. Deem and Ramdas Pophale) SiO2 
 PCOD9197395
Probable space group: C 2/M
;
_chemical_formula_sum "Si O2"
_cell_formula_units_Z 48
_cell_length_a 16.092667
_cell_length_b 15.917495
_cell_length_c 14.430376
_cell_angle_alpha 90.000000
_cell_angle_beta 34.820408
_cell_angle_gamma 90.000000
_cell_volume 2110.673592
_symmetry_space_group_name_H-M "C 2/M"
_symmetry_group_IT_number 12
_symmetry_cell_setting 'monoclinic'
loop_
_space_group_symop_operation_xyz
x,y,z
-x,y,-z
-x,-y,-z
x,-y,z
1/2+x,1/2+y,z
1/2-x,1/2+y,-z
1/2-x,1/2-y,-z
1/2+x,1/2-y,z
loop_
_atom_site_type_symbol
_atom_site_label
_atom_site_fract_x
_atom_site_fract_y
_atom_site_fract_z
Si Si1 0.526761 0.402208 0.616844
Si Si2 0.180309 0.408199 0.905600
Si Si3 0.350330 0.336108 0.079482
Si Si4 0.020711 0.757417 0.758864
Si Si5 0.251109 0.709157 0.691203
Si Si6 0.900172 0.407064 0.805006
O O1 0.572666 0.500000 0.576277
O O2 0.354495 0.399837 0.759010
O O3 0.545943 0.348850 0.692491
O O4 0.615006 0.348003 0.461416
O O5 0.150199 0.500000 0.896040
O O6 0.148736 0.345457 0.851865
O O7 0.119984 0.404576 0.064829
O O8 0.241365 0.293129 0.254003
O O9 0.251244 0.401743 0.113368
O O10 0.500000 0.358678 0.000000
O O11 0.401653 0.273220 0.949536
O O12 0.165659 0.728713 0.676472
O O13 0.976920 0.684908 0.724874
O O14 0.966544 0.500000 0.723369
#
# Coordination Sequence:
#
# PCOD9197395 Si02
#       6
#     8   8   8   8   8   8
#     4  11  23  40  65  91 124 165 209 260 310 364
#     4  10  20  35  59  89 122 159 206 256 304 358
#     4  10  21  38  62  88 120 163 213 259 300 363
#     4  11  22  40  63  90 126 170 204 249 311 373
#     4  11  22  37  59  93 125 163 203 254 313 361
#     4  11  22  38  62  92 124 164 206 255 311 367
#
# _framework density 22.741554000000001
#
# number of rings (size 3 to 8) (size 9 to 14) (size 15 to 20)
#    0.000    1.333    3.333    3.000    0.000    3.000 
#    0.000    4.167    0.000    2.000    0.000    0.000 
#    0.000    0.000    0.000    0.000    0.000    0.000 
#
# Total GULP energy -133762.675547 kJ/mol
# GULP energy per Si atom -5573.444814 kJ/mol
# Density = 2.268979 g / cm^3
# Si number density = 22.741554 Si / 1000 Ang^3
#
#
#
# Elastic Constant Matrix: (Units=GPa)
#
#
# Indices 1 2 3 4 5 6 
#
# 1 110.4551 40.5524 2.2061 0.0000 7.5703 0.0000
# 2 40.5524 89.0564 17.7694 -0.0001 -0.8509 0.0001
# 3 2.2061 17.7694 53.7575 0.0000 1.5604 -0.0001
# 4 0.0000 -0.0001 0.0000 4.5659 0.0000 16.1525
# 5 7.5703 -0.8509 1.5604 0.0000 25.1382 0.0000
# 6 0.0000 0.0001 -0.0001 16.1525 0.0000 -7.2743
#
#
#
# Elastic Compliance Matrix: (Units=1/GPa)
#
#
# Indices 1 2 3 4 5 6 
#
# 1 0.011281 -0.005461 0.001449 0.000000 -0.003672 0.000000
# 2 -0.005461 0.014676 -0.004698 0.000000 0.002433 0.000000
# 3 0.001449 -0.004698 0.020149 0.000000 -0.001846 0.000000
# 4 0.000000 0.000000 0.000000 0.024733 0.000000 0.054919
# 5 -0.003672 0.002433 -0.001846 0.000000 0.041083 0.000000
# 6 0.000000 0.000000 0.000000 0.054919 0.000000 -0.015524
#
#
# Mechanical properties :
#
#
# Convention : Reuss Voigt Hill
#
# Bulk Modulus (GPa) = 34.85978 41.59162 38.22570
# Shear Modulus (GPa) = 40.52517 17.33536 28.93027
#
# Velocity S-wave (km/s) = 4.22594 2.76393 3.57057
# Velocity P-wave (km/s) = 6.25886 5.33988 5.81754
#
# Compressibility (1/GPa) = 0.02868635
#
# Stress axis : x y z
#
# Youngs Moduli (GPa) = 88.64324 68.13777 49.63026
#
# Poissons Ratio (x) = 0.37211 -0.07190
# Poissons Ratio (y) = 0.48409 0.23315
# Poissons Ratio (z) = -0.12843 0.32009
#
# Static dielectric constant tensor:
#      x y z
#    x 1.884550 0.000000 -0.017900 
#    y 0.000000 1.942690 0.000000 
#    z -0.017900 0.000000 1.917650 
# 
# From -- ./inp_files/225098.got.cif
#   From: 2010.05.17/outbox.cif.g08.bks.cpg/sg12_113_cif.got.tgz:225098.got - 2010.06.03 13:09:07.
