data_PCOD9197728
_publ_section_title
;
Structure prediction by ZEFSAII (Michael W. Deem and Ramdas Pophale) SiO2 
 PCOD9197728
Probable space group: C 2/M
;
_chemical_formula_sum "Si O2"
_cell_formula_units_Z 56
_cell_length_a 29.817256
_cell_length_b 8.673257
_cell_length_c 11.227238
_cell_angle_alpha 90.000000
_cell_angle_beta 68.205757
_cell_angle_gamma 90.000000
_cell_volume 2695.973061
_symmetry_space_group_name_H-M "C 2/M"
_symmetry_group_IT_number 12
_symmetry_cell_setting 'monoclinic'
loop_
_space_group_symop_operation_xyz
x,y,z
-x,y,-z
-x,-y,-z
x,-y,z
1/2+x,1/2+y,z
1/2-x,1/2+y,-z
1/2-x,1/2-y,-z
1/2+x,1/2-y,z
loop_
_atom_site_type_symbol
_atom_site_label
_atom_site_fract_x
_atom_site_fract_y
_atom_site_fract_z
Si Si1 0.046076 0.680944 0.389829
Si Si2 0.624413 0.320496 0.936997
Si Si3 0.527463 0.179589 0.129310
Si Si4 0.630673 0.817235 0.456691
Si Si5 0.083545 0.682091 0.757417
Si Si6 0.734914 0.682209 0.386129
Si Si7 0.278124 0.816124 0.087587
O O1 0.047975 0.500000 0.426262
O O2 0.036162 0.684819 0.261401
O O3 0.098003 0.739840 0.379211
O O4 0.000000 0.753711 0.500000
O O5 0.633968 0.500000 0.939857
O O6 0.621780 0.270095 0.801472
O O7 0.665366 0.228566 0.967699
O O8 0.570668 0.277288 0.032678
O O9 0.472060 0.228796 0.163225
O O10 0.531994 0.000000 0.087274
O O11 0.596920 0.800219 0.606364
O O12 0.678770 0.721369 0.425395
O O13 0.643370 0.000000 0.432847
O O14 0.087310 0.500000 0.780600
O O15 0.744276 0.500000 0.382724
O O16 0.750000 0.750000 0.500000
O O17 0.759452 0.739206 0.237382
O O18 0.272672 0.000000 0.089520
O O19 0.250000 0.750000 0.000000
#
# Coordination Sequence:
#
# PCOD9197728 Si02
#       7
#     8   8   8   8   8   8   8
#     4   9  16  32  58  90 121 154 199 247 296 358
#     4  12  26  41  60  87 123 163 208 256 309 370
#     4  10  20  36  61  90 122 162 207 251 301 363
#     4  10  20  35  62  95 125 158 200 250 305 365
#     4  10  20  37  61  91 126 163 208 255 300 362
#     4  11  25  44  67  96 128 162 209 263 318 380
#     4  11  26  48  70  94 126 165 214 268 321 380
#
# _framework density 20.771719999999998
#
# number of rings (size 3 to 8) (size 9 to 14) (size 15 to 20)
#    0.000    1.571    1.429    3.429    2.000    8.571 
#    0.000    0.000    0.000    0.857    0.000    0.000 
#    0.000    0.000    0.000    0.000    0.000    0.000 
#
# Total GULP energy -156353.711330 kJ/mol
# GULP energy per Si atom -5584.061119 kJ/mol
# Density = 2.072444 g / cm^3
# Si number density = 20.771720 Si / 1000 Ang^3
#
#
#
# Elastic Constant Matrix: (Units=GPa)
#
#
# Indices 1 2 3 4 5 6 
#
# 1 136.4422 18.4507 26.0762 0.0000 20.8367 0.0000
# 2 18.4507 33.3778 23.1206 0.0000 9.4805 0.0000
# 3 26.0762 23.1206 73.7795 0.0000 7.7678 0.0000
# 4 0.0000 0.0000 0.0000 15.4980 0.0000 8.3129
# 5 20.8367 9.4805 7.7678 0.0000 33.7563 0.0000
# 6 0.0000 0.0000 0.0000 8.3129 0.0000 25.2870
#
#
#
# Elastic Compliance Matrix: (Units=1/GPa)
#
#
# Indices 1 2 3 4 5 6 
#
# 1 0.008649 -0.002251 -0.001902 0.000000 -0.004269 0.000000
# 2 -0.002251 0.041195 -0.011316 0.000000 -0.007576 0.000000
# 3 -0.001902 -0.011316 0.017744 0.000000 0.000269 0.000000
# 4 0.000000 0.000000 0.000000 0.078338 0.000000 -0.025753
# 5 -0.004269 -0.007576 0.000269 0.000000 0.034325 0.000000
# 6 0.000000 0.000000 0.000000 -0.025753 0.000000 0.048012
#
#
# Mechanical properties :
#
#
# Convention : Reuss Voigt Hill
#
# Bulk Modulus (GPa) = 27.28551 42.09942 34.69247
# Shear Modulus (GPa) = 18.42181 26.63840 22.53011
#
# Velocity S-wave (km/s) = 2.98127 3.58500 3.29698
# Velocity P-wave (km/s) = 5.00150 6.11947 5.58851
#
# Compressibility (1/GPa) = 0.03664948
#
# Stress axis : x y z
#
# Youngs Moduli (GPa) = 115.62144 24.27482 56.35704
#
# Poissons Ratio (x) = 0.05464 0.10719
# Poissons Ratio (y) = 0.26026 0.63775
# Poissons Ratio (z) = 0.21991 0.27470
#
# Static dielectric constant tensor:
#      x y z
#    x 1.734980 0.000000 -0.001010 
#    y 0.000000 1.727810 0.000000 
#    z -0.001010 0.000000 1.783610 
# 
# From -- ./inp_files/180749.got.cif
#   From: 2010.05.17/outbox.cif.g08.bks.cpg/sg12_91_cif.got.tgz:180749.got - 2010.06.03 13:09:07.
