data_PCOD9197707
_publ_section_title
;
Structure prediction by ZEFSAII (Michael W. Deem and Ramdas Pophale) SiO2 
 PCOD9197707
Probable space group: C 2/M
;
_chemical_formula_sum "Si O2"
_cell_formula_units_Z 48
_cell_length_a 11.509998
_cell_length_b 26.339118
_cell_length_c 15.754680
_cell_angle_alpha 90.000000
_cell_angle_beta 153.413045
_cell_angle_gamma 90.000000
_cell_volume 2137.632078
_symmetry_space_group_name_H-M "C 2/M"
_symmetry_group_IT_number 12
_symmetry_cell_setting 'monoclinic'
loop_
_space_group_symop_operation_xyz
x,y,z
-x,y,-z
-x,-y,-z
x,-y,z
1/2+x,1/2+y,z
1/2-x,1/2+y,-z
1/2-x,1/2-y,-z
1/2+x,1/2-y,z
loop_
_atom_site_type_symbol
_atom_site_label
_atom_site_fract_x
_atom_site_fract_y
_atom_site_fract_z
Si Si1 0.478742 0.855065 0.086793
Si Si2 0.687914 0.198737 0.795064
Si Si3 0.362677 0.500000 0.769709
Si Si4 0.093970 0.500000 0.775030
Si Si5 0.330950 0.107517 0.623784
Si Si6 0.000000 0.684921 0.500000
Si Si7 0.250000 0.250000 0.000000
Si Si8 0.922895 0.104489 0.715652
O O1 0.416238 0.796987 0.066803
O O2 0.213483 0.885245 0.935878
O O3 0.500000 0.861801 0.000000
O O4 0.692198 0.874756 0.293607
O O5 0.551298 0.145314 0.727941
O O6 0.588341 0.215796 0.638932
O O7 0.618616 0.238122 0.821914
O O8 0.000000 0.192442 0.000000
O O9 0.176098 0.500000 0.729545
O O10 0.333885 0.550396 0.694151
O O11 0.648013 0.500000 0.998773
O O12 0.933830 0.550376 0.689730
O O13 0.107095 0.108908 0.405844
O O14 0.757763 0.648508 0.363174
#
# Coordination Sequence:
#
# PCOD9197707 Si02
#       8
#     8   8   4   4   8   4   4   8
#     4  11  24  44  64  88 123 163 207 254 307 368
#     4  10  20  36  58  83 118 155 193 245 307 365
#     4  11  21  33  61  95 127 166 201 256 309 358
#     4  11  21  33  61  95 129 162 207 252 310 360
#     4  10  22  38  59  89 123 162 204 249 300 363
#     4  10  20  35  62  90 124 160 196 251 308 370
#     4  10  22  40  64  88 114 154 202 260 308 360
#     4  11  22  39  61  92 128 162 204 251 308 364
#
# _framework density 22.454753
#
# number of rings (size 3 to 8) (size 9 to 14) (size 15 to 20)
#    0.000    1.500    1.667    5.000    2.333    1.667 
#    0.000   16.667    0.000    2.000    0.000    0.000 
#    0.000    0.000    0.000    0.000    0.000    0.000 
#
# Total GULP energy -133643.886158 kJ/mol
# GULP energy per Si atom -5568.495257 kJ/mol
# Density = 2.240364 g / cm^3
# Si number density = 22.454753 Si / 1000 Ang^3
#
#
#
# Elastic Constant Matrix: (Units=GPa)
#
#
# Indices 1 2 3 4 5 6 
#
# 1 87.3239 14.1389 37.5209 -0.0027 -48.7361 0.0006
# 2 14.1389 48.2702 12.9483 -0.0040 -15.2006 -0.0012
# 3 37.5209 12.9483 135.3098 -0.0062 -43.6845 0.0084
# 4 -0.0027 -0.0040 -0.0062 19.2589 -0.0006 -9.6175
# 5 -48.7361 -15.2006 -43.6845 -0.0006 55.1658 0.0065
# 6 0.0006 -0.0012 0.0084 -9.6175 0.0065 2.5359
#
#
#
# Elastic Compliance Matrix: (Units=1/GPa)
#
#
# Indices 1 2 3 4 5 6 
#
# 1 0.022601 -0.000369 0.000244 0.000028 0.020059 0.000049
# 2 -0.000369 0.022695 -0.000209 -0.000003 0.005762 -0.000016
# 3 0.000244 -0.000209 0.009933 0.000026 0.008024 0.000045
# 4 0.000028 -0.000003 0.000026 -0.058088 0.000070 -0.220298
# 5 0.020059 0.005762 0.008024 0.000070 0.043789 0.000125
# 6 0.000049 -0.000016 0.000045 -0.220298 0.000125 -0.441147
#
#
# Mechanical properties :
#
#
# Convention : Reuss Voigt Hill
#
# Bulk Modulus (GPa) = 18.32797 44.45777 31.39287
# Shear Modulus (GPa) = -13.11100 29.14518 8.01709
#
# Velocity S-wave (km/s) = -2.41899 3.60662 1.89158
# Velocity P-wave (km/s) = 0.61470 6.09798 4.33378
#
# Compressibility (1/GPa) = 0.05456141
#
# Stress axis : x y z
#
# Youngs Moduli (GPa) = 44.24488 44.06183 100.67161
#
# Poissons Ratio (x) = 0.01626 -0.02455
# Poissons Ratio (y) = 0.01633 0.02107
# Poissons Ratio (z) = -0.01079 0.00922
#
# Static dielectric constant tensor:
#      x y z
#    x 1.893780 0.000000 0.011990 
#    y 0.000000 1.789110 0.000010 
#    z 0.011990 0.000010 1.847250 
# 
# From -- ./inp_files/209521.got.cif
#   From: 2010.05.17/outbox.cif.g08.bks.cpg/sg12_105_cif.got.tgz:209521.got - 2010.06.03 13:09:07.
