data_PCOD9197550
_publ_section_title
;
Structure prediction by ZEFSAII (Michael W. Deem and Ramdas Pophale) SiO2 
 PCOD9197550
Probable space group: C 2/M
;
_chemical_formula_sum "Si O2"
_cell_formula_units_Z 56
_cell_length_a 17.294298
_cell_length_b 20.129553
_cell_length_c 11.350433
_cell_angle_alpha 90.000000
_cell_angle_beta 124.528303
_cell_angle_gamma 90.000000
_cell_volume 3255.335027
_symmetry_space_group_name_H-M "C 2/M"
_symmetry_group_IT_number 12
_symmetry_cell_setting 'monoclinic'
loop_
_space_group_symop_operation_xyz
x,y,z
-x,y,-z
-x,-y,-z
x,-y,z
1/2+x,1/2+y,z
1/2-x,1/2+y,-z
1/2-x,1/2-y,-z
1/2+x,1/2-y,z
loop_
_atom_site_type_symbol
_atom_site_label
_atom_site_fract_x
_atom_site_fract_y
_atom_site_fract_z
Si Si1 0.766232 0.185259 0.595024
Si Si2 0.189481 0.704486 0.787018
Si Si3 0.666138 0.343370 0.891874
Si Si4 0.341976 0.078234 0.645596
Si Si5 0.317107 0.076493 0.901019
Si Si6 0.965648 0.343546 0.181443
Si Si7 0.982259 0.193388 0.846562
O O1 0.750000 0.250000 0.500000
O O2 0.710918 0.195007 0.669620
O O3 0.727059 0.121117 0.494297
O O4 0.875891 0.179060 0.719683
O O5 0.178615 0.781589 0.813038
O O6 0.096762 0.668083 0.755755
O O7 0.275716 0.677200 0.940665
O O8 0.719108 0.404613 0.878135
O O9 0.558392 0.347685 0.836619
O O10 0.313951 0.086506 0.758529
O O11 0.445334 0.109946 0.722252
O O12 0.342047 0.000000 0.618288
O O13 0.342248 0.000000 0.945730
O O14 0.395948 0.123842 0.025655
O O15 0.997363 0.271144 0.163749
O O16 0.000000 0.182112 0.000000
#
# Coordination Sequence:
#
# PCOD9197550 Si02
#       7
#     8   8   8   8   8   8   8
#     4  12  23  37  57  85 118 159 194 233 284 344
#     4   9  19  34  56  83 116 144 191 238 283 331
#     4   9  18  35  57  85 108 142 190 249 280 320
#     4  11  23  39  56  84 123 157 187 231 291 354
#     4  10  20  36  61  87 115 150 190 234 288 349
#     4  10  20  35  60  90 115 146 188 240 293 345
#     4  11  20  35  62  87 113 146 193 245 286 332
#
# _framework density 17.202531
#
# number of rings (size 3 to 8) (size 9 to 14) (size 15 to 20)
#    0.000    1.714    2.857    3.429    0.000    1.714 
#    0.000    7.143    0.000    2.571    0.000    0.000 
#    0.000    0.000    0.000    0.000    0.000    0.000 
#
# Total GULP energy -156343.544345 kJ/mol
# GULP energy per Si atom -5583.698012 kJ/mol
# Density = 1.716338 g / cm^3
# Si number density = 17.202531 Si / 1000 Ang^3
#
#
#
# Elastic Constant Matrix: (Units=GPa)
#
#
# Indices 1 2 3 4 5 6 
#
# 1 109.3353 37.8786 64.1272 0.0000 1.8022 0.0000
# 2 37.8786 68.9530 48.0947 0.0000 -3.7509 0.0000
# 3 64.1272 48.0947 102.3327 0.0000 7.9126 0.0000
# 4 0.0000 0.0000 0.0000 26.0121 0.0000 -1.7438
# 5 1.8022 -3.7509 7.9126 0.0000 26.8021 0.0000
# 6 0.0000 0.0000 0.0000 -1.7438 0.0000 16.6269
#
#
#
# Elastic Compliance Matrix: (Units=1/GPa)
#
#
# Indices 1 2 3 4 5 6 
#
# 1 0.014769 -0.002284 -0.008268 0.000000 0.001128 0.000000
# 2 -0.002284 0.022968 -0.009848 0.000000 0.006275 0.000000
# 3 -0.008268 -0.009848 0.020105 0.000000 -0.006758 0.000000
# 4 0.000000 0.000000 0.000000 0.038716 0.000000 0.004060
# 5 0.001128 0.006275 -0.006758 0.000000 0.040108 0.000000
# 6 0.000000 0.000000 0.000000 0.004060 0.000000 0.060569
#
#
# Mechanical properties :
#
#
# Convention : Reuss Voigt Hill
#
# Bulk Modulus (GPa) = 58.68896 64.53576 61.61236
# Shear Modulus (GPa) = 20.51569 22.58960 21.55265
#
# Velocity S-wave (km/s) = 3.45715 3.62768 3.54344
# Velocity P-wave (km/s) = 7.08000 7.42587 7.25499
#
# Compressibility (1/GPa) = 0.01703898
#
# Stress axis : x y z
#
# Youngs Moduli (GPa) = 67.71146 43.53860 49.73999
#
# Poissons Ratio (x) = 0.09946 0.41127
# Poissons Ratio (y) = 0.15468 0.48986
# Poissons Ratio (z) = 0.55986 0.42878
#
# Static dielectric constant tensor:
#      x y z
#    x 1.590340 0.000000 0.007060 
#    y 0.000000 1.561780 0.000000 
#    z 0.007060 0.000000 1.565050 
# 
# From -- ./inp_files/158328.got.cif
#   From: 2010.05.17/outbox.cif.g08.bks.cpg/sg12_80_cif.got.tgz:158328.got - 2010.06.03 13:09:07.
