data_PCOD9197594
_publ_section_title
;
Structure prediction by ZEFSAII (Michael W. Deem and Ramdas Pophale) SiO2 
 PCOD9197594
Probable space group: C 2/M
;
_chemical_formula_sum "Si O2"
_cell_formula_units_Z 64
_cell_length_a 26.256538
_cell_length_b 18.075451
_cell_length_c 19.415267
_cell_angle_alpha 90.000000
_cell_angle_beta 20.983302
_cell_angle_gamma 90.000000
_cell_volume 3299.660574
_symmetry_space_group_name_H-M "C 2/M"
_symmetry_group_IT_number 12
_symmetry_cell_setting 'monoclinic'
loop_
_space_group_symop_operation_xyz
x,y,z
-x,y,-z
-x,-y,-z
x,-y,z
1/2+x,1/2+y,z
1/2-x,1/2+y,-z
1/2-x,1/2-y,-z
1/2+x,1/2-y,z
loop_
_atom_site_type_symbol
_atom_site_label
_atom_site_fract_x
_atom_site_fract_y
_atom_site_fract_z
Si Si1 0.405698 0.264798 0.494122
Si Si2 0.887406 0.918526 0.934377
Si Si3 0.316729 0.812892 0.466167
Si Si4 0.858531 0.715838 0.076472
Si Si5 0.640263 0.583414 0.506865
Si Si6 0.470868 0.640414 0.115050
Si Si7 0.781494 0.727102 0.881817
Si Si8 0.949192 0.588022 0.184170
O O1 0.387267 0.229569 0.441395
O O2 0.265548 0.254847 0.716830
O O3 0.413074 0.353225 0.476141
O O4 0.550496 0.234067 0.342583
O O5 0.034134 0.910955 0.706140
O O6 0.931610 0.906512 0.957257
O O7 0.830017 0.000000 0.994021
O O8 0.779161 0.854951 0.050613
O O9 0.250000 0.750000 0.500000
O O10 0.191424 0.862803 0.656415
O O11 0.416465 0.867101 0.296009
O O12 0.800207 0.724381 0.072436
O O13 0.985938 0.773720 0.927087
O O14 0.919703 0.634157 0.013511
O O15 0.630364 0.500000 0.492211
O O16 0.802427 0.596660 0.326310
O O17 0.500000 0.621131 0.000000
O O18 0.750000 0.750000 0.000000
O O19 0.974702 0.500000 0.159587
#
# Coordination Sequence:
#
# PCOD9197594 Si02
#       8
#     8   8   8   8   8   8   8   8
#     4  12  22  39  64  90 124 168 215 263 316 373
#     4  10  21  40  64  92 127 164 209 263 319 382
#     4  12  20  35  64  92 127 165 212 263 311 379
#     4  11  24  39  60  92 129 163 210 268 316 371
#     4  10  20  35  60  92 123 162 204 251 314 383
#     4  11  20  35  61  97 126 161 204 261 325 386
#     4  11  23  42  65  90 115 168 227 265 304 374
#     4  11  23  39  61  94 134 170 207 258 321 383
#
# _framework density 19.395934
#
# number of rings (size 3 to 8) (size 9 to 14) (size 15 to 20)
#    0.000    1.000    6.250    1.125    0.000    0.750 
#    0.000    4.375    0.000    7.500    0.000    0.000 
#    0.000    0.000    0.000    0.000    0.000    0.000 
#
# Total GULP energy -178763.045994 kJ/mol
# GULP energy per Si atom -5586.345187 kJ/mol
# Density = 1.935179 g / cm^3
# Si number density = 19.395934 Si / 1000 Ang^3
#
#
#
# Elastic Constant Matrix: (Units=GPa)
#
#
# Indices 1 2 3 4 5 6 
#
# 1 59.6329 13.6277 12.5620 -0.0002 -5.0597 0.0004
# 2 13.6277 101.7853 30.6860 -0.0007 -21.8789 0.0004
# 3 12.5620 30.6860 91.3000 -0.0015 -7.2402 0.0010
# 4 -0.0002 -0.0007 -0.0015 26.0470 0.0007 -0.1054
# 5 -5.0597 -21.8789 -7.2402 0.0007 28.4211 -0.0006
# 6 0.0004 0.0004 0.0010 -0.1054 -0.0006 2.9866
#
#
#
# Elastic Compliance Matrix: (Units=1/GPa)
#
#
# Indices 1 2 3 4 5 6 
#
# 1 0.017619 -0.001486 -0.001803 0.000000 0.001534 -0.000001
# 2 -0.001486 0.012963 -0.003452 0.000000 0.008835 0.000001
# 3 -0.001803 -0.003452 0.012375 0.000001 0.000174 -0.000004
# 4 0.000000 0.000000 0.000001 0.038398 -0.000001 0.001355
# 5 0.001534 0.008835 0.000174 -0.000001 0.042304 0.000007
# 6 -0.000001 0.000001 -0.000004 0.001355 0.000007 0.334873
#
#
# Mechanical properties :
#
#
# Convention : Reuss Voigt Hill
#
# Bulk Modulus (GPa) = 33.92645 40.71887 37.32266
# Shear Modulus (GPa) = 10.37691 24.54710 17.46201
#
# Velocity S-wave (km/s) = 2.31553 3.56136 3.00374
# Velocity P-wave (km/s) = 4.96773 6.16037 5.59591
#
# Compressibility (1/GPa) = 0.02947553
#
# Stress axis : x y z
#
# Youngs Moduli (GPa) = 56.75772 77.14035 80.80798
#
# Poissons Ratio (x) = 0.11460 0.14572
# Poissons Ratio (y) = 0.08432 0.27894
# Poissons Ratio (z) = 0.10235 0.26628
#
# Static dielectric constant tensor:
#      x y z
#    x 1.682970 0.000000 0.032490 
#    y 0.000000 1.677580 0.000000 
#    z 0.032490 0.000000 1.724490 
# 
# From -- ./inp_files/317385.got.cif
#   From: 2010.05.17/outbox.cif.g08.bks.cpg/sg12_159_cif.got.tgz:317385.got - 2010.06.03 13:09:07.
