data_PCOD9197882
_publ_section_title
;
Structure prediction by ZEFSAII (Michael W. Deem and Ramdas Pophale) SiO2 
 PCOD9197882
Probable space group: C 2/M
;
_chemical_formula_sum "Si O2"
_cell_formula_units_Z 48
_cell_length_a 8.739119
_cell_length_b 20.995696
_cell_length_c 15.253658
_cell_angle_alpha 90.000000
_cell_angle_beta 99.422427
_cell_angle_gamma 90.000000
_cell_volume 2761.039464
_symmetry_space_group_name_H-M "C 2/M"
_symmetry_group_IT_number 12
_symmetry_cell_setting 'monoclinic'
loop_
_space_group_symop_operation_xyz
x,y,z
-x,y,-z
-x,-y,-z
x,-y,z
1/2+x,1/2+y,z
1/2-x,1/2+y,-z
1/2-x,1/2-y,-z
1/2+x,1/2-y,z
loop_
_atom_site_type_symbol
_atom_site_label
_atom_site_fract_x
_atom_site_fract_y
_atom_site_fract_z
Si Si1 0.108594 0.074288 0.270075
Si Si2 0.664242 0.831466 0.785967
Si Si3 0.895324 0.927085 0.077938
Si Si4 0.821774 0.320544 0.009967
Si Si5 0.154514 0.725620 0.302354
Si Si6 0.527366 0.330678 0.605196
O O1 0.268799 0.109951 0.263082
O O2 0.000344 0.082797 0.173766
O O3 0.027484 0.108984 0.343657
O O4 0.130345 0.000000 0.287070
O O5 0.688915 0.843025 0.890519
O O6 0.767288 0.770905 0.763985
O O7 0.485697 0.815325 0.750172
O O8 0.832919 0.000000 0.075304
O O9 0.769357 0.871432 0.057932
O O10 0.000000 0.922744 0.000000
O O11 0.750000 0.250000 0.000000
O O12 0.000000 0.316826 0.000000
O O13 0.294083 0.685582 0.356807
O O14 0.075455 0.771968 0.366737
O O15 0.500000 0.338404 0.500000
#
# Coordination Sequence:
#
# PCOD9197882 Si02
#       6
#     8   8   8   8   8   8
#     4  10  22  39  59  80 111 153 192 230 277 333
#     4  10  20  36  54  80 114 151 182 230 278 338
#     4  10  21  40  59  78 111 156 196 229 275 339
#     4  12  25  33  55  86 119 148 192 239 280 325
#     4   9  20  35  58  84 116 143 182 224 291 341
#     4  10  20  36  62  87 113 144 183 233 284 341
#
# _framework density 17.384757
#
# number of rings (size 3 to 8) (size 9 to 14) (size 15 to 20)
#    0.000    1.833    1.667    2.000    9.333    0.667 
#    0.000    0.833    0.000    1.000    0.000    0.000 
#    0.000    0.000    0.000    0.000    0.000    0.000 
#
# Total GULP energy -134022.077140 kJ/mol
# GULP energy per Si atom -5584.253214 kJ/mol
# Density = 1.734519 g / cm^3
# Si number density = 17.384757 Si / 1000 Ang^3
#
#
#
# Elastic Constant Matrix: (Units=GPa)
#
#
# Indices 1 2 3 4 5 6 
#
# 1 103.7665 44.6849 7.9591 0.0000 12.2307 0.0000
# 2 44.6849 91.4116 5.4854 0.0000 14.0637 0.0000
# 3 7.9591 5.4854 53.8413 0.0000 -9.5399 0.0000
# 4 0.0000 0.0000 0.0000 16.2157 0.0000 4.2817
# 5 12.2307 14.0637 -9.5399 0.0000 20.6107 0.0000
# 6 0.0000 0.0000 0.0000 4.2817 0.0000 13.0889
#
#
#
# Elastic Compliance Matrix: (Units=1/GPa)
#
#
# Indices 1 2 3 4 5 6 
#
# 1 0.012670 -0.005304 -0.002204 0.000000 -0.004919 0.000000
# 2 -0.005304 0.014894 -0.002153 0.000000 -0.008012 0.000000
# 3 -0.002204 -0.002153 0.021362 0.000000 0.012665 0.000000
# 4 0.000000 0.000000 0.000000 0.067499 0.000000 -0.022080
# 5 -0.004919 -0.008012 0.012665 0.000000 0.062767 0.000000
# 6 0.000000 0.000000 0.000000 -0.022080 0.000000 0.083624
#
#
# Mechanical properties :
#
#
# Convention : Reuss Voigt Hill
#
# Bulk Modulus (GPa) = 33.77958 40.58648 37.18303
# Shear Modulus (GPa) = 17.12286 22.70905 19.91596
#
# Velocity S-wave (km/s) = 3.14177 3.61815 3.38834
# Velocity P-wave (km/s) = 5.71259 6.39151 6.06156
#
# Compressibility (1/GPa) = 0.02960368
#
# Stress axis : x y z
#
# Youngs Moduli (GPa) = 78.92539 67.13953 46.81141
#
# Poissons Ratio (x) = 0.35614 0.10318
# Poissons Ratio (y) = 0.41866 0.10078
# Poissons Ratio (z) = 0.17397 0.14455
#
# Static dielectric constant tensor:
#      x y z
#    x 1.576800 0.000000 -0.005010 
#    y 0.000000 1.583430 0.000000 
#    z -0.005010 0.000000 1.571110 
# 
# From -- ./inp_files/195979.got.cif
#   From: 2010.05.17/outbox.cif.g08.bks.cpg/sg12_98_cif.got.tgz:195979.got - 2010.06.03 13:09:07.
