data_PCOD9197747
_publ_section_title
;
Structure prediction by ZEFSAII (Michael W. Deem and Ramdas Pophale) SiO2 
 PCOD9197747
Probable space group: C 2/M
;
_chemical_formula_sum "Si O2"
_cell_formula_units_Z 40
_cell_length_a 8.239699
_cell_length_b 16.933284
_cell_length_c 20.980862
_cell_angle_alpha 90.000000
_cell_angle_beta 39.766564
_cell_angle_gamma 90.000000
_cell_volume 1872.517587
_symmetry_space_group_name_H-M "C 2/M"
_symmetry_group_IT_number 12
_symmetry_cell_setting 'monoclinic'
loop_
_space_group_symop_operation_xyz
x,y,z
-x,y,-z
-x,-y,-z
x,-y,z
1/2+x,1/2+y,z
1/2-x,1/2+y,-z
1/2-x,1/2-y,-z
1/2+x,1/2-y,z
loop_
_atom_site_type_symbol
_atom_site_label
_atom_site_fract_x
_atom_site_fract_y
_atom_site_fract_z
Si Si1 0.120485 0.816632 0.396810
Si Si2 0.248604 0.139112 0.607450
Si Si3 0.068247 0.915466 0.176304
Si Si4 0.193671 0.655382 0.202112
Si Si5 0.859345 0.245615 0.896596
O O1 0.153326 0.721681 0.391465
O O2 0.402313 0.851033 0.306702
O O3 0.000000 0.842038 0.500000
O O4 0.942767 0.840918 0.392222
O O5 0.500000 0.100846 0.500000
O O6 0.095529 0.095736 0.709737
O O7 0.867436 0.912583 0.178104
O O8 0.224561 0.835453 0.114319
O O9 0.201662 0.000000 0.137911
O O10 0.207170 0.678045 0.124040
O O11 0.336612 0.730768 0.192122
O O12 0.750000 0.250000 0.000000
#
# Coordination Sequence:
#
# PCOD9197747 Si02
#       5
#     8   8   8   8   8
#     4  11  19  33  57  94 122 154 214 257 292 348
#     4  11  20  32  58  88 127 166 203 251 302 361
#     4  10  23  39  59  89 128 159 200 255 316 363
#     4  10  20  35  63  89 117 161 200 254 297 360
#     4  10  21  38  63  89 113 154 210 249 301 360
#
# _framework density 21.361615
#
# number of rings (size 3 to 8) (size 9 to 14) (size 15 to 20)
#    1.200    0.400    2.000    6.600    0.000    0.400 
#    0.000    3.000    0.000    4.800    0.000    0.000 
#    0.000    0.000    0.000    0.000    0.000    0.000 
#
# Total GULP energy -111454.420675 kJ/mol
# GULP energy per Si atom -5572.721034 kJ/mol
# Density = 2.131299 g / cm^3
# Si number density = 21.361615 Si / 1000 Ang^3
#
#
#
# Elastic Constant Matrix: (Units=GPa)
#
#
# Indices 1 2 3 4 5 6 
#
# 1 113.8442 12.4405 33.8480 -0.0024 8.7167 0.0011
# 2 12.4405 64.6088 11.5021 -0.0104 16.1931 0.0048
# 3 33.8480 11.5021 109.7458 -0.0107 17.2653 0.0041
# 4 -0.0024 -0.0104 -0.0107 1.7041 0.0006 -4.2748
# 5 8.7167 16.1931 17.2653 0.0006 49.8641 0.0008
# 6 0.0011 0.0048 0.0041 -4.2748 0.0008 3.9309
#
#
#
# Elastic Compliance Matrix: (Units=1/GPa)
#
#
# Indices 1 2 3 4 5 6 
#
# 1 0.009793 -0.001304 -0.002835 0.000004 -0.000307 0.000006
# 2 -0.001304 0.017118 -0.000585 -0.000031 -0.005129 -0.000053
# 3 -0.002835 -0.000585 0.010513 -0.000021 -0.002954 -0.000032
# 4 0.000004 -0.000031 -0.000021 -0.339593 0.000027 -0.369305
# 5 -0.000307 -0.005129 -0.002954 0.000027 0.022796 0.000034
# 6 0.000006 -0.000053 -0.000032 -0.369305 0.000034 -0.147221
#
#
# Mechanical properties :
#
#
# Convention : Reuss Voigt Hill
#
# Bulk Modulus (GPa) = 35.74643 44.86443 40.30543
# Shear Modulus (GPa) = -12.26032 26.46037 7.10003
#
# Velocity S-wave (km/s) = -2.39831 3.52332 1.82509
# Velocity P-wave (km/s) = 3.01681 6.13186 4.83222
#
# Compressibility (1/GPa) = 0.02797483
#
# Stress axis : x y z
#
# Youngs Moduli (GPa) = 102.11434 58.41664 95.12418
#
# Poissons Ratio (x) = 0.07617 0.26972
# Poissons Ratio (y) = 0.13316 0.05566
# Poissons Ratio (z) = 0.28954 0.03418
#
# Static dielectric constant tensor:
#      x y z
#    x 1.807460 0.000000 -0.012980 
#    y 0.000000 1.770290 0.000000 
#    z -0.012980 0.000000 1.808890 
# 
# From -- ./inp_files/301503.got.cif
#   From: 2010.05.17/outbox.cif.g08.bks.cpg/sg12_151_cif.got.tgz:301503.got - 2010.06.03 13:09:07.
