data_PCOD9197858
_publ_section_title
;
Structure prediction by ZEFSAII (Michael W. Deem and Ramdas Pophale) SiO2 
 PCOD9197858
Probable space group: C 2/M
;
_chemical_formula_sum "Si O2"
_cell_formula_units_Z 56
_cell_length_a 5.233180
_cell_length_b 25.451277
_cell_length_c 25.319646
_cell_angle_alpha 90.000000
_cell_angle_beta 125.114728
_cell_angle_gamma 90.000000
_cell_volume 2758.590168
_symmetry_space_group_name_H-M "C 2/M"
_symmetry_group_IT_number 12
_symmetry_cell_setting 'monoclinic'
loop_
_space_group_symop_operation_xyz
x,y,z
-x,y,-z
-x,-y,-z
x,-y,z
1/2+x,1/2+y,z
1/2-x,1/2+y,-z
1/2-x,1/2-y,-z
1/2+x,1/2-y,z
loop_
_atom_site_type_symbol
_atom_site_label
_atom_site_fract_x
_atom_site_fract_y
_atom_site_fract_z
Si Si1 0.508842 0.718236 0.162185
Si Si2 0.987589 0.559094 0.765181
Si Si3 0.190197 0.376089 0.165713
Si Si4 0.489424 0.335169 0.938378
Si Si5 0.015082 0.436534 0.355949
Si Si6 0.718450 0.435991 0.428267
Si Si7 0.361446 0.441522 0.093935
O O1 0.325151 0.753736 0.182314
O O2 0.481602 0.660097 0.183637
O O3 0.361469 0.704990 0.086304
O O4 0.846771 0.500000 0.747324
O O5 0.781618 0.599772 0.773308
O O6 0.061763 0.574562 0.714227
O O7 0.299573 0.556489 0.837609
O O8 0.151203 0.422695 0.118175
O O9 0.875294 0.341818 0.121557
O O10 0.634856 0.393408 0.946695
O O11 0.500000 0.319734 0.000000
O O12 0.010785 0.500000 0.359111
O O13 0.375392 0.419123 0.406017
O O14 0.798041 0.418312 0.378082
O O15 0.712888 0.500000 0.428158
O O16 0.000000 0.419809 0.500000
O O17 0.292249 0.500000 0.066305
#
# Coordination Sequence:
#
# PCOD9197858 Si02
#       7
#     8   8   8   8   8   8   8
#     4  11  22  40  59  80 101 127 161 201 253 311
#     4   9  18  31  49  73 102 132 172 217 254 292
#     4  10  20  36  54  75 101 129 164 209 255 307
#     4  10  22  38  54  76 102 129 165 207 252 311
#     4   9  17  26  41  64  88 125 171 211 247 284
#     4   9  16  26  38  57  89 127 169 214 249 276
#     4   9  19  33  51  73 101 134 167 211 257 299
#
# _framework density 20.300225999999999
#
# number of rings (size 3 to 8) (size 9 to 14) (size 15 to 20)
#    0.000    2.429    1.429    0.857    2.000    5.429 
#    0.000    0.714    0.000    0.000    0.000    0.000 
#    0.000    0.000    0.000    0.000    0.000   14.286 
#
# Total GULP energy -156142.495367 kJ/mol
# GULP energy per Si atom -5576.517692 kJ/mol
# Density = 2.025402 g / cm^3
# Si number density = 20.300226 Si / 1000 Ang^3
#
#
#
# Elastic Constant Matrix: (Units=GPa)
#
#
# Indices 1 2 3 4 5 6 
#
# 1 88.0948 19.3450 8.4580 0.0000 -14.0084 0.0000
# 2 19.3450 22.2304 1.1187 0.0000 0.1998 0.0000
# 3 8.4580 1.1187 62.0827 0.0000 -7.3076 0.0000
# 4 0.0000 0.0000 0.0000 12.0311 0.0000 -11.2744
# 5 -14.0084 0.1998 -7.3076 0.0000 31.8621 0.0000
# 6 0.0000 0.0000 0.0000 -11.2744 0.0000 34.1359
#
#
#
# Elastic Compliance Matrix: (Units=1/GPa)
#
#
# Indices 1 2 3 4 5 6 
#
# 1 0.015468 -0.013465 -0.001083 0.000000 0.006636 0.000000
# 2 -0.013465 0.056753 0.000075 0.000000 -0.006259 0.000000
# 3 -0.001083 0.000075 0.016647 0.000000 0.003341 0.000000
# 4 0.000000 0.000000 0.000000 0.120374 0.000000 0.039757
# 5 0.006636 -0.006259 0.003341 0.000000 0.035109 0.000000
# 6 0.000000 0.000000 0.000000 0.039757 0.000000 0.042426
#
#
# Mechanical properties :
#
#
# Convention : Reuss Voigt Hill
#
# Bulk Modulus (GPa) = 16.68862 25.58347 21.13604
# Shear Modulus (GPa) = 14.89438 25.17156 20.03297
#
# Velocity S-wave (km/s) = 2.71164 3.52513 3.14480
# Velocity P-wave (km/s) = 4.24767 5.40358 4.86011
#
# Compressibility (1/GPa) = 0.05992107
#
# Stress axis : x y z
#
# Youngs Moduli (GPa) = 64.65145 17.62008 60.07054
#
# Poissons Ratio (x) = 0.23726 0.06508
# Poissons Ratio (y) = 0.87054 -0.00451
# Poissons Ratio (z) = 0.07005 -0.00132
#
# Static dielectric constant tensor:
#      x y z
#    x 1.837640 0.000000 0.026820 
#    y 0.000000 1.767410 0.000000 
#    z 0.026820 0.000000 1.730860 
# 
# From -- ./inp_files/298215.got.cif
#   From: 2010.05.17/outbox.cif.g08.bks.cpg/sg12_150_cif.got.tgz:298215.got - 2010.06.03 13:09:07.
