data_PCOD9197571
_publ_section_title
;
Structure prediction by ZEFSAII (Michael W. Deem and Ramdas Pophale) SiO2 
 PCOD9197571
Probable space group: C 2/M
;
_chemical_formula_sum "Si O2"
_cell_formula_units_Z 56
_cell_length_a 26.078253
_cell_length_b 8.660105
_cell_length_c 18.168273
_cell_angle_alpha 90.000000
_cell_angle_beta 137.828789
_cell_angle_gamma 90.000000
_cell_volume 2754.629399
_symmetry_space_group_name_H-M "C 2/M"
_symmetry_group_IT_number 12
_symmetry_cell_setting 'monoclinic'
loop_
_space_group_symop_operation_xyz
x,y,z
-x,y,-z
-x,-y,-z
x,-y,z
1/2+x,1/2+y,z
1/2-x,1/2+y,-z
1/2-x,1/2-y,-z
1/2+x,1/2-y,z
loop_
_atom_site_type_symbol
_atom_site_label
_atom_site_fract_x
_atom_site_fract_y
_atom_site_fract_z
Si Si1 0.561580 0.682293 0.741496
Si Si2 0.018720 0.817337 0.866337
Si Si3 0.259131 0.317378 0.676732
Si Si4 0.597706 0.184667 0.457475
Si Si5 0.276790 0.816793 0.106808
Si Si6 0.159140 0.681917 0.098636
Si Si7 0.360119 0.818834 0.667185
O O1 0.575420 0.500000 0.748415
O O2 0.550782 0.714917 0.817722
O O3 0.482545 0.730386 0.618670
O O4 0.634230 0.775734 0.790311
O O5 0.940313 0.724484 0.791093
O O6 0.003033 0.000000 0.853781
O O7 0.082307 0.768317 0.992221
O O8 0.263214 0.500000 0.695510
O O9 0.170043 0.270545 0.584165
O O10 0.311067 0.227374 0.789538
O O11 0.294122 0.281035 0.634044
O O12 0.624715 0.215270 0.402314
O O13 0.585942 0.000000 0.451516
O O14 0.225409 0.737192 0.113784
O O15 0.264588 0.000000 0.095788
O O16 0.250000 0.750000 0.000000
O O17 0.147010 0.500000 0.079165
O O18 0.343179 0.000000 0.657107
#
# Coordination Sequence:
#
# PCOD9197571 Si02
#       7
#     8   8   8   8   8   8   8
#     4  10  20  35  60  91 120 150 191 242 292 342
#     4  10  20  36  58  86 119 153 192 239 293 350
#     4  11  23  40  59  83 118 159 199 241 293 350
#     4   9  20  38  61  87 118 155 196 243 292 344
#     4  12  23  38  62  90 120 153 192 237 288 348
#     4  12  25  40  59  85 119 156 195 242 294 350
#     4  10  20  36  60  89 118 151 197 244 291 347
#
# _framework density 20.329412000000001
#
# number of rings (size 3 to 8) (size 9 to 14) (size 15 to 20)
#    0.000    1.429    1.429    4.714    0.000    3.429 
#    0.000    3.571    0.000    4.286    0.000    0.000 
#    0.000    0.000    0.000    0.000    0.000    0.000 
#
# Total GULP energy -156580.635716 kJ/mol
# GULP energy per Si atom -5592.165561 kJ/mol
# Density = 2.028314 g / cm^3
# Si number density = 20.329412 Si / 1000 Ang^3
#
#
#
# Elastic Constant Matrix: (Units=GPa)
#
#
# Indices 1 2 3 4 5 6 
#
# 1 23.2578 -2.2013 -5.4000 0.0000 11.6042 0.0000
# 2 -2.2013 24.2182 -6.9903 0.0000 -5.0957 0.0000
# 3 -5.4000 -6.9903 74.0420 0.0000 20.4933 0.0000
# 4 0.0000 0.0000 0.0000 27.4144 0.0000 4.9972
# 5 11.6042 -5.0957 20.4933 0.0000 24.8155 0.0000
# 6 0.0000 0.0000 0.0000 4.9972 0.0000 30.8144
#
#
#
# Elastic Compliance Matrix: (Units=1/GPa)
#
#
# Indices 1 2 3 4 5 6 
#
# 1 0.072004 0.001714 0.018972 0.000000 -0.048986 0.000000
# 2 0.001714 0.043450 0.002566 0.000000 0.006002 0.000000
# 3 0.018972 0.002566 0.022609 0.000000 -0.027016 0.000000
# 4 0.000000 0.000000 0.000000 0.037588 0.000000 -0.006096
# 5 -0.048986 0.006002 -0.027016 0.000000 0.086747 0.000000
# 6 0.000000 0.000000 0.000000 -0.006096 0.000000 0.033441
#
#
# Mechanical properties :
#
#
# Convention : Reuss Voigt Hill
#
# Bulk Modulus (GPa) = 5.41809 10.25942 7.83876
# Shear Modulus (GPa) = 16.08441 25.68285 20.88363
#
# Velocity S-wave (km/s) = 2.81586 3.55820 3.20857
# Velocity P-wave (km/s) = 3.63910 4.68386 4.19414
#
# Compressibility (1/GPa) = 0.18456679
#
# Stress axis : x y z
#
# Youngs Moduli (GPa) = 13.88802 23.01472 44.22989
#
# Poissons Ratio (x) = -0.03944 -0.83911
# Poissons Ratio (y) = -0.02380 -0.11349
# Poissons Ratio (z) = -0.26348 -0.05906
#
# Static dielectric constant tensor:
#      x y z
#    x 1.690000 0.000000 0.019630 
#    y 0.000000 1.670030 0.000000 
#    z 0.019630 0.000000 1.711420 
# 
# From -- ./inp_files/288203.got.cif
#   From: 2010.05.17/outbox.cif.g08.bks.cpg/sg12_145_cif.got.tgz:288203.got - 2010.06.03 13:09:07.
