data_PCOD9197605
_publ_section_title
;
Structure prediction by ZEFSAII (Michael W. Deem and Ramdas Pophale) SiO2 
 PCOD9197605
Probable space group: C 2/M
;
_chemical_formula_sum "Si O2"
_cell_formula_units_Z 60
_cell_length_a 10.876021
_cell_length_b 29.351568
_cell_length_c 12.047450
_cell_angle_alpha 90.000000
_cell_angle_beta 125.843564
_cell_angle_gamma 90.000000
_cell_volume 3117.548077
_symmetry_space_group_name_H-M "C 2/M"
_symmetry_group_IT_number 12
_symmetry_cell_setting 'monoclinic'
loop_
_space_group_symop_operation_xyz
x,y,z
-x,y,-z
-x,-y,-z
x,-y,z
1/2+x,1/2+y,z
1/2-x,1/2+y,-z
1/2-x,1/2-y,-z
1/2+x,1/2-y,z
loop_
_atom_site_type_symbol
_atom_site_label
_atom_site_fract_x
_atom_site_fract_y
_atom_site_fract_z
Si Si1 0.410429 0.145459 0.070473
Si Si2 0.967233 0.448914 0.849963
Si Si3 0.711550 0.370031 0.414501
Si Si4 0.500000 0.181306 0.500000
Si Si5 0.525058 0.229547 0.276371
Si Si6 0.167763 0.053612 0.553891
Si Si7 0.174706 0.194308 0.606352
Si Si8 0.603972 0.669817 0.807309
O O1 0.445686 0.096385 0.143345
O O2 0.469316 0.188134 0.171200
O O3 0.500000 0.146454 0.000000
O O4 0.232093 0.152744 0.957367
O O5 0.009536 0.500000 0.831131
O O6 0.793006 0.441568 0.718022
O O7 0.000000 0.450101 0.000000
O O8 0.852478 0.351338 0.419984
O O9 0.719677 0.420178 0.470639
O O10 0.712273 0.339385 0.526589
O O11 0.549926 0.359212 0.273057
O O12 0.504210 0.211457 0.390342
O O13 0.703963 0.234559 0.341883
O O14 0.441775 0.276822 0.206843
O O15 0.000000 0.071154 0.500000
O O16 0.153202 0.000000 0.524007
O O17 0.181233 0.168644 0.726381
O O18 0.000000 0.206243 0.500000
#
# Coordination Sequence:
#
# PCOD9197605 Si02
#       8
#     8   8   8   4   8   8   8   8
#     4  11  22  38  60  81 119 158 195 244 302 361
#     4   9  19  33  55  86 117 151 186 233 301 363
#     4  10  22  36  57  84 118 158 200 245 300 358
#     4  10  24  38  59  82 118 158 205 250 288 356
#     4  11  23  38  56  84 116 158 203 245 295 355
#     4  10  20  35  60  93 125 151 193 258 311 355
#     4   9  19  34  54  80 109 144 194 242 293 349
#     4  11  23  36  57  86 115 158 200 249 300 353
#
# _framework density 19.245895000000001
#
# number of rings (size 3 to 8) (size 9 to 14) (size 15 to 20)
#    0.000    1.867    1.333    3.200   10.267    2.667 
#    0.000    1.000    0.000    0.800    0.000    0.000 
#    0.000    4.267    0.000    0.000    0.000    0.000 
#
# Total GULP energy -167393.563725 kJ/mol
# GULP energy per Si atom -5579.785458 kJ/mol
# Density = 1.920209 g / cm^3
# Si number density = 19.245895 Si / 1000 Ang^3
#
#
#
# Elastic Constant Matrix: (Units=GPa)
#
#
# Indices 1 2 3 4 5 6 
#
# 1 84.6457 24.3686 31.0570 0.0000 25.8333 0.0000
# 2 24.3686 108.3629 47.6212 0.0000 18.4187 0.0000
# 3 31.0570 47.6212 88.6174 0.0000 30.4829 0.0000
# 4 0.0000 0.0000 0.0000 -52.2480 0.0000 91.9992
# 5 25.8333 18.4187 30.4829 0.0000 30.7431 0.0000
# 6 0.0000 0.0000 0.0000 91.9992 0.0000 -78.6893
#
#
#
# Elastic Compliance Matrix: (Units=1/GPa)
#
#
# Indices 1 2 3 4 5 6 
#
# 1 0.016136 -0.001203 -0.000899 0.000000 -0.011947 0.000000
# 2 -0.001203 0.012201 -0.006022 0.000000 -0.000328 0.000000
# 3 -0.000899 -0.006022 0.020237 0.000000 -0.015702 0.000000
# 4 0.000000 0.000000 0.000000 0.018079 0.000000 0.021137
# 5 -0.011947 -0.000328 -0.015702 0.000000 0.058332 0.000000
# 6 0.000000 0.000000 0.000000 0.021137 0.000000 0.012004
#
#
# Mechanical properties :
#
#
# Convention : Reuss Voigt Hill
#
# Bulk Modulus (GPa) = 30.93507 54.19107 42.56307
# Shear Modulus (GPa) = 30.48519 -8.13356 11.17581
#
# Velocity S-wave (km/s) = 3.98425 -2.05799 2.41236
# Velocity P-wave (km/s) = 6.10525 4.75092 5.47016
#
# Compressibility (1/GPa) = 0.03232577
#
# Stress axis : x y z
#
# Youngs Moduli (GPa) = 61.97201 81.96042 49.41406
#
# Poissons Ratio (x) = 0.09859 0.04443
# Poissons Ratio (y) = 0.07455 0.29759
# Poissons Ratio (z) = 0.05572 0.49359
#
# Static dielectric constant tensor:
#      x y z
#    x 1.711620 0.000000 0.004340 
#    y 0.000000 1.719920 0.000000 
#    z 0.004340 0.000000 1.713750 
# 
# From -- ./inp_files/137627.got.cif
#   From: 2010.05.17/outbox.cif.g08.bks.cpg/sg12_69_cif.got.tgz:137627.got - 2010.06.03 13:09:07.
