data_PCOD9197118
_publ_section_title
;
Structure prediction by ZEFSAII (Michael W. Deem and Ramdas Pophale) SiO2 
 PCOD9197118
Probable space group: C 2/M
;
_chemical_formula_sum "Si O2"
_cell_formula_units_Z 56
_cell_length_a 30.351977
_cell_length_b 21.210432
_cell_length_c 5.295994
_cell_angle_alpha 90.000000
_cell_angle_beta 57.687726
_cell_angle_gamma 90.000000
_cell_volume 2881.485336
_symmetry_space_group_name_H-M "C 2/M"
_symmetry_group_IT_number 12
_symmetry_cell_setting 'monoclinic'
loop_
_space_group_symop_operation_xyz
x,y,z
-x,y,-z
-x,-y,-z
x,-y,z
1/2+x,1/2+y,z
1/2-x,1/2+y,-z
1/2-x,1/2-y,-z
1/2+x,1/2-y,z
loop_
_atom_site_type_symbol
_atom_site_label
_atom_site_fract_x
_atom_site_fract_y
_atom_site_fract_z
Si Si1 0.557150 0.797001 0.194964
Si Si2 0.701150 0.376457 0.960219
Si Si3 0.223521 0.720838 0.330975
Si Si4 0.941952 0.168135 0.132248
Si Si5 0.868538 0.236065 0.690300
Si Si6 0.348945 0.427555 0.371110
Si Si7 0.464285 0.067922 0.862372
O O1 0.500000 0.798429 0.500000
O O2 0.606134 0.792128 0.233192
O O3 0.563411 0.864217 0.038867
O O4 0.556708 0.732067 0.037585
O O5 0.667601 0.311427 0.041079
O O6 0.684709 0.402122 0.285967
O O7 0.760194 0.352355 0.739584
O O8 0.683699 0.420347 0.785811
O O9 0.250000 0.750000 0.500000
O O10 0.163835 0.740199 0.456005
O O11 0.250000 0.750000 0.000000
O O12 0.917708 0.193590 0.465693
O O13 0.900574 0.115247 0.177644
O O14 0.000000 0.144001 0.000000
O O15 0.362575 0.500000 0.376286
O O16 0.500000 0.068782 0.500000
O O17 0.435144 0.000000 0.944634
O O18 0.500000 0.066486 0.000000
#
# Coordination Sequence:
#
# PCOD9197118 Si02
#       7
#     8   8   8   8   8   8   8
#     4  11  20  33  55  84 117 160 197 241 299 352
#     4  10  20  39  58  84 115 145 194 260 308 358
#     4  10  20  35  58  88 114 141 181 243 312 373
#     4  11  21  35  54  82 127 159 200 257 301 343
#     4  10  21  33  56  86 118 151 188 247 310 368
#     4  11  23  39  60  83 114 164 216 251 301 365
#     4   9  19  34  52  75 105 144 190 230 269 338
#
# _framework density 19.434419999999999
#
# number of rings (size 3 to 8) (size 9 to 14) (size 15 to 20)
#    0.000    1.714    2.857    3.429    4.000    0.286 
#    0.000    0.000    0.000    4.714    0.000    0.000 
#    0.000    0.000    0.000    0.000    0.000    0.000 
#
# Total GULP energy -155879.008559 kJ/mol
# GULP energy per Si atom -5567.107449 kJ/mol
# Density = 1.939019 g / cm^3
# Si number density = 19.434420 Si / 1000 Ang^3
#
#
#
# Elastic Constant Matrix: (Units=GPa)
#
#
# Indices 1 2 3 4 5 6 
#
# 1 70.5000 23.3185 14.2745 0.0000 17.9094 0.0000
# 2 23.3185 129.8408 9.5733 0.0000 1.1483 0.0000
# 3 14.2745 9.5733 67.2778 0.0000 11.0127 0.0000
# 4 0.0000 0.0000 0.0000 17.4895 0.0000 3.6402
# 5 17.9094 1.1483 11.0127 0.0000 29.9678 0.0000
# 6 0.0000 0.0000 0.0000 3.6402 0.0000 28.3089
#
#
#
# Elastic Compliance Matrix: (Units=1/GPa)
#
#
# Indices 1 2 3 4 5 6 
#
# 1 0.018097 -0.003031 -0.001763 0.000000 -0.010051 0.000000
# 2 -0.003031 0.008292 -0.000831 0.000000 0.001799 0.000000
# 3 -0.001763 -0.000831 0.016150 0.000000 -0.004849 0.000000
# 4 0.000000 0.000000 0.000000 0.058749 0.000000 -0.007555
# 5 -0.010051 0.001799 -0.004849 0.000000 0.041089 0.000000
# 6 0.000000 0.000000 0.000000 -0.007555 0.000000 0.036296
#
#
# Mechanical properties :
#
#
# Convention : Reuss Voigt Hill
#
# Bulk Modulus (GPa) = 31.96160 40.21680 36.08920
# Shear Modulus (GPa) = 24.95587 29.85008 27.40297
#
# Velocity S-wave (km/s) = 3.58733 3.92336 3.75910
# Velocity P-wave (km/s) = 5.80001 6.42356 6.11974
#
# Compressibility (1/GPa) = 0.03128754
#
# Stress axis : x y z
#
# Youngs Moduli (GPa) = 55.25664 120.60535 61.91986
#
# Poissons Ratio (x) = 0.36559 0.10917
# Poissons Ratio (y) = 0.16750 0.05147
# Poissons Ratio (z) = 0.09743 0.10025
#
# Static dielectric constant tensor:
#      x y z
#    x 1.989180 0.000000 0.315570 
#    y 0.000000 1.738270 0.000000 
#    z 0.315570 0.000000 2.261240 
# 
# From -- ./inp_files/29133.got.cif
#   From: 2010.05.17/outbox.cif.g08.bks.cpg/sg12_15_cif.got.tgz:29133.got - 2010.06.03 13:09:07.
