data_PCOD9197255
_publ_section_title
;
Structure prediction by ZEFSAII (Michael W. Deem and Ramdas Pophale) SiO2 
 PCOD9197255
Probable space group: C 2/M
;
_chemical_formula_sum "Si O2"
_cell_formula_units_Z 48
_cell_length_a 25.896862
_cell_length_b 8.408989
_cell_length_c 12.870322
_cell_angle_alpha 90.000000
_cell_angle_beta 109.380764
_cell_angle_gamma 90.000000
_cell_volume 2643.905226
_symmetry_space_group_name_H-M "C 2/M"
_symmetry_group_IT_number 12
_symmetry_cell_setting 'monoclinic'
loop_
_space_group_symop_operation_xyz
x,y,z
-x,y,-z
-x,-y,-z
x,-y,z
1/2+x,1/2+y,z
1/2-x,1/2+y,-z
1/2-x,1/2-y,-z
1/2+x,1/2-y,z
loop_
_atom_site_type_symbol
_atom_site_label
_atom_site_fract_x
_atom_site_fract_y
_atom_site_fract_z
Si Si1 0.365974 0.692532 0.378987
Si Si2 0.750580 0.309560 0.381701
Si Si3 0.437953 0.306333 0.623908
Si Si4 0.440123 0.307789 0.241505
Si Si5 0.367043 0.307753 0.776840
Si Si6 0.941875 0.309949 0.008451
O O1 0.364991 0.500000 0.379964
O O2 0.305304 0.751968 0.361858
O O3 0.405949 0.745194 0.499589
O O4 0.392423 0.744681 0.287892
O O5 0.749953 0.500000 0.383853
O O6 0.750000 0.250000 0.500000
O O7 0.694951 0.255713 0.287507
O O8 0.438190 0.500000 0.622332
O O9 0.500716 0.254351 0.675150
O O10 0.404567 0.257039 0.704095
O O11 0.440561 0.500000 0.241878
O O12 0.434363 0.251666 0.119925
O O13 0.367942 0.500000 0.780430
O O14 0.394011 0.244598 0.899543
O O15 0.943749 0.500000 0.011959
O O16 0.000000 0.251006 0.000000
#
# Coordination Sequence:
#
# PCOD9197255 Si02
#       6
#     8   8   8   8   8   8
#     4  10  20  36  57  86 117 147 187 229 277 332
#     4  11  22  37  58  84 114 149 187 230 275 328
#     4   9  16  31  56  85 114 143 180 230 274 325
#     4  10  20  35  59  84 112 151 189 227 274 334
#     4  10  20  36  59  83 108 144 192 231 268 327
#     4  11  23  37  55  82 116 147 182 232 284 333
#
# _framework density 18.154962999999999
#
# number of rings (size 3 to 8) (size 9 to 14) (size 15 to 20)
#    0.000    1.833    3.333    1.500    0.000    4.667 
#    0.000    1.667    0.000    2.000    0.000    0.000 
#    0.000    0.000    0.000    0.000    0.000    0.000 
#
# Total GULP energy -134020.996695 kJ/mol
# GULP energy per Si atom -5584.208196 kJ/mol
# Density = 1.811364 g / cm^3
# Si number density = 18.154963 Si / 1000 Ang^3
#
#
#
# Elastic Constant Matrix: (Units=GPa)
#
#
# Indices 1 2 3 4 5 6 
#
# 1 189.4000 29.1093 101.3635 0.0000 -2.7891 0.0000
# 2 29.1093 16.4383 20.1129 0.0000 0.3279 0.0000
# 3 101.3635 20.1129 124.3772 0.0000 5.1897 0.0000
# 4 0.0000 0.0000 0.0000 12.6790 0.0000 -0.7127
# 5 -2.7891 0.3279 5.1897 0.0000 34.3623 0.0000
# 6 0.0000 0.0000 0.0000 -0.7127 0.0000 26.9689
#
#
#
# Elastic Compliance Matrix: (Units=1/GPa)
#
#
# Indices 1 2 3 4 5 6 
#
# 1 0.010721 -0.010261 -0.007163 0.000000 0.002050 0.000000
# 2 -0.010261 0.085703 -0.005462 0.000000 -0.000826 0.000000
# 3 -0.007163 -0.005462 0.014877 0.000000 -0.002776 0.000000
# 4 0.000000 0.000000 0.000000 0.078988 0.000000 0.002087
# 5 0.002050 -0.000826 -0.002776 0.000000 0.029695 0.000000
# 6 0.000000 0.000000 0.000000 0.002087 0.000000 0.037135
#
#
# Mechanical properties :
#
#
# Convention : Reuss Voigt Hill
#
# Bulk Modulus (GPa) = 15.26061 70.15410 42.70736
# Shear Modulus (GPa) = 15.39718 26.77737 21.08728
#
# Velocity S-wave (km/s) = 2.91537 3.84465 3.41180
# Velocity P-wave (km/s) = 4.44483 7.64423 6.25263
#
# Compressibility (1/GPa) = 0.06552818
#
# Stress axis : x y z
#
# Youngs Moduli (GPa) = 93.27762 11.66817 67.21749
#
# Poissons Ratio (x) = 0.11972 0.48150
# Poissons Ratio (y) = 0.95710 0.36717
# Poissons Ratio (z) = 0.66818 0.06374
#
# Static dielectric constant tensor:
#      x y z
#    x 1.615910 0.000000 0.003800 
#    y 0.000000 1.631820 0.000000 
#    z 0.003800 0.000000 1.591890 
# 
# From -- ./inp_files/172106.got.cif
#   From: 2010.05.17/outbox.cif.g08.bks.cpg/sg12_87_cif.got.tgz:172106.got - 2010.06.03 13:09:07.
