data_PCOD9197177
_publ_section_title
;
Structure prediction by ZEFSAII (Michael W. Deem and Ramdas Pophale) SiO2 
 PCOD9197177
Probable space group: C 2/M
;
_chemical_formula_sum "Si O2"
_cell_formula_units_Z 52
_cell_length_a 8.682320
_cell_length_b 20.705921
_cell_length_c 21.137167
_cell_angle_alpha 90.000000
_cell_angle_beta 46.114637
_cell_angle_gamma 90.000000
_cell_volume 2738.726419
_symmetry_space_group_name_H-M "C 2/M"
_symmetry_group_IT_number 12
_symmetry_cell_setting 'monoclinic'
loop_
_space_group_symop_operation_xyz
x,y,z
-x,y,-z
-x,-y,-z
x,-y,z
1/2+x,1/2+y,z
1/2-x,1/2+y,-z
1/2-x,1/2-y,-z
1/2+x,1/2-y,z
loop_
_atom_site_type_symbol
_atom_site_label
_atom_site_fract_x
_atom_site_fract_y
_atom_site_fract_z
Si Si1 0.237298 0.184834 0.188197
Si Si2 0.461827 0.679198 0.145910
Si Si3 0.529691 0.071560 0.150846
Si Si4 0.598982 0.074768 0.276440
Si Si5 0.000000 0.120162 0.000000
Si Si6 0.894677 0.333107 0.427847
Si Si7 0.181419 0.802633 0.612503
O O1 0.336484 0.253369 0.179526
O O2 0.405246 0.128173 0.151610
O O3 0.155171 0.185850 0.139668
O O4 0.030209 0.175213 0.291541
O O5 0.304397 0.622070 0.214737
O O6 0.524230 0.661997 0.056606
O O7 0.496911 0.078650 0.235609
O O8 0.783830 0.079400 0.068647
O O9 0.461741 0.000000 0.150090
O O10 0.441099 0.103839 0.373728
O O11 0.655581 0.000000 0.272094
O O12 0.834443 0.273354 0.399739
O O13 0.723787 0.337199 0.533152
O O14 0.115501 0.314426 0.400495
#
# Coordination Sequence:
#
# PCOD9197177 Si02
#       7
#     8   8   8   8   4   8   8
#     4  12  22  39  63  91 126 156 200 252 299 363
#     4  11  23  38  64  91 120 159 200 248 310 352
#     4  10  24  42  64  88 120 161 201 248 305 365
#     4  10  20  38  59  85 121 162 205 246 302 361
#     4  10  23  44  66  90 119 154 200 252 301 372
#     4  10  20  35  58  90 116 162 203 247 298 342
#     4  10  20  35  58  89 122 152 205 248 291 352
#
# _framework density 18.986927999999999
#
# number of rings (size 3 to 8) (size 9 to 14) (size 15 to 20)
#    0.000    1.538    3.077    2.077    2.154    4.308 
#    0.000    3.077    0.000    1.846    0.000    0.000 
#    0.000    0.000    0.000    0.000    0.000    0.000 
#
# Total GULP energy -145239.594831 kJ/mol
# GULP energy per Si atom -5586.138263 kJ/mol
# Density = 1.894371 g / cm^3
# Si number density = 18.986928 Si / 1000 Ang^3
#
#
#
# Elastic Constant Matrix: (Units=GPa)
#
#
# Indices 1 2 3 4 5 6 
#
# 1 85.0611 60.8346 31.8519 0.0000 10.2875 -0.0002
# 2 60.8346 140.6516 42.3819 0.0000 6.9323 0.0000
# 3 31.8519 42.3819 91.3709 0.0000 16.2290 -0.0001
# 4 0.0000 0.0000 0.0000 5.5184 0.0000 -0.1654
# 5 10.2875 6.9323 16.2290 0.0000 15.8313 0.0001
# 6 -0.0002 0.0000 -0.0001 -0.1654 0.0001 17.3783
#
#
#
# Elastic Compliance Matrix: (Units=1/GPa)
#
#
# Indices 1 2 3 4 5 6 
#
# 1 0.018315 -0.007006 -0.001914 0.000000 -0.006871 0.000000
# 2 -0.007006 0.010947 -0.003170 0.000000 0.003008 0.000000
# 3 -0.001914 -0.003170 0.015423 0.000000 -0.013178 0.000000
# 4 0.000000 0.000000 0.000000 0.181262 0.000000 0.001725
# 5 -0.006871 0.003008 -0.013178 0.000000 0.079822 0.000000
# 6 0.000000 0.000000 0.000000 0.001725 0.000000 0.057559
#
#
# Mechanical properties :
#
#
# Convention : Reuss Voigt Hill
#
# Bulk Modulus (GPa) = 48.77099 65.24673 57.00886
# Shear Modulus (GPa) = 12.67932 19.87997 16.27964
#
# Velocity S-wave (km/s) = 2.58697 3.23930 2.93134
# Velocity P-wave (km/s) = 5.88775 6.95912 6.44573
#
# Compressibility (1/GPa) = 0.02050399
#
# Stress axis : x y z
#
# Youngs Moduli (GPa) = 54.60091 91.35081 64.83967
#
# Poissons Ratio (x) = 0.64000 0.12413
# Poissons Ratio (y) = 0.38253 0.20552
# Poissons Ratio (z) = 0.10453 0.28955
#
# Static dielectric constant tensor:
#      x y z
#    x 1.645320 0.000000 0.002570 
#    y 0.000000 1.633520 0.000000 
#    z 0.002570 0.000000 1.691630 
# 
# From -- ./inp_files/301076.got.cif
#   From: 2010.05.17/outbox.cif.g08.bks.cpg/sg12_151_cif.got.tgz:301076.got - 2010.06.03 13:09:07.
