data_PCOD9197097
_publ_section_title
;
Structure prediction by ZEFSAII (Michael W. Deem and Ramdas Pophale) SiO2 
 PCOD9197097
Probable space group: C 2/M
;
_chemical_formula_sum "Si O2"
_cell_formula_units_Z 48
_cell_length_a 18.361174
_cell_length_b 11.751269
_cell_length_c 11.634313
_cell_angle_alpha 90.000000
_cell_angle_beta 75.503210
_cell_angle_gamma 90.000000
_cell_volume 2430.378087
_symmetry_space_group_name_H-M "C 2/M"
_symmetry_group_IT_number 12
_symmetry_cell_setting 'monoclinic'
loop_
_space_group_symop_operation_xyz
x,y,z
-x,y,-z
-x,-y,-z
x,-y,z
1/2+x,1/2+y,z
1/2-x,1/2+y,-z
1/2-x,1/2-y,-z
1/2+x,1/2-y,z
loop_
_atom_site_type_symbol
_atom_site_label
_atom_site_fract_x
_atom_site_fract_y
_atom_site_fract_z
Si Si1 0.588145 0.869210 0.101749
Si Si2 0.225854 0.123733 0.555640
Si Si3 0.182085 0.365006 0.849138
Si Si4 0.312566 0.204867 0.731457
Si Si5 0.579098 0.694444 0.505169
Si Si6 0.557613 0.134585 0.712973
O O1 0.644428 0.862755 0.187000
O O2 0.509555 0.820205 0.178739
O O3 0.571247 0.000000 0.076818
O O4 0.630205 0.820495 0.974149
O O5 0.250000 0.250000 0.500000
O O6 0.257666 0.130915 0.671985
O O7 0.137396 0.125136 0.561537
O O8 0.254480 0.000000 0.496500
O O9 0.194073 0.500000 0.860503
O O10 0.260034 0.300088 0.809214
O O11 0.135387 0.349029 0.750105
O O12 0.374114 0.264361 0.624364
O O13 0.500000 0.640205 0.500000
O O14 0.558521 0.803222 0.591566
O O15 0.545669 0.000000 0.701297
#
# Coordination Sequence:
#
# PCOD9197097 Si02
#       6
#     8   8   8   8   8   8
#     4  10  20  35  58  87 118 154 201 250 303 357
#     4  10  23  40  61  88 121 161 201 247 304 360
#     4  10  21  37  58  86 117 156 203 254 301 354
#     4  11  21  36  59  85 122 157 195 247 305 364
#     4  11  22  38  57  85 120 157 201 246 303 365
#     4  10  20  36  59  86 120 156 199 254 306 359
#
# _framework density 19.750015000000001
#
# number of rings (size 3 to 8) (size 9 to 14) (size 15 to 20)
#    0.000    1.667    3.333    1.500    0.000    8.667 
#    0.000    0.000    0.000    0.000    0.000    1.167 
#    0.000    0.000    0.000    0.000    0.000    0.000 
#
# Total GULP energy -133787.299133 kJ/mol
# GULP energy per Si atom -5574.470797 kJ/mol
# Density = 1.970506 g / cm^3
# Si number density = 19.750015 Si / 1000 Ang^3
#
#
#
# Elastic Constant Matrix: (Units=GPa)
#
#
# Indices 1 2 3 4 5 6 
#
# 1 97.9473 14.4544 3.7643 0.0000 -3.1029 0.0000
# 2 14.4544 71.9709 12.8347 0.0000 -9.5528 0.0000
# 3 3.7643 12.8347 75.6285 0.0000 -21.2692 0.0000
# 4 0.0000 0.0000 0.0000 15.3391 0.0000 -11.5065
# 5 -3.1029 -9.5528 -21.2692 0.0000 42.5143 0.0000
# 6 0.0000 0.0000 0.0000 -11.5065 0.0000 7.3457
#
#
#
# Elastic Compliance Matrix: (Units=1/GPa)
#
#
# Indices 1 2 3 4 5 6 
#
# 1 0.010526 -0.002062 -0.000103 0.000000 0.000254 0.000000
# 2 -0.002062 0.014933 -0.001781 0.000000 0.002314 0.000000
# 3 -0.000103 -0.001781 0.015612 0.000000 0.007403 0.000000
# 4 0.000000 0.000000 0.000000 -0.372421 0.000000 -0.583373
# 5 0.000254 0.002314 0.007403 0.000000 0.027763 0.000000
# 6 0.000000 0.000000 0.000000 -0.583373 0.000000 -0.777681
#
#
# Mechanical properties :
#
#
# Convention : Reuss Voigt Hill
#
# Bulk Modulus (GPa) = 30.13882 34.18374 32.16128
# Shear Modulus (GPa) = -4.70669 27.33936 11.31633
#
# Velocity S-wave (km/s) = -1.54542 3.72461 2.39629
# Velocity P-wave (km/s) = 3.47978 5.98688 4.89651
#
# Compressibility (1/GPa) = 0.03317980
#
# Stress axis : x y z
#
# Youngs Moduli (GPa) = 95.00426 66.96418 64.05439
#
# Poissons Ratio (x) = 0.13808 0.00658
# Poissons Ratio (y) = 0.19590 0.11407
# Poissons Ratio (z) = 0.00975 0.11925
#
# Static dielectric constant tensor:
#      x y z
#    x 1.725020 0.000000 -0.020010 
#    y 0.000000 1.703830 0.000000 
#    z -0.020010 0.000000 1.723080 
# 
# From -- ./inp_files/154184.got.cif
#   From: 2010.05.17/outbox.cif.g08.bks.cpg/sg12_78_cif.got.tgz:154184.got - 2010.06.03 13:09:07.
