data_PCOD9197850
_publ_section_title
;
Structure prediction by ZEFSAII (Michael W. Deem and Ramdas Pophale) SiO2 
 PCOD9197850
Probable space group: C 2/M
;
_chemical_formula_sum "Si O2"
_cell_formula_units_Z 56
_cell_length_a 15.000302
_cell_length_b 7.581793
_cell_length_c 26.560492
_cell_angle_alpha 90.000000
_cell_angle_beta 66.595684
_cell_angle_gamma 90.000000
_cell_volume 2772.173866
_symmetry_space_group_name_H-M "C 2/M"
_symmetry_group_IT_number 12
_symmetry_cell_setting 'monoclinic'
loop_
_space_group_symop_operation_xyz
x,y,z
-x,y,-z
-x,-y,-z
x,-y,z
1/2+x,1/2+y,z
1/2-x,1/2+y,-z
1/2-x,1/2-y,-z
1/2+x,1/2-y,z
loop_
_atom_site_type_symbol
_atom_site_label
_atom_site_fract_x
_atom_site_fract_y
_atom_site_fract_z
Si Si1 0.048053 0.286652 0.437406
Si Si2 0.663206 0.285906 0.267111
Si Si3 0.278883 0.203367 0.144971
Si Si4 0.983008 0.283815 0.061441
Si Si5 0.044208 0.708857 0.646086
Si Si6 0.256071 0.790481 0.350692
Si Si7 0.682922 0.790057 0.063156
O O1 0.044242 0.500000 0.437532
O O2 0.161104 0.237211 0.406487
O O3 0.000000 0.225305 0.500000
O O4 0.989755 0.220809 0.401026
O O5 0.662402 0.500000 0.267772
O O6 0.715936 0.221557 0.204752
O O7 0.550905 0.231609 0.297808
O O8 0.722455 0.222934 0.303244
O O9 0.383465 0.282409 0.107933
O O10 0.221670 0.207153 0.105399
O O11 0.297515 0.000000 0.155100
O O12 0.979516 0.500000 0.060630
O O13 0.075196 0.231333 0.073325
O O14 0.000000 0.227055 0.000000
O O15 0.060001 0.500000 0.635523
O O16 0.143818 0.780747 0.647956
O O17 0.270191 0.000000 0.341181
O O18 0.682877 0.000000 0.070397
O O19 0.750000 0.750000 0.000000
#
# Coordination Sequence:
#
# PCOD9197850 Si02
#       7
#     8   8   8   8   8   8   8
#     4   9  18  32  49  74 108 141 170 206 258 308
#     4   9  19  34  52  73  98 129 166 211 256 299
#     4  10  20  36  54  73 100 131 165 205 251 304
#     4   9  17  32  53  73  96 130 163 192 240 303
#     4   9  18  33  53  74 101 135 171 213 252 296
#     4   9  18  33  52  74  99 133 176 215 251 292
#     4  11  21  34  54  77 100 129 164 201 245 298
#
# _framework density 20.200752999999999
#
# number of rings (size 3 to 8) (size 9 to 14) (size 15 to 20)
#    0.000    2.571    1.429    0.429    0.000    3.143 
#    0.000    5.000    0.000    0.000    0.000    0.000 
#    0.000    0.000    0.000    0.000    0.000    0.000 
#
# Total GULP energy -156208.553823 kJ/mol
# GULP energy per Si atom -5578.876922 kJ/mol
# Density = 2.015478 g / cm^3
# Si number density = 20.200753 Si / 1000 Ang^3
#
#
#
# Elastic Constant Matrix: (Units=GPa)
#
#
# Indices 1 2 3 4 5 6 
#
# 1 194.1890 -5.0891 89.9251 0.0000 -23.1677 0.0000
# 2 -5.0891 41.6709 -15.9902 0.0000 2.3195 0.0000
# 3 89.9251 -15.9902 169.6078 0.0000 -14.0783 0.0000
# 4 0.0000 0.0000 0.0000 14.1609 0.0000 2.7850
# 5 -23.1677 2.3195 -14.0783 0.0000 14.9784 0.0000
# 6 0.0000 0.0000 0.0000 2.7850 0.0000 -7.7517
#
#
#
# Elastic Compliance Matrix: (Units=1/GPa)
#
#
# Indices 1 2 3 4 5 6 
#
# 1 0.007804 -0.000879 -0.003479 0.000000 0.008937 0.000000
# 2 -0.000879 0.025042 0.002595 0.000000 -0.002799 0.000000
# 3 -0.003479 0.002595 0.008140 0.000000 0.001869 0.000000
# 4 0.000000 0.000000 0.000000 0.065957 0.000000 0.023697
# 5 0.008937 -0.002799 0.001869 0.000000 0.082776 0.000000
# 6 0.000000 0.000000 0.000000 0.023697 0.000000 -0.120490
#
#
# Mechanical properties :
#
#
# Convention : Reuss Voigt Hill
#
# Bulk Modulus (GPa) = 26.69579 60.35105 43.52342
# Shear Modulus (GPa) = 58.65795 26.71897 42.68846
#
# Velocity S-wave (km/s) = 5.39449 3.64080 4.60195
# Velocity P-wave (km/s) = 7.21420 6.90032 7.05900
#
# Compressibility (1/GPa) = 0.03745910
#
# Stress axis : x y z
#
# Youngs Moduli (GPa) = 128.14551 39.93354 122.85045
#
# Poissons Ratio (x) = 0.03511 0.42734
# Poissons Ratio (y) = 0.11267 -0.31876
# Poissons Ratio (z) = 0.44576 -0.10361
#
# Static dielectric constant tensor:
#      x y z
#    x 1.705420 0.000000 0.011000 
#    y 0.000000 1.770120 0.000000 
#    z 0.011000 0.000000 1.706310 
# 
# From -- ./inp_files/337866.got.cif
#   From: 2010.05.17/outbox.cif.g08.bks.cpg/sg12_169_cif.got.tgz:337866.got - 2010.06.03 13:09:07.
