data_PCOD9197279
_publ_section_title
;
Structure prediction by ZEFSAII (Michael W. Deem and Ramdas Pophale) SiO2 
 PCOD9197279
Probable space group: C 2/M
;
_chemical_formula_sum "Si O2"
_cell_formula_units_Z 50
_cell_length_a 9.565179
_cell_length_b 11.180640
_cell_length_c 28.538371
_cell_angle_alpha 90.000000
_cell_angle_beta 126.050719
_cell_angle_gamma 90.000000
_cell_volume 2467.555987
_symmetry_space_group_name_H-M "C 2/M"
_symmetry_group_IT_number 12
_symmetry_cell_setting 'monoclinic'
loop_
_space_group_symop_operation_xyz
x,y,z
-x,y,-z
-x,-y,-z
x,-y,z
1/2+x,1/2+y,z
1/2-x,1/2+y,-z
1/2-x,1/2-y,-z
1/2+x,1/2-y,z
loop_
_atom_site_type_symbol
_atom_site_label
_atom_site_fract_x
_atom_site_fract_y
_atom_site_fract_z
Si Si1 0.759775 0.279382 0.056918
Si Si2 0.843648 0.362955 0.295021
Si Si3 0.629297 0.137201 0.117895
Si Si4 0.249163 0.869009 0.451496
Si Si5 0.971382 0.712629 0.419742
Si Si6 0.000000 0.000000 0.000000
Si Si7 0.547574 0.361029 0.748269
O O1 0.681477 0.183043 0.076852
O O2 0.964082 0.294617 0.106245
O O3 0.750000 0.250000 0.000000
O O4 0.644122 0.396255 0.041000
O O5 0.874003 0.500000 0.283052
O O6 0.637116 0.347548 0.262274
O O7 0.920349 0.251086 0.280527
O O8 0.922249 0.351987 0.362661
O O9 0.795463 0.146510 0.183929
O O10 0.575613 0.000000 0.103679
O O11 0.054569 0.840637 0.425932
O O12 0.376080 0.852641 0.520713
O O13 0.312271 0.779912 0.423731
O O14 0.272657 0.000000 0.436332
O O15 0.549167 0.500000 0.729066
#
# Coordination Sequence:
#
# PCOD9197279 Si02
#       7
#     8   8   8   8   8   2   8
#     4  12  24  40  63  94 125 160 197 239 295 353
#     4  11  22  40  62  88 120 156 202 254 305 358
#     4  11  24  42  65  87 122 162 200 247 295 348
#     4  10  20  37  56  83 118 154 192 238 299 361
#     4  10  20  35  59  85 115 154 195 241 298 362
#     4  12  24  40  56 100 132 152 198 242 284 358
#     4  10  24  44  63  90 119 158 209 254 300 355
#
# _framework density 20.262965000000001
#
# number of rings (size 3 to 8) (size 9 to 14) (size 15 to 20)
#    0.000    1.280    2.400    3.840    1.120    3.200 
#    1.440    9.600    0.000    0.000    0.000    0.000 
#    0.000    0.000    0.000    0.000    0.000    0.000 
#
# Total GULP energy -139206.293628 kJ/mol
# GULP energy per Si atom -5568.251745 kJ/mol
# Density = 2.021685 g / cm^3
# Si number density = 20.262965 Si / 1000 Ang^3
#
#
#
# Elastic Constant Matrix: (Units=GPa)
#
#
# Indices 1 2 3 4 5 6 
#
# 1 64.1933 16.8242 2.8169 0.0000 6.9474 0.0000
# 2 16.8242 72.0688 11.4299 0.0000 -9.0873 0.0000
# 3 2.8169 11.4299 46.4078 0.0000 -0.1644 0.0000
# 4 0.0000 0.0000 0.0000 18.3262 0.0000 5.1795
# 5 6.9474 -9.0873 -0.1644 0.0000 32.8704 0.0000
# 6 0.0000 0.0000 0.0000 5.1795 0.0000 14.9066
#
#
#
# Elastic Compliance Matrix: (Units=1/GPa)
#
#
# Indices 1 2 3 4 5 6 
#
# 1 0.017339 -0.004687 0.000084 0.000000 -0.004960 0.000000
# 2 -0.004687 0.016245 -0.003697 0.000000 0.005463 0.000000
# 3 0.000084 -0.003697 0.022450 0.000000 -0.000928 0.000000
# 4 0.000000 0.000000 0.000000 0.060509 0.000000 -0.021025
# 5 -0.004960 0.005463 -0.000928 0.000000 0.032977 0.000000
# 6 0.000000 0.000000 0.000000 -0.021025 0.000000 0.074390
#
#
# Mechanical properties :
#
#
# Convention : Reuss Voigt Hill
#
# Bulk Modulus (GPa) = 25.35788 27.20131 26.27959
# Shear Modulus (GPa) = 19.71189 23.32724 21.51956
#
# Velocity S-wave (km/s) = 3.12236 3.39665 3.26239
# Velocity P-wave (km/s) = 5.05375 5.36994 5.21425
#
# Compressibility (1/GPa) = 0.03943548
#
# Stress axis : x y z
#
# Youngs Moduli (GPa) = 57.67225 61.55772 44.54290
#
# Poissons Ratio (x) = 0.28850 -0.00375
# Poissons Ratio (y) = 0.27029 0.16468
# Poissons Ratio (z) = -0.00486 0.22759
#
# Static dielectric constant tensor:
#      x y z
#    x 1.707630 0.000000 0.017140 
#    y 0.000000 1.714240 0.000000 
#    z 0.017140 0.000000 1.720300 
# 
# From -- ./inp_files/355909.got.cif
#   From: 2010.05.17/outbox.cif.g08.bks.cpg/sg12_178_cif.got.tgz:355909.got - 2010.06.03 13:09:07.
