data_PCOD9197026
_publ_section_title
;
Structure prediction by ZEFSAII (Michael W. Deem and Ramdas Pophale) SiO2 
 PCOD9197026
Probable space group: C 2/M
;
_chemical_formula_sum "Si O2"
_cell_formula_units_Z 48
_cell_length_a 18.811897
_cell_length_b 8.760544
_cell_length_c 15.895748
_cell_angle_alpha 90.000000
_cell_angle_beta 89.959591
_cell_angle_gamma 90.000000
_cell_volume 2619.657586
_symmetry_space_group_name_H-M "C 2/M"
_symmetry_group_IT_number 12
_symmetry_cell_setting 'monoclinic'
loop_
_space_group_symop_operation_xyz
x,y,z
-x,y,-z
-x,-y,-z
x,-y,z
1/2+x,1/2+y,z
1/2-x,1/2+y,-z
1/2-x,1/2-y,-z
1/2+x,1/2-y,z
loop_
_atom_site_type_symbol
_atom_site_label
_atom_site_fract_x
_atom_site_fract_y
_atom_site_fract_z
Si Si1 0.952144 0.182540 0.761240
Si Si2 0.791959 0.682257 0.577678
Si Si3 0.458203 0.816349 0.583570
Si Si4 0.706219 0.816048 0.233904
Si Si5 0.450513 0.316403 0.079581
Si Si6 0.207004 0.317894 0.921247
O O1 0.980265 0.237454 0.670500
O O2 0.875349 0.260566 0.775637
O O3 0.006415 0.222178 0.835698
O O4 0.942310 0.000000 0.761225
O O5 0.785460 0.500000 0.574392
O O6 0.750000 0.750000 0.500000
O O7 0.875266 0.720229 0.570913
O O8 0.769453 0.730467 0.671821
O O9 0.500000 0.770056 0.500000
O O10 0.464926 0.000000 0.593532
O O11 0.755367 0.744408 0.162829
O O12 0.707576 0.000000 0.228525
O O13 0.439425 0.500000 0.078105
O O14 0.374462 0.236569 0.075366
O O15 0.500000 0.276869 0.000000
O O16 0.210847 0.500000 0.923496
O O17 0.250000 0.250000 0.000000
#
# Coordination Sequence:
#
# PCOD9197026 Si02
#       6
#     8   8   8   8   8   8
#     4  10  20  35  58  86 114 147 188 234 283 333
#     4   9  19  34  54  80 110 146 184 229 280 328
#     4   9  19  36  55  76 107 148 191 234 282 333
#     4  10  21  39  60  83 115 151 189 234 283 335
#     4  10  22  40  60  84 116 149 183 227 277 331
#     4  12  25  40  61  87 115 149 188 230 279 335
#
# _framework density 18.323004999999998
#
# number of rings (size 3 to 8) (size 9 to 14) (size 15 to 20)
#    0.000    2.000    0.000    4.500    0.000    8.000 
#    0.000    3.333    0.000    0.000    0.000    0.000 
#    0.000    0.000    0.000    0.000    0.000    0.000 
#
# Total GULP energy -134041.593412 kJ/mol
# GULP energy per Si atom -5585.066392 kJ/mol
# Density = 1.828130 g / cm^3
# Si number density = 18.323005 Si / 1000 Ang^3
#
#
#
# Elastic Constant Matrix: (Units=GPa)
#
#
# Indices 1 2 3 4 5 6 
#
# 1 112.3132 61.5542 116.0068 0.0000 -0.8150 0.0000
# 2 61.5542 71.6934 76.3278 0.0000 2.4491 0.0000
# 3 116.0068 76.3278 219.1326 0.0000 0.7587 0.0000
# 4 0.0000 0.0000 0.0000 32.2024 0.0000 2.4437
# 5 -0.8150 2.4491 0.7587 0.0000 40.2875 0.0000
# 6 0.0000 0.0000 0.0000 2.4437 0.0000 25.5078
#
#
#
# Elastic Compliance Matrix: (Units=1/GPa)
#
#
# Indices 1 2 3 4 5 6 
#
# 1 0.024473 -0.011539 -0.008941 0.000000 0.001365 0.000000
# 2 -0.011539 0.027669 -0.003522 0.000000 -0.001849 0.000000
# 3 -0.008941 -0.003522 0.010524 0.000000 -0.000165 0.000000
# 4 0.000000 0.000000 0.000000 0.031281 0.000000 -0.002997
# 5 0.001365 -0.001849 -0.000165 0.000000 0.024965 0.000000
# 6 0.000000 0.000000 0.000000 -0.002997 0.000000 0.039491
#
#
# Mechanical properties :
#
#
# Convention : Reuss Voigt Hill
#
# Bulk Modulus (GPa) = 68.21080 101.21300 84.71190
# Shear Modulus (GPa) = 23.66356 29.54957 26.60657
#
# Velocity S-wave (km/s) = 3.59760 4.02020 3.81476
# Velocity P-wave (km/s) = 7.38679 8.76969 8.10778
#
# Compressibility (1/GPa) = 0.01466044
#
# Stress axis : x y z
#
# Youngs Moduli (GPa) = 40.86127 36.14162 95.01866
#
# Poissons Ratio (x) = 0.41706 0.84957
# Poissons Ratio (y) = 0.47152 0.33468
# Poissons Ratio (z) = 0.36535 0.12730
#
# Static dielectric constant tensor:
#      x y z
#    x 1.598390 0.000000 -0.002220 
#    y 0.000000 1.624350 0.000000 
#    z -0.002220 0.000000 1.628430 
# 
# From -- ./inp_files/221631.got.cif
#   From: 2010.05.17/outbox.cif.g08.bks.cpg/sg12_111_cif.got.tgz:221631.got - 2010.06.03 13:09:07.
