data_PCOD9197425
_publ_section_title
;
Structure prediction by ZEFSAII (Michael W. Deem and Ramdas Pophale) SiO2 
 PCOD9197425
Probable space group: C 2/M
;
_chemical_formula_sum "Si O2"
_cell_formula_units_Z 56
_cell_length_a 13.583800
_cell_length_b 16.945725
_cell_length_c 11.166200
_cell_angle_alpha 90.000000
_cell_angle_beta 79.054143
_cell_angle_gamma 90.000000
_cell_volume 2523.556215
_symmetry_space_group_name_H-M "C 2/M"
_symmetry_group_IT_number 12
_symmetry_cell_setting 'monoclinic'
loop_
_space_group_symop_operation_xyz
x,y,z
-x,y,-z
-x,-y,-z
x,-y,z
1/2+x,1/2+y,z
1/2-x,1/2+y,-z
1/2-x,1/2-y,-z
1/2+x,1/2-y,z
loop_
_atom_site_type_symbol
_atom_site_label
_atom_site_fract_x
_atom_site_fract_y
_atom_site_fract_z
Si Si1 0.402253 0.700696 0.199957
Si Si2 0.873779 0.414404 0.299788
Si Si3 0.107641 0.261515 0.541455
Si Si4 0.577797 0.594213 0.165133
Si Si5 0.317634 0.739907 0.724318
Si Si6 0.447240 0.158143 0.848594
Si Si7 0.710551 0.090596 0.939244
O O1 0.396993 0.701047 0.346661
O O2 0.466668 0.622514 0.152304
O O3 0.290319 0.732847 0.194833
O O4 0.477310 0.770224 0.142213
O O5 0.852377 0.500000 0.356452
O O6 0.873942 0.345616 0.397144
O O7 0.800994 0.400531 0.202486
O O8 0.981309 0.411920 0.208819
O O9 0.183772 0.239178 0.418255
O O10 0.000000 0.263079 0.500000
O O11 0.577916 0.500000 0.198711
O O12 0.617960 0.662846 0.247872
O O13 0.673139 0.603112 0.052732
O O14 0.385484 0.813298 0.748929
O O15 0.369410 0.140784 0.970482
O O16 0.685593 0.000000 0.970404
#
# Coordination Sequence:
#
# PCOD9197425 Si02
#       7
#     8   8   8   8   8   8   8
#     4  10  22  38  62  89 125 164 208 259 319 376
#     4  10  20  35  59  90 124 161 205 260 318 376
#     4  11  19  40  60  87 120 164 208 260 318 371
#     4  10  21  40  63  89 126 166 212 263 309 371
#     4  11  22  40  62  91 124 165 209 261 319 379
#     4  10  20  37  59  87 121 158 209 255 314 372
#     4  10  21  38  61  90 123 161 204 259 317 369
#
# _framework density 22.190908
#
# number of rings (size 3 to 8) (size 9 to 14) (size 15 to 20)
#    0.000    1.714    4.286    3.000    0.000    3.714 
#    0.000    7.857    0.000    1.714    0.000    0.000 
#    0.000    4.571    0.000    0.000    0.000    0.000 
#
# Total GULP energy -155876.586488 kJ/mol
# GULP energy per Si atom -5567.020946 kJ/mol
# Density = 2.214040 g / cm^3
# Si number density = 22.190908 Si / 1000 Ang^3
#
#
#
# Elastic Constant Matrix: (Units=GPa)
#
#
# Indices 1 2 3 4 5 6 
#
# 1 119.6923 32.7385 2.0950 0.0000 -18.0523 0.0000
# 2 32.7385 81.9208 -0.6436 0.0000 -10.7773 0.0000
# 3 2.0950 -0.6436 42.8702 0.0000 -7.4230 0.0000
# 4 0.0000 0.0000 0.0000 23.6938 0.0000 -3.9211
# 5 -18.0523 -10.7773 -7.4230 0.0000 35.9130 0.0000
# 6 0.0000 0.0000 0.0000 -3.9211 0.0000 28.0195
#
#
#
# Elastic Compliance Matrix: (Units=1/GPa)
#
#
# Indices 1 2 3 4 5 6 
#
# 1 0.009889 -0.003428 0.000153 0.000000 0.003974 0.000000
# 2 -0.003428 0.013929 0.000832 0.000000 0.002629 0.000000
# 3 0.000153 0.000832 0.024256 0.000000 0.005340 0.000000
# 4 0.000000 0.000000 0.000000 0.043206 0.000000 0.006046
# 5 0.003974 0.002629 0.005340 0.000000 0.031735 0.000000
# 6 0.000000 0.000000 0.000000 0.006046 0.000000 0.036536
#
#
# Mechanical properties :
#
#
# Convention : Reuss Voigt Hill
#
# Bulk Modulus (GPa) = 23.15428 34.76256 28.95842
# Shear Modulus (GPa) = 27.95907 31.54481 29.75194
#
# Velocity S-wave (km/s) = 3.55341 3.77439 3.66557
# Velocity P-wave (km/s) = 5.22421 5.89016 5.56715
#
# Compressibility (1/GPa) = 0.04318857
#
# Stress axis : x y z
#
# Youngs Moduli (GPa) = 101.12179 71.79132 41.22705
#
# Poissons Ratio (x) = 0.24610 -0.00632
# Poissons Ratio (y) = 0.34665 -0.03429
# Poissons Ratio (z) = -0.01551 -0.05972
#
# Static dielectric constant tensor:
#      x y z
#    x 1.968880 0.000000 -0.011880 
#    y 0.000000 1.881760 0.000000 
#    z -0.011880 0.000000 1.857950 
# 
# From -- ./inp_files/145456.got.cif
#   From: 2010.05.17/outbox.cif.g08.bks.cpg/sg12_73_cif.got.tgz:145456.got - 2010.06.03 13:09:07.
