data_PCOD9197157
_publ_section_title
;
Structure prediction by ZEFSAII (Michael W. Deem and Ramdas Pophale) SiO2 
 PCOD9197157
Probable space group: C 2/M
;
_chemical_formula_sum "Si O2"
_cell_formula_units_Z 44
_cell_length_a 22.710199
_cell_length_b 9.440896
_cell_length_c 29.022204
_cell_angle_alpha 90.000000
_cell_angle_beta 159.580930
_cell_angle_gamma 90.000000
_cell_volume 2170.928806
_symmetry_space_group_name_H-M "C 2/M"
_symmetry_group_IT_number 12
_symmetry_cell_setting 'monoclinic'
loop_
_space_group_symop_operation_xyz
x,y,z
-x,y,-z
-x,-y,-z
x,-y,z
1/2+x,1/2+y,z
1/2-x,1/2+y,-z
1/2-x,1/2-y,-z
1/2+x,1/2-y,z
loop_
_atom_site_type_symbol
_atom_site_label
_atom_site_fract_x
_atom_site_fract_y
_atom_site_fract_z
Si Si1 0.890597 0.845061 0.821578
Si Si2 0.009142 0.662792 0.576967
Si Si3 0.692517 0.165799 0.319705
Si Si4 0.500000 0.239800 0.000000
Si Si5 0.894844 0.668934 0.636653
Si Si6 0.371688 0.661271 0.248879
O O1 0.690974 0.842467 0.686525
O O2 0.922460 0.728816 0.805633
O O3 0.936635 0.000000 0.837338
O O4 0.971059 0.823056 0.931001
O O5 0.957807 0.500000 0.548431
O O6 0.038819 0.754438 0.644314
O O7 0.865011 0.745315 0.444565
O O8 0.631812 0.183800 0.327980
O O9 0.721827 0.000000 0.333101
O O10 0.674246 0.159563 0.117016
O O11 0.894956 0.500000 0.626103
O O12 0.750000 0.750000 0.500000
O O13 0.070521 0.745740 0.752159
O O14 0.432676 0.500000 0.289763
#
# Coordination Sequence:
#
# PCOD9197157 Si02
#       6
#     8   8   8   4   8   8
#     4  10  22  39  61  88 119 159 207 255 305 363
#     4  10  20  35  58  88 123 161 201 249 306 367
#     4  11  23  37  57  89 126 160 200 251 309 367
#     4  10  24  44  66  90 120 160 210 260 306 368
#     4  11  23  39  61  91 127 166 205 250 305 371
#     4  11  22  38  63  93 123 161 207 255 308 366
#
# _framework density 20.267824000000001
#
# number of rings (size 3 to 8) (size 9 to 14) (size 15 to 20)
#    0.000    1.455    1.818    3.273    0.000   10.909 
#    0.000    0.909    0.000    0.000    0.000    0.000 
#    0.000    0.000    0.000    0.000    0.000    0.000 
#
# Total GULP energy -122694.347520 kJ/mol
# GULP energy per Si atom -5577.015796 kJ/mol
# Density = 2.022169 g / cm^3
# Si number density = 20.267824 Si / 1000 Ang^3
#
#
#
# Elastic Constant Matrix: (Units=GPa)
#
#
# Indices 1 2 3 4 5 6 
#
# 1 86.7393 62.8419 35.9823 0.0021 -21.0498 0.0002
# 2 62.8419 177.4112 43.0772 -0.0023 -18.5157 0.0059
# 3 35.9823 43.0772 60.5221 0.0022 -14.3658 0.0114
# 4 0.0021 -0.0023 0.0022 7.4665 0.0083 7.5895
# 5 -21.0498 -18.5157 -14.3658 0.0083 34.5039 0.0013
# 6 0.0002 0.0059 0.0114 7.5895 0.0013 21.0220
#
#
#
# Elastic Compliance Matrix: (Units=1/GPa)
#
#
# Indices 1 2 3 4 5 6 
#
# 1 0.019097 -0.004478 -0.006626 -0.000026 0.006488 0.000014
# 2 -0.004478 0.007969 -0.002933 0.000008 0.000323 -0.000003
# 3 -0.006626 -0.002933 0.023543 0.000003 0.004186 -0.000013
# 4 -0.000026 0.000008 0.000003 0.211574 -0.000058 -0.076384
# 5 0.006488 0.000323 0.004186 -0.000058 0.034857 0.000017
# 6 0.000014 -0.000003 -0.000013 -0.076384 0.000017 0.075146
#
#
# Mechanical properties :
#
#
# Convention : Reuss Voigt Hill
#
# Bulk Modulus (GPa) = 44.37587 67.60837 55.99212
# Shear Modulus (GPa) = 12.26180 24.78323 18.52251
#
# Velocity S-wave (km/s) = 2.46232 3.50063 3.02634
# Velocity P-wave (km/s) = 5.47963 7.05472 6.31646
#
# Compressibility (1/GPa) = 0.02253477
#
# Stress axis : x y z
#
# Youngs Moduli (GPa) = 52.36557 125.49089 42.47511
#
# Poissons Ratio (x) = 0.56199 0.28144
# Poissons Ratio (y) = 0.23451 0.12456
# Poissons Ratio (z) = 0.34697 0.36802
#
# Static dielectric constant tensor:
#      x y z
#    x 1.784850 0.000000 -0.022610 
#    y 0.000000 1.703640 0.000000 
#    z -0.022610 0.000000 1.770410 
# 
# From -- ./inp_files/172521.got.cif
#   From: 2010.05.17/outbox.cif.g08.bks.cpg/sg12_87_cif.got.tgz:172521.got - 2010.06.03 13:09:07.
