data_PCOD9197968
_publ_section_title
;
Structure prediction by ZEFSAII (Michael W. Deem and Ramdas Pophale) SiO2 
 PCOD9197968
Probable space group: C 2/M
;
_chemical_formula_sum "Si O2"
_cell_formula_units_Z 48
_cell_length_a 12.791045
_cell_length_b 12.705652
_cell_length_c 13.269444
_cell_angle_alpha 90.000000
_cell_angle_beta 102.924583
_cell_angle_gamma 90.000000
_cell_volume 2101.895990
_symmetry_space_group_name_H-M "C 2/M"
_symmetry_group_IT_number 12
_symmetry_cell_setting 'monoclinic'
loop_
_space_group_symop_operation_xyz
x,y,z
-x,y,-z
-x,-y,-z
x,-y,z
1/2+x,1/2+y,z
1/2-x,1/2+y,-z
1/2-x,1/2-y,-z
1/2+x,1/2-y,z
loop_
_atom_site_type_symbol
_atom_site_label
_atom_site_fract_x
_atom_site_fract_y
_atom_site_fract_z
Si Si1 0.441452 0.382052 0.293457
Si Si2 0.674426 0.886086 0.586359
Si Si3 0.036429 0.671542 0.363259
Si Si4 0.764181 0.376841 0.101461
Si Si5 0.214440 0.719320 0.270219
Si Si6 0.581686 0.702219 0.926183
O O1 0.468039 0.500000 0.326321
O O2 0.504914 0.294091 0.369092
O O3 0.314252 0.358749 0.277134
O O4 0.464546 0.356873 0.181115
O O5 0.580026 0.881549 0.650931
O O6 0.610752 0.870333 0.468844
O O7 0.754220 0.792273 0.627580
O O8 0.727162 0.000000 0.599498
O O9 0.104085 0.663055 0.275272
O O10 0.772887 0.500000 0.128649
O O11 0.714789 0.302262 0.178664
O O12 0.874075 0.316609 0.097275
O O13 0.684745 0.361960 0.989423
O O14 0.500000 0.709034 0.000000
#
# Coordination Sequence:
#
# PCOD9197968 Si02
#       6
#     8   8   8   8   8   8
#     4  10  22  37  54  80 113 146 182 224 270 324
#     4  10  21  38  58  81 109 142 183 228 274 325
#     4  10  20  36  55  79 108 141 182 225 268 321
#     4  10  21  37  58  84 112 144 183 224 269 324
#     4  10  21  37  56  82 112 142 182 227 271 323
#     4  10  21  37  57  83 113 144 182 226 269 321
#
# _framework density 22.836525000000002
#
# number of rings (size 3 to 8) (size 9 to 14) (size 15 to 20)
#    0.000    2.000    0.000    3.500    0.000    5.667 
#    0.000    7.500    0.000   14.000    0.000    0.000 
#    0.000    0.000    0.000    0.000    0.000    0.000 
#
# Total GULP energy -134132.766349 kJ/mol
# GULP energy per Si atom -5588.865265 kJ/mol
# Density = 2.278455 g / cm^3
# Si number density = 22.836525 Si / 1000 Ang^3
#
#
#
# Elastic Constant Matrix: (Units=GPa)
#
#
# Indices 1 2 3 4 5 6 
#
# 1 80.1150 7.0650 -1.9437 0.0000 -26.9189 0.0000
# 2 7.0650 108.2925 18.0991 0.0000 -15.1241 0.0000
# 3 -1.9437 18.0991 41.4479 0.0000 -5.1335 0.0000
# 4 0.0000 0.0000 0.0000 19.5016 0.0000 2.3499
# 5 -26.9189 -15.1241 -5.1335 0.0000 42.0636 0.0000
# 6 0.0000 0.0000 0.0000 2.3499 0.0000 0.1679
#
#
#
# Elastic Compliance Matrix: (Units=1/GPa)
#
#
# Indices 1 2 3 4 5 6 
#
# 1 0.016073 0.000089 0.002024 0.000000 0.010565 0.000000
# 2 0.000089 0.010376 -0.004120 0.000000 0.003285 0.000000
# 3 0.002024 -0.004120 0.026396 0.000000 0.003035 0.000000
# 4 0.000000 0.000000 0.000000 -0.074699 0.000000 1.045451
# 5 0.010565 0.003285 0.003035 0.000000 0.032086 0.000000
# 6 0.000000 0.000000 0.000000 1.045451 0.000000 -8.675955
#
#
# Mechanical properties :
#
#
# Convention : Reuss Voigt Hill
#
# Bulk Modulus (GPa) = 20.47911 30.69959 25.58935
# Shear Modulus (GPa) = -0.57834 26.12230 12.77198
#
# Velocity S-wave (km/s) = -0.50379 3.38580 2.36747
# Velocity P-wave (km/s) = 2.94088 5.36258 4.32470
#
# Compressibility (1/GPa) = 0.04883024
#
# Stress axis : x y z
#
# Youngs Moduli (GPa) = 62.21527 96.37856 37.88383
#
# Poissons Ratio (x) = -0.00855 -0.07666
# Poissons Ratio (y) = -0.00552 0.15608
# Poissons Ratio (z) = -0.12589 0.39706
#
# Static dielectric constant tensor:
#      x y z
#    x 1.877070 0.000000 -0.008940 
#    y 0.000000 1.831570 0.000000 
#    z -0.008940 0.000000 1.894300 
# 
# From -- ./inp_files/212779.got.cif
#   From: 2010.05.17/outbox.cif.g08.bks.cpg/sg12_107_cif.got.tgz:212779.got - 2010.06.03 13:09:07.
