data_PCOD9197839
_publ_section_title
;
Structure prediction by ZEFSAII (Michael W. Deem and Ramdas Pophale) SiO2 
 PCOD9197839
Probable space group: C 2/M
;
_chemical_formula_sum "Si O2"
_cell_formula_units_Z 56
_cell_length_a 18.314697
_cell_length_b 13.861350
_cell_length_c 12.057052
_cell_angle_alpha 90.000000
_cell_angle_beta 69.477196
_cell_angle_gamma 90.000000
_cell_volume 2866.614952
_symmetry_space_group_name_H-M "C 2/M"
_symmetry_group_IT_number 12
_symmetry_cell_setting 'monoclinic'
loop_
_space_group_symop_operation_xyz
x,y,z
-x,y,-z
-x,-y,-z
x,-y,z
1/2+x,1/2+y,z
1/2-x,1/2+y,-z
1/2-x,1/2-y,-z
1/2+x,1/2-y,z
loop_
_atom_site_type_symbol
_atom_site_label
_atom_site_fract_x
_atom_site_fract_y
_atom_site_fract_z
Si Si1 0.727848 0.882433 0.040576
Si Si2 0.674090 0.894464 0.723788
Si Si3 0.921411 0.390895 0.999211
Si Si4 0.169742 0.885586 0.225361
Si Si5 0.587333 0.743227 0.426243
Si Si6 0.773086 0.613270 0.706203
Si Si7 0.330923 0.712858 0.405455
O O1 0.640247 0.849065 0.054930
O O2 0.745928 0.856065 0.157086
O O3 0.724870 0.000000 0.035388
O O4 0.790461 0.854717 0.912656
O O5 0.762205 0.873148 0.717246
O O6 0.638366 0.808703 0.672001
O O7 0.672333 0.000000 0.669414
O O8 0.628918 0.900620 0.862982
O O9 0.943301 0.500000 0.947667
O O10 0.000000 0.340824 0.000000
O O11 0.098762 0.823670 0.311571
O O12 0.152826 0.000000 0.227271
O O13 0.500000 0.775851 0.500000
O O14 0.650183 0.828995 0.374790
O O15 0.614442 0.684995 0.522332
O O16 0.789150 0.500000 0.696581
O O17 0.698713 0.636778 0.668833
O O18 0.250000 0.750000 0.500000
#
# Coordination Sequence:
#
# PCOD9197839 Si02
#       7
#     8   8   8   8   8   8   8
#     4   8  16  31  54  82 109 138 185 232 273 333
#     4   9  16  30  54  78 102 138 182 228 271 313
#     4   8  14  25  44  75 112 141 169 212 266 327
#     4   9  17  34  58  83 107 139 185 234 280 321
#     4  11  24  39  54  82 118 148 188 235 275 333
#     4  10  21  38  59  83 112 150 186 227 283 337
#     4  10  20  36  53  78 108 141 191 231 264 332
#
# _framework density 19.535236000000001
#
# number of rings (size 3 to 8) (size 9 to 14) (size 15 to 20)
#    0.000    2.714    2.857    1.714    0.000    5.143 
#    0.000    1.429    0.000    0.000    0.000    3.000 
#    0.000    0.000    0.000    0.000    0.000    0.000 
#
# Total GULP energy -155894.793697 kJ/mol
# GULP energy per Si atom -5567.671203 kJ/mol
# Density = 1.949077 g / cm^3
# Si number density = 19.535236 Si / 1000 Ang^3
#
#
#
# Elastic Constant Matrix: (Units=GPa)
#
#
# Indices 1 2 3 4 5 6 
#
# 1 44.6146 20.1640 38.8190 0.0000 5.4797 0.0000
# 2 20.1640 68.2091 29.0160 0.0000 -3.3824 0.0000
# 3 38.8190 29.0160 91.9696 0.0000 14.9824 0.0000
# 4 0.0000 0.0000 0.0000 26.6235 0.0000 0.4151
# 5 5.4797 -3.3824 14.9824 0.0000 25.1467 0.0000
# 6 0.0000 0.0000 0.0000 0.4151 0.0000 14.7939
#
#
#
# Elastic Compliance Matrix: (Units=1/GPa)
#
#
# Indices 1 2 3 4 5 6 
#
# 1 0.036811 -0.004992 -0.013895 0.000000 -0.000414 0.000000
# 2 -0.004992 0.018484 -0.004770 0.000000 0.006416 0.000000
# 3 -0.013895 -0.004770 0.019773 0.000000 -0.009395 0.000000
# 4 0.000000 0.000000 0.000000 0.037577 0.000000 -0.001054
# 5 -0.000414 0.006416 -0.009395 0.000000 0.046317 0.000000
# 6 0.000000 0.000000 0.000000 -0.001054 0.000000 0.067625
#
#
# Mechanical properties :
#
#
# Convention : Reuss Voigt Hill
#
# Bulk Modulus (GPa) = 36.02950 42.31016 39.16983
# Shear Modulus (GPa) = 17.65831 21.09909 19.37870
#
# Velocity S-wave (km/s) = 3.00979 3.28998 3.15300
# Velocity P-wave (km/s) = 5.52828 6.01144 5.77491
#
# Compressibility (1/GPa) = 0.02775503
#
# Stress axis : x y z
#
# Youngs Moduli (GPa) = 27.16561 54.10189 50.57303
#
# Poissons Ratio (x) = 0.27006 0.70272
# Poissons Ratio (y) = 0.13560 0.24122
# Poissons Ratio (z) = 0.37747 0.25805
#
# Static dielectric constant tensor:
#      x y z
#    x 1.708120 0.000000 0.017300 
#    y 0.000000 1.874030 0.000000 
#    z 0.017300 0.000000 1.757570 
# 
# From -- ./inp_files/155987.got.cif
#   From: 2010.05.17/outbox.cif.g08.bks.cpg/sg12_78_cif.got.tgz:155987.got - 2010.06.03 13:09:07.
