data_PCOD9197450
_publ_section_title
;
Structure prediction by ZEFSAII (Michael W. Deem and Ramdas Pophale) SiO2 
 PCOD9197450
Probable space group: C 2/M
;
_chemical_formula_sum "Si O2"
_cell_formula_units_Z 64
_cell_length_a 16.817514
_cell_length_b 15.259384
_cell_length_c 14.948140
_cell_angle_alpha 90.000000
_cell_angle_beta 126.641790
_cell_angle_gamma 90.000000
_cell_volume 3077.991002
_symmetry_space_group_name_H-M "C 2/M"
_symmetry_group_IT_number 12
_symmetry_cell_setting 'monoclinic'
loop_
_space_group_symop_operation_xyz
x,y,z
-x,y,-z
-x,-y,-z
x,-y,z
1/2+x,1/2+y,z
1/2-x,1/2+y,-z
1/2-x,1/2-y,-z
1/2+x,1/2-y,z
loop_
_atom_site_type_symbol
_atom_site_label
_atom_site_fract_x
_atom_site_fract_y
_atom_site_fract_z
Si Si1 0.769015 0.685782 0.697670
Si Si2 0.893146 0.139448 0.745018
Si Si3 0.529763 0.097161 0.123537
Si Si4 0.245522 0.598149 0.492958
Si Si5 0.656593 0.402132 0.093666
Si Si6 0.842823 0.711173 0.231138
Si Si7 0.415218 0.272116 0.107194
Si Si8 0.474577 0.897257 0.588061
O O1 0.834569 0.771200 0.723933
O O2 0.852943 0.617362 0.787062
O O3 0.727528 0.656436 0.574124
O O4 0.689064 0.717147 0.716580
O O5 0.828812 0.096236 0.624854
O O6 0.896037 0.096105 0.844973
O O7 0.003244 0.165057 0.792038
O O8 0.466735 0.178785 0.119511
O O9 0.508349 0.000000 0.147914
O O10 0.500000 0.094979 0.000000
O O11 0.231154 0.500000 0.448860
O O12 0.139581 0.624548 0.465163
O O13 0.651831 0.500000 0.051209
O O14 0.768680 0.371398 0.189107
O O15 0.615733 0.325020 0.002474
O O16 0.833711 0.753396 0.127169
O O17 0.951768 0.670835 0.315911
O O18 0.500000 0.891104 0.500000
O O19 0.490710 0.000000 0.623753
#
# Coordination Sequence:
#
# PCOD9197450 Si02
#       8
#     8   8   8   8   8   8   8   8
#     4  10  21  37  56  84 122 162 199 244 298 362
#     4  10  21  38  62  88 117 152 199 251 308 371
#     4  10  20  37  63  91 120 159 207 258 310 367
#     4  11  22  38  62  89 119 157 202 250 305 371
#     4  11  23  40  63  89 121 160 201 252 312 370
#     4  11  23  38  58  85 124 163 203 250 303 365
#     4  11  23  40  62  90 122 159 207 257 307 364
#     4  10  20  35  59  92 123 152 196 256 316 369
#
# _framework density 20.792781999999999
#
# number of rings (size 3 to 8) (size 9 to 14) (size 15 to 20)
#    0.000    1.500    0.000    7.500    0.000    5.500 
#    0.000    2.500    0.000    0.750    0.000    0.000 
#    0.000    0.000    0.000    0.000    0.000    0.000 
#
# Total GULP energy -178610.305892 kJ/mol
# GULP energy per Si atom -5581.572059 kJ/mol
# Density = 2.074546 g / cm^3
# Si number density = 20.792782 Si / 1000 Ang^3
#
#
#
# Elastic Constant Matrix: (Units=GPa)
#
#
# Indices 1 2 3 4 5 6 
#
# 1 76.2097 36.6599 31.8748 0.0000 -18.4422 0.0000
# 2 36.6599 114.5345 38.2861 0.0000 -11.4986 0.0000
# 3 31.8748 38.2861 98.7784 0.0000 -15.1097 0.0000
# 4 0.0000 0.0000 0.0000 41.0162 0.0000 -0.5719
# 5 -18.4422 -11.4986 -15.1097 0.0000 32.8085 0.0000
# 6 0.0000 0.0000 0.0000 -0.5719 0.0000 16.0669
#
#
#
# Elastic Compliance Matrix: (Units=1/GPa)
#
#
# Indices 1 2 3 4 5 6 
#
# 1 0.018157 -0.004012 -0.003182 0.000000 0.007335 0.000000
# 2 -0.004012 0.011023 -0.002939 0.000000 0.000255 0.000000
# 3 -0.003182 -0.002939 0.012757 0.000000 0.003056 0.000000
# 4 0.000000 0.000000 0.000000 0.024393 0.000000 0.000868
# 5 0.007335 0.000255 0.003056 0.000000 0.036100 0.000000
# 6 0.000000 0.000000 0.000000 0.000868 0.000000 0.062271
#
#
# Mechanical properties :
#
#
# Convention : Reuss Voigt Hill
#
# Bulk Modulus (GPa) = 46.14284 55.90714 51.02499
# Shear Modulus (GPa) = 26.01581 30.15846 28.08714
#
# Velocity S-wave (km/s) = 3.54106 3.81258 3.67933
# Velocity P-wave (km/s) = 6.24169 6.80641 6.53016
#
# Compressibility (1/GPa) = 0.02167183
#
# Stress axis : x y z
#
# Youngs Moduli (GPa) = 55.07378 90.71916 78.38684
#
# Poissons Ratio (x) = 0.36393 0.24945
# Poissons Ratio (y) = 0.22093 0.23038
# Poissons Ratio (z) = 0.17526 0.26662
#
# Static dielectric constant tensor:
#      x y z
#    x 1.731670 0.000000 0.004590 
#    y 0.000000 1.757010 0.000000 
#    z 0.004590 0.000000 1.784700 
# 
# From -- ./inp_files/225725.got.cif
#   From: 2010.05.17/outbox.cif.g08.bks.cpg/sg12_113_cif.got.tgz:225725.got - 2010.06.03 13:09:07.
