data_PCOD9197410
_publ_section_title
;
Structure prediction by ZEFSAII (Michael W. Deem and Ramdas Pophale) SiO2 
 PCOD9197410
Probable space group: C 2/M
;
_chemical_formula_sum "Si O2"
_cell_formula_units_Z 56
_cell_length_a 19.381497
_cell_length_b 13.507604
_cell_length_c 13.173276
_cell_angle_alpha 90.000000
_cell_angle_beta 115.767250
_cell_angle_gamma 90.000000
_cell_volume 3105.815487
_symmetry_space_group_name_H-M "C 2/M"
_symmetry_group_IT_number 12
_symmetry_cell_setting 'monoclinic'
loop_
_space_group_symop_operation_xyz
x,y,z
-x,y,-z
-x,-y,-z
x,-y,z
1/2+x,1/2+y,z
1/2-x,1/2+y,-z
1/2-x,1/2-y,-z
1/2+x,1/2-y,z
loop_
_atom_site_type_symbol
_atom_site_label
_atom_site_fract_x
_atom_site_fract_y
_atom_site_fract_z
Si Si1 0.184163 0.282424 0.034336
Si Si2 0.437338 0.115734 0.186087
Si Si3 0.676561 0.271891 0.524130
Si Si4 0.910550 0.886169 0.913665
Si Si5 0.412472 0.249686 0.723982
Si Si6 0.279155 0.883583 0.732101
Si Si7 0.413740 0.884436 0.408338
O O1 0.125850 0.353762 0.936742
O O2 0.250000 0.250000 0.000000
O O3 0.137693 0.186602 0.044981
O O4 0.219387 0.336611 0.154999
O O5 0.507757 0.191542 0.220159
O O6 0.408073 0.126565 0.283316
O O7 0.460024 0.000000 0.187982
O O8 0.750000 0.250000 0.500000
O O9 0.608311 0.289049 0.400884
O O10 0.703496 0.355325 0.619847
O O11 0.649264 0.179212 0.573769
O O12 0.906058 0.838810 0.799188
O O13 0.884128 0.000000 0.900827
O O14 0.000000 0.883281 0.000000
O O15 0.349486 0.168726 0.718333
O O16 0.289849 0.000000 0.743900
O O17 0.500000 0.856478 0.500000
O O18 0.404386 0.000000 0.428120
#
# Coordination Sequence:
#
# PCOD9197410 Si02
#       7
#     8   8   8   8   8   8   8
#     4  11  23  40  60  87 122 157 195 250 303 356
#     4  11  21  35  61  93 121 153 196 248 307 358
#     4  10  21  37  57  84 121 160 193 239 294 352
#     4  10  21  39  61  86 115 155 202 243 290 355
#     4  10  20  37  60  90 118 153 196 253 298 349
#     4  10  22  38  57  84 120 160 199 239 293 354
#     4  10  20  35  59  90 119 151 193 245 300 353
#
# _framework density 18.03069
#
# number of rings (size 3 to 8) (size 9 to 14) (size 15 to 20)
#    0.000    1.714    2.857    1.714    0.000    4.000 
#    0.000   10.714    0.000    0.429    0.000    0.000 
#    0.000    0.000    0.000    0.000    0.000    0.000 
#
# Total GULP energy -156226.061954 kJ/mol
# GULP energy per Si atom -5579.502213 kJ/mol
# Density = 1.798965 g / cm^3
# Si number density = 18.030690 Si / 1000 Ang^3
#
#
#
# Elastic Constant Matrix: (Units=GPa)
#
#
# Indices 1 2 3 4 5 6 
#
# 1 53.6199 26.2247 26.5354 0.0000 -7.0858 0.0000
# 2 26.2247 109.0821 50.5930 0.0000 -4.5778 0.0000
# 3 26.5354 50.5930 130.4026 0.0000 0.6115 0.0000
# 4 0.0000 0.0000 0.0000 24.2175 0.0000 3.6456
# 5 -7.0858 -4.5778 0.6115 0.0000 23.0846 0.0000
# 6 0.0000 0.0000 0.0000 3.6456 0.0000 22.1570
#
#
#
# Elastic Compliance Matrix: (Units=1/GPa)
#
#
# Indices 1 2 3 4 5 6 
#
# 1 0.022928 -0.003739 -0.003245 0.000000 0.006382 0.000000
# 2 -0.003739 0.011916 -0.003868 0.000000 0.001318 0.000000
# 3 -0.003245 -0.003868 0.009839 0.000000 -0.002024 0.000000
# 4 0.000000 0.000000 0.000000 0.042341 0.000000 -0.006967
# 5 0.006382 0.001318 -0.002024 0.000000 0.045593 0.000000
# 6 0.000000 0.000000 0.000000 -0.006967 0.000000 0.046279
#
#
# Mechanical properties :
#
#
# Convention : Reuss Voigt Hill
#
# Bulk Modulus (GPa) = 43.51988 55.53454 49.52721
# Shear Modulus (GPa) = 24.00847 26.54189 25.27518
#
# Velocity S-wave (km/s) = 3.65298 3.84088 3.74811
# Velocity P-wave (km/s) = 6.47930 7.10892 6.80140
#
# Compressibility (1/GPa) = 0.02297800
#
# Stress axis : x y z
#
# Youngs Moduli (GPa) = 43.61515 83.92180 101.63510
#
# Poissons Ratio (x) = 0.31382 0.32977
# Poissons Ratio (y) = 0.16309 0.39316
# Poissons Ratio (z) = 0.14152 0.32464
#
# Static dielectric constant tensor:
#      x y z
#    x 1.604960 0.000000 0.039790 
#    y 0.000000 1.606350 0.000000 
#    z 0.039790 0.000000 1.514260 
# 
# From -- ./inp_files/165732.got.cif
#   From: 2010.05.17/outbox.cif.g08.bks.cpg/sg12_83_cif.got.tgz:165732.got - 2010.06.03 13:09:07.
