data_PCOD9197749
_publ_section_title
;
Structure prediction by ZEFSAII (Michael W. Deem and Ramdas Pophale) SiO2 
 PCOD9197749
Probable space group: C 2/M
;
_chemical_formula_sum "Si O2"
_cell_formula_units_Z 64
_cell_length_a 31.625086
_cell_length_b 16.477055
_cell_length_c 9.984426
_cell_angle_alpha 90.000000
_cell_angle_beta 35.741921
_cell_angle_gamma 90.000000
_cell_volume 3039.119690
_symmetry_space_group_name_H-M "C 2/M"
_symmetry_group_IT_number 12
_symmetry_cell_setting 'monoclinic'
loop_
_space_group_symop_operation_xyz
x,y,z
-x,y,-z
-x,-y,-z
x,-y,z
1/2+x,1/2+y,z
1/2-x,1/2+y,-z
1/2-x,1/2-y,-z
1/2+x,1/2-y,z
loop_
_atom_site_type_symbol
_atom_site_label
_atom_site_fract_x
_atom_site_fract_y
_atom_site_fract_z
Si Si1 0.057117 0.905955 0.973916
Si Si2 0.303858 0.307416 0.773212
Si Si3 0.805387 0.803781 0.452183
Si Si4 0.053582 0.591312 0.960874
Si Si5 0.669657 0.904980 0.111127
Si Si6 0.029703 0.827041 0.570859
Si Si7 0.525775 0.859394 0.581809
Si Si8 0.176366 0.404351 0.801570
O O1 0.009971 0.886242 0.225589
O O2 0.084356 0.000000 0.906902
O O3 0.117933 0.835400 0.800313
O O4 0.000000 0.899810 0.000000
O O5 0.310192 0.279616 0.599282
O O6 0.383136 0.323899 0.630748
O O7 0.250000 0.250000 0.000000
O O8 0.254402 0.388385 0.907149
O O9 0.750000 0.750000 0.500000
O O10 0.759492 0.887319 0.574650
O O11 0.066778 0.500000 0.872455
O O12 0.129610 0.631050 0.800015
O O13 0.000000 0.636565 0.000000
O O14 0.011773 0.588310 0.208425
O O15 0.612913 0.866468 0.359259
O O16 0.655257 0.000000 0.150266
O O17 0.652201 0.870178 0.007407
O O18 0.005831 0.733756 0.657579
O O19 0.000000 0.846391 0.500000
O O20 0.500000 0.884449 0.500000
O O21 0.161981 0.500000 0.839956
#
# Coordination Sequence:
#
# PCOD9197749 Si02
#       8
#     8   8   8   8   8   8   8   8
#     4  11  25  48  73 102 136 182 245 296 338 408
#     4  11  23  44  63  97 136 174 217 277 345 413
#     4  11  25  40  71 100 131 171 223 282 344 410
#     4  10  21  34  51  81 126 167 206 259 321 388
#     4  10  20  35  63  90 116 162 214 260 315 392
#     4  11  26  43  70  96 135 176 224 287 354 407
#     4  11  21  35  59  90 124 167 212 259 310 398
#     4   9  19  37  58  85 121 163 206 257 321 389
#
# _framework density 21.058730000000001
#
# number of rings (size 3 to 8) (size 9 to 14) (size 15 to 20)
#    0.000    1.500    3.750    0.750    3.500    3.250 
#    0.000    0.000    0.000    0.000    0.000    0.000 
#    0.000    0.000    0.000    0.000    0.000    0.000 
#
# Total GULP energy -178203.893575 kJ/mol
# GULP energy per Si atom -5568.871674 kJ/mol
# Density = 2.101080 g / cm^3
# Si number density = 21.058730 Si / 1000 Ang^3
#
#
#
# Elastic Constant Matrix: (Units=GPa)
#
#
# Indices 1 2 3 4 5 6 
#
# 1 146.2893 22.7247 49.1563 0.0000 -8.2155 0.0000
# 2 22.7247 52.8411 18.0937 0.0000 4.0584 0.0000
# 3 49.1563 18.0937 91.4110 0.0000 -15.1604 0.0000
# 4 0.0000 0.0000 0.0000 29.4213 0.0000 -2.4974
# 5 -8.2155 4.0584 -15.1604 0.0000 31.8445 0.0000
# 6 0.0000 0.0000 0.0000 -2.4974 0.0000 17.4750
#
#
#
# Elastic Compliance Matrix: (Units=1/GPa)
#
#
# Indices 1 2 3 4 5 6 
#
# 1 0.008599 -0.002352 -0.004061 0.000000 0.000585 0.000000
# 2 -0.002352 0.021669 -0.003890 0.000000 -0.005220 0.000000
# 3 -0.004061 -0.003890 0.014985 0.000000 0.006582 0.000000
# 4 0.000000 0.000000 0.000000 0.034406 0.000000 0.004917
# 5 0.000585 -0.005220 0.006582 0.000000 0.035352 0.000000
# 6 0.000000 0.000000 0.000000 0.004917 0.000000 0.057927
#
#
# Mechanical properties :
#
#
# Convention : Reuss Voigt Hill
#
# Bulk Modulus (GPa) = 40.57478 52.27676 46.42577
# Shear Modulus (GPa) = 24.78169 29.11927 26.95048
#
# Velocity S-wave (km/s) = 3.43416 3.72259 3.58128
# Velocity P-wave (km/s) = 5.91894 6.58445 6.26055
#
# Compressibility (1/GPa) = 0.02464585
#
# Stress axis : x y z
#
# Youngs Moduli (GPa) = 116.29650 46.14849 66.73220
#
# Poissons Ratio (x) = 0.10855 0.27103
# Poissons Ratio (y) = 0.27354 0.25959
# Poissons Ratio (z) = 0.47233 0.17952
#
# Static dielectric constant tensor:
#      x y z
#    x 1.903870 0.000000 -0.003090 
#    y 0.000000 1.795960 0.000000 
#    z -0.003090 0.000000 1.760760 
# 
# From -- ./inp_files/112839.got.cif
#   From: 2010.05.17/outbox.cif.g08.bks.cpg/sg12_57_cif.got.tgz:112839.got - 2010.06.03 13:09:07.
