data_PCOD9197651
_publ_section_title
;
Structure prediction by ZEFSAII (Michael W. Deem and Ramdas Pophale) SiO2 
 PCOD9197651
Probable space group: C 2/M
;
_chemical_formula_sum "Si O2"
_cell_formula_units_Z 58
_cell_length_a 24.886202
_cell_length_b 7.862169
_cell_length_c 12.462612
_cell_angle_alpha 90.000000
_cell_angle_beta 98.980567
_cell_angle_gamma 90.000000
_cell_volume 2408.536890
_symmetry_space_group_name_H-M "C 2/M"
_symmetry_group_IT_number 12
_symmetry_cell_setting 'monoclinic'
loop_
_space_group_symop_operation_xyz
x,y,z
-x,y,-z
-x,-y,-z
x,-y,z
1/2+x,1/2+y,z
1/2-x,1/2+y,-z
1/2-x,1/2-y,-z
1/2+x,1/2-y,z
loop_
_atom_site_type_symbol
_atom_site_label
_atom_site_fract_x
_atom_site_fract_y
_atom_site_fract_z
Si Si1 0.000000 0.500000 0.500000
Si Si2 0.114232 0.292730 0.466754
Si Si3 0.629876 0.195525 0.120277
Si Si4 0.998127 0.197242 0.347767
Si Si5 0.689844 0.697586 0.940178
Si Si6 0.513118 0.306358 0.116217
Si Si7 0.710815 0.798182 0.328451
Si Si8 0.173702 0.304443 0.690945
O O1 0.023843 0.347285 0.585679
O O2 0.100741 0.500000 0.461841
O O3 0.062748 0.203876 0.396584
O O4 0.166689 0.268135 0.407001
O O5 0.132179 0.231277 0.590128
O O6 0.578225 0.303470 0.137863
O O7 0.681600 0.246708 0.207291
O O8 0.617351 0.000000 0.145226
O O9 0.646032 0.208797 0.001355
O O10 0.991344 0.255133 0.222617
O O11 0.980476 0.000000 0.356845
O O12 0.683443 0.500000 0.961725
O O13 0.680647 0.724681 0.810661
O O14 0.750000 0.750000 0.000000
O O15 0.492239 0.500000 0.103415
O O16 0.500000 0.216185 0.000000
O O17 0.767699 0.703873 0.349557
O O18 0.722928 0.000000 0.331008
O O19 0.158938 0.500000 0.703200
#
# Coordination Sequence:
#
# PCOD9197651 Si02
#       8
#     2   8   8   8   8   8   8   8
#     4  12  26  48  74  98 144 168 230 282 344 406
#     4  10  21  41  64  93 133 172 218 277 324 387
#     4  11  22  38  65  96 126 165 213 263 328 392
#     4  11  24  45  75 102 134 183 222 274 351 417
#     4  12  24  40  60  84 126 172 219 272 324 387
#     4  10  23  45  71 102 134 167 221 284 338 403
#     4  10  20  35  61  90 128 170 213 264 321 376
#     4  11  23  37  59  91 131 176 222 266 324 388
#
# _framework density 24.081009000000002
#
# number of rings (size 3 to 8) (size 9 to 14) (size 15 to 20)
#    0.000    1.241    3.448    2.690    0.966    2.483 
#    2.483    0.000    0.000    0.000    0.000    0.000 
#    0.000    0.000    0.000    0.000    0.000    0.000 
#
# Total GULP energy -161947.235175 kJ/mol
# GULP energy per Si atom -5584.387420 kJ/mol
# Density = 2.402620 g / cm^3
# Si number density = 24.081009 Si / 1000 Ang^3
#
#
#
# Elastic Constant Matrix: (Units=GPa)
#
#
# Indices 1 2 3 4 5 6 
#
# 1 40.7783 11.9998 16.5060 0.0000 -1.8192 0.0000
# 2 11.9998 77.6672 33.0140 0.0000 -6.3193 0.0000
# 3 16.5060 33.0140 150.4034 0.0000 -1.8544 0.0000
# 4 0.0000 0.0000 0.0000 16.4159 0.0000 -5.9956
# 5 -1.8192 -6.3193 -1.8544 0.0000 36.1023 0.0000
# 6 0.0000 0.0000 0.0000 -5.9956 0.0000 25.7615
#
#
#
# Elastic Compliance Matrix: (Units=1/GPa)
#
#
# Indices 1 2 3 4 5 6 
#
# 1 0.026353 -0.003078 -0.002208 0.000000 0.000676 0.000000
# 2 -0.003078 0.014758 -0.002874 0.000000 0.002281 0.000000
# 3 -0.002208 -0.002874 0.007519 0.000000 -0.000228 0.000000
# 4 0.000000 0.000000 0.000000 0.066576 0.000000 0.015494
# 5 0.000676 0.002281 -0.000228 0.000000 0.028121 0.000000
# 6 0.000000 0.000000 0.000000 0.015494 0.000000 0.042424
#
#
# Mechanical properties :
#
#
# Convention : Reuss Voigt Hill
#
# Bulk Modulus (GPa) = 30.94981 43.54318 37.24650
# Shear Modulus (GPa) = 23.49197 29.47788 26.48493
#
# Velocity S-wave (km/s) = 3.12675 3.50253 3.31996
# Velocity P-wave (km/s) = 5.09075 5.87181 5.49517
#
# Compressibility (1/GPa) = 0.03231038
#
# Stress axis : x y z
#
# Youngs Moduli (GPa) = 37.94706 67.75987 132.99560
#
# Poissons Ratio (x) = 0.20856 0.29367
# Poissons Ratio (y) = 0.11680 0.38216
# Poissons Ratio (z) = 0.08379 0.19471
#
# Static dielectric constant tensor:
#      x y z
#    x 1.810970 0.000000 0.018530 
#    y 0.000000 1.834460 0.000000 
#    z 0.018530 0.000000 1.946410 
# 
# From -- ./inp_files/186757.got.cif
#   From: 2010.05.17/outbox.cif.g08.bks.cpg/sg12_94_cif.got.tgz:186757.got - 2010.06.03 13:09:07.
