data_PCOD9197009
_publ_section_title
;
Structure prediction by ZEFSAII (Michael W. Deem and Ramdas Pophale) SiO2 
 PCOD9197009
Probable space group: C 2/M
;
_chemical_formula_sum "Si O2"
_cell_formula_units_Z 52
_cell_length_a 26.436715
_cell_length_b 11.972502
_cell_length_c 17.751213
_cell_angle_alpha 90.000000
_cell_angle_beta 29.031390
_cell_angle_gamma 90.000000
_cell_volume 2726.595009
_symmetry_space_group_name_H-M "C 2/M"
_symmetry_group_IT_number 12
_symmetry_cell_setting 'monoclinic'
loop_
_space_group_symop_operation_xyz
x,y,z
-x,y,-z
-x,-y,-z
x,-y,z
1/2+x,1/2+y,z
1/2-x,1/2+y,-z
1/2-x,1/2-y,-z
1/2+x,1/2-y,z
loop_
_atom_site_type_symbol
_atom_site_label
_atom_site_fract_x
_atom_site_fract_y
_atom_site_fract_z
Si Si1 0.701811 0.126801 0.227715
Si Si2 0.798031 0.378309 0.444864
Si Si3 0.574531 0.370565 0.559896
Si Si4 0.568911 0.365549 0.109643
Si Si5 0.763449 0.319583 0.645775
Si Si6 0.000000 0.221162 0.500000
Si Si7 0.554663 0.770818 0.854959
O O1 0.728098 0.129599 0.282892
O O2 0.601006 0.203492 0.349941
O O3 0.677768 0.000000 0.236393
O O4 0.808206 0.163574 0.047627
O O5 0.743717 0.500000 0.500160
O O6 0.750000 0.250000 0.500000
O O7 0.823441 0.380913 0.500222
O O8 0.893036 0.365446 0.264303
O O9 0.596518 0.500000 0.539852
O O10 0.496750 0.337801 0.729522
O O11 0.681127 0.300943 0.423975
O O12 0.524969 0.347519 0.542779
O O13 0.563395 0.500000 0.105809
O O14 0.517536 0.301889 0.106165
O O15 0.645384 0.308745 0.771086
O O16 0.500000 0.817560 0.000000
#
# Coordination Sequence:
#
# PCOD9197009 Si02
#       7
#     8   8   8   8   8   4   8
#     4  10  20  36  58  87 116 150 197 250 308 361
#     4  10  22  37  56  83 118 163 208 249 293 345
#     4  10  21  39  61  87 113 152 203 251 301 366
#     4  10  21  36  59  87 121 159 201 248 297 360
#     4  10  20  35  58  85 120 157 198 250 294 351
#     4  10  22  38  62  86 112 150 190 256 314 372
#     4  11  21  36  56  85 125 163 202 241 293 357
#
# _framework density 19.071406
#
# number of rings (size 3 to 8) (size 9 to 14) (size 15 to 20)
#    0.000    1.846    3.077    0.923    0.000    6.769 
#    0.000    0.000    0.000    0.000    0.000    0.000 
#    0.000    0.000    0.000    0.000    0.000    0.000 
#
# Total GULP energy -144816.895359 kJ/mol
# GULP energy per Si atom -5569.880591 kJ/mol
# Density = 1.902800 g / cm^3
# Si number density = 19.071406 Si / 1000 Ang^3
#
#
#
# Elastic Constant Matrix: (Units=GPa)
#
#
# Indices 1 2 3 4 5 6 
#
# 1 57.9265 8.0423 8.9208 0.0000 1.0488 0.0000
# 2 8.0423 85.7314 23.2989 0.0000 -7.7559 0.0000
# 3 8.9208 23.2989 90.0049 0.0000 9.2377 0.0000
# 4 0.0000 0.0000 0.0000 18.6134 0.0000 -0.4757
# 5 1.0488 -7.7559 9.2377 0.0000 35.4590 0.0000
# 6 0.0000 0.0000 0.0000 -0.4757 0.0000 2.8201
#
#
#
# Elastic Compliance Matrix: (Units=1/GPa)
#
#
# Indices 1 2 3 4 5 6 
#
# 1 0.017666 -0.001329 -0.001360 0.000000 -0.000459 0.000000
# 2 -0.001329 0.013135 -0.003665 0.000000 0.003867 0.000000
# 3 -0.001360 -0.003665 0.012609 0.000000 -0.004046 0.000000
# 4 0.000000 0.000000 0.000000 0.053957 0.000000 0.009102
# 5 -0.000459 0.003867 -0.004046 0.000000 0.030115 0.000000
# 6 0.000000 0.000000 0.000000 0.009102 0.000000 0.356132
#
#
# Mechanical properties :
#
#
# Convention : Reuss Voigt Hill
#
# Bulk Modulus (GPa) = 32.57172 34.90962 33.74067
# Shear Modulus (GPa) = 9.87057 24.27189 17.07123
#
# Velocity S-wave (km/s) = 2.27746 3.57134 2.99510
# Velocity P-wave (km/s) = 4.90221 5.94562 5.44895
#
# Compressibility (1/GPa) = 0.03070148
#
# Stress axis : x y z
#
# Youngs Moduli (GPa) = 56.60746 76.13247 79.30590
#
# Poissons Ratio (x) = 0.10119 0.10784
# Poissons Ratio (y) = 0.07524 0.29068
# Poissons Ratio (z) = 0.07697 0.27905
#
# Static dielectric constant tensor:
#      x y z
#    x 1.663230 0.000000 0.011960 
#    y 0.000000 1.683230 0.000000 
#    z 0.011960 0.000000 1.736990 
# 
# From -- ./inp_files/293072.got.cif
#   From: 2010.05.17/outbox.cif.g08.bks.cpg/sg12_147_cif.got.tgz:293072.got - 2010.06.03 13:09:07.
