data_PCOD9197484
_publ_section_title
;
Structure prediction by ZEFSAII (Michael W. Deem and Ramdas Pophale) SiO2 
 PCOD9197484
Probable space group: C 2/M
;
_chemical_formula_sum "Si O2"
_cell_formula_units_Z 44
_cell_length_a 26.594593
_cell_length_b 11.405070
_cell_length_c 16.002040
_cell_angle_alpha 90.000000
_cell_angle_beta 22.319218
_cell_angle_gamma 90.000000
_cell_volume 1843.245883
_symmetry_space_group_name_H-M "C 2/M"
_symmetry_group_IT_number 12
_symmetry_cell_setting 'monoclinic'
loop_
_space_group_symop_operation_xyz
x,y,z
-x,y,-z
-x,-y,-z
x,-y,z
1/2+x,1/2+y,z
1/2-x,1/2+y,-z
1/2-x,1/2-y,-z
1/2+x,1/2-y,z
loop_
_atom_site_type_symbol
_atom_site_label
_atom_site_fract_x
_atom_site_fract_y
_atom_site_fract_z
Si Si1 0.653032 0.807295 0.550085
Si Si2 0.609519 0.000000 0.477164
Si Si3 0.083844 0.126345 0.264069
Si Si4 0.075151 0.871066 0.796306
Si Si5 0.226913 0.131450 0.301750
Si Si6 0.717304 0.194736 0.181189
O O1 0.768539 0.872159 0.423606
O O2 0.559135 0.735119 0.756738
O O3 0.733424 0.706966 0.375273
O O4 0.592923 0.896289 0.575167
O O5 0.644542 0.102278 0.352536
O O6 0.123917 0.234447 0.260551
O O7 0.930919 0.127431 0.475323
O O8 0.115033 0.000000 0.257575
O O9 0.171932 0.135341 0.045940
O O10 0.033585 0.000000 0.826465
O O11 0.000000 0.856893 0.000000
O O12 0.281115 0.205949 0.141632
O O13 0.278151 0.000000 0.230165
#
# Coordination Sequence:
#
# PCOD9197484 Si02
#       6
#     8   4   8   8   8   8
#     4  10  21  38  62  88 127 148 199 246 305 352
#     4  10  20  38  57  86 121 166 182 250 302 354
#     4  10  20  37  60  87 112 160 213 251 283 352
#     4  10  21  40  67  94 113 157 200 242 294 369
#     4  10  21  37  59  86 115 158 202 253 290 346
#     4  10  20  35  60  82 121 157 201 249 304 338
#
# _framework density 23.870932
#
# number of rings (size 3 to 8) (size 9 to 14) (size 15 to 20)
#    0.000    2.000    1.818    1.636    0.000    4.364 
#    0.000    7.727    8.000    0.000    0.000    0.000 
#    0.000    0.000    0.000    0.000    0.000    0.000 
#
# Total GULP energy -122505.377738 kJ/mol
# GULP energy per Si atom -5568.426261 kJ/mol
# Density = 2.381660 g / cm^3
# Si number density = 23.870932 Si / 1000 Ang^3
#
#
#
# Elastic Constant Matrix: (Units=GPa)
#
#
# Indices 1 2 3 4 5 6 
#
# 1 58.4687 40.2785 36.3435 0.0000 14.4118 0.0000
# 2 40.2785 214.2330 55.6838 0.0000 31.8818 0.0000
# 3 36.3435 55.6838 105.4152 0.0000 25.6352 0.0000
# 4 0.0000 0.0000 0.0000 25.6738 0.0000 14.5197
# 5 14.4118 31.8818 25.6352 0.0000 41.7413 0.0000
# 6 0.0000 0.0000 0.0000 14.5197 0.0000 23.4523
#
#
#
# Elastic Compliance Matrix: (Units=1/GPa)
#
#
# Indices 1 2 3 4 5 6 
#
# 1 0.023162 -0.002404 -0.006133 0.000000 -0.002394 0.000000
# 2 -0.002404 0.005953 -0.001660 0.000000 -0.002697 0.000000
# 3 -0.006133 -0.001660 0.013700 0.000000 -0.005029 0.000000
# 4 0.000000 0.000000 0.000000 0.059936 0.000000 -0.037107
# 5 -0.002394 -0.002697 -0.005029 0.000000 0.029932 0.000000
# 6 0.000000 0.000000 0.000000 -0.037107 0.000000 0.065613
#
#
# Mechanical properties :
#
#
# Convention : Reuss Voigt Hill
#
# Bulk Modulus (GPa) = 44.60151 71.41428 58.00789
# Shear Modulus (GPa) = 22.10783 34.56088 28.33436
#
# Velocity S-wave (km/s) = 3.04656 3.80915 3.44900
# Velocity P-wave (km/s) = 5.57677 7.02339 6.34146
#
# Compressibility (1/GPa) = 0.02242077
#
# Stress axis : x y z
#
# Youngs Moduli (GPa) = 43.17437 167.99372 72.99079
#
# Poissons Ratio (x) = 0.40391 0.44767
# Poissons Ratio (y) = 0.10381 0.12113
# Poissons Ratio (z) = 0.26480 0.27879
#
# Static dielectric constant tensor:
#      x y z
#    x 1.915900 0.000000 -0.000550 
#    y 0.000000 1.912920 0.000000 
#    z -0.000550 0.000000 1.911810 
# 
# From -- ./inp_files/250486.got.cif
#   From: 2010.05.17/outbox.cif.g08.bks.cpg/sg12_126_cif.got.tgz:250486.got - 2010.06.03 13:09:07.
