data_PCOD9197632
_publ_section_title
;
Structure prediction by ZEFSAII (Michael W. Deem and Ramdas Pophale) SiO2 
 PCOD9197632
Probable space group: C 2/M
;
_chemical_formula_sum "Si O2"
_cell_formula_units_Z 56
_cell_length_a 20.673674
_cell_length_b 29.645328
_cell_length_c 8.833987
_cell_angle_alpha 90.000000
_cell_angle_beta 149.092576
_cell_angle_gamma 90.000000
_cell_volume 2780.993836
_symmetry_space_group_name_H-M "C 2/M"
_symmetry_group_IT_number 12
_symmetry_cell_setting 'monoclinic'
loop_
_space_group_symop_operation_xyz
x,y,z
-x,y,-z
-x,-y,-z
x,-y,z
1/2+x,1/2+y,z
1/2-x,1/2+y,-z
1/2-x,1/2-y,-z
1/2+x,1/2-y,z
loop_
_atom_site_type_symbol
_atom_site_label
_atom_site_fract_x
_atom_site_fract_y
_atom_site_fract_z
Si Si1 0.614207 0.642670 0.325555
Si Si2 0.959218 0.354864 0.748438
Si Si3 0.186290 0.597194 0.079395
Si Si4 0.699634 0.000000 0.758504
Si Si5 0.762685 0.901998 0.882539
Si Si6 0.241078 0.290217 0.599741
Si Si7 0.412337 0.000000 0.120470
Si Si8 0.556838 0.317232 0.776950
O O1 0.690627 0.607957 0.578052
O O2 0.704714 0.667632 0.389061
O O3 0.552444 0.678639 0.317161
O O4 0.500000 0.622512 0.000000
O O5 0.849169 0.384237 0.449971
O O6 0.899271 0.304842 0.634848
O O7 0.000000 0.367855 0.000000
O O8 0.083906 0.363856 0.903454
O O9 0.215748 0.598675 0.961413
O O10 0.133519 0.548811 0.026759
O O11 0.778220 0.044981 0.881952
O O12 0.563177 0.000000 0.404669
O O13 0.646728 0.000000 0.826409
O O14 0.878863 0.867312 0.105251
O O15 0.250000 0.250000 0.500000
O O16 0.332460 0.286614 0.928605
O O17 0.500000 0.304832 0.500000
#
# Coordination Sequence:
#
# PCOD9197632 Si02
#       8
#     8   8   8   4   8   8   4   8
#     4  10  21  39  62  82 118 164 198 239 304 364
#     4  11  21  34  60  89 117 153 196 244 306 366
#     4  11  19  37  60  89 122 156 204 243 300 350
#     4   9  16  32  52  89 122 156 197 249 300 337
#     4  10  20  35  61  87 121 158 205 247 290 352
#     4  10  23  42  65  87 115 151 197 249 312 369
#     4   9  18  30  56  86 124 160 194 244 302 350
#     4  10  20  39  64  88 114 163 203 241 291 360
#
# _framework density 20.136686999999998
#
# number of rings (size 3 to 8) (size 9 to 14) (size 15 to 20)
#    0.000    1.857    4.286    0.429    0.000    1.714 
#    0.000    3.571    3.143    0.000    0.000    0.000 
#    0.000    0.000    0.000    0.000    0.000    0.000 
#
# Total GULP energy -156121.408056 kJ/mol
# GULP energy per Si atom -5575.764573 kJ/mol
# Density = 2.009086 g / cm^3
# Si number density = 20.136687 Si / 1000 Ang^3
#
#
#
# Elastic Constant Matrix: (Units=GPa)
#
#
# Indices 1 2 3 4 5 6 
#
# 1 57.2586 9.1274 28.1124 0.0000 -10.4298 0.0000
# 2 9.1274 79.4483 42.7103 0.0000 -6.8762 0.0000
# 3 28.1124 42.7103 134.4188 0.0000 -32.4240 0.0000
# 4 0.0000 0.0000 0.0000 82.4100 0.0000 -47.9165
# 5 -10.4298 -6.8762 -32.4240 0.0000 36.8627 0.0000
# 6 0.0000 0.0000 0.0000 -47.9165 0.0000 52.2326
#
#
#
# Elastic Compliance Matrix: (Units=1/GPa)
#
#
# Indices 1 2 3 4 5 6 
#
# 1 0.019641 -0.000188 -0.003447 0.000000 0.002490 0.000000
# 2 -0.000188 0.015275 -0.005255 0.000000 -0.001826 0.000000
# 3 -0.003447 -0.005255 0.011879 0.000000 0.008493 0.000000
# 4 0.000000 0.000000 0.000000 0.026006 0.000000 0.023857
# 5 0.002490 -0.001826 0.008493 0.000000 0.034962 0.000000
# 6 0.000000 0.000000 0.000000 0.023857 0.000000 0.041031
#
#
# Mechanical properties :
#
#
# Convention : Reuss Voigt Hill
#
# Bulk Modulus (GPa) = 34.46506 47.89178 41.17842
# Shear Modulus (GPa) = 28.36980 47.04611 37.70795
#
# Velocity S-wave (km/s) = 3.75755 4.83881 4.33205
# Velocity P-wave (km/s) = 5.99819 7.41982 6.74656
#
# Compressibility (1/GPa) = 0.02901489
#
# Stress axis : x y z
#
# Youngs Moduli (GPa) = 50.91478 65.46565 84.18466
#
# Poissons Ratio (x) = 0.01228 0.29023
# Poissons Ratio (y) = 0.00955 0.44236
# Poissons Ratio (z) = 0.17553 0.34400
#
# Static dielectric constant tensor:
#      x y z
#    x 1.724290 0.000000 0.000660 
#    y 0.000000 1.756700 0.000000 
#    z 0.000660 0.000000 1.726950 
# 
# From -- ./inp_files/91660.got.cif
#   From: 2010.05.17/outbox.cif.g08.bks.cpg/sg12_46_cif.got.tgz:91660.got - 2010.06.03 13:09:07.
