data_PCOD9197031
_publ_section_title
;
Structure prediction by ZEFSAII (Michael W. Deem and Ramdas Pophale) SiO2 
 PCOD9197031
Probable space group: C 2/M
;
_chemical_formula_sum "Si O2"
_cell_formula_units_Z 64
_cell_length_a 18.808437
_cell_length_b 8.885546
_cell_length_c 34.898840
_cell_angle_alpha 90.000000
_cell_angle_beta 36.393644
_cell_angle_gamma 90.000000
_cell_volume 3460.539639
_symmetry_space_group_name_H-M "C 2/M"
_symmetry_group_IT_number 12
_symmetry_cell_setting 'monoclinic'
loop_
_space_group_symop_operation_xyz
x,y,z
-x,y,-z
-x,-y,-z
x,-y,z
1/2+x,1/2+y,z
1/2-x,1/2+y,-z
1/2-x,1/2-y,-z
1/2+x,1/2-y,z
loop_
_atom_site_type_symbol
_atom_site_label
_atom_site_fract_x
_atom_site_fract_y
_atom_site_fract_z
Si Si1 0.067610 0.179538 0.071754
Si Si2 0.709107 0.320459 0.811293
Si Si3 0.289335 0.178911 0.921789
Si Si4 0.931938 0.820099 0.432211
Si Si5 0.630794 0.679227 0.191759
Si Si6 0.289505 0.319267 0.696622
Si Si7 0.768753 0.179113 0.429917
Si Si8 0.633057 0.820028 0.689656
O O1 0.112804 0.267711 0.089528
O O2 0.930992 0.215148 0.121177
O O3 0.075818 0.000000 0.076102
O O4 0.161073 0.212414 0.997114
O O5 0.724439 0.500000 0.807672
O O6 0.792620 0.240027 0.805906
O O7 0.743505 0.265040 0.754087
O O8 0.310025 0.263370 0.873245
O O9 0.298710 0.000000 0.911666
O O10 0.870714 0.786321 0.417676
O O11 0.854796 0.735287 0.497672
O O12 0.071539 0.781072 0.371247
O O13 0.920345 0.000000 0.443403
O O14 0.625829 0.500000 0.194768
O O15 0.497087 0.745272 0.251919
O O16 0.283356 0.500000 0.705778
O O17 0.208804 0.283015 0.694827
O O18 0.799566 0.261138 0.377240
O O19 0.766762 0.000000 0.425074
O O20 0.620203 0.000000 0.693312
#
# Coordination Sequence:
#
# PCOD9197031 Si02
#       8
#     8   8   8   8   8   8   8   8
#     4   9  20  38  60  87 118 152 189 233 284 338
#     4  11  23  39  60  85 114 149 190 236 286 339
#     4  10  20  37  61  87 117 152 191 233 281 339
#     4   9  19  37  58  80 111 150 189 231 282 338
#     4  12  25  40  58  82 115 151 191 238 287 340
#     4  10  22  39  59  84 114 150 191 236 285 337
#     4  10  20  35  58  86 115 149 189 234 283 336
#     4  11  23  39  60  85 114 150 192 236 286 342
#
# _framework density 18.494225
#
# number of rings (size 3 to 8) (size 9 to 14) (size 15 to 20)
#    0.000    1.750    0.000    4.125    0.000    7.500 
#    0.000    5.000    0.000    0.000    0.000    0.000 
#    0.000    0.000    0.000    0.000    0.000    0.000 
#
# Total GULP energy -178879.488729 kJ/mol
# GULP energy per Si atom -5589.984023 kJ/mol
# Density = 1.845213 g / cm^3
# Si number density = 18.494225 Si / 1000 Ang^3
#
#
#
# Elastic Constant Matrix: (Units=GPa)
#
#
# Indices 1 2 3 4 5 6 
#
# 1 194.2888 108.1489 139.2250 -0.0036 -4.0932 -0.0005
# 2 108.1489 97.3080 93.3916 -0.0016 4.9464 0.0009
# 3 139.2250 93.3916 149.5786 -0.0037 5.1807 0.0014
# 4 -0.0036 -0.0016 -0.0037 31.8444 0.0006 4.7637
# 5 -4.0932 4.9464 5.1807 0.0006 37.6700 -0.0010
# 6 -0.0005 0.0009 0.0014 4.7637 -0.0010 28.3276
#
#
#
# Elastic Compliance Matrix: (Units=1/GPa)
#
#
# Indices 1 2 3 4 5 6 
#
# 1 0.019778 -0.010991 -0.011727 0.000000 0.005205 0.000002
# 2 -0.010991 0.031802 -0.009485 0.000000 -0.004066 -0.000001
# 3 -0.011727 -0.009485 0.023636 0.000001 -0.003279 -0.000001
# 4 0.000000 0.000000 0.000001 0.032213 -0.000001 -0.005417
# 5 0.005205 -0.004066 -0.003279 -0.000001 0.028097 0.000002
# 6 0.000002 -0.000001 -0.000001 -0.005417 0.000002 0.036212
#
#
# Mechanical properties :
#
#
# Convention : Reuss Voigt Hill
#
# Bulk Modulus (GPa) = 92.50224 124.74517 108.62370
# Shear Modulus (GPa) = 20.85519 26.26239 23.55879
#
# Velocity S-wave (km/s) = 3.36171 3.77242 3.57297
# Velocity P-wave (km/s) = 8.07425 9.30442 8.71108
#
# Compressibility (1/GPa) = 0.01081055
#
# Stress axis : x y z
#
# Youngs Moduli (GPa) = 50.56083 31.44425 42.30798
#
# Poissons Ratio (x) = 0.34561 0.49614
# Poissons Ratio (y) = 0.55573 0.40129
# Poissons Ratio (z) = 0.59292 0.29825
#
# Static dielectric constant tensor:
#      x y z
#    x 1.608040 0.000000 -0.009720 
#    y 0.000000 1.615200 0.000000 
#    z -0.009720 0.000000 1.613550 
# 
# From -- ./inp_files/378083.got.cif
#   From: 2010.05.17/outbox.cif.g08.bks.cpg/sg12_190_cif.got.tgz:378083.got - 2010.06.03 13:09:07.
