data_PCOD9197597
_publ_section_title
;
Structure prediction by ZEFSAII (Michael W. Deem and Ramdas Pophale) SiO2 
 PCOD9197597
Probable space group: C 2/M
;
_chemical_formula_sum "Si O2"
_cell_formula_units_Z 56
_cell_length_a 24.248194
_cell_length_b 13.289048
_cell_length_c 9.827944
_cell_angle_alpha 90.000000
_cell_angle_beta 59.827617
_cell_angle_gamma 90.000000
_cell_volume 2737.849428
_symmetry_space_group_name_H-M "C 2/M"
_symmetry_group_IT_number 12
_symmetry_cell_setting 'monoclinic'
loop_
_space_group_symop_operation_xyz
x,y,z
-x,y,-z
-x,-y,-z
x,-y,z
1/2+x,1/2+y,z
1/2-x,1/2+y,-z
1/2-x,1/2-y,-z
1/2+x,1/2-y,z
loop_
_atom_site_type_symbol
_atom_site_label
_atom_site_fract_x
_atom_site_fract_y
_atom_site_fract_z
Si Si1 0.058306 0.720716 0.335065
Si Si2 0.842153 0.321989 0.259252
Si Si3 0.709609 0.614534 0.761490
Si Si4 0.339306 0.385969 0.875703
Si Si5 0.545635 0.880638 0.065049
Si Si6 0.855278 0.674928 0.537582
Si Si7 0.797100 0.112451 0.638895
O O1 0.104862 0.808327 0.225125
O O2 0.035808 0.665569 0.226192
O O3 0.099232 0.653374 0.391588
O O4 0.000000 0.758481 0.500000
O O5 0.828375 0.202309 0.268627
O O6 0.875109 0.353621 0.360163
O O7 0.771549 0.369633 0.342212
O O8 0.883784 0.355799 0.079769
O O9 0.692438 0.500000 0.745732
O O10 0.784923 0.630433 0.648495
O O11 0.693721 0.631319 0.939709
O O12 0.364777 0.500000 0.844803
O O13 0.290071 0.379621 0.811414
O O14 0.537645 0.000000 0.084262
O O15 0.500000 0.841383 0.000000
O O16 0.844225 0.796145 0.547366
O O17 0.820291 0.000000 0.578677
#
# Coordination Sequence:
#
# PCOD9197597 Si02
#       7
#     8   8   8   8   8   8   8
#     4  11  23  42  64  85 117 160 202 250 295 344
#     4  11  21  37  58  88 122 159 197 239 292 356
#     4  10  20  35  60  92 127 157 191 243 298 352
#     4   9  19  36  60  93 123 153 195 244 298 356
#     4  11  25  43  63  84 113 155 201 247 294 347
#     4  10  23  35  57  91 123 156 198 242 295 349
#     4   9  18  32  55  85 121 157 194 236 291 352
#
# _framework density 20.45401
#
# number of rings (size 3 to 8) (size 9 to 14) (size 15 to 20)
#    0.000    1.857    1.429    3.000    2.000    5.714 
#    0.000    0.000    0.000    3.429    0.000    0.000 
#    0.000    0.000    0.000    0.000    0.000    0.000 
#
# Total GULP energy -156285.093318 kJ/mol
# GULP energy per Si atom -5581.610476 kJ/mol
# Density = 2.040746 g / cm^3
# Si number density = 20.454010 Si / 1000 Ang^3
#
#
#
# Elastic Constant Matrix: (Units=GPa)
#
#
# Indices 1 2 3 4 5 6 
#
# 1 80.6048 8.2917 29.9606 0.0000 29.9150 0.0000
# 2 8.2917 67.6474 18.0427 0.0000 14.5288 0.0000
# 3 29.9606 18.0427 124.0160 0.0000 25.3871 0.0000
# 4 0.0000 0.0000 0.0000 -5.4310 0.0000 13.9590
# 5 29.9150 14.5288 25.3871 0.0000 39.3347 0.0000
# 6 0.0000 0.0000 0.0000 13.9590 0.0000 6.2066
#
#
#
# Elastic Compliance Matrix: (Units=1/GPa)
#
#
# Indices 1 2 3 4 5 6 
#
# 1 0.017672 0.001037 -0.001833 0.000000 -0.012640 0.000000
# 2 0.001037 0.016299 -0.001415 0.000000 -0.005896 0.000000
# 3 -0.001833 -0.001415 0.009586 0.000000 -0.004271 0.000000
# 4 0.000000 0.000000 0.000000 -0.027155 0.000000 0.061073
# 5 -0.012640 -0.005896 -0.004271 0.000000 0.039970 0.000000
# 6 0.000000 0.000000 0.000000 0.061073 0.000000 0.023762
#
#
# Mechanical properties :
#
#
# Convention : Reuss Voigt Hill
#
# Bulk Modulus (GPa) = 25.55127 42.76203 34.15665
# Shear Modulus (GPa) = 51.22947 22.42027 36.82487
#
# Velocity S-wave (km/s) = 5.01004 3.31438 4.24768
# Velocity P-wave (km/s) = 6.78134 5.96646 6.38691
#
# Compressibility (1/GPa) = 0.03913699
#
# Stress axis : x y z
#
# Youngs Moduli (GPa) = 56.58709 61.35319 104.31523
#
# Poissons Ratio (x) = -0.06365 0.19117
# Poissons Ratio (y) = -0.05871 0.14760
# Poissons Ratio (z) = 0.10371 0.08681
#
# Static dielectric constant tensor:
#      x y z
#    x 1.754430 0.000000 0.038780 
#    y 0.000000 1.734770 0.000000 
#    z 0.038780 0.000000 1.731820 
# 
# From -- ./inp_files/96482.got.cif
#   From: 2010.05.17/outbox.cif.g08.bks.cpg/sg12_49_cif.got.tgz:96482.got - 2010.06.03 13:09:07.
