data_PCOD9197520
_publ_section_title
;
Structure prediction by ZEFSAII (Michael W. Deem and Ramdas Pophale) SiO2 
 PCOD9197520
Probable space group: C 2/M
;
_chemical_formula_sum "Si O2"
_cell_formula_units_Z 56
_cell_length_a 21.853164
_cell_length_b 9.085492
_cell_length_c 33.448616
_cell_angle_alpha 90.000000
_cell_angle_beta 153.902694
_cell_angle_gamma 90.000000
_cell_volume 2921.405710
_symmetry_space_group_name_H-M "C 2/M"
_symmetry_group_IT_number 12
_symmetry_cell_setting 'monoclinic'
loop_
_space_group_symop_operation_xyz
x,y,z
-x,y,-z
-x,-y,-z
x,-y,z
1/2+x,1/2+y,z
1/2-x,1/2+y,-z
1/2-x,1/2-y,-z
1/2+x,1/2-y,z
loop_
_atom_site_type_symbol
_atom_site_label
_atom_site_fract_x
_atom_site_fract_y
_atom_site_fract_z
Si Si1 0.983227 0.320623 0.943911
Si Si2 0.493140 0.175730 0.592720
Si Si3 0.347090 0.165753 0.390201
Si Si4 0.450149 0.670696 0.228803
Si Si5 0.826000 0.171311 0.240070
Si Si6 0.234641 0.673536 0.397951
Si Si7 0.761354 0.322145 0.963245
O O1 0.985954 0.500000 0.946513
O O2 0.828405 0.277061 0.839230
O O3 0.000000 0.271700 0.000000
O O4 0.103876 0.274934 0.983944
O O5 0.615726 0.212637 0.632676
O O6 0.550882 0.236618 0.667892
O O7 0.351242 0.249103 0.493970
O O8 0.475688 0.000000 0.582284
O O9 0.500000 0.156543 0.500000
O O10 0.263482 0.274884 0.369210
O O11 0.287413 0.000000 0.355836
O O12 0.495957 0.500000 0.252600
O O13 0.340379 0.677133 0.200610
O O14 0.581237 0.768963 0.316792
O O15 0.373035 0.713463 0.142858
O O16 0.842681 0.000000 0.261646
O O17 0.247482 0.500000 0.409488
O O18 0.767242 0.500000 0.970477
O O19 0.750000 0.250000 0.000000
#
# Coordination Sequence:
#
# PCOD9197520 Si02
#       7
#     8   8   8   8   8   8   8
#     4   9  16  34  63  88 110 146 196 242 288 342
#     4  10  21  37  56  81 116 153 189 234 292 352
#     4   8  16  33  54  75 104 145 185 225 283 349
#     4  10  21  38  58  81 114 157 195 233 292 357
#     4  10  20  35  60  88 111 145 199 247 284 340
#     4  11  22  35  56  83 113 151 195 243 288 336
#     4  10  21  38  62  91 122 154 193 243 296 354
#
# _framework density 19.168854
#
# number of rings (size 3 to 8) (size 9 to 14) (size 15 to 20)
#    0.000    2.286    1.429    2.571    0.000    6.000 
#    0.000    3.571    0.000    0.857    0.000    0.000 
#    0.000    0.000    0.000    0.000    0.000    0.000 
#
# Total GULP energy -156164.317592 kJ/mol
# GULP energy per Si atom -5577.297057 kJ/mol
# Density = 1.912522 g / cm^3
# Si number density = 19.168854 Si / 1000 Ang^3
#
#
#
# Elastic Constant Matrix: (Units=GPa)
#
#
# Indices 1 2 3 4 5 6 
#
# 1 89.9373 27.8820 48.2631 -0.0001 -1.2372 -0.0001
# 2 27.8820 56.5774 47.5067 0.0000 5.2456 -0.0003
# 3 48.2631 47.5067 108.4286 0.0001 -1.3636 -0.0006
# 4 -0.0001 0.0000 0.0001 17.8409 0.0001 2.1840
# 5 -1.2372 5.2456 -1.3636 0.0001 35.5180 0.0000
# 6 -0.0001 -0.0003 -0.0006 2.1840 0.0000 14.0068
#
#
#
# Elastic Compliance Matrix: (Units=1/GPa)
#
#
# Indices 1 2 3 4 5 6 
#
# 1 0.014903 -0.002929 -0.005341 0.000000 0.000747 0.000000
# 2 -0.002929 0.029310 -0.011599 0.000000 -0.004876 0.000000
# 3 -0.005341 -0.011599 0.016709 0.000000 0.002169 0.000000
# 4 0.000000 0.000000 0.000000 0.057142 0.000000 -0.008910
# 5 0.000747 -0.004876 0.002169 0.000000 0.028984 0.000000
# 6 0.000000 0.000000 0.000000 -0.008910 0.000000 0.072783
#
#
# Mechanical properties :
#
#
# Convention : Reuss Voigt Hill
#
# Bulk Modulus (GPa) = 47.20548 55.80521 51.50534
# Shear Modulus (GPa) = 18.75242 22.22592 20.48917
#
# Velocity S-wave (km/s) = 3.13113 3.40881 3.27292
# Velocity P-wave (km/s) = 6.14423 6.68348 6.41952
#
# Compressibility (1/GPa) = 0.02118398
#
# Stress axis : x y z
#
# Youngs Moduli (GPa) = 67.09927 34.11770 59.84650
#
# Poissons Ratio (x) = 0.09993 0.31963
# Poissons Ratio (y) = 0.19654 0.69419
# Poissons Ratio (z) = 0.35837 0.39575
#
# Static dielectric constant tensor:
#      x y z
#    x 1.719960 0.000000 -0.000880 
#    y 0.000000 1.648720 0.000000 
#    z -0.000880 0.000000 1.657440 
# 
# From -- ./inp_files/380756.got.cif
#   From: 2010.05.17/outbox.cif.g08.bks.cpg/sg12_191_cif.got.tgz:380756.got - 2010.06.03 13:09:07.
