data_PCOD9197305
_publ_section_title
;
Structure prediction by ZEFSAII (Michael W. Deem and Ramdas Pophale) SiO2 
 PCOD9197305
Probable space group: C 2/M
;
_chemical_formula_sum "Si O2"
_cell_formula_units_Z 60
_cell_length_a 19.927793
_cell_length_b 10.060151
_cell_length_c 23.859602
_cell_angle_alpha 90.000000
_cell_angle_beta 36.642696
_cell_angle_gamma 90.000000
_cell_volume 2854.778505
_symmetry_space_group_name_H-M "C 2/M"
_symmetry_group_IT_number 12
_symmetry_cell_setting 'monoclinic'
loop_
_space_group_symop_operation_xyz
x,y,z
-x,y,-z
-x,-y,-z
x,-y,z
1/2+x,1/2+y,z
1/2-x,1/2+y,-z
1/2-x,1/2-y,-z
1/2+x,1/2-y,z
loop_
_atom_site_type_symbol
_atom_site_label
_atom_site_fract_x
_atom_site_fract_y
_atom_site_fract_z
Si Si1 0.175727 0.000000 0.188175
Si Si2 0.033263 0.223726 0.348917
Si Si3 0.388123 0.653282 0.100403
Si Si4 0.074359 0.653558 0.122797
Si Si5 0.096291 0.658132 0.669839
Si Si6 0.331269 0.347358 0.563209
Si Si7 0.710900 0.845469 0.305288
Si Si8 0.275497 0.264925 0.066635
O O1 0.231598 0.118304 0.111708
O O2 0.115902 0.114659 0.267755
O O3 0.959362 0.276390 0.346707
O O4 0.947564 0.167504 0.452538
O O5 0.109823 0.332578 0.328373
O O6 0.414935 0.500000 0.096114
O O7 0.322756 0.707291 0.198160
O O8 0.303352 0.659600 0.104918
O O9 0.500000 0.720085 0.000000
O O10 0.055247 0.500000 0.118951
O O11 0.180961 0.662393 0.093510
O O12 0.969110 0.702770 0.229957
O O13 0.112268 0.744784 0.045831
O O14 0.078506 0.500000 0.677705
O O15 0.227953 0.682386 0.590233
O O16 0.317808 0.500000 0.591684
O O17 0.320013 0.245992 0.621802
O O18 0.726077 0.000000 0.310560
#
# Coordination Sequence:
#
# PCOD9197305 Si02
#       8
#     4   8   8   8   8   8   8   8
#     4  12  22  38  60  94 122 162 215 267 313 376
#     4  12  23  43  69  90 126 170 224 267 312 378
#     4  10  22  41  63  87 119 160 203 251 312 380
#     4  10  20  35  59  86 120 157 197 247 304 368
#     4  10  22  42  64  94 128 166 209 264 324 377
#     4  11  26  43  65  96 132 170 212 268 329 380
#     4  11  25  44  68  96 128 168 217 266 319 381
#     4  11  21  36  59  90 121 155 205 249 304 374
#
# _framework density 21.017392000000001
#
# number of rings (size 3 to 8) (size 9 to 14) (size 15 to 20)
#    0.000    1.200    4.000    1.600    2.800    4.267 
#    1.200    0.333    0.000    0.000    0.000    0.000 
#    0.000    0.000    0.000    0.000    0.000    0.000 
#
# Total GULP energy -167040.046172 kJ/mol
# GULP energy per Si atom -5568.001539 kJ/mol
# Density = 2.096956 g / cm^3
# Si number density = 21.017392 Si / 1000 Ang^3
#
#
#
# Elastic Constant Matrix: (Units=GPa)
#
#
# Indices 1 2 3 4 5 6 
#
# 1 47.9202 14.2573 11.9629 0.0000 13.0815 0.0000
# 2 14.2573 67.5089 24.9854 0.0000 9.1867 0.0000
# 3 11.9629 24.9854 110.5778 0.0000 16.4427 0.0000
# 4 0.0000 0.0000 0.0000 28.4429 0.0000 5.6036
# 5 13.0815 9.1867 16.4427 0.0000 29.9263 0.0000
# 6 0.0000 0.0000 0.0000 5.6036 0.0000 13.4569
#
#
#
# Elastic Compliance Matrix: (Units=1/GPa)
#
#
# Indices 1 2 3 4 5 6 
#
# 1 0.024659 -0.003775 -0.000418 0.000000 -0.009390 0.000000
# 2 -0.003775 0.017032 -0.003167 0.000000 -0.001838 0.000000
# 3 -0.000418 -0.003167 0.010489 0.000000 -0.004608 0.000000
# 4 0.000000 0.000000 0.000000 0.038300 0.000000 -0.015949
# 5 -0.009390 -0.001838 -0.004608 0.000000 0.040616 0.000000
# 6 0.000000 0.000000 0.000000 -0.015949 0.000000 0.080953
#
#
# Mechanical properties :
#
#
# Convention : Reuss Voigt Hill
#
# Bulk Modulus (GPa) = 26.69492 36.49090 31.59291
# Shear Modulus (GPa) = 20.89800 26.01864 23.45832
#
# Velocity S-wave (km/s) = 3.15670 3.52228 3.34449
# Velocity P-wave (km/s) = 5.10052 5.82596 5.47527
#
# Compressibility (1/GPa) = 0.03746032
#
# Stress axis : x y z
#
# Youngs Moduli (GPa) = 40.55311 58.71187 95.33391
#
# Poissons Ratio (x) = 0.22164 0.03989
# Poissons Ratio (y) = 0.15309 0.30190
# Poissons Ratio (z) = 0.01697 0.18592
#
# Static dielectric constant tensor:
#      x y z
#    x 1.754980 0.000000 -0.018540 
#    y 0.000000 1.702010 0.000000 
#    z -0.018540 0.000000 1.786720 
# 
# From -- ./inp_files/347161.got.cif
#   From: 2010.05.17/outbox.cif.g08.bks.cpg/sg12_174_cif.got.tgz:347161.got - 2010.06.03 13:09:07.
