data_PCOD9197583
_publ_section_title
;
Structure prediction by ZEFSAII (Michael W. Deem and Ramdas Pophale) SiO2 
 PCOD9197583
Probable space group: C 2/M
;
_chemical_formula_sum "Si O2"
_cell_formula_units_Z 64
_cell_length_a 14.667369
_cell_length_b 8.414276
_cell_length_c 23.437901
_cell_angle_alpha 90.000000
_cell_angle_beta 85.557551
_cell_angle_gamma 90.000000
_cell_volume 2883.904972
_symmetry_space_group_name_H-M "C 2/M"
_symmetry_group_IT_number 12
_symmetry_cell_setting 'monoclinic'
loop_
_space_group_symop_operation_xyz
x,y,z
-x,y,-z
-x,-y,-z
x,-y,z
1/2+x,1/2+y,z
1/2-x,1/2+y,-z
1/2-x,1/2-y,-z
1/2+x,1/2-y,z
loop_
_atom_site_type_symbol
_atom_site_label
_atom_site_fract_x
_atom_site_fract_y
_atom_site_fract_z
Si Si1 0.667101 0.817137 0.125695
Si Si2 0.548389 0.309173 0.440882
Si Si3 0.986662 0.182748 0.095839
Si Si4 0.206329 0.687957 0.246532
Si Si5 0.074272 0.307758 0.656315
Si Si6 0.684205 0.182925 0.954370
Si Si7 0.591493 0.187923 0.783404
Si Si8 0.785218 0.191596 0.633693
O O1 0.578966 0.784891 0.091512
O O2 0.644576 0.790223 0.193386
O O3 0.750864 0.706609 0.103845
O O4 0.697120 0.000000 0.117707
O O5 0.500000 0.244377 0.500000
O O6 0.552220 0.500000 0.446030
O O7 0.489017 0.266161 0.388547
O O8 0.651445 0.253896 0.421595
O O9 0.910032 0.227621 0.053507
O O10 0.942696 0.215977 0.160288
O O11 0.012426 0.000000 0.088827
O O12 0.225926 0.500000 0.249485
O O13 0.300439 0.780936 0.229960
O O14 0.172075 0.746019 0.309113
O O15 0.069596 0.500000 0.653414
O O16 0.051905 0.265791 0.723160
O O17 0.179451 0.258027 0.638472
O O18 0.664329 0.000000 0.965320
O O19 0.750000 0.250000 0.000000
O O20 0.574312 0.000000 0.794229
O O21 0.785471 0.000000 0.635534
#
# Coordination Sequence:
#
# PCOD9197583 Si02
#       8
#     8   8   8   8   8   8   8   8
#     4  11  24  42  64  96 132 168 212 262 314 373
#     4  10  22  39  58  83 116 155 202 252 303 365
#     4  12  25  41  64  97 131 169 215 259 312 375
#     4  10  20  35  60  91 125 159 203 255 307 371
#     4   9  20  37  57  83 116 154 198 246 301 365
#     4  12  26  47  72  96 129 171 214 263 315 371
#     4  10  20  37  61  89 127 165 201 252 316 374
#     4   9  20  38  57  81 117 159 197 243 308 370
#
# _framework density 22.192132000000001
#
# number of rings (size 3 to 8) (size 9 to 14) (size 15 to 20)
#    0.000    1.625    1.250    4.125    1.750    5.750 
#    0.000    2.500    0.000    0.000    0.000    0.000 
#    0.000    0.000    0.000    0.000    0.000    0.000 
#
# Total GULP energy -178911.767208 kJ/mol
# GULP energy per Si atom -5590.992725 kJ/mol
# Density = 2.214162 g / cm^3
# Si number density = 22.192132 Si / 1000 Ang^3
#
#
#
# Elastic Constant Matrix: (Units=GPa)
#
#
# Indices 1 2 3 4 5 6 
#
# 1 53.4689 -10.6685 -4.0247 0.0000 1.3194 0.0000
# 2 -10.6685 34.1169 -4.8534 0.0000 -2.2407 0.0000
# 3 -4.0247 -4.8534 51.8805 0.0000 -6.9860 0.0000
# 4 0.0000 0.0000 0.0000 28.5016 0.0000 5.9060
# 5 1.3194 -2.2407 -6.9860 0.0000 29.8708 0.0000
# 6 0.0000 0.0000 0.0000 5.9060 0.0000 24.1829
#
#
#
# Elastic Compliance Matrix: (Units=1/GPa)
#
#
# Indices 1 2 3 4 5 6 
#
# 1 0.020189 0.006635 0.002203 0.000000 0.000121 0.000000
# 2 0.006635 0.032144 0.003931 0.000000 0.003038 0.000000
# 3 0.002203 0.003931 0.020485 0.000000 0.004989 0.000000
# 4 0.000000 0.000000 0.000000 0.036956 0.000000 -0.009025
# 5 0.000121 0.003038 0.004989 0.000000 0.034867 0.000000
# 6 0.000000 0.000000 0.000000 -0.009025 0.000000 0.043556
#
#
# Mechanical properties :
#
#
# Convention : Reuss Voigt Hill
#
# Bulk Modulus (GPa) = 10.16712 11.15254 10.65983
# Shear Modulus (GPa) = 25.58259 27.11193 26.34726
#
# Velocity S-wave (km/s) = 3.39894 3.49906 3.44936
# Velocity P-wave (km/s) = 4.47159 4.62179 4.54731
#
# Compressibility (1/GPa) = 0.09835625
#
# Stress axis : x y z
#
# Youngs Moduli (GPa) = 49.53165 31.10963 48.81510
#
# Poissons Ratio (x) = -0.20640 -0.10755
# Poissons Ratio (y) = -0.32862 -0.19188
# Poissons Ratio (z) = -0.10913 -0.12229
#
# Static dielectric constant tensor:
#      x y z
#    x 1.847910 0.000000 -0.029430 
#    y 0.000000 1.755600 0.000000 
#    z -0.029430 0.000000 1.864730 
# 
# From -- ./inp_files/338778.got.cif
#   From: 2010.05.17/outbox.cif.g08.bks.cpg/sg12_170_cif.got.tgz:338778.got - 2010.06.03 13:09:07.
