data_PCOD9197430
_publ_section_title
;
Structure prediction by ZEFSAII (Michael W. Deem and Ramdas Pophale) SiO2 
 PCOD9197430
Probable space group: C 2/M
;
_chemical_formula_sum "Si O2"
_cell_formula_units_Z 64
_cell_length_a 9.360696
_cell_length_b 27.859695
_cell_length_c 14.701990
_cell_angle_alpha 90.000000
_cell_angle_beta 47.014971
_cell_angle_gamma 90.000000
_cell_volume 2804.748201
_symmetry_space_group_name_H-M "C 2/M"
_symmetry_group_IT_number 12
_symmetry_cell_setting 'monoclinic'
loop_
_space_group_symop_operation_xyz
x,y,z
-x,y,-z
-x,-y,-z
x,-y,z
1/2+x,1/2+y,z
1/2-x,1/2+y,-z
1/2-x,1/2-y,-z
1/2+x,1/2-y,z
loop_
_atom_site_type_symbol
_atom_site_label
_atom_site_fract_x
_atom_site_fract_y
_atom_site_fract_z
Si Si1 0.028450 0.447081 0.764813
Si Si2 0.102513 0.055268 0.741029
Si Si3 0.382422 0.744099 0.289106
Si Si4 0.455886 0.187946 0.640243
Si Si5 0.701296 0.802132 0.858662
Si Si6 0.702573 0.083060 0.863756
Si Si7 0.708136 0.622462 0.863077
Si Si8 0.140772 0.414576 0.518993
O O1 0.940761 0.500000 0.809544
O O2 0.193296 0.439837 0.768127
O O3 0.114293 0.439825 0.626607
O O4 0.867055 0.406003 0.853132
O O5 0.189037 0.088597 0.782329
O O6 0.155384 0.077786 0.619743
O O7 0.872358 0.059970 0.848538
O O8 0.163261 0.000000 0.721782
O O9 0.406245 0.773704 0.371492
O O10 0.195758 0.708457 0.368293
O O11 0.333736 0.779495 0.226045
O O12 0.594869 0.718262 0.187775
O O13 0.304902 0.171273 0.786389
O O14 0.574292 0.140153 0.563870
O O15 0.725343 0.859562 0.845982
O O16 0.500000 0.791316 0.000000
O O17 0.500000 0.072452 0.000000
O O18 0.500000 0.628719 0.000000
O O19 0.000000 0.434439 0.500000
#
# Coordination Sequence:
#
# PCOD9197430 Si02
#       8
#     8   8   8   8   8   8   8   8
#     4  11  23  40  64  93 128 173 224 275 325 387
#     4  12  25  42  70  98 127 175 226 271 325 391
#     4  10  21  37  64  93 126 164 221 269 324 392
#     4  10  22  42  65  95 128 170 213 270 332 393
#     4  10  20  35  59  90 128 172 217 264 320 386
#     4  11  25  43  64  96 143 181 209 264 337 398
#     4  11  23  39  64  96 134 174 219 274 331 387
#     4  11  23  44  71  92 130 168 221 278 334 377
#
# _framework density 22.818448
#
# number of rings (size 3 to 8) (size 9 to 14) (size 15 to 20)
#    0.000    1.250    2.500    4.500    0.000    9.000 
#    0.000    1.875    0.000    0.000    0.000    0.000 
#    0.000    0.000    0.000    0.000    0.000    0.000 
#
# Total GULP energy -178974.547509 kJ/mol
# GULP energy per Si atom -5592.954610 kJ/mol
# Density = 2.276651 g / cm^3
# Si number density = 22.818448 Si / 1000 Ang^3
#
#
#
# Elastic Constant Matrix: (Units=GPa)
#
#
# Indices 1 2 3 4 5 6 
#
# 1 104.3922 26.6693 2.2266 0.0000 -2.0965 0.0000
# 2 26.6693 97.2806 25.3134 0.0000 -8.9407 0.0000
# 3 2.2266 25.3134 77.4764 0.0000 -2.5527 0.0000
# 4 0.0000 0.0000 0.0000 19.4262 0.0000 -8.5130
# 5 -2.0965 -8.9407 -2.5527 0.0000 35.9723 0.0000
# 6 0.0000 0.0000 0.0000 -8.5130 0.0000 69.4248
#
#
#
# Elastic Compliance Matrix: (Units=1/GPa)
#
#
# Indices 1 2 3 4 5 6 
#
# 1 0.010334 -0.003021 0.000687 0.000000 -0.000100 0.000000
# 2 -0.003021 0.012354 -0.003863 0.000000 0.002620 0.000000
# 3 0.000687 -0.003863 0.014152 0.000000 0.000084 0.000000
# 4 0.000000 0.000000 0.000000 0.054400 0.000000 0.006671
# 5 -0.000100 0.002620 0.000084 0.000000 0.028451 0.000000
# 6 0.000000 0.000000 0.000000 0.006671 0.000000 0.015222
#
#
# Mechanical properties :
#
#
# Convention : Reuss Voigt Hill
#
# Bulk Modulus (GPa) = 40.90691 43.06309 41.98500
# Shear Modulus (GPa) = 32.16330 39.96065 36.06198
#
# Velocity S-wave (km/s) = 3.75844 4.18933 3.97972
# Velocity P-wave (km/s) = 6.06635 6.50489 6.28944
#
# Compressibility (1/GPa) = 0.02444575
#
# Stress axis : x y z
#
# Youngs Moduli (GPa) = 96.76424 80.94677 70.65957
#
# Poissons Ratio (x) = 0.24454 -0.04853
# Poissons Ratio (y) = 0.29233 0.27297
# Poissons Ratio (z) = -0.06645 0.31271
#
# Static dielectric constant tensor:
#      x y z
#    x 1.861800 0.000000 -0.013850 
#    y 0.000000 1.836730 0.000000 
#    z -0.013850 0.000000 1.939910 
# 
# From -- ./inp_files/201260.got.cif
#   From: 2010.05.17/outbox.cif.g08.bks.cpg/sg12_101_cif.got.tgz:201260.got - 2010.06.03 13:09:07.
