data_PCOD9197642
_publ_section_title
;
Structure prediction by ZEFSAII (Michael W. Deem and Ramdas Pophale) SiO2 
 PCOD9197642
Probable space group: C 2/M
;
_chemical_formula_sum "Si O2"
_cell_formula_units_Z 48
_cell_length_a 23.104206
_cell_length_b 22.620345
_cell_length_c 8.049959
_cell_angle_alpha 90.000000
_cell_angle_beta 31.829018
_cell_angle_gamma 90.000000
_cell_volume 2218.771982
_symmetry_space_group_name_H-M "C 2/M"
_symmetry_group_IT_number 12
_symmetry_cell_setting 'monoclinic'
loop_
_space_group_symop_operation_xyz
x,y,z
-x,y,-z
-x,-y,-z
x,-y,z
1/2+x,1/2+y,z
1/2-x,1/2+y,-z
1/2-x,1/2-y,-z
1/2+x,1/2-y,z
loop_
_atom_site_type_symbol
_atom_site_label
_atom_site_fract_x
_atom_site_fract_y
_atom_site_fract_z
Si Si1 0.283243 0.840706 0.341758
Si Si2 0.248780 0.119417 0.926569
Si Si3 0.638148 0.429408 0.528020
Si Si4 0.565775 0.429489 0.170391
Si Si5 0.521741 0.166463 0.638848
Si Si6 0.294411 0.229836 0.659860
O O1 0.201445 0.895305 0.518230
O O2 0.279273 0.807256 0.526074
O O3 0.246028 0.794030 0.289617
O O4 0.410000 0.854370 0.994801
O O5 0.380470 0.118313 0.593747
O O6 0.228462 0.190739 0.957548
O O7 0.207177 0.087613 0.193266
O O8 0.186436 0.091374 0.922897
O O9 0.637989 0.500000 0.554155
O O10 0.514310 0.409383 0.782500
O O11 0.500000 0.412977 0.500000
O O12 0.567260 0.500000 0.154495
O O13 0.500000 0.181070 0.500000
O O14 0.578872 0.221927 0.593476
#
# Coordination Sequence:
#
# PCOD9197642 Si02
#       6
#     8   8   8   8   8   8
#     4  11  20  41  58  86 124 152 201 239 296 360
#     4   9  18  35  55  89 112 152 194 237 297 343
#     4  10  20  35  61  89 119 156 197 250 294 346
#     4   8  15  31  55  82 116 150 191 238 282 342
#     4  10  20  36  60  89 118 147 193 253 292 345
#     4   9  23  36  61  85 114 166 188 243 298 354
#
# _framework density 21.633590000000002
#
# number of rings (size 3 to 8) (size 9 to 14) (size 15 to 20)
#    1.000    1.500    1.667    2.000    0.000    4.000 
#    0.000    8.333    0.000    3.000    0.000    0.000 
#    0.000    0.000    0.000    0.000    0.000    0.000 
#
# Total GULP energy -133758.543299 kJ/mol
# GULP energy per Si atom -5573.272637 kJ/mol
# Density = 2.158435 g / cm^3
# Si number density = 21.633590 Si / 1000 Ang^3
#
#
#
# Elastic Constant Matrix: (Units=GPa)
#
#
# Indices 1 2 3 4 5 6 
#
# 1 134.5629 104.1562 73.8911 0.0000 -41.0554 0.0000
# 2 104.1562 -72.2323 -40.8737 0.0000 27.8085 0.0000
# 3 73.8911 -40.8737 54.9943 0.0000 -5.0996 0.0000
# 4 0.0000 0.0000 0.0000 19.1470 0.0000 -2.7761
# 5 -41.0554 27.8085 -5.0996 0.0000 36.1001 0.0000
# 6 0.0000 0.0000 0.0000 -2.7761 0.0000 38.1063
#
#
#
# Elastic Compliance Matrix: (Units=1/GPa)
#
#
# Indices 1 2 3 4 5 6 
#
# 1 0.003550 0.005443 -0.000749 0.000000 -0.000261 0.000000
# 2 0.005443 -0.000073 -0.006878 0.000000 0.005275 0.000000
# 3 -0.000749 -0.006878 0.014683 0.000000 0.006521 0.000000
# 4 0.000000 0.000000 0.000000 0.052785 0.000000 0.003845
# 5 -0.000261 0.005275 0.006521 0.000000 0.024262 0.000000
# 6 0.000000 0.000000 0.000000 0.003845 0.000000 0.026523
#
#
# Mechanical properties :
#
#
# Convention : Reuss Voigt Hill
#
# Bulk Modulus (GPa) = 72.51180 43.51911 58.01546
# Shear Modulus (GPa) = 38.25685 17.34743 27.80214
#
# Velocity S-wave (km/s) = 4.20980 2.83481 3.58877
# Velocity P-wave (km/s) = 7.56444 5.55653 6.63686
#
# Compressibility (1/GPa) = 0.01379086
#
# Stress axis : x y z
#
# Youngs Moduli (GPa) = 281.66747 -13686.79512 68.10734
#
# Poissons Ratio (x) = 74.49484 0.05102
# Poissons Ratio (y) = -1.53307 0.46846
# Poissons Ratio (z) = 0.21100 -94.14128
#
# Static dielectric constant tensor:
#      x y z
#    x 1.830860 0.000000 0.041750 
#    y 0.000000 1.777340 0.000000 
#    z 0.041750 0.000000 1.848130 
# 
# From -- ./inp_files/106764.got.cif
#   From: 2010.05.17/outbox.cif.g08.bks.cpg/sg12_54_cif.got.tgz:106764.got - 2010.06.03 13:09:07.
