data_PCOD9197349
_publ_section_title
;
Structure prediction by ZEFSAII (Michael W. Deem and Ramdas Pophale) SiO2 
 PCOD9197349
Probable space group: C 2/M
;
_chemical_formula_sum "Si O2"
_cell_formula_units_Z 64
_cell_length_a 24.747321
_cell_length_b 18.818647
_cell_length_c 19.277418
_cell_angle_alpha 90.000000
_cell_angle_beta 157.507156
_cell_angle_gamma 90.000000
_cell_volume 3434.583971
_symmetry_space_group_name_H-M "C 2/M"
_symmetry_group_IT_number 12
_symmetry_cell_setting 'monoclinic'
loop_
_space_group_symop_operation_xyz
x,y,z
-x,y,-z
-x,-y,-z
x,-y,z
1/2+x,1/2+y,z
1/2-x,1/2+y,-z
1/2-x,1/2-y,-z
1/2+x,1/2-y,z
loop_
_atom_site_type_symbol
_atom_site_label
_atom_site_fract_x
_atom_site_fract_y
_atom_site_fract_z
Si Si1 0.416889 0.584940 0.067298
Si Si2 0.412590 0.918410 0.967274
Si Si3 0.089362 0.684298 0.431787
Si Si4 0.915366 0.811488 0.830139
Si Si5 0.615310 0.172833 0.298771
Si Si6 0.418489 0.083830 0.331070
Si Si7 0.393983 0.414674 0.432689
Si Si8 0.565433 0.346325 0.374639
O O1 0.442746 0.500000 0.101792
O O2 0.507285 0.620938 0.112686
O O3 0.466143 0.623513 0.196627
O O4 0.249126 0.596357 0.858724
O O5 0.501468 0.877912 0.129271
O O6 0.394260 0.000000 0.967581
O O7 0.500000 0.917690 0.000000
O O8 0.261088 0.886156 0.769415
O O9 0.249838 0.677645 0.650850
O O10 0.102157 0.667647 0.365288
O O11 0.038909 0.766241 0.369994
O O12 0.986376 0.633582 0.352625
O O13 0.914545 0.750221 0.769968
O O14 0.000000 0.789900 0.000000
O O15 0.774298 0.153478 0.464761
O O16 0.500000 0.097133 0.500000
O O17 0.437196 0.000000 0.335823
O O18 0.500000 0.388502 0.500000
O O19 0.387258 0.500000 0.421425
O O20 0.439536 0.394351 0.563292
#
# Coordination Sequence:
#
# PCOD9197349 Si02
#       8
#     8   8   8   8   8   8   8   8
#     4  11  23  41  65  90 120 163 202 248 318 369
#     4  10  20  35  59  88 117 165 209 239 300 368
#     4  11  23  41  64  92 124 159 206 252 302 367
#     4  11  22  39  64  92 122 159 202 253 307 362
#     4  11  21  39  61  91 130 158 197 261 304 354
#     4  10  24  46  65  88 125 161 202 260 313 360
#     4  10  22  39  58  87 127 163 206 254 295 359
#     4  11  21  40  61  90 129 161 198 253 311 363
#
# _framework density 18.633989
#
# number of rings (size 3 to 8) (size 9 to 14) (size 15 to 20)
#    0.000    1.375    3.750    2.250    1.750    3.750 
#    2.250    2.500    0.000    0.000    0.000    0.000 
#    0.000    0.000    0.000    0.000    0.000    0.000 
#
# Total GULP energy -178690.150619 kJ/mol
# GULP energy per Si atom -5584.067207 kJ/mol
# Density = 1.859158 g / cm^3
# Si number density = 18.633989 Si / 1000 Ang^3
#
#
#
# Elastic Constant Matrix: (Units=GPa)
#
#
# Indices 1 2 3 4 5 6 
#
# 1 68.0673 38.8216 34.6733 -0.0001 -0.9261 -0.0002
# 2 38.8216 37.1239 28.3687 -0.0003 13.8389 -0.0004
# 3 34.6733 28.3687 112.4998 -0.0005 -9.9931 -0.0007
# 4 -0.0001 -0.0003 -0.0005 32.3214 -0.0004 -3.4129
# 5 -0.9261 13.8389 -9.9931 -0.0004 28.5037 -0.0004
# 6 -0.0002 -0.0004 -0.0007 -3.4129 -0.0004 54.6454
#
#
#
# Elastic Compliance Matrix: (Units=1/GPa)
#
#
# Indices 1 2 3 4 5 6 
#
# 1 0.061324 -0.087095 0.007220 0.000000 0.046809 0.000000
# 2 -0.087095 0.173006 -0.025283 0.000000 -0.095690 0.000000
# 3 0.007220 -0.025283 0.014605 0.000000 0.017630 0.000000
# 4 0.000000 0.000000 0.000000 0.031145 0.000001 0.001945
# 5 0.046809 -0.095690 0.017630 0.000001 0.089244 0.000000
# 6 0.000000 0.000000 0.000000 0.001945 0.000000 0.018421
#
#
# Mechanical properties :
#
#
# Convention : Reuss Voigt Hill
#
# Bulk Modulus (GPa) = 25.89392 46.82425 36.35908
# Shear Modulus (GPa) = 8.18418 30.81594 19.50006
#
# Velocity S-wave (km/s) = 2.09800 4.07104 3.23844
# Velocity P-wave (km/s) = 4.44916 6.87610 5.79119
#
# Compressibility (1/GPa) = 0.03861911
#
# Stress axis : x y z
#
# Youngs Moduli (GPa) = 16.30672 5.78014 68.46855
#
# Poissons Ratio (x) = 0.50342 -0.49433
# Poissons Ratio (y) = 1.42024 1.73108
# Poissons Ratio (z) = -0.11773 0.14614
#
# Static dielectric constant tensor:
#      x y z
#    x 1.622630 0.000000 -0.018350 
#    y 0.000000 1.662800 0.000000 
#    z -0.018350 0.000000 1.698540 
# 
# From -- ./inp_files/290935.got.cif
#   From: 2010.05.17/outbox.cif.g08.bks.cpg/sg12_146_cif.got.tgz:290935.got - 2010.06.03 13:09:07.
