data_PCOD9197615
_publ_section_title
;
Structure prediction by ZEFSAII (Michael W. Deem and Ramdas Pophale) SiO2 
 PCOD9197615
Probable space group: C 2/M
;
_chemical_formula_sum "Si O2"
_cell_formula_units_Z 56
_cell_length_a 8.870788
_cell_length_b 17.847024
_cell_length_c 25.491466
_cell_angle_alpha 90.000000
_cell_angle_beta 137.680347
_cell_angle_gamma 90.000000
_cell_volume 2717.124984
_symmetry_space_group_name_H-M "C 2/M"
_symmetry_group_IT_number 12
_symmetry_cell_setting 'monoclinic'
loop_
_space_group_symop_operation_xyz
x,y,z
-x,y,-z
-x,-y,-z
x,-y,z
1/2+x,1/2+y,z
1/2-x,1/2+y,-z
1/2-x,1/2-y,-z
1/2+x,1/2-y,z
loop_
_atom_site_type_symbol
_atom_site_label
_atom_site_fract_x
_atom_site_fract_y
_atom_site_fract_z
Si Si1 0.687754 0.291973 0.311964
Si Si2 0.976161 0.409921 0.908661
Si Si3 0.374445 0.408934 0.091095
Si Si4 0.940953 0.812962 0.544851
Si Si5 0.591079 0.915624 0.223495
Si Si6 0.809546 0.317984 0.224487
Si Si7 0.621315 0.416362 0.378233
O O1 0.769703 0.317464 0.276271
O O2 0.432061 0.261248 0.243817
O O3 0.718678 0.357607 0.362024
O O4 0.843892 0.224574 0.372297
O O5 0.959208 0.500000 0.898938
O O6 0.766781 0.391261 0.892291
O O7 0.973406 0.378864 0.849006
O O8 0.202966 0.395683 0.999089
O O9 0.429081 0.500000 0.105835
O O10 0.580149 0.351277 0.141228
O O11 0.750000 0.750000 0.500000
O O12 0.863407 0.883129 0.559536
O O13 0.000000 0.830061 0.500000
O O14 0.488441 0.875067 0.246647
O O15 0.857685 0.918556 0.296124
O O16 0.501566 0.000000 0.200776
O O17 0.712747 0.500000 0.397274
#
# Coordination Sequence:
#
# PCOD9197615 Si02
#       7
#     8   8   8   8   8   8   8
#     4  12  24  43  64  95 126 176 213 266 326 398
#     4   8  16  34  57  90 135 174 215 269 336 386
#     4   9  18  33  61  96 127 171 222 272 325 391
#     4  12  23  44  74  97 127 171 212 255 328 404
#     4  10  20  35  60  94 132 169 214 275 327 385
#     4  12  22  37  63  88 126 168 229 264 324 387
#     4  11  24  44  69 102 133 168 218 269 324 385
#
# _framework density 20.610019000000001
#
# number of rings (size 3 to 8) (size 9 to 14) (size 15 to 20)
#    0.000    1.429    4.286    2.143    0.000    3.143 
#    0.000    3.571    0.000   18.000    0.000    0.000 
#    0.000    0.000    0.000    0.000    0.000    0.000 
#
# Total GULP energy -156250.587109 kJ/mol
# GULP energy per Si atom -5580.378111 kJ/mol
# Density = 2.056311 g / cm^3
# Si number density = 20.610019 Si / 1000 Ang^3
#
#
#
# Elastic Constant Matrix: (Units=GPa)
#
#
# Indices 1 2 3 4 5 6 
#
# 1 100.5687 26.2930 29.1143 -0.0001 -22.5276 0.0001
# 2 26.2930 80.7320 21.6304 -0.0001 -5.4332 0.0000
# 3 29.1143 21.6304 71.8427 -0.0002 0.3567 0.0001
# 4 -0.0001 -0.0001 -0.0002 31.3209 0.0000 -4.6091
# 5 -22.5276 -5.4332 0.3567 0.0000 35.8965 0.0000
# 6 0.0001 0.0000 0.0001 -4.6091 0.0000 86.5454
#
#
#
# Elastic Compliance Matrix: (Units=1/GPa)
#
#
# Indices 1 2 3 4 5 6 
#
# 1 0.013934 -0.002664 -0.004886 0.000000 0.008390 0.000000
# 2 -0.002664 0.014140 -0.003180 0.000000 0.000500 0.000000
# 3 -0.004886 -0.003180 0.016875 0.000000 -0.003715 0.000000
# 4 0.000000 0.000000 0.000000 0.032180 0.000000 0.001714
# 5 0.008390 0.000500 -0.003715 0.000000 0.033236 0.000000
# 6 0.000000 0.000000 0.000000 0.001714 0.000000 0.011646
#
#
# Mechanical properties :
#
#
# Convention : Reuss Voigt Hill
#
# Bulk Modulus (GPa) = 42.57460 45.24654 43.91057
# Shear Modulus (GPa) = 33.04672 42.49296 37.76984
#
# Velocity S-wave (km/s) = 4.00863 4.54559 4.28553
# Velocity P-wave (km/s) = 6.49057 7.03926 6.77048
#
# Compressibility (1/GPa) = 0.02348818
#
# Stress axis : x y z
#
# Youngs Moduli (GPa) = 71.76757 70.72117 59.25806
#
# Poissons Ratio (x) = 0.18842 0.28955
# Poissons Ratio (y) = 0.19121 0.18845
# Poissons Ratio (z) = 0.35067 0.22490
#
# Static dielectric constant tensor:
#      x y z
#    x 1.728190 0.000000 0.013130 
#    y 0.000000 1.820990 0.000000 
#    z 0.013130 0.000000 1.766480 
# 
# From -- ./inp_files/356736.got.cif
#   From: 2010.05.17/outbox.cif.g08.bks.cpg/sg12_179_cif.got.tgz:356736.got - 2010.06.03 13:09:07.
