data_PCOD9197429
_publ_section_title
;
Structure prediction by ZEFSAII (Michael W. Deem and Ramdas Pophale) SiO2 
 PCOD9197429
Probable space group: C 2/M
;
_chemical_formula_sum "Si O2"
_cell_formula_units_Z 40
_cell_length_a 27.143957
_cell_length_b 13.219003
_cell_length_c 5.217775
_cell_angle_alpha 90.000000
_cell_angle_beta 98.286598
_cell_angle_gamma 90.000000
_cell_volume 1852.674535
_symmetry_space_group_name_H-M "C 2/M"
_symmetry_group_IT_number 12
_symmetry_cell_setting 'monoclinic'
loop_
_space_group_symop_operation_xyz
x,y,z
-x,y,-z
-x,-y,-z
x,-y,z
1/2+x,1/2+y,z
1/2-x,1/2+y,-z
1/2-x,1/2-y,-z
1/2+x,1/2-y,z
loop_
_atom_site_type_symbol
_atom_site_label
_atom_site_fract_x
_atom_site_fract_y
_atom_site_fract_z
Si Si1 0.784139 0.735153 0.774944
Si Si2 0.151661 0.390770 0.860153
Si Si3 0.626712 0.721124 0.453683
Si Si4 0.945181 0.317010 0.969610
Si Si5 0.449466 0.389123 0.295141
O O1 0.750000 0.750000 0.500000
O O2 0.833790 0.801881 0.742883
O O3 0.750000 0.750000 0.000000
O O4 0.812039 0.630488 0.871185
O O5 0.162488 0.500000 0.752898
O O6 0.154810 0.295080 0.673048
O O7 0.095094 0.384208 0.915763
O O8 0.580846 0.789121 0.316694
O O9 0.599631 0.627817 0.567221
O O10 0.949562 0.207229 0.110040
O O11 0.000000 0.361038 0.000000
O O12 0.500000 0.385122 0.500000
O O13 0.447732 0.500000 0.168079
#
# Coordination Sequence:
#
# PCOD9197429 Si02
#       5
#     8   8   8   8   8
#     4  11  22  44  71  92 124 170 216 275 338 388
#     4  10  23  41  66  97 128 170 219 269 325 397
#     4  10  21  39  64  89 132 169 218 275 327 391
#     4  10  20  36  59  91 133 177 216 268 326 384
#     4  10  20  35  59  90 126 172 221 270 331 397
#
# _framework density 21.590408
#
# number of rings (size 3 to 8) (size 9 to 14) (size 15 to 20)
#    0.000    1.800    4.000    0.000    0.000    4.800 
#    0.000    3.000    0.000    4.800    0.000    0.000 
#    0.000    0.000    0.000    0.000    0.000    0.000 
#
# Total GULP energy -111369.508436 kJ/mol
# GULP energy per Si atom -5568.475422 kJ/mol
# Density = 2.154127 g / cm^3
# Si number density = 21.590408 Si / 1000 Ang^3
#
#
#
# Elastic Constant Matrix: (Units=GPa)
#
#
# Indices 1 2 3 4 5 6 
#
# 1 167.7196 17.8020 37.6947 0.0000 -6.9022 0.0000
# 2 17.8020 89.8883 19.3951 0.0000 2.9641 0.0000
# 3 37.6947 19.3951 95.9913 0.0000 11.0937 0.0000
# 4 0.0000 0.0000 0.0000 6.7243 0.0000 0.5235
# 5 -6.9022 2.9641 11.0937 0.0000 46.0610 0.0000
# 6 0.0000 0.0000 0.0000 0.5235 0.0000 -1.9087
#
#
#
# Elastic Compliance Matrix: (Units=1/GPa)
#
#
# Indices 1 2 3 4 5 6 
#
# 1 0.006719 -0.000810 -0.002671 0.000000 0.001702 0.000000
# 2 -0.000810 0.011731 -0.002007 0.000000 -0.000393 0.000000
# 3 -0.002671 -0.002007 0.012244 0.000000 -0.003220 0.000000
# 4 0.000000 0.000000 0.000000 0.145607 0.000000 0.039933
# 5 0.001702 -0.000393 -0.003220 0.000000 0.022766 0.000000
# 6 0.000000 0.000000 0.000000 0.039933 0.000000 -0.512965
#
#
# Mechanical properties :
#
#
# Convention : Reuss Voigt Hill
#
# Bulk Modulus (GPa) = 50.71636 55.93142 53.32389
# Shear Modulus (GPa) = -16.87203 28.75581 5.94189
#
# Velocity S-wave (km/s) = -2.79849 3.65345 1.66074
# Velocity P-wave (km/s) = 3.61927 6.61505 5.33189
#
# Compressibility (1/GPa) = 0.01971750
#
# Stress axis : x y z
#
# Youngs Moduli (GPa) = 148.83616 85.24174 81.67099
#
# Poissons Ratio (x) = 0.06908 0.21818
# Poissons Ratio (y) = 0.12061 0.16389
# Poissons Ratio (z) = 0.39760 0.17105
#
# Static dielectric constant tensor:
#      x y z
#    x 1.853750 0.000000 -0.034830 
#    y 0.000000 1.788380 0.000000 
#    z -0.034830 0.000000 1.899440 
# 
# From -- ./inp_files/27410.got.cif
#   From: 2010.05.17/outbox.cif.g08.bks.cpg/sg12_14_cif.got.tgz:27410.got - 2010.06.03 13:09:07.
