data_PCOD9197878
_publ_section_title
;
Structure prediction by ZEFSAII (Michael W. Deem and Ramdas Pophale) SiO2 
 PCOD9197878
Probable space group: C 2/M
;
_chemical_formula_sum "Si O2"
_cell_formula_units_Z 60
_cell_length_a 17.346276
_cell_length_b 20.757849
_cell_length_c 9.599317
_cell_angle_alpha 90.000000
_cell_angle_beta 73.248545
_cell_angle_gamma 90.000000
_cell_volume 3309.761986
_symmetry_space_group_name_H-M "C 2/M"
_symmetry_group_IT_number 12
_symmetry_cell_setting 'monoclinic'
loop_
_space_group_symop_operation_xyz
x,y,z
-x,y,-z
-x,-y,-z
x,-y,z
1/2+x,1/2+y,z
1/2-x,1/2+y,-z
1/2-x,1/2-y,-z
1/2+x,1/2-y,z
loop_
_atom_site_type_symbol
_atom_site_label
_atom_site_fract_x
_atom_site_fract_y
_atom_site_fract_z
Si Si1 0.002155 0.070431 0.254000
Si Si2 0.416685 0.761604 0.958451
Si Si3 0.000000 0.172814 0.500000
Si Si4 0.228386 0.674402 0.808958
Si Si5 0.342692 0.381350 0.967153
Si Si6 0.872020 0.269390 0.674978
Si Si7 0.224862 0.674216 0.495596
Si Si8 0.321786 0.573541 0.269518
O O1 0.000518 0.127331 0.366054
O O2 0.918803 0.075679 0.215400
O O3 0.080655 0.077289 0.118889
O O4 0.003082 0.000000 0.321901
O O5 0.379882 0.689349 0.979136
O O6 0.420704 0.781446 0.792595
O O7 0.500000 0.762357 0.000000
O O8 0.351426 0.806088 0.068357
O O9 0.922293 0.217613 0.559346
O O10 0.281669 0.625078 0.870107
O O11 0.287861 0.736866 0.768062
O O12 0.208907 0.653333 0.662059
O O13 0.297525 0.407384 0.126077
O O14 0.847521 0.324695 0.579288
O O15 0.250000 0.750000 0.500000
O O16 0.290597 0.626825 0.393989
O O17 0.298113 0.500000 0.317258
#
# Coordination Sequence:
#
# PCOD9197878 Si02
#       8
#     8   8   4   8   8   8   8   8
#     4  11  22  34  52  78 119 164 201 235 278 341
#     4  11  21  33  55  82 113 148 189 246 298 352
#     4  12  21  36  52  84 117 150 204 236 296 336
#     4  10  20  36  54  79 110 152 192 240 300 342
#     4  11  20  35  53  76 115 159 199 235 282 348
#     4  10  21  34  56  79 112 152 191 240 293 350
#     4  10  20  37  59  80 113 155 193 250 293 343
#     4  11  23  37  56  84 120 161 202 240 289 354
#
# _framework density 18.128191000000001
#
# number of rings (size 3 to 8) (size 9 to 14) (size 15 to 20)
#    0.000    1.333    2.667    7.400    1.867    1.067 
#    0.000    0.667    0.000    0.000    0.000    0.467 
#    0.000    5.067    0.000    0.000    0.000    0.000 
#
# Total GULP energy -167339.723395 kJ/mol
# GULP energy per Si atom -5577.990780 kJ/mol
# Density = 1.808693 g / cm^3
# Si number density = 18.128191 Si / 1000 Ang^3
#
#
#
# Elastic Constant Matrix: (Units=GPa)
#
#
# Indices 1 2 3 4 5 6 
#
# 1 73.5865 34.3720 27.3074 0.0000 9.0618 0.0000
# 2 34.3720 65.7934 40.0878 0.0000 -3.0894 0.0000
# 3 27.3074 40.0878 101.2336 0.0000 7.6045 0.0000
# 4 0.0000 0.0000 0.0000 -27.1892 0.0000 -7.4987
# 5 9.0618 -3.0894 7.6045 0.0000 28.4857 0.0000
# 6 0.0000 0.0000 0.0000 -7.4987 0.0000 17.8057
#
#
#
# Elastic Compliance Matrix: (Units=1/GPa)
#
#
# Indices 1 2 3 4 5 6 
#
# 1 0.019417 -0.010027 -0.000736 0.000000 -0.007068 0.000000
# 2 -0.010027 0.025760 -0.008108 0.000000 0.008148 0.000000
# 3 -0.000736 -0.008108 0.013609 0.000000 -0.004278 0.000000
# 4 0.000000 0.000000 0.000000 -0.032952 0.000000 -0.013877
# 5 -0.007068 0.008148 -0.004278 0.000000 0.039380 0.000000
# 6 0.000000 0.000000 0.000000 -0.013877 0.000000 0.050317
#
#
# Mechanical properties :
#
#
# Convention : Reuss Voigt Hill
#
# Bulk Modulus (GPa) = 47.52132 49.34977 48.43554
# Shear Modulus (GPa) = 31.19389 13.07686 22.13537
#
# Velocity S-wave (km/s) = 4.15268 2.68872 3.49814
# Velocity P-wave (km/s) = 7.01883 6.07624 6.56447
#
# Compressibility (1/GPa) = 0.02104319
#
# Stress axis : x y z
#
# Youngs Moduli (GPa) = 51.50255 38.81924 73.48152
#
# Poissons Ratio (x) = 0.38924 0.05408
# Poissons Ratio (y) = 0.51642 0.59581
# Poissons Ratio (z) = 0.03790 0.31476
#
# Static dielectric constant tensor:
#      x y z
#    x 1.654030 0.000000 0.038670 
#    y 0.000000 1.636670 0.000000 
#    z 0.038670 0.000000 1.659500 
# 
# From -- ./inp_files/77447.got.cif
#   From: 2010.05.17/outbox.cif.g08.bks.cpg/sg12_39_cif.got.tgz:77447.got - 2010.06.03 13:09:07.
