data_PCOD9197115
_publ_section_title
;
Structure prediction by ZEFSAII (Michael W. Deem and Ramdas Pophale) SiO2 
 PCOD9197115
Probable space group: C 2/M
;
_chemical_formula_sum "Si O2"
_cell_formula_units_Z 64
_cell_length_a 18.358050
_cell_length_b 21.137728
_cell_length_c 18.984593
_cell_angle_alpha 90.000000
_cell_angle_beta 153.443596
_cell_angle_gamma 90.000000
_cell_volume 3293.593741
_symmetry_space_group_name_H-M "C 2/M"
_symmetry_group_IT_number 12
_symmetry_cell_setting 'monoclinic'
loop_
_space_group_symop_operation_xyz
x,y,z
-x,y,-z
-x,-y,-z
x,-y,z
1/2+x,1/2+y,z
1/2-x,1/2+y,-z
1/2-x,1/2-y,-z
1/2+x,1/2-y,z
loop_
_atom_site_type_symbol
_atom_site_label
_atom_site_fract_x
_atom_site_fract_y
_atom_site_fract_z
Si Si1 0.382003 0.232935 0.732185
Si Si2 0.068637 0.075005 0.136942
Si Si3 0.366480 0.334783 0.059791
Si Si4 0.192821 0.429530 0.155651
Si Si5 0.421485 0.662690 0.272223
Si Si6 0.515814 0.194489 0.703917
Si Si7 0.133506 0.655532 0.557056
Si Si8 0.345578 0.634653 0.409849
O O1 0.553590 0.267407 0.894248
O O2 0.390120 0.210696 0.657960
O O3 0.251494 0.287330 0.635872
O O4 0.316645 0.176427 0.723215
O O5 0.248091 0.102550 0.308320
O O6 0.948814 0.110168 0.086758
O O7 0.067689 0.000000 0.144535
O O8 0.000000 0.090624 0.000000
O O9 0.412106 0.344638 0.180467
O O10 0.176512 0.330130 0.881607
O O11 0.223462 0.500000 0.152245
O O12 0.267308 0.372759 0.173462
O O13 0.288837 0.423575 0.313197
O O14 0.000000 0.422961 0.000000
O O15 0.440142 0.738813 0.296980
O O16 0.575904 0.630035 0.444782
O O17 0.457022 0.144182 0.595362
O O18 0.000000 0.672201 0.500000
O O19 0.500000 0.663742 0.500000
#
# Coordination Sequence:
#
# PCOD9197115 Si02
#       8
#     8   8   8   8   8   8   8   8
#     4  10  20  35  58  87 127 159 184 242 300 356
#     4  10  23  45  64  84 116 158 202 252 307 360
#     4  10  23  38  61  93 117 159 202 243 301 363
#     4  10  24  42  59  85 120 162 211 253 292 346
#     4  10  21  37  61  87 124 161 196 244 300 359
#     4  11  22  37  58  92 130 155 192 248 309 363
#     4  11  22  36  62  90 122 154 197 245 300 365
#     4  10  21  36  59  88 119 165 196 243 296 351
#
# _framework density 19.431663
#
# number of rings (size 3 to 8) (size 9 to 14) (size 15 to 20)
#    0.000    1.750    1.250    3.000    8.750    3.000 
#    0.000    0.625    0.000    0.000    0.000    0.000 
#    0.000    0.000    0.000    0.000    0.000    0.000 
#
# Total GULP energy -178361.346104 kJ/mol
# GULP energy per Si atom -5573.792066 kJ/mol
# Density = 1.938744 g / cm^3
# Si number density = 19.431663 Si / 1000 Ang^3
#
#
#
# Elastic Constant Matrix: (Units=GPa)
#
#
# Indices 1 2 3 4 5 6 
#
# 1 89.4412 49.7948 45.2787 -0.0005 2.5620 -0.0022
# 2 49.7948 60.9019 37.1938 0.0000 -7.0003 -0.0001
# 3 45.2787 37.1938 107.0186 0.0008 -13.9403 -0.0023
# 4 -0.0005 0.0000 0.0008 20.1903 0.0014 -4.9552
# 5 2.5620 -7.0003 -13.9403 0.0014 31.7854 -0.0008
# 6 -0.0022 -0.0001 -0.0023 -4.9552 -0.0008 15.8356
#
#
#
# Elastic Compliance Matrix: (Units=1/GPa)
#
#
# Indices 1 2 3 4 5 6 
#
# 1 0.023384 -0.016952 -0.005021 0.000002 -0.007820 0.000003
# 2 -0.016952 0.033201 -0.003432 -0.000001 0.007173 -0.000003
# 3 -0.005021 -0.003432 0.013380 -0.000001 0.005517 0.000001
# 4 0.000002 -0.000001 -0.000001 0.053649 -0.000003 0.016788
# 5 -0.007820 0.007173 0.005517 -0.000003 0.036091 0.000001
# 6 0.000003 -0.000003 0.000001 0.016788 0.000001 0.068402
#
#
# Mechanical properties :
#
#
# Convention : Reuss Voigt Hill
#
# Bulk Modulus (GPa) = 52.20566 57.98847 55.09707
# Shear Modulus (GPa) = 17.52541 21.90187 19.71364
#
# Velocity S-wave (km/s) = 3.00642 3.36091 3.18859
# Velocity P-wave (km/s) = 6.24308 6.70582 6.47858
#
# Compressibility (1/GPa) = 0.01915501
#
# Stress axis : x y z
#
# Youngs Moduli (GPa) = 42.76465 30.11991 74.73935
#
# Poissons Ratio (x) = 0.51059 0.37524
# Poissons Ratio (y) = 0.72494 0.25652
# Poissons Ratio (z) = 0.21471 0.10338
#
# Static dielectric constant tensor:
#      x y z
#    x 1.689500 0.000000 0.000500 
#    y 0.000000 1.655790 0.000000 
#    z 0.000500 0.000000 1.749620 
# 
# From -- ./inp_files/279120.got.cif
#   From: 2010.05.17/outbox.cif.g08.bks.cpg/sg12_140_cif.got.tgz:279120.got - 2010.06.03 13:09:07.
