data_PCOD9197101
_publ_section_title
;
Structure prediction by ZEFSAII (Michael W. Deem and Ramdas Pophale) SiO2 
 PCOD9197101
Probable space group: C 2/M
;
_chemical_formula_sum "Si O2"
_cell_formula_units_Z 64
_cell_length_a 14.518481
_cell_length_b 8.845663
_cell_length_c 26.747757
_cell_angle_alpha 90.000000
_cell_angle_beta 124.274652
_cell_angle_gamma 90.000000
_cell_volume 2838.583460
_symmetry_space_group_name_H-M "C 2/M"
_symmetry_group_IT_number 12
_symmetry_cell_setting 'monoclinic'
loop_
_space_group_symop_operation_xyz
x,y,z
-x,y,-z
-x,-y,-z
x,-y,z
1/2+x,1/2+y,z
1/2-x,1/2+y,-z
1/2-x,1/2-y,-z
1/2+x,1/2-y,z
loop_
_atom_site_type_symbol
_atom_site_label
_atom_site_fract_x
_atom_site_fract_y
_atom_site_fract_z
Si Si1 0.153880 0.322183 0.379966
Si Si2 0.438041 0.177666 0.855485
Si Si3 0.075557 0.824239 0.696200
Si Si4 0.633244 0.680143 0.981783
Si Si5 0.060968 0.824843 0.811023
Si Si6 0.788807 0.176132 0.885753
Si Si7 0.622277 0.171557 0.543387
Si Si8 0.754216 0.670595 0.318844
O O1 0.143598 0.500000 0.382256
O O2 0.040164 0.240824 0.361112
O O3 0.267262 0.260349 0.440358
O O4 0.174122 0.277191 0.327429
O O5 0.535543 0.237833 0.922047
O O6 0.453898 0.265977 0.808403
O O7 0.328139 0.220638 0.852334
O O8 0.445703 0.000000 0.849570
O O9 0.061739 0.811550 0.751697
O O10 0.184402 0.736716 0.710264
O O11 0.087527 0.000000 0.686555
O O12 0.628582 0.500000 0.970692
O O13 0.750000 0.750000 0.000000
O O14 0.634619 0.700059 0.042120
O O15 0.163498 0.722309 0.860975
O O16 0.080060 0.000000 0.829708
O O17 0.795347 0.000000 0.873987
O O18 0.500000 0.240365 0.500000
O O19 0.645236 0.159171 0.609665
O O20 0.621882 0.000000 0.522359
O O21 0.708165 0.500000 0.298727
#
# Coordination Sequence:
#
# PCOD9197101 Si02
#       8
#     8   8   8   8   8   8   8   8
#     4  10  20  35  58  87 119 156 197 241 290 349
#     4  12  25  41  63  91 122 159 199 242 296 357
#     4  11  23  40  61  86 115 155 203 250 301 352
#     4  11  22  38  64  92 123 158 194 240 297 358
#     4  11  25  43  63  86 117 154 199 255 302 351
#     4  11  24  42  64  91 121 156 197 242 298 361
#     4   8  16  34  59  87 122 159 195 241 295 349
#     4   9  19  36  59  86 117 155 195 240 293 348
#
# _framework density 22.546457
#
# number of rings (size 3 to 8) (size 9 to 14) (size 15 to 20)
#    0.750    0.875    1.250    4.125    0.000    6.250 
#    0.000    0.625    0.000    0.000    0.000    0.000 
#    0.000    0.000    0.000    0.000    0.000    0.000 
#
# Total GULP energy -178768.786514 kJ/mol
# GULP energy per Si atom -5586.524579 kJ/mol
# Density = 2.249514 g / cm^3
# Si number density = 22.546457 Si / 1000 Ang^3
#
#
#
# Elastic Constant Matrix: (Units=GPa)
#
#
# Indices 1 2 3 4 5 6 
#
# 1 73.2606 0.4558 -11.5475 0.0000 -4.6614 0.0000
# 2 0.4558 93.3454 -1.3277 0.0000 -8.1361 0.0000
# 3 -11.5475 -1.3277 34.1439 0.0000 12.9247 0.0000
# 4 0.0000 0.0000 0.0000 19.3404 0.0000 -0.4214
# 5 -4.6614 -8.1361 12.9247 0.0000 33.6901 0.0000
# 6 0.0000 0.0000 0.0000 -0.4214 0.0000 31.2017
#
#
#
# Elastic Compliance Matrix: (Units=1/GPa)
#
#
# Indices 1 2 3 4 5 6 
#
# 1 0.014419 0.000011 0.004821 0.000000 0.000148 0.000000
# 2 0.000011 0.010956 -0.000670 0.000000 0.002904 0.000000
# 3 0.004821 -0.000670 0.035917 0.000000 -0.013274 0.000000
# 4 0.000000 0.000000 0.000000 0.051720 0.000000 0.000699
# 5 0.000148 0.002904 -0.013274 0.000000 0.035496 0.000000
# 6 0.000000 0.000000 0.000000 0.000699 0.000000 0.032059
#
#
# Mechanical properties :
#
#
# Convention : Reuss Voigt Hill
#
# Bulk Modulus (GPa) = 14.36430 19.54567 16.95498
# Shear Modulus (GPa) = 25.58210 31.05773 28.31992
#
# Velocity S-wave (km/s) = 3.37210 3.71549 3.54795
# Velocity P-wave (km/s) = 4.64179 5.20523 4.93156
#
# Compressibility (1/GPa) = 0.06961703
#
# Stress axis : x y z
#
# Youngs Moduli (GPa) = 69.35222 91.27022 27.84221
#
# Poissons Ratio (x) = -0.00101 -0.13422
# Poissons Ratio (y) = -0.00077 0.01864
# Poissons Ratio (z) = -0.33434 0.06112
#
# Static dielectric constant tensor:
#      x y z
#    x 1.886720 0.000000 0.005860 
#    y 0.000000 1.762890 0.000000 
#    z 0.005860 0.000000 1.889870 
# 
# From -- ./inp_files/375105.got.cif
#   From: 2010.05.17/outbox.cif.g08.bks.cpg/sg12_188_cif.got.tgz:375105.got - 2010.06.03 13:09:07.
