data_PCOD9197898
_publ_section_title
;
Structure prediction by ZEFSAII (Michael W. Deem and Ramdas Pophale) SiO2 
 PCOD9197898
Probable space group: C 2/M
;
_chemical_formula_sum "Si O2"
_cell_formula_units_Z 64
_cell_length_a 25.660253
_cell_length_b 23.500894
_cell_length_c 16.586318
_cell_angle_alpha 90.000000
_cell_angle_beta 21.282634
_cell_angle_gamma 90.000000
_cell_volume 3630.484856
_symmetry_space_group_name_H-M "C 2/M"
_symmetry_group_IT_number 12
_symmetry_cell_setting 'monoclinic'
loop_
_space_group_symop_operation_xyz
x,y,z
-x,y,-z
-x,-y,-z
x,-y,z
1/2+x,1/2+y,z
1/2-x,1/2+y,-z
1/2-x,1/2-y,-z
1/2+x,1/2-y,z
loop_
_atom_site_type_symbol
_atom_site_label
_atom_site_fract_x
_atom_site_fract_y
_atom_site_fract_z
Si Si1 0.634380 0.229511 0.245500
Si Si2 0.361327 0.936221 0.143372
Si Si3 0.138532 0.160749 0.485026
Si Si4 0.214244 0.769582 0.813754
Si Si5 0.383334 0.066856 0.919669
Si Si6 0.607908 0.359081 0.268580
Si Si7 0.911418 0.755115 0.300258
Si Si8 0.446969 0.835107 0.386455
O O1 0.500000 0.232544 0.500000
O O2 0.761020 0.217418 0.126587
O O3 0.656340 0.293769 0.183435
O O4 0.569247 0.188938 0.270993
O O5 0.393229 0.926853 0.002443
O O6 0.297703 0.000000 0.241022
O O7 0.500000 0.935019 0.000000
O O8 0.258434 0.886522 0.320588
O O9 0.202993 0.210949 0.332649
O O10 0.097694 0.192478 0.625102
O O11 0.998516 0.129847 0.651524
O O12 0.295841 0.818302 0.645566
O O13 0.043815 0.763096 0.047965
O O14 0.514516 0.100301 0.688996
O O15 0.378523 0.000000 0.907964
O O16 0.239150 0.099320 0.097734
O O17 0.500000 0.360677 0.500000
O O18 0.750000 0.750000 0.500000
O O19 0.951238 0.700306 0.297247
#
# Coordination Sequence:
#
# PCOD9197898 Si02
#       8
#     8   8   8   8   8   8   8   8
#     4   9  15  31  54  83 108 139 178 218 278 344
#     4  10  22  38  56  77 108 151 191 232 279 334
#     4  11  21  34  56  82 114 151 185 229 290 339
#     4  10  20  36  54  84 116 149 183 228 288 345
#     4  11  24  37  56  85 115 151 195 236 282 339
#     4  11  17  33  53  84 114 140 179 230 288 346
#     4  11  24  34  54  88 117 150 185 233 293 344
#     4  10  21  36  58  82 113 153 186 234 282 347
#
# _framework density 17.628499999999999
#
# number of rings (size 3 to 8) (size 9 to 14) (size 15 to 20)
#    0.000    1.625    6.250    1.500    5.250    3.250 
#    0.000    0.000    0.000    4.125    0.000    0.875 
#    0.000    0.000    0.000    0.000    0.000    0.000 
#
# Total GULP energy -178386.069627 kJ/mol
# GULP energy per Si atom -5574.564676 kJ/mol
# Density = 1.758838 g / cm^3
# Si number density = 17.628500 Si / 1000 Ang^3
#
#
#
# Elastic Constant Matrix: (Units=GPa)
#
#
# Indices 1 2 3 4 5 6 
#
# 1 56.5489 26.8854 26.4034 -0.0012 -14.5717 0.0001
# 2 26.8854 108.7944 30.2416 -0.0007 -2.0648 0.0010
# 3 26.4034 30.2416 100.4979 -0.0014 -7.4381 0.0016
# 4 -0.0012 -0.0007 -0.0014 25.5463 0.0019 -9.6912
# 5 -14.5717 -2.0648 -7.4381 0.0019 20.8241 -0.0001
# 6 0.0001 0.0010 0.0016 -9.6912 -0.0001 0.2022
#
#
#
# Elastic Compliance Matrix: (Units=1/GPa)
#
#
# Indices 1 2 3 4 5 6 
#
# 1 0.026233 -0.005012 -0.004172 -0.000001 0.016369 -0.000002
# 2 -0.005012 0.010989 -0.002228 0.000001 -0.003213 0.000001
# 3 -0.004172 -0.002228 0.011796 0.000002 0.001073 0.000004
# 4 -0.000001 0.000001 0.000002 -0.002279 -0.000001 -0.109193
# 5 0.016369 -0.003213 0.001073 -0.000001 0.059540 0.000008
# 6 -0.000002 0.000001 0.000004 -0.109193 0.000008 -0.287834
#
#
# Mechanical properties :
#
#
# Convention : Reuss Voigt Hill
#
# Bulk Modulus (GPa) = 38.17732 48.10020 43.13876
# Shear Modulus (GPa) = -33.33362 21.46858 -5.93252
#
# Velocity S-wave (km/s) = -4.35316 3.49353 -1.83647
# Velocity P-wave (km/s) = 1.88760 6.60437 4.47519
#
# Compressibility (1/GPa) = 0.02619356
#
# Stress axis : x y z
#
# Youngs Moduli (GPa) = 38.11989 91.00409 84.77187
#
# Poissons Ratio (x) = 0.45614 0.35369
# Poissons Ratio (y) = 0.19107 0.18884
# Poissons Ratio (z) = 0.15905 0.20272
#
# Static dielectric constant tensor:
#      x y z
#    x 1.677590 0.000000 0.014670 
#    y 0.000000 1.581500 0.000000 
#    z 0.014670 0.000000 1.664810 
# 
# From -- ./inp_files/294275.got.cif
#   From: 2010.05.17/outbox.cif.g08.bks.cpg/sg12_148_cif.got.tgz:294275.got - 2010.06.03 13:09:07.
