data_PCOD9197383
_publ_section_title
;
Structure prediction by ZEFSAII (Michael W. Deem and Ramdas Pophale) SiO2 
 PCOD9197383
Probable space group: C 2/M
;
_chemical_formula_sum "Si O2"
_cell_formula_units_Z 64
_cell_length_a 15.464711
_cell_length_b 8.785716
_cell_length_c 24.393997
_cell_angle_alpha 90.000000
_cell_angle_beta 86.920662
_cell_angle_gamma 90.000000
_cell_volume 3309.591612
_symmetry_space_group_name_H-M "C 2/M"
_symmetry_group_IT_number 12
_symmetry_cell_setting 'monoclinic'
loop_
_space_group_symop_operation_xyz
x,y,z
-x,y,-z
-x,-y,-z
x,-y,z
1/2+x,1/2+y,z
1/2-x,1/2+y,-z
1/2-x,1/2-y,-z
1/2+x,1/2-y,z
loop_
_atom_site_type_symbol
_atom_site_label
_atom_site_fract_x
_atom_site_fract_y
_atom_site_fract_z
Si Si1 0.400386 0.815831 0.067260
Si Si2 0.084807 0.680728 0.679485
Si Si3 0.409054 0.681306 0.658172
Si Si4 0.099565 0.315319 0.057919
Si Si5 0.751147 0.816363 0.741445
Si Si6 0.864212 0.322992 0.545895
Si Si7 0.344281 0.323636 0.432699
Si Si8 0.244032 0.682587 0.139080
O O1 0.500439 0.771532 0.073636
O O2 0.334089 0.742071 0.111323
O O3 0.394750 0.000000 0.070909
O O4 0.378810 0.769276 0.005221
O O5 0.071491 0.500000 0.683538
O O6 0.157000 0.726931 0.721271
O O7 0.123234 0.723128 0.618669
O O8 0.994115 0.766018 0.687365
O O9 0.407363 0.500000 0.652123
O O10 0.323763 0.729239 0.694662
O O11 0.408882 0.755425 0.598060
O O12 0.100559 0.500000 0.057681
O O13 0.168303 0.263050 0.100356
O O14 0.768660 0.744915 0.799614
O O15 0.753491 0.000000 0.745560
O O16 0.886212 0.500000 0.538337
O O17 0.760186 0.311872 0.559505
O O18 0.881770 0.233466 0.489254
O O19 0.366968 0.500000 0.422313
O O20 0.243405 0.500000 0.139895
#
# Coordination Sequence:
#
# PCOD9197383 Si02
#       8
#     8   8   8   8   8   8   8   8
#     4   9  17  35  60  83 115 155 194 228 277 341
#     4  11  23  41  63  86 113 149 194 240 292 351
#     4  11  23  41  63  87 115 149 193 242 293 347
#     4   8  17  34  57  85 116 154 191 230 278 339
#     4  10  24  44  61  79 112 155 196 237 286 344
#     4  10  20  35  59  89 120 153 189 232 288 349
#     4  10  20  35  59  89 120 152 188 234 289 345
#     4  11  22  35  56  86 117 147 190 241 287 332
#
# _framework density 19.337731999999999
#
# number of rings (size 3 to 8) (size 9 to 14) (size 15 to 20)
#    0.000    2.000    1.250    3.000    0.000    4.500 
#    0.000    9.375    0.000    0.000    0.000    0.000 
#    0.000    0.000    0.000    0.000    0.000    0.000 
#
# Total GULP energy -178804.537446 kJ/mol
# GULP energy per Si atom -5587.641795 kJ/mol
# Density = 1.929372 g / cm^3
# Si number density = 19.337732 Si / 1000 Ang^3
#
#
#
# Elastic Constant Matrix: (Units=GPa)
#
#
# Indices 1 2 3 4 5 6 
#
# 1 33.8761 3.7420 -1.4060 0.0000 2.5140 0.0000
# 2 3.7420 17.4203 1.8187 0.0000 4.4825 0.0000
# 3 -1.4060 1.8187 52.9812 0.0000 -3.6921 0.0000
# 4 0.0000 0.0000 0.0000 31.9380 0.0000 0.0159
# 5 2.5140 4.4825 -3.6921 0.0000 4.6718 0.0000
# 6 0.0000 0.0000 0.0000 0.0159 0.0000 26.9098
#
#
#
# Elastic Compliance Matrix: (Units=1/GPa)
#
#
# Indices 1 2 3 4 5 6 
#
# 1 0.030875 -0.003120 -0.000024 0.000000 -0.013641 0.000000
# 2 -0.003120 0.080027 -0.008534 0.000000 -0.081850 0.000000
# 3 -0.000024 -0.008534 0.020889 0.000000 0.024710 0.000000
# 4 0.000000 0.000000 0.000000 0.031311 0.000000 -0.000018
# 5 -0.013641 -0.081850 0.024710 0.000000 0.319452 0.000000
# 6 0.000000 0.000000 0.000000 -0.000018 0.000000 0.037161
#
#
# Mechanical properties :
#
#
# Convention : Reuss Voigt Hill
#
# Bulk Modulus (GPa) = 9.22209 12.50966 10.86587
# Shear Modulus (GPa) = 8.63238 19.37877 14.00557
#
# Velocity S-wave (km/s) = 2.11511 3.16907 2.69413
# Velocity P-wave (km/s) = 3.27784 4.45800 3.91267
#
# Compressibility (1/GPa) = 0.10843533
#
# Stress axis : x y z
#
# Youngs Moduli (GPa) = 32.38838 12.49584 47.87232
#
# Poissons Ratio (x) = 0.03898 0.00115
# Poissons Ratio (y) = 0.10104 0.40854
# Poissons Ratio (z) = 0.00078 0.10664
#
# Static dielectric constant tensor:
#      x y z
#    x 1.692040 0.000000 0.005490 
#    y 0.000000 1.646960 0.000000 
#    z 0.005490 0.000000 1.641650 
# 
# From -- ./inp_files/338763.got.cif
#   From: 2010.05.17/outbox.cif.g08.bks.cpg/sg12_170_cif.got.tgz:338763.got - 2010.06.03 13:09:07.
