data_PCOD9197006
_publ_section_title
;
Structure prediction by ZEFSAII (Michael W. Deem and Ramdas Pophale) SiO2 
 PCOD9197006
Probable space group: C 2/M
;
_chemical_formula_sum "Si O2"
_cell_formula_units_Z 48
_cell_length_a 18.474363
_cell_length_b 11.789226
_cell_length_c 16.685309
_cell_angle_alpha 90.000000
_cell_angle_beta 32.339284
_cell_angle_gamma 90.000000
_cell_volume 1943.960372
_symmetry_space_group_name_H-M "C 2/M"
_symmetry_group_IT_number 12
_symmetry_cell_setting 'monoclinic'
loop_
_space_group_symop_operation_xyz
x,y,z
-x,y,-z
-x,-y,-z
x,-y,z
1/2+x,1/2+y,z
1/2-x,1/2+y,-z
1/2-x,1/2-y,-z
1/2+x,1/2-y,z
loop_
_atom_site_type_symbol
_atom_site_label
_atom_site_fract_x
_atom_site_fract_y
_atom_site_fract_z
Si Si1 0.302553 0.837750 0.297092
Si Si2 0.550006 0.631656 0.866106
Si Si3 0.989101 0.371843 0.780717
Si Si4 0.375644 0.689437 0.676461
Si Si5 0.437565 0.374592 0.359860
Si Si6 0.738929 0.370154 0.917060
O O1 0.319099 0.701595 0.280233
O O2 0.452023 0.874718 0.184313
O O3 0.235978 0.869339 0.275355
O O4 0.202862 0.874774 0.460198
O O5 0.579089 0.500000 0.846297
O O6 0.500000 0.672537 0.000000
O O7 0.420991 0.651329 0.928676
O O8 0.022132 0.500000 0.716514
O O9 0.052220 0.256813 0.682413
O O10 0.828489 0.360224 0.913767
O O11 0.500000 0.719720 0.500000
O O12 0.443650 0.621625 0.685081
O O13 0.306050 0.794236 0.786234
O O14 0.441205 0.500000 0.313508
O O15 0.747307 0.500000 0.882561
#
# Coordination Sequence:
#
# PCOD9197006 Si02
#       6
#     8   8   8   8   8   8
#     4  11  21  33  57  89 116 151 198 246 293 347
#     4  10  20  35  58  85 118 161 203 246 292 349
#     4  10  22  39  61  89 123 157 192 245 302 354
#     4   9  19  33  54  85 114 151 194 246 292 348
#     4  10  22  40  61  86 121 161 197 240 295 357
#     4   9  18  36  56  80 119 160 197 241 295 350
#
# _framework density 24.691859999999998
#
# number of rings (size 3 to 8) (size 9 to 14) (size 15 to 20)
#    0.000    2.167    1.667    1.000    0.000    6.000 
#    0.000    3.333    0.000   10.000    0.000    0.000 
#    0.000    0.000    0.000    0.000    0.000    0.000 
#
# Total GULP energy -133833.069270 kJ/mol
# GULP energy per Si atom -5576.377886 kJ/mol
# Density = 2.463566 g / cm^3
# Si number density = 24.691860 Si / 1000 Ang^3
#
#
#
# Elastic Constant Matrix: (Units=GPa)
#
#
# Indices 1 2 3 4 5 6 
#
# 1 155.0558 25.2213 18.0062 0.0000 -34.8494 0.0000
# 2 25.2213 186.7601 59.9301 0.0000 -1.1313 0.0000
# 3 18.0062 59.9301 55.0753 -0.0001 -2.8977 0.0000
# 4 0.0000 0.0000 -0.0001 5.8073 0.0000 7.5350
# 5 -34.8494 -1.1313 -2.8977 0.0000 37.5019 0.0000
# 6 0.0000 0.0000 0.0000 7.5350 0.0000 14.1234
#
#
#
# Elastic Compliance Matrix: (Units=1/GPa)
#
#
# Indices 1 2 3 4 5 6 
#
# 1 0.008479 -0.000521 -0.001799 0.000000 0.007725 0.000000
# 2 -0.000521 0.008267 -0.008873 0.000000 -0.000920 0.000000
# 3 -0.001799 -0.008873 0.028414 0.000001 0.000256 -0.000001
# 4 0.000000 0.000000 0.000001 0.559529 -0.000001 -0.298517
# 5 0.007725 -0.000920 0.000256 -0.000001 0.033836 0.000000
# 6 0.000000 0.000000 -0.000001 -0.298517 0.000000 0.230068
#
#
# Mechanical properties :
#
#
# Convention : Reuss Voigt Hill
#
# Bulk Modulus (GPa) = 43.91084 67.02293 55.46689
# Shear Modulus (GPa) = 5.56440 31.06874 18.31657
#
# Velocity S-wave (km/s) = 1.50281 3.55104 2.72657
# Velocity P-wave (km/s) = 4.56436 6.63445 5.69426
#
# Compressibility (1/GPa) = 0.02277342
#
# Stress axis : x y z
#
# Youngs Moduli (GPa) = 117.93745 120.96750 35.19380
#
# Poissons Ratio (x) = 0.06304 0.06330
# Poissons Ratio (y) = 0.06146 0.31229
# Poissons Ratio (z) = 0.21213 1.07340
#
# Static dielectric constant tensor:
#      x y z
#    x 2.048930 0.000000 0.006840 
#    y 0.000000 2.006570 0.000000 
#    z 0.006840 0.000000 1.939570 
# 
# From -- ./inp_files/321168.got.cif
#   From: 2010.05.17/outbox.cif.g08.bks.cpg/sg12_161_cif.got.tgz:321168.got - 2010.06.03 13:09:07.
