data_PCOD9197217
_publ_section_title
;
Structure prediction by ZEFSAII (Michael W. Deem and Ramdas Pophale) SiO2 
 PCOD9197217
Probable space group: C 2/M
;
_chemical_formula_sum "Si O2"
_cell_formula_units_Z 60
_cell_length_a 22.028531
_cell_length_b 14.471970
_cell_length_c 12.454144
_cell_angle_alpha 90.000000
_cell_angle_beta 132.196623
_cell_angle_gamma 90.000000
_cell_volume 2941.399066
_symmetry_space_group_name_H-M "C 2/M"
_symmetry_group_IT_number 12
_symmetry_cell_setting 'monoclinic'
loop_
_space_group_symop_operation_xyz
x,y,z
-x,y,-z
-x,-y,-z
x,-y,z
1/2+x,1/2+y,z
1/2-x,1/2+y,-z
1/2-x,1/2-y,-z
1/2+x,1/2-y,z
loop_
_atom_site_type_symbol
_atom_site_label
_atom_site_fract_x
_atom_site_fract_y
_atom_site_fract_z
Si Si1 0.161101 0.778755 0.847446
Si Si2 0.419917 0.105797 0.744092
Si Si3 0.140696 0.778345 0.585710
Si Si4 0.993613 0.336273 0.372666
Si Si5 0.400806 0.394534 0.032948
Si Si6 0.749417 0.603364 0.300473
Si Si7 0.723950 0.606772 0.499411
Si Si8 0.000000 0.246909 0.000000
O O1 0.163748 0.817777 0.729345
O O2 0.099720 0.690756 0.765170
O O3 0.250000 0.750000 0.000000
O O4 0.116946 0.851544 0.872507
O O5 0.465358 0.117404 0.682913
O O6 0.322167 0.118361 0.615876
O O7 0.434110 0.000000 0.798225
O O8 0.449623 0.183103 0.863231
O O9 0.045681 0.758821 0.451121
O O10 0.180757 0.676711 0.634204
O O11 0.180839 0.832597 0.536538
O O12 0.000000 0.381183 0.500000
O O13 0.433958 0.500000 0.073392
O O14 0.312417 0.398095 0.870676
O O15 0.452056 0.321643 0.023520
O O16 0.782206 0.500000 0.358068
O O17 0.698950 0.629449 0.347868
O O18 0.704942 0.500000 0.497846
#
# Coordination Sequence:
#
# PCOD9197217 Si02
#       8
#     8   8   8   8   8   8   8   4
#     4  11  23  43  63  87 126 171 211 262 316 379
#     4  11  23  40  64  96 132 167 207 261 319 380
#     4  11  21  38  67  88 129 168 210 255 323 373
#     4  10  23  40  62  95 125 168 214 262 319 376
#     4  11  24  41  66  95 122 166 219 266 316 378
#     4  10  20  35  58  92 124 154 202 259 309 369
#     4  10  22  37  61  97 128 162 209 258 317 384
#     4  12  24  42  64  88 132 166 210 264 322 380
#
# _framework density 20.398457000000001
#
# number of rings (size 3 to 8) (size 9 to 14) (size 15 to 20)
#    0.000    1.333    4.000    1.600    1.867    0.800 
#    0.000    3.333    0.000    2.400    0.000    0.000 
#    0.000    0.000    0.000    0.000    0.000    0.000 
#
# Total GULP energy -167480.452808 kJ/mol
# GULP energy per Si atom -5582.681760 kJ/mol
# Density = 2.035203 g / cm^3
# Si number density = 20.398457 Si / 1000 Ang^3
#
#
#
# Elastic Constant Matrix: (Units=GPa)
#
#
# Indices 1 2 3 4 5 6 
#
# 1 103.4343 43.0801 24.3116 0.0000 -24.4456 0.0000
# 2 43.0801 102.2197 34.6820 0.0000 -16.7396 0.0000
# 3 24.3116 34.6820 87.6227 0.0000 -15.3296 0.0000
# 4 0.0000 0.0000 0.0000 25.1218 0.0000 -5.2433
# 5 -24.4456 -16.7396 -15.3296 0.0000 45.0435 0.0000
# 6 0.0000 0.0000 0.0000 -5.2433 0.0000 -5.4595
#
#
#
# Elastic Compliance Matrix: (Units=1/GPa)
#
#
# Indices 1 2 3 4 5 6 
#
# 1 0.012873 -0.004256 -0.001001 0.000000 0.005064 0.000000
# 2 -0.004256 0.013062 -0.003768 0.000000 0.001262 0.000000
# 3 -0.001001 -0.003768 0.013655 0.000000 0.002703 0.000000
# 4 0.000000 0.000000 0.000000 0.033159 0.000000 -0.031846
# 5 0.005064 0.001262 0.002703 0.000000 0.026338 0.000000
# 6 0.000000 0.000000 0.000000 -0.031846 0.000000 -0.152581
#
#
# Mechanical properties :
#
#
# Convention : Reuss Voigt Hill
#
# Bulk Modulus (GPa) = 46.42941 55.26935 50.84938
# Shear Modulus (GPa) = -176.90341 25.68801 -75.60770
#
# Velocity S-wave (km/s) = -9.32267 3.55253 -6.09474
# Velocity P-wave (km/s) = 9.64740 6.63181 4.95436
#
# Compressibility (1/GPa) = 0.02153807
#
# Stress axis : x y z
#
# Youngs Moduli (GPa) = 77.68338 76.55891 73.23418
#
# Poissons Ratio (x) = 0.32586 0.07331
# Poissons Ratio (y) = 0.33064 0.27597
# Poissons Ratio (z) = 0.07777 0.28850
#
# Static dielectric constant tensor:
#      x y z
#    x 1.747450 0.000000 -0.003140 
#    y 0.000000 1.720390 0.000000 
#    z -0.003140 0.000000 1.763360 
# 
# From -- ./inp_files/176471.got.cif
#   From: 2010.05.17/outbox.cif.g08.bks.cpg/sg12_89_cif.got.tgz:176471.got - 2010.06.03 13:09:07.
