data_PCOD9197213
_publ_section_title
;
Structure prediction by ZEFSAII (Michael W. Deem and Ramdas Pophale) SiO2 
 PCOD9197213
Probable space group: C 2/M
;
_chemical_formula_sum "Si O2"
_cell_formula_units_Z 64
_cell_length_a 17.630061
_cell_length_b 13.561732
_cell_length_c 17.063161
_cell_angle_alpha 90.000000
_cell_angle_beta 136.581517
_cell_angle_gamma 90.000000
_cell_volume 2804.068497
_symmetry_space_group_name_H-M "C 2/M"
_symmetry_group_IT_number 12
_symmetry_cell_setting 'monoclinic'
loop_
_space_group_symop_operation_xyz
x,y,z
-x,y,-z
-x,-y,-z
x,-y,z
1/2+x,1/2+y,z
1/2-x,1/2+y,-z
1/2-x,1/2-y,-z
1/2+x,1/2-y,z
loop_
_atom_site_type_symbol
_atom_site_label
_atom_site_fract_x
_atom_site_fract_y
_atom_site_fract_z
Si Si1 0.889699 0.383479 0.525767
Si Si2 0.807761 0.203335 0.912224
Si Si3 0.222349 0.217313 0.295349
Si Si4 0.493163 0.619221 0.406315
Si Si5 0.183866 0.888849 0.844438
Si Si6 0.733700 0.617250 0.556604
Si Si7 0.422031 0.115837 0.217310
Si Si8 0.514224 0.692373 0.834505
O O1 0.885909 0.500000 0.508915
O O2 0.834918 0.332914 0.409708
O O3 0.808574 0.359781 0.538237
O O4 0.010967 0.361994 0.651420
O O5 0.800444 0.210012 0.813484
O O6 0.777193 0.309451 0.927357
O O7 0.708304 0.133001 0.867318
O O8 0.926831 0.181375 0.037119
O O9 0.227566 0.326707 0.336436
O O10 0.114542 0.169837 0.255976
O O11 0.500000 0.653548 0.500000
O O12 0.491152 0.500000 0.404852
O O13 0.379753 0.646898 0.281182
O O14 0.605913 0.647478 0.447643
O O15 0.086543 0.879220 0.834380
O O16 0.223569 0.000000 0.868295
O O17 0.737455 0.500000 0.571805
O O18 0.466239 0.198227 0.189177
O O19 0.443808 0.000000 0.213640
#
# Coordination Sequence:
#
# PCOD9197213 Si02
#       8
#     8   8   8   8   8   8   8   8
#     4  10  22  40  65  95 122 160 211 259 312 377
#     4  11  26  41  60  93 126 167 211 259 307 372
#     4  12  24  39  63  91 132 167 199 255 326 371
#     4   9  17  29  49  82 122 153 182 233 300 368
#     4  10  21  40  63  88 118 159 208 257 307 362
#     4  10  20  35  58  91 126 160 202 247 307 384
#     4  10  22  44  69  92 122 162 214 265 309 366
#     4  11  24  42  64  90 123 166 221 255 300 370
#
# _framework density 22.823979000000001
#
# number of rings (size 3 to 8) (size 9 to 14) (size 15 to 20)
#    0.000    1.625    1.250    3.750    3.500    6.000 
#    0.000    1.250    0.000    4.500    0.000    0.000 
#    0.000    0.000    0.000    0.000    0.000    0.000 
#
# Total GULP energy -178877.991230 kJ/mol
# GULP energy per Si atom -5589.937226 kJ/mol
# Density = 2.277203 g / cm^3
# Si number density = 22.823979 Si / 1000 Ang^3
#
#
#
# Elastic Constant Matrix: (Units=GPa)
#
#
# Indices 1 2 3 4 5 6 
#
# 1 42.3815 -4.4337 4.3808 0.0000 1.3026 0.0000
# 2 -4.4337 78.9648 17.8544 0.0000 0.8097 0.0000
# 3 4.3808 17.8544 130.7717 0.0000 -2.4899 0.0000
# 4 0.0000 0.0000 0.0000 10.2739 0.0000 -0.4858
# 5 1.3026 0.8097 -2.4899 0.0000 41.5599 0.0000
# 6 0.0000 0.0000 0.0000 -0.4858 0.0000 14.3698
#
#
#
# Elastic Compliance Matrix: (Units=1/GPa)
#
#
# Indices 1 2 3 4 5 6 
#
# 1 0.023893 0.001584 -0.001033 0.000000 -0.000842 0.000000
# 2 0.001584 0.013178 -0.001860 0.000000 -0.000418 0.000000
# 3 -0.001033 -0.001860 0.007946 0.000000 0.000545 0.000000
# 4 0.000000 0.000000 0.000000 0.097490 0.000000 0.003296
# 5 -0.000842 -0.000418 0.000545 0.000000 0.024129 0.000000
# 6 0.000000 0.000000 0.000000 0.003296 0.000000 0.069702
#
#
# Mechanical properties :
#
#
# Convention : Reuss Voigt Hill
#
# Bulk Modulus (GPa) = 23.58563 31.96900 27.77731
# Shear Modulus (GPa) = 19.75592 28.86182 24.30887
#
# Velocity S-wave (km/s) = 2.94526 3.55989 3.26706
# Velocity P-wave (km/s) = 4.68212 5.56186 5.14084
#
# Compressibility (1/GPa) = 0.04239870
#
# Stress axis : x y z
#
# Youngs Moduli (GPa) = 41.85241 75.88602 125.85193
#
# Poissons Ratio (x) = -0.12018 0.12996
# Poissons Ratio (y) = -0.06628 0.23410
# Poissons Ratio (z) = 0.04322 0.14116
#
# Static dielectric constant tensor:
#      x y z
#    x 1.851960 0.000000 -0.017370 
#    y 0.000000 1.853390 0.000000 
#    z -0.017370 0.000000 1.877050 
# 
# From -- ./inp_files/225765.got.cif
#   From: 2010.05.17/outbox.cif.g08.bks.cpg/sg12_113_cif.got.tgz:225765.got - 2010.06.03 13:09:07.
