data_PCOD9197809
_publ_section_title
;
Structure prediction by ZEFSAII (Michael W. Deem and Ramdas Pophale) SiO2 
 PCOD9197809
Probable space group: C 2/M
;
_chemical_formula_sum "Si O2"
_cell_formula_units_Z 56
_cell_length_a 28.465553
_cell_length_b 13.073149
_cell_length_c 8.327549
_cell_angle_alpha 90.000000
_cell_angle_beta 109.074284
_cell_angle_gamma 90.000000
_cell_volume 2928.820879
_symmetry_space_group_name_H-M "C 2/M"
_symmetry_group_IT_number 12
_symmetry_cell_setting 'monoclinic'
loop_
_space_group_symop_operation_xyz
x,y,z
-x,y,-z
-x,-y,-z
x,-y,z
1/2+x,1/2+y,z
1/2-x,1/2+y,-z
1/2-x,1/2-y,-z
1/2+x,1/2-y,z
loop_
_atom_site_type_symbol
_atom_site_label
_atom_site_fract_x
_atom_site_fract_y
_atom_site_fract_z
Si Si1 0.118234 0.615834 0.650678
Si Si2 0.888278 0.118894 0.708324
Si Si3 0.883305 0.885584 0.056836
Si Si4 0.316163 0.780289 0.511804
Si Si5 0.304399 0.206666 0.016222
Si Si6 0.247374 0.116771 0.673465
Si Si7 0.058722 0.182201 0.567157
O O1 0.101503 0.500000 0.646937
O O2 0.143293 0.641822 0.508163
O O3 0.075394 0.700429 0.617802
O O4 0.163512 0.639591 0.823661
O O5 0.842618 0.198927 0.657726
O O6 0.919355 0.147427 0.582331
O O7 0.873200 0.000000 0.673296
O O8 0.910666 0.127853 0.913877
O O9 0.917121 0.875199 0.253106
O O10 0.861766 0.000000 0.031258
O O11 0.839978 0.802398 0.020001
O O12 0.271694 0.847471 0.532739
O O13 0.296222 0.700635 0.354006
O O14 0.290868 0.136390 0.848859
O O15 0.250000 0.250000 0.000000
O O16 0.230690 0.000000 0.657825
O O17 0.000000 0.169251 0.500000
#
# Coordination Sequence:
#
# PCOD9197809 Si02
#       7
#     8   8   8   8   8   8   8
#     4  10  21  38  60  82 110 151 193 237 293 345
#     4  10  20  37  61  85 117 156 189 235 297 353
#     4  10  22  39  61  87 120 157 195 240 292 349
#     4  10  20  36  51  80 115 145 198 237 276 335
#     4  11  21  38  52  84 120 153 199 238 281 336
#     4  11  21  33  53  77 111 155 194 235 281 331
#     4  10  23  41  62  89 119 145 190 249 298 361
#
# _framework density 19.120322000000002
#
# number of rings (size 3 to 8) (size 9 to 14) (size 15 to 20)
#    0.000    1.714    2.857    1.714    0.000    3.143 
#    0.000    1.429    0.000    0.000    0.000    4.000 
#    0.000    0.000    0.000    0.000    0.000    0.000 
#
# Total GULP energy -155932.368850 kJ/mol
# GULP energy per Si atom -5569.013173 kJ/mol
# Density = 1.907680 g / cm^3
# Si number density = 19.120322 Si / 1000 Ang^3
#
#
#
# Elastic Constant Matrix: (Units=GPa)
#
#
# Indices 1 2 3 4 5 6 
#
# 1 58.4473 7.8622 34.2650 0.0000 1.6762 0.0000
# 2 7.8622 112.7833 25.3396 0.0000 -8.9629 0.0000
# 3 34.2650 25.3396 92.8495 0.0000 -9.3706 0.0000
# 4 0.0000 0.0000 0.0000 19.9114 0.0000 -4.4855
# 5 1.6762 -8.9629 -9.3706 0.0000 20.1167 0.0000
# 6 0.0000 0.0000 0.0000 -4.4855 0.0000 8.8330
#
#
#
# Elastic Compliance Matrix: (Units=1/GPa)
#
#
# Indices 1 2 3 4 5 6 
#
# 1 0.022509 -0.000049 -0.008903 0.000000 -0.006045 0.000000
# 2 -0.000049 0.009641 -0.002287 0.000000 0.003234 0.000000
# 3 -0.008903 -0.002287 0.015375 0.000000 0.006885 0.000000
# 4 0.000000 0.000000 0.000000 0.056710 0.000000 0.028798
# 5 -0.006045 0.003234 0.006885 0.000000 0.054862 0.000000
# 6 0.000000 0.000000 0.000000 0.028798 0.000000 0.127836
#
#
# Mechanical properties :
#
#
# Convention : Reuss Voigt Hill
#
# Bulk Modulus (GPa) = 39.92579 44.33485 42.13032
# Shear Modulus (GPa) = 15.73518 22.87974 19.30746
#
# Velocity S-wave (km/s) = 2.87183 3.46297 3.18116
# Velocity P-wave (km/s) = 5.65006 6.26316 5.96450
#
# Compressibility (1/GPa) = 0.02504647
#
# Stress axis : x y z
#
# Youngs Moduli (GPa) = 44.42667 103.72639 65.04229
#
# Poissons Ratio (x) = 0.00510 0.57909
# Poissons Ratio (y) = 0.00218 0.14872
# Poissons Ratio (z) = 0.39554 0.23717
#
# Static dielectric constant tensor:
#      x y z
#    x 1.664850 0.000000 -0.052500 
#    y 0.000000 1.644640 0.000000 
#    z -0.052500 0.000000 1.766010 
# 
# From -- ./inp_files/103145.got.cif
#   From: 2010.05.17/outbox.cif.g08.bks.cpg/sg12_52_cif.got.tgz:103145.got - 2010.06.03 13:09:07.
