data_PCOD9197923
_publ_section_title
;
Structure prediction by ZEFSAII (Michael W. Deem and Ramdas Pophale) SiO2 
 PCOD9197923
Probable space group: C 2/M
;
_chemical_formula_sum "Si O2"
_cell_formula_units_Z 60
_cell_length_a 11.426489
_cell_length_b 14.672468
_cell_length_c 20.283252
_cell_angle_alpha 90.000000
_cell_angle_beta 81.330620
_cell_angle_gamma 90.000000
_cell_volume 3361.731343
_symmetry_space_group_name_H-M "C 2/M"
_symmetry_group_IT_number 12
_symmetry_cell_setting 'monoclinic'
loop_
_space_group_symop_operation_xyz
x,y,z
-x,y,-z
-x,-y,-z
x,-y,z
1/2+x,1/2+y,z
1/2-x,1/2+y,-z
1/2-x,1/2-y,-z
1/2+x,1/2-y,z
loop_
_atom_site_type_symbol
_atom_site_label
_atom_site_fract_x
_atom_site_fract_y
_atom_site_fract_z
Si Si1 0.653251 0.895989 0.408249
Si Si2 0.086403 0.220037 0.055503
Si Si3 0.500000 0.646665 0.500000
Si Si4 0.107987 0.897181 0.697900
Si Si5 0.765336 0.605972 0.957395
Si Si6 0.581705 0.398019 0.852363
Si Si7 0.764773 0.603315 0.449441
Si Si8 0.053756 0.733460 0.619934
O O1 0.772207 0.893723 0.354986
O O2 0.686026 0.871603 0.481229
O O3 0.555246 0.834460 0.382180
O O4 0.610363 0.000000 0.414324
O O5 0.130275 0.322250 0.063489
O O6 0.016201 0.176461 0.121906
O O7 0.191950 0.152067 0.023835
O O8 0.000000 0.220980 0.000000
O O9 0.621558 0.601343 0.463661
O O10 0.450632 0.705049 0.444513
O O11 0.128409 0.890407 0.774241
O O12 0.040478 0.806478 0.679634
O O13 0.056274 0.000000 0.689765
O O14 0.795336 0.500000 0.967279
O O15 0.682779 0.608740 0.899328
O O16 0.529588 0.500000 0.864232
O O17 0.804177 0.500000 0.431971
O O18 0.824891 0.674697 0.394181
#
# Coordination Sequence:
#
# PCOD9197923 Si02
#       8
#     8   8   4   8   8   8   8   8
#     4  10  20  36  55  76 102 132 170 215 264 323
#     4   9  17  30  51  81 111 138 173 215 258 298
#     4  12  21  32  53  76 104 130 161 212 267 322
#     4  10  22  37  52  74 103 136 176 219 263 315
#     4   9  17  30  52  80 109 140 177 215 254 300
#     4   9  18  34  53  72 101 140 180 215 252 303
#     4  11  22  36  54  78 103 131 166 213 270 326
#     4  12  21  35  56  77 102 131 171 216 271 322
#
# _framework density 17.847946
#
# number of rings (size 3 to 8) (size 9 to 14) (size 15 to 20)
#    0.000    1.867    2.667    2.200    0.000    4.533 
#    0.000    0.000    0.000    0.800    0.000    0.000 
#    0.000    0.000    0.000    0.000    0.000    0.000 
#
# Total GULP energy -167124.859856 kJ/mol
# GULP energy per Si atom -5570.828662 kJ/mol
# Density = 1.780732 g / cm^3
# Si number density = 17.847946 Si / 1000 Ang^3
#
#
#
# Elastic Constant Matrix: (Units=GPa)
#
#
# Indices 1 2 3 4 5 6 
#
# 1 46.9903 37.5753 -7.9446 0.0000 -5.4319 0.0000
# 2 37.5753 120.5255 26.8166 0.0000 -2.1157 0.0000
# 3 -7.9446 26.8166 51.3547 0.0000 0.5486 0.0000
# 4 0.0000 0.0000 0.0000 21.2537 0.0000 3.8623
# 5 -5.4319 -2.1157 0.5486 0.0000 11.4711 0.0000
# 6 0.0000 0.0000 0.0000 3.8623 0.0000 8.5030
#
#
#
# Elastic Compliance Matrix: (Units=1/GPa)
#
#
# Indices 1 2 3 4 5 6 
#
# 1 0.036079 -0.013818 0.012648 0.000000 0.013931 0.000000
# 2 -0.013818 0.014724 -0.009790 0.000000 -0.003359 0.000000
# 3 0.012648 -0.009790 0.026510 0.000000 0.002916 0.000000
# 4 0.000000 0.000000 0.000000 0.051284 0.000000 -0.023295
# 5 0.013931 -0.003359 0.002916 0.000000 0.093014 0.000000
# 6 0.000000 0.000000 0.000000 -0.023295 0.000000 0.128187
#
#
# Mechanical properties :
#
#
# Convention : Reuss Voigt Hill
#
# Bulk Modulus (GPa) = 18.05279 36.86280 27.45779
# Shear Modulus (GPa) = 12.81450 19.07375 15.94413
#
# Velocity S-wave (km/s) = 2.68243 3.27261 2.99211
# Velocity P-wave (km/s) = 4.44191 5.91427 5.23017
#
# Compressibility (1/GPa) = 0.05539309
#
# Stress axis : x y z
#
# Youngs Moduli (GPa) = 27.71706 67.91541 37.72117
#
# Poissons Ratio (x) = 0.93843 -0.47709
# Poissons Ratio (y) = 0.38298 0.36931
# Poissons Ratio (z) = -0.35056 0.66492
#
# Static dielectric constant tensor:
#      x y z
#    x 1.677860 0.000000 0.001560 
#    y 0.000000 1.660710 0.000000 
#    z 0.001560 0.000000 1.591330 
# 
# From -- ./inp_files/263303.got.cif
#   From: 2010.05.17/outbox.cif.g08.bks.cpg/sg12_132_cif.got.tgz:263303.got - 2010.06.03 13:09:07.
