data_PCOD9197055
_publ_section_title
;
Structure prediction by ZEFSAII (Michael W. Deem and Ramdas Pophale) SiO2 
 PCOD9197055
Probable space group: C 2/M
;
_chemical_formula_sum "Si O2"
_cell_formula_units_Z 52
_cell_length_a 17.459691
_cell_length_b 17.981020
_cell_length_c 15.495350
_cell_angle_alpha 90.000000
_cell_angle_beta 34.105079
_cell_angle_gamma 90.000000
_cell_volume 2727.673755
_symmetry_space_group_name_H-M "C 2/M"
_symmetry_group_IT_number 12
_symmetry_cell_setting 'monoclinic'
loop_
_space_group_symop_operation_xyz
x,y,z
-x,y,-z
-x,-y,-z
x,-y,z
1/2+x,1/2+y,z
1/2-x,1/2+y,-z
1/2-x,1/2-y,-z
1/2+x,1/2-y,z
loop_
_atom_site_type_symbol
_atom_site_label
_atom_site_fract_x
_atom_site_fract_y
_atom_site_fract_z
Si Si1 0.832339 0.843554 0.647701
Si Si2 0.855907 0.376841 0.626392
Si Si3 0.639857 0.500000 0.818111
Si Si4 0.931359 0.169766 0.855576
Si Si5 0.875476 0.000000 0.547490
Si Si6 0.187263 0.745625 0.188851
Si Si7 0.505474 0.500000 0.758503
Si Si8 0.229670 0.780270 0.613937
O O1 0.799725 0.924673 0.642462
O O2 0.770547 0.819476 0.797263
O O3 0.767130 0.787008 0.641404
O O4 0.000000 0.837104 0.500000
O O5 0.728383 0.429103 0.762691
O O6 0.863850 0.310157 0.688912
O O7 0.829400 0.344624 0.555543
O O8 0.000000 0.416426 0.500000
O O9 0.608222 0.500000 0.744953
O O10 0.500000 0.500000 0.000000
O O11 0.919168 0.220592 0.780505
O O12 0.928428 0.080578 0.839284
O O13 0.075821 0.188814 0.764729
O O14 0.806674 0.200794 0.029188
O O15 0.000000 0.000000 0.500000
O O16 0.926276 0.000000 0.400737
O O17 0.250000 0.750000 0.500000
#
# Coordination Sequence:
#
# PCOD9197055 Si02
#       8
#     8   8   4   8   4   8   4   8
#     4  10  20  35  58  86 118 155 203 260 318 374
#     4  11  23  39  60  87 127 166 212 258 324 385
#     4  12  25  41  62  92 133 176 215 267 323 395
#     4  11  22  38  62  90 123 164 209 269 311 391
#     4  10  20  36  61  90 124 159 207 271 327 375
#     4  10  22  39  59  87 123 164 214 254 320 381
#     4  12  22  39  63  99 128 160 223 264 330 382
#     4  11  20  34  59  86 121 157 207 259 319 373
#
# _framework density 19.063863000000001
#
# number of rings (size 3 to 8) (size 9 to 14) (size 15 to 20)
#    0.000    1.231    1.538    7.615    0.000    1.846 
#    0.000    0.000    0.000    5.538    0.000    0.000 
#    0.000    0.000    0.000    0.000    0.000    0.000 
#
# Total GULP energy -144878.159617 kJ/mol
# GULP energy per Si atom -5572.236908 kJ/mol
# Density = 1.902047 g / cm^3
# Si number density = 19.063863 Si / 1000 Ang^3
#
#
#
# Elastic Constant Matrix: (Units=GPa)
#
#
# Indices 1 2 3 4 5 6 
#
# 1 124.0822 42.8409 38.1401 0.0001 -4.0414 0.0000
# 2 42.8409 144.6725 47.7057 0.0001 -6.7321 0.0000
# 3 38.1401 47.7057 61.0881 0.0005 -4.7543 -0.0002
# 4 0.0001 0.0001 0.0005 30.5886 -0.0003 -3.8214
# 5 -4.0414 -6.7321 -4.7543 -0.0003 32.5056 0.0001
# 6 0.0000 0.0000 -0.0002 -3.8214 0.0001 29.8428
#
#
#
# Elastic Compliance Matrix: (Units=1/GPa)
#
#
# Indices 1 2 3 4 5 6 
#
# 1 0.010135 -0.001226 -0.005353 0.000000 0.000223 0.000000
# 2 -0.001226 0.009482 -0.006574 0.000000 0.000850 0.000000
# 3 -0.005353 -0.006574 0.024972 0.000000 0.001625 0.000000
# 4 0.000000 0.000000 0.000000 0.033223 0.000000 0.004254
# 5 0.000223 0.000850 0.001625 0.000000 0.031205 0.000000
# 6 0.000000 0.000000 0.000000 0.004254 0.000000 0.034054
#
#
# Mechanical properties :
#
#
# Convention : Reuss Voigt Hill
#
# Bulk Modulus (GPa) = 54.69136 65.24626 59.96881
# Shear Modulus (GPa) = 28.49452 31.99780 30.24616
#
# Velocity S-wave (km/s) = 3.87031 4.10134 3.98750
# Velocity P-wave (km/s) = 6.98020 7.53176 7.26122
#
# Compressibility (1/GPa) = 0.01828442
#
# Stress axis : x y z
#
# Youngs Moduli (GPa) = 98.66716 105.45941 40.04443
#
# Poissons Ratio (x) = 0.12925 0.21437
# Poissons Ratio (y) = 0.12093 0.26324
# Poissons Ratio (z) = 0.52820 0.69326
#
# Static dielectric constant tensor:
#      x y z
#    x 1.723610 0.000000 0.019180 
#    y 0.000000 1.734430 0.000000 
#    z 0.019180 0.000000 1.668640 
# 
# From -- ./inp_files/216750.got.cif
#   From: 2010.05.17/outbox.cif.g08.bks.cpg/sg12_109_cif.got.tgz:216750.got - 2010.06.03 13:09:07.
