data_PCOD9197532
_publ_section_title
;
Structure prediction by ZEFSAII (Michael W. Deem and Ramdas Pophale) SiO2 
 PCOD9197532
Probable space group: C 2/M
;
_chemical_formula_sum "Si O2"
_cell_formula_units_Z 64
_cell_length_a 16.110336
_cell_length_b 15.623719
_cell_length_c 17.329495
_cell_angle_alpha 90.000000
_cell_angle_beta 131.274695
_cell_angle_gamma 90.000000
_cell_volume 3278.204281
_symmetry_space_group_name_H-M "C 2/M"
_symmetry_group_IT_number 12
_symmetry_cell_setting 'monoclinic'
loop_
_space_group_symop_operation_xyz
x,y,z
-x,y,-z
-x,-y,-z
x,-y,z
1/2+x,1/2+y,z
1/2-x,1/2+y,-z
1/2-x,1/2-y,-z
1/2+x,1/2-y,z
loop_
_atom_site_type_symbol
_atom_site_label
_atom_site_fract_x
_atom_site_fract_y
_atom_site_fract_z
Si Si1 0.018725 0.905267 0.104392
Si Si2 0.148580 0.757508 0.996104
Si Si3 0.753266 0.828011 0.784167
Si Si4 0.493097 0.902658 0.126586
Si Si5 0.908334 0.099505 0.510275
Si Si6 0.472159 0.904304 0.299849
Si Si7 0.791802 0.316791 0.700474
Si Si8 0.876971 0.246815 0.603626
O O1 0.146944 0.881633 0.192106
O O2 0.937681 0.830871 0.083440
O O3 0.993392 0.000000 0.119480
O O4 0.000000 0.907729 0.000000
O O5 0.082969 0.668257 0.959853
O O6 0.250000 0.750000 0.000000
O O7 0.196648 0.786948 0.107399
O O8 0.648392 0.884431 0.741058
O O9 0.724267 0.748712 0.711401
O O10 0.467302 0.900225 0.203241
O O11 0.620664 0.873450 0.198996
O O12 0.476522 0.000000 0.090056
O O13 0.790654 0.124831 0.399638
O O14 0.926173 0.162813 0.593659
O O15 0.000000 0.112309 0.500000
O O16 0.908590 0.000000 0.532880
O O17 0.554738 0.830687 0.379140
O O18 0.509124 0.000000 0.343000
O O19 0.866097 0.258033 0.688736
O O20 0.750000 0.250000 0.500000
#
# Coordination Sequence:
#
# PCOD9197532 Si02
#       8
#     8   8   8   8   8   8   8   8
#     4   9  19  34  54  77 105 148 195 235 286 345
#     4  11  21  36  55  82 118 155 199 244 290 335
#     4  11  20  34  59  83 122 153 192 241 296 340
#     4  10  20  36  56  81 113 155 203 241 283 337
#     4  10  20  37  61  87 114 150 190 225 280 355
#     4  10  20  35  60  89 113 147 197 245 289 346
#     4  10  20  36  59  84 115 153 190 237 290 343
#     4   9  20  37  59  83 113 147 188 235 288 345
#
# _framework density 19.522884999999999
#
# number of rings (size 3 to 8) (size 9 to 14) (size 15 to 20)
#    0.000    2.000    2.500    1.500    0.000    4.000 
#    0.000    3.125    0.000    8.625    0.000    0.000 
#    0.000    0.000    0.000    0.000    0.000    0.000 
#
# Total GULP energy -178508.452503 kJ/mol
# GULP energy per Si atom -5578.389141 kJ/mol
# Density = 1.947845 g / cm^3
# Si number density = 19.522885 Si / 1000 Ang^3
#
#
#
# Elastic Constant Matrix: (Units=GPa)
#
#
# Indices 1 2 3 4 5 6 
#
# 1 69.5088 42.4752 6.2431 0.0000 11.4734 0.0000
# 2 42.4752 157.8416 37.1758 0.0000 0.9117 0.0000
# 3 6.2431 37.1758 38.5866 0.0000 15.2370 0.0000
# 4 0.0000 0.0000 0.0000 29.3294 0.0000 0.2348
# 5 11.4734 0.9117 15.2370 0.0000 21.9318 0.0000
# 6 0.0000 0.0000 0.0000 0.2348 0.0000 24.9670
#
#
#
# Elastic Compliance Matrix: (Units=1/GPa)
#
#
# Indices 1 2 3 4 5 6 
#
# 1 0.021923 -0.008810 0.012851 0.000000 -0.020030 0.000000
# 2 -0.008810 0.012622 -0.017016 0.000000 0.015906 0.000000
# 3 0.012851 -0.017016 0.058714 0.000000 -0.046806 0.000000
# 4 0.000000 0.000000 0.000000 0.034098 0.000000 -0.000321
# 5 -0.020030 0.015906 -0.046806 0.000000 0.087932 0.000000
# 6 0.000000 0.000000 0.000000 -0.000321 0.000000 0.040056
#
#
# Mechanical properties :
#
#
# Convention : Reuss Voigt Hill
#
# Bulk Modulus (GPa) = 14.85741 48.63613 31.74677
# Shear Modulus (GPa) = 16.46192 27.24850 21.85521
#
# Velocity S-wave (km/s) = 2.90696 3.73999 3.34947
# Velocity P-wave (km/s) = 4.34672 6.60428 5.59064
#
# Compressibility (1/GPa) = 0.06730646
#
# Stress axis : x y z
#
# Youngs Moduli (GPa) = 45.61524 79.22521 17.03185
#
# Poissons Ratio (x) = 0.69800 -0.21887
# Poissons Ratio (y) = 0.40189 0.28982
# Poissons Ratio (z) = -0.58619 1.34812
#
# Static dielectric constant tensor:
#      x y z
#    x 1.694690 0.000000 -0.000250 
#    y 0.000000 1.695590 0.000000 
#    z -0.000250 0.000000 1.616170 
# 
# From -- ./inp_files/315740.got.cif
#   From: 2010.05.17/outbox.cif.g08.bks.cpg/sg12_158_cif.got.tgz:315740.got - 2010.06.03 13:09:07.
