data_PCOD9197170
_publ_section_title
;
Structure prediction by ZEFSAII (Michael W. Deem and Ramdas Pophale) SiO2 
 PCOD9197170
Probable space group: C 2/M
;
_chemical_formula_sum "Si O2"
_cell_formula_units_Z 40
_cell_length_a 19.776791
_cell_length_b 9.703228
_cell_length_c 29.481493
_cell_angle_alpha 90.000000
_cell_angle_beta 159.532423
_cell_angle_gamma 90.000000
_cell_volume 1978.285377
_symmetry_space_group_name_H-M "C 2/M"
_symmetry_group_IT_number 12
_symmetry_cell_setting 'monoclinic'
loop_
_space_group_symop_operation_xyz
x,y,z
-x,y,-z
-x,-y,-z
x,-y,z
1/2+x,1/2+y,z
1/2-x,1/2+y,-z
1/2-x,1/2-y,-z
1/2+x,1/2-y,z
loop_
_atom_site_type_symbol
_atom_site_label
_atom_site_fract_x
_atom_site_fract_y
_atom_site_fract_z
Si Si1 0.079933 0.662806 0.915677
Si Si2 0.917231 0.342831 0.549344
Si Si3 0.889978 0.839392 0.978504
Si Si4 0.344701 0.342265 0.362646
Si Si5 0.059135 0.654961 0.326548
O O1 0.125646 0.500000 0.946449
O O2 0.876423 0.678973 0.761604
O O3 0.250000 0.750000 0.000000
O O4 0.047110 0.729825 0.944445
O O5 0.911551 0.500000 0.530416
O O6 0.719027 0.264458 0.412493
O O7 0.092266 0.262213 0.636557
O O8 0.941175 0.341284 0.618736
O O9 0.659184 0.822239 0.826781
O O10 0.923808 0.000000 0.013800
O O11 0.000000 0.820029 0.000000
O O12 0.500000 0.326302 0.500000
O O13 0.356396 0.500000 0.353052
O O14 0.118932 0.500000 0.350025
#
# Coordination Sequence:
#
# PCOD9197170 Si02
#       5
#     8   8   8   8   8
#     4  11  25  43  64  92 127 165 206 258 311 369
#     4  10  20  35  58  89 119 150 198 253 297 347
#     4  10  21  39  64  90 122 165 208 251 307 372
#     4  10  23  42  62  83 115 161 204 242 300 367
#     4   9  19  35  57  85 121 160 193 238 303 366
#
# _framework density 20.219529000000001
#
# number of rings (size 3 to 8) (size 9 to 14) (size 15 to 20)
#    0.000    2.000    0.000    2.400    2.800    5.600 
#    0.000    0.000    0.000    0.000    0.000    0.000 
#    0.000    0.000    0.000    0.000    0.000    0.000 
#
# Total GULP energy -111765.660069 kJ/mol
# GULP energy per Si atom -5588.283003 kJ/mol
# Density = 2.017351 g / cm^3
# Si number density = 20.219529 Si / 1000 Ang^3
#
#
#
# Elastic Constant Matrix: (Units=GPa)
#
#
# Indices 1 2 3 4 5 6 
#
# 1 59.7474 59.0021 23.8025 -0.0002 18.8802 0.0001
# 2 59.0021 134.4882 74.9463 -0.0037 17.6067 0.0006
# 3 23.8025 74.9463 115.0096 0.0101 16.0064 0.0053
# 4 -0.0002 -0.0037 0.0101 19.6655 0.0005 9.8541
# 5 18.8802 17.6067 16.0064 0.0005 30.2300 -0.0010
# 6 0.0001 0.0006 0.0053 9.8541 -0.0010 36.3945
#
#
#
# Elastic Compliance Matrix: (Units=1/GPa)
#
#
# Indices 1 2 3 4 5 6 
#
# 1 0.036299 -0.017109 0.005835 -0.000005 -0.015796 0.000000
# 2 -0.017109 0.019995 -0.010100 0.000009 0.004387 -0.000001
# 3 0.005835 -0.010100 0.014852 -0.000009 -0.005626 0.000000
# 4 -0.000005 0.000009 -0.000009 0.058833 0.000002 -0.015929
# 5 -0.015796 0.004387 -0.005626 0.000002 0.043368 0.000002
# 6 0.000000 -0.000001 0.000000 -0.015929 0.000002 0.031790
#
#
# Mechanical properties :
#
#
# Convention : Reuss Voigt Hill
#
# Bulk Modulus (GPa) = 35.21234 69.41634 52.31434
# Shear Modulus (GPa) = 19.42869 27.35763 23.39316
#
# Velocity S-wave (km/s) = 3.10318 3.68235 3.40510
# Velocity P-wave (km/s) = 5.50386 7.24468 6.43342
#
# Compressibility (1/GPa) = 0.02839914
#
# Stress axis : x y z
#
# Youngs Moduli (GPa) = 27.54865 50.01136 67.33152
#
# Poissons Ratio (x) = 0.85563 -0.39286
# Poissons Ratio (y) = 0.47132 0.68004
# Poissons Ratio (z) = -0.16074 0.50511
#
# Static dielectric constant tensor:
#      x y z
#    x 1.725480 0.000000 -0.007170 
#    y 0.000000 1.683550 0.000000 
#    z -0.007170 0.000000 1.734420 
# 
# From -- ./inp_files/380510.got.cif
#   From: 2010.05.17/outbox.cif.g08.bks.cpg/sg12_191_cif.got.tgz:380510.got - 2010.06.03 13:09:07.
