data_PCOD9197557
_publ_section_title
;
Structure prediction by ZEFSAII (Michael W. Deem and Ramdas Pophale) SiO2 
 PCOD9197557
Probable space group: C 2/M
;
_chemical_formula_sum "Si O2"
_cell_formula_units_Z 64
_cell_length_a 31.189142
_cell_length_b 14.288968
_cell_length_c 8.624578
_cell_angle_alpha 90.000000
_cell_angle_beta 125.460154
_cell_angle_gamma 90.000000
_cell_volume 3130.714426
_symmetry_space_group_name_H-M "C 2/M"
_symmetry_group_IT_number 12
_symmetry_cell_setting 'monoclinic'
loop_
_space_group_symop_operation_xyz
x,y,z
-x,y,-z
-x,-y,-z
x,-y,z
1/2+x,1/2+y,z
1/2-x,1/2+y,-z
1/2-x,1/2-y,-z
1/2+x,1/2-y,z
loop_
_atom_site_type_symbol
_atom_site_label
_atom_site_fract_x
_atom_site_fract_y
_atom_site_fract_z
Si Si1 0.013760 0.107413 0.699988
Si Si2 0.200203 0.391613 0.591893
Si Si3 0.786823 0.221163 0.933969
Si Si4 0.453448 0.894562 0.199915
Si Si5 0.630124 0.159745 0.741326
Si Si6 0.052638 0.738510 0.362340
Si Si7 0.621337 0.796633 0.206613
Si Si8 0.365680 0.392660 0.948741
O O1 0.977278 0.165959 0.735019
O O2 0.000000 0.144503 0.500000
O O3 0.998776 0.000000 0.672929
O O4 0.074664 0.115905 0.866638
O O5 0.218266 0.500000 0.616319
O O6 0.162720 0.386631 0.668210
O O7 0.168835 0.359327 0.373264
O O8 0.245006 0.312876 0.716872
O O9 0.829624 0.304932 0.040970
O O10 0.750000 0.250000 0.000000
O O11 0.825835 0.131784 0.005688
O O12 0.417306 0.895824 0.278261
O O13 0.506190 0.832690 0.314027
O O14 0.467583 0.000000 0.186741
O O15 0.414238 0.847288 0.995093
O O16 0.597837 0.243184 0.588663
O O17 0.082727 0.710992 0.271718
O O18 0.639998 0.693910 0.184744
O O19 0.357753 0.500000 0.877603
#
# Coordination Sequence:
#
# PCOD9197557 Si02
#       8
#     8   8   8   8   8   8   8   8
#     4  10  20  35  60  90 122 162 207 255 308 364
#     4  10  22  40  64  91 124 167 210 256 318 381
#     4  10  20  39  66  90 116 153 201 259 316 368
#     4  12  23  37  60  89 125 167 213 258 303 368
#     4  10  21  39  62  89 126 157 207 262 318 366
#     4  11  22  37  59  86 126 166 204 251 305 373
#     4  11  24  40  58  88 129 169 207 258 310 365
#     4  11  22  39  63  90 124 165 210 257 314 379
#
# _framework density 20.442619000000001
#
# number of rings (size 3 to 8) (size 9 to 14) (size 15 to 20)
#    0.000    1.375    2.500    3.375    0.000    5.000 
#    0.000    1.875    0.000   14.250    0.000    0.000 
#    0.000    0.000    0.000    0.000    0.000    0.000 
#
# Total GULP energy -178142.214076 kJ/mol
# GULP energy per Si atom -5566.944190 kJ/mol
# Density = 2.039609 g / cm^3
# Si number density = 20.442619 Si / 1000 Ang^3
#
#
#
# Elastic Constant Matrix: (Units=GPa)
#
#
# Indices 1 2 3 4 5 6 
#
# 1 66.9589 15.8051 10.4801 0.0000 16.7182 0.0000
# 2 15.8051 91.3377 32.7510 0.0000 3.5717 0.0000
# 3 10.4801 32.7510 96.5367 0.0000 11.3330 0.0000
# 4 0.0000 0.0000 0.0000 19.4218 0.0000 -4.0728
# 5 16.7182 3.5717 11.3330 0.0000 22.1287 0.0000
# 6 0.0000 0.0000 0.0000 -4.0728 0.0000 5.4762
#
#
#
# Elastic Compliance Matrix: (Units=1/GPa)
#
#
# Indices 1 2 3 4 5 6 
#
# 1 0.019100 -0.002965 0.000607 0.000000 -0.014262 0.000000
# 2 -0.002965 0.012925 -0.004342 0.000000 0.002378 0.000000
# 3 0.000607 -0.004342 0.012488 0.000000 -0.006153 0.000000
# 4 0.000000 0.000000 0.000000 0.061003 0.000000 0.045370
# 5 -0.014262 0.002378 -0.006153 0.000000 0.058733 0.000000
# 6 0.000000 0.000000 0.000000 0.045370 0.000000 0.216353
#
#
# Mechanical properties :
#
#
# Convention : Reuss Voigt Hill
#
# Bulk Modulus (GPa) = 32.14076 41.43396 36.78736
# Shear Modulus (GPa) = 12.36474 22.45849 17.41161
#
# Velocity S-wave (km/s) = 2.46204 3.31813 2.92161
# Velocity P-wave (km/s) = 4.88249 5.91543 5.42361
#
# Compressibility (1/GPa) = 0.03111314
#
# Stress axis : x y z
#
# Youngs Moduli (GPa) = 52.35479 77.36646 80.07402
#
# Poissons Ratio (x) = 0.22939 -0.04858
# Poissons Ratio (y) = 0.15523 0.34771
# Poissons Ratio (z) = -0.03176 0.33595
#
# Static dielectric constant tensor:
#      x y z
#    x 1.801220 0.000000 -0.017360 
#    y 0.000000 1.733450 0.000000 
#    z -0.017360 0.000000 1.748110 
# 
# From -- ./inp_files/112040.got.cif
#   From: 2010.05.17/outbox.cif.g08.bks.cpg/sg12_57_cif.got.tgz:112040.got - 2010.06.03 13:09:07.
