data_PCOD9197722
_publ_section_title
;
Structure prediction by ZEFSAII (Michael W. Deem and Ramdas Pophale) SiO2 
 PCOD9197722
Probable space group: C 2/M
;
_chemical_formula_sum "Si O2"
_cell_formula_units_Z 56
_cell_length_a 26.976724
_cell_length_b 13.466952
_cell_length_c 11.017999
_cell_angle_alpha 90.000000
_cell_angle_beta 140.644960
_cell_angle_gamma 90.000000
_cell_volume 2538.255923
_symmetry_space_group_name_H-M "C 2/M"
_symmetry_group_IT_number 12
_symmetry_cell_setting 'monoclinic'
loop_
_space_group_symop_operation_xyz
x,y,z
-x,y,-z
-x,-y,-z
x,-y,z
1/2+x,1/2+y,z
1/2-x,1/2+y,-z
1/2-x,1/2-y,-z
1/2+x,1/2-y,z
loop_
_atom_site_type_symbol
_atom_site_label
_atom_site_fract_x
_atom_site_fract_y
_atom_site_fract_z
Si Si1 0.321250 0.186979 0.379068
Si Si2 0.097399 0.614212 0.950820
Si Si3 0.148193 0.112255 0.003096
Si Si4 0.455586 0.808201 0.800387
Si Si5 0.886528 0.114350 0.788380
Si Si6 0.746067 0.615242 0.636833
Si Si7 0.841259 0.720773 0.155786
O O1 0.240987 0.128199 0.205069
O O2 0.376525 0.149221 0.591854
O O3 0.295467 0.300301 0.361805
O O4 0.367669 0.191819 0.339804
O O5 0.074062 0.500000 0.914599
O O6 0.142935 0.634629 0.911667
O O7 0.021766 0.681368 0.823785
O O8 0.162007 0.636309 0.177635
O O9 0.109346 0.131055 0.060486
O O10 0.133536 0.000000 0.940496
O O11 0.124092 0.184864 0.849494
O O12 0.432498 0.697202 0.799922
O O13 0.500000 0.856310 0.000000
O O14 0.796158 0.123666 0.572794
O O15 0.909501 0.000000 0.805184
O O16 0.735486 0.500000 0.657081
O O17 0.750000 0.750000 0.000000
#
# Coordination Sequence:
#
# PCOD9197722 Si02
#       7
#     8   8   8   8   8   8   8
#     4  10  22  39  61  90 127 161 208 251 302 361
#     4  11  23  40  62  91 126 163 202 249 307 365
#     4  10  20  35  62  94 120 153 205 263 308 352
#     4  11  25  39  60  90 129 168 199 246 308 375
#     4   9  20  39  63  88 117 161 207 256 308 356
#     4   9  18  35  63  89 115 156 207 255 300 353
#     4  10  20  39  61  88 118 157 209 254 300 349
#
# _framework density 22.062394000000001
#
# number of rings (size 3 to 8) (size 9 to 14) (size 15 to 20)
#    0.000    2.000    2.857    0.857    2.000    5.714 
#    0.000    1.429    0.000    0.000    0.000    7.000 
#    0.000    0.000    0.000    0.000    0.000    0.000 
#
# Total GULP energy -156205.020018 kJ/mol
# GULP energy per Si atom -5578.750715 kJ/mol
# Density = 2.201218 g / cm^3
# Si number density = 22.062394 Si / 1000 Ang^3
#
#
#
# Elastic Constant Matrix: (Units=GPa)
#
#
# Indices 1 2 3 4 5 6 
#
# 1 91.8978 18.9980 11.8800 0.0000 -0.0764 0.0000
# 2 18.9980 75.1929 -6.3315 0.0000 1.8313 0.0000
# 3 11.8800 -6.3315 76.1402 0.0000 1.8166 0.0000
# 4 0.0000 0.0000 0.0000 21.0363 0.0000 -1.2555
# 5 -0.0764 1.8313 1.8166 0.0000 33.2072 0.0000
# 6 0.0000 0.0000 0.0000 -1.2555 0.0000 18.0867
#
#
#
# Elastic Compliance Matrix: (Units=1/GPa)
#
#
# Indices 1 2 3 4 5 6 
#
# 1 0.011810 -0.003170 -0.002114 0.000000 0.000318 0.000000
# 2 -0.003170 0.014265 0.001702 0.000000 -0.000887 0.000000
# 3 -0.002114 0.001702 0.013625 0.000000 -0.000844 0.000000
# 4 0.000000 0.000000 0.000000 0.047735 0.000000 0.003313
# 5 0.000318 -0.000887 -0.000844 0.000000 0.030210 0.000000
# 6 0.000000 0.000000 0.000000 0.003313 0.000000 0.055519
#
#
# Mechanical properties :
#
#
# Convention : Reuss Voigt Hill
#
# Bulk Modulus (GPa) = 30.73416 32.48045 31.60730
# Shear Modulus (GPa) = 26.15428 29.04500 27.59964
#
# Velocity S-wave (km/s) = 3.44680 3.63229 3.54076
# Velocity P-wave (km/s) = 5.45906 5.68730 5.57435
#
# Compressibility (1/GPa) = 0.03253709
#
# Stress axis : x y z
#
# Youngs Moduli (GPa) = 84.67057 70.10215 73.39361
#
# Poissons Ratio (x) = 0.22221 0.15515
# Poissons Ratio (y) = 0.26838 -0.12491
# Poissons Ratio (z) = 0.17899 -0.11931
#
# Static dielectric constant tensor:
#      x y z
#    x 1.861340 0.000000 0.002410 
#    y 0.000000 1.804940 0.000000 
#    z 0.002410 0.000000 1.855320 
# 
# From -- ./inp_files/183574.got.cif
#   From: 2010.05.17/outbox.cif.g08.bks.cpg/sg12_92_cif.got.tgz:183574.got - 2010.06.03 13:09:07.
