data_PCOD9197107
_publ_section_title
;
Structure prediction by ZEFSAII (Michael W. Deem and Ramdas Pophale) SiO2 
 PCOD9197107
Probable space group: C 2/M
;
_chemical_formula_sum "Si O2"
_cell_formula_units_Z 50
_cell_length_a 27.524481
_cell_length_b 9.475893
_cell_length_c 11.361968
_cell_angle_alpha 90.000000
_cell_angle_beta 108.874854
_cell_angle_gamma 90.000000
_cell_volume 2804.066969
_symmetry_space_group_name_H-M "C 2/M"
_symmetry_group_IT_number 12
_symmetry_cell_setting 'monoclinic'
loop_
_space_group_symop_operation_xyz
x,y,z
-x,y,-z
-x,-y,-z
x,-y,z
1/2+x,1/2+y,z
1/2-x,1/2+y,-z
1/2-x,1/2-y,-z
1/2+x,1/2-y,z
loop_
_atom_site_type_symbol
_atom_site_label
_atom_site_fract_x
_atom_site_fract_y
_atom_site_fract_z
Si Si1 0.168155 0.165827 0.685785
Si Si2 0.696357 0.666875 0.446478
Si Si3 0.252616 0.338214 0.883855
Si Si4 0.500000 0.500000 0.500000
Si Si5 0.359708 0.663035 0.834460
Si Si6 0.064517 0.844156 0.743839
Si Si7 0.551903 0.833316 0.966025
O O1 0.164518 0.180306 0.542376
O O2 0.214231 0.263779 0.763497
O O3 0.116459 0.199958 0.716393
O O4 0.179838 0.000000 0.718275
O O5 0.708128 0.500000 0.438082
O O6 0.750000 0.750000 0.500000
O O7 0.661977 0.712362 0.308979
O O8 0.237399 0.500000 0.891215
O O9 0.310027 0.336105 0.879245
O O10 0.250000 0.250000 0.000000
O O11 0.522688 0.379153 0.610419
O O12 0.377497 0.500000 0.836035
O O13 0.402838 0.759432 0.924986
O O14 0.049221 0.739928 0.835808
O O15 0.075562 0.000000 0.807885
O O16 0.561410 0.000000 0.960308
O O17 0.500000 0.813638 0.000000
#
# Coordination Sequence:
#
# PCOD9197107 Si02
#       7
#     8   8   8   2   8   8   8
#     4  10  20  35  58  87 120 157 196 249 303 356
#     4  10  20  36  57  86 124 161 201 250 298 362
#     4  11  22  35  54  84 120 156 199 244 296 368
#     4   8  20  40  68  92 120 152 214 266 298 360
#     4  10  22  39  59  87 119 160 209 249 296 365
#     4   9  20  40  64  92 120 154 204 255 300 362
#     4  11  25  43  62  90 125 159 201 256 313 371
#
# _framework density 17.831244000000002
#
# number of rings (size 3 to 8) (size 9 to 14) (size 15 to 20)
#    0.480    1.440    1.600    1.920    0.000    8.960 
#    2.880    0.400    0.000    0.000    0.000    0.000 
#    0.000    0.000    0.000    0.000    0.000    0.000 
#
# Total GULP energy -139168.640827 kJ/mol
# GULP energy per Si atom -5566.745633 kJ/mol
# Density = 1.779066 g / cm^3
# Si number density = 17.831244 Si / 1000 Ang^3
#
#
#
# Elastic Constant Matrix: (Units=GPa)
#
#
# Indices 1 2 3 4 5 6 
#
# 1 76.7588 65.1248 55.8002 0.0000 -1.3815 0.0000
# 2 65.1248 95.2030 76.8912 0.0000 -0.3250 0.0000
# 3 55.8002 76.8912 136.7231 0.0000 10.9296 0.0000
# 4 0.0000 0.0000 0.0000 26.2214 0.0000 -3.0135
# 5 -1.3815 -0.3250 10.9296 0.0000 27.0783 0.0000
# 6 0.0000 0.0000 0.0000 -3.0135 0.0000 24.6135
#
#
#
# Elastic Compliance Matrix: (Units=1/GPa)
#
#
# Indices 1 2 3 4 5 6 
#
# 1 0.031283 -0.020064 -0.001645 0.000000 0.002019 0.000000
# 2 -0.020064 0.032725 -0.010504 0.000000 0.003609 0.000000
# 3 -0.001645 -0.010504 0.014373 0.000000 -0.006011 0.000000
# 4 0.000000 0.000000 0.000000 0.038681 0.000000 0.004736
# 5 0.002019 0.003609 -0.006011 0.000000 0.039503 0.000000
# 6 0.000000 0.000000 0.000000 0.004736 0.000000 0.041208
#
#
# Mechanical properties :
#
#
# Convention : Reuss Voigt Hill
#
# Bulk Modulus (GPa) = 71.65800 78.25748 74.95774
# Shear Modulus (GPa) = 18.73713 22.97388 20.85550
#
# Velocity S-wave (km/s) = 3.24513 3.59333 3.42366
# Velocity P-wave (km/s) = 7.36988 7.82299 7.59981
#
# Compressibility (1/GPa) = 0.01395518
#
# Stress axis : x y z
#
# Youngs Moduli (GPa) = 31.96618 30.55810 69.57398
#
# Poissons Ratio (x) = 0.61312 0.11446
# Poissons Ratio (y) = 0.64137 0.73079
# Poissons Ratio (z) = 0.05259 0.32097
#
# Static dielectric constant tensor:
#      x y z
#    x 1.598620 0.000000 -0.008840 
#    y 0.000000 1.607430 0.000000 
#    z -0.008840 0.000000 1.625230 
# 
# From -- ./inp_files/180192.got.cif
#   From: 2010.05.17/outbox.cif.g08.bks.cpg/sg12_91_cif.got.tgz:180192.got - 2010.06.03 13:09:07.
