data_PCOD9197172
_publ_section_title
;
Structure prediction by ZEFSAII (Michael W. Deem and Ramdas Pophale) SiO2 
 PCOD9197172
Probable space group: C 2/M
;
_chemical_formula_sum "Si O2"
_cell_formula_units_Z 56
_cell_length_a 15.599733
_cell_length_b 8.688346
_cell_length_c 25.021645
_cell_angle_alpha 90.000000
_cell_angle_beta 60.286131
_cell_angle_gamma 90.000000
_cell_volume 2945.409841
_symmetry_space_group_name_H-M "C 2/M"
_symmetry_group_IT_number 12
_symmetry_cell_setting 'monoclinic'
loop_
_space_group_symop_operation_xyz
x,y,z
-x,y,-z
-x,-y,-z
x,-y,z
1/2+x,1/2+y,z
1/2-x,1/2+y,-z
1/2-x,1/2-y,-z
1/2+x,1/2-y,z
loop_
_atom_site_type_symbol
_atom_site_label
_atom_site_fract_x
_atom_site_fract_y
_atom_site_fract_z
Si Si1 0.192377 0.816326 0.873907
Si Si2 0.917865 0.685684 0.569309
Si Si3 0.775241 0.813936 0.433802
Si Si4 0.411083 0.315086 0.794812
Si Si5 0.352709 0.315508 0.990821
Si Si6 0.999738 0.185594 0.346475
Si Si7 0.519747 0.183001 0.862205
O O1 0.303676 0.755095 0.839189
O O2 0.126425 0.738278 0.848938
O O3 0.192086 0.000000 0.867061
O O4 0.145365 0.782617 0.946598
O O5 0.919930 0.500000 0.571714
O O6 0.810743 0.733927 0.580551
O O7 0.945930 0.751619 0.618018
O O8 0.000000 0.732628 0.500000
O O9 0.750000 0.750000 0.500000
O O10 0.885129 0.764623 0.383559
O O11 0.773577 0.000000 0.436804
O O12 0.404986 0.500000 0.798992
O O13 0.448708 0.267555 0.724599
O O14 0.485704 0.257292 0.817144
O O15 0.355694 0.500000 0.982667
O O16 0.441446 0.240536 0.930744
O O17 0.250000 0.250000 0.000000
O O18 0.000994 0.000000 0.348145
O O19 0.515724 0.000000 0.859396
#
# Coordination Sequence:
#
# PCOD9197172 Si02
#       7
#     8   8   8   8   8   8   8
#     4  11  24  42  65  93 124 163 210 259 315 372
#     4  10  20  35  58  89 120 153 195 242 296 358
#     4  10  20  36  58  86 119 152 192 239 296 355
#     4  11  24  43  63  87 124 166 212 261 310 371
#     4  11  22  38  64  95 127 162 209 262 315 370
#     4  10  23  40  60  88 120 157 200 248 304 363
#     4  12  25  41  64  94 127 166 210 257 314 373
#
# _framework density 19.012633999999998
#
# number of rings (size 3 to 8) (size 9 to 14) (size 15 to 20)
#    0.000    1.286    2.857    3.000    0.000    6.571 
#    0.000    1.429    0.000    0.000    0.000    0.000 
#    0.000    0.000    0.000    0.000    0.000    0.000 
#
# Total GULP energy -156564.885770 kJ/mol
# GULP energy per Si atom -5591.603063 kJ/mol
# Density = 1.896936 g / cm^3
# Si number density = 19.012634 Si / 1000 Ang^3
#
#
#
# Elastic Constant Matrix: (Units=GPa)
#
#
# Indices 1 2 3 4 5 6 
#
# 1 119.8509 12.0030 28.5250 0.0000 28.6944 0.0000
# 2 12.0030 27.1209 28.6957 0.0000 8.9081 0.0000
# 3 28.5250 28.6957 102.5889 0.0000 30.6218 0.0000
# 4 0.0000 0.0000 0.0000 27.2308 0.0000 4.9393
# 5 28.6944 8.9081 30.6218 0.0000 21.9848 0.0000
# 6 0.0000 0.0000 0.0000 4.9393 0.0000 30.6940
#
#
#
# Elastic Compliance Matrix: (Units=1/GPa)
#
#
# Indices 1 2 3 4 5 6 
#
# 1 0.012566 -0.002295 0.003023 0.000000 -0.019682 0.000000
# 2 -0.002295 0.052816 -0.014791 0.000000 0.002197 0.000000
# 3 0.003023 -0.014791 0.021281 0.000000 -0.027593 0.000000
# 4 0.000000 0.000000 0.000000 0.037827 0.000000 -0.006087
# 5 -0.019682 0.002197 -0.027593 0.000000 0.108717 0.000000
# 6 0.000000 0.000000 0.000000 -0.006087 0.000000 0.033559
#
#
# Mechanical properties :
#
#
# Convention : Reuss Voigt Hill
#
# Bulk Modulus (GPa) = 17.08349 43.11202 30.09776
# Shear Modulus (GPa) = 15.90303 28.00439 21.95371
#
# Velocity S-wave (km/s) = 2.89527 3.84205 3.40176
# Velocity P-wave (km/s) = 4.49240 6.51202 5.59411
#
# Compressibility (1/GPa) = 0.05853605
#
# Stress axis : x y z
#
# Youngs Moduli (GPa) = 79.57821 18.93360 46.99097
#
# Poissons Ratio (x) = 0.04346 -0.14204
# Poissons Ratio (y) = 0.18264 0.69505
# Poissons Ratio (z) = -0.24054 0.28005
#
# Static dielectric constant tensor:
#      x y z
#    x 1.647610 0.000000 -0.007620 
#    y 0.000000 1.640710 0.000000 
#    z -0.007620 0.000000 1.636550 
# 
# From -- ./inp_files/338568.got.cif
#   From: 2010.05.17/outbox.cif.g08.bks.cpg/sg12_170_cif.got.tgz:338568.got - 2010.06.03 13:09:07.
