data_PCOD9197542
_publ_section_title
;
Structure prediction by ZEFSAII (Michael W. Deem and Ramdas Pophale) SiO2 
 PCOD9197542
Probable space group: C 2/M
;
_chemical_formula_sum "Si O2"
_cell_formula_units_Z 64
_cell_length_a 9.290485
_cell_length_b 18.981483
_cell_length_c 22.546752
_cell_angle_alpha 90.000000
_cell_angle_beta 52.922775
_cell_angle_gamma 90.000000
_cell_volume 3172.191634
_symmetry_space_group_name_H-M "C 2/M"
_symmetry_group_IT_number 12
_symmetry_cell_setting 'monoclinic'
loop_
_space_group_symop_operation_xyz
x,y,z
-x,y,-z
-x,-y,-z
x,-y,z
1/2+x,1/2+y,z
1/2-x,1/2+y,-z
1/2-x,1/2-y,-z
1/2+x,1/2-y,z
loop_
_atom_site_type_symbol
_atom_site_label
_atom_site_fract_x
_atom_site_fract_y
_atom_site_fract_z
Si Si1 0.309965 0.152120 0.823787
Si Si2 0.977847 0.916548 0.621526
Si Si3 0.615081 0.347016 0.239132
Si Si4 0.362817 0.085890 0.483123
Si Si5 0.410083 0.749751 0.200044
Si Si6 0.687731 0.914883 0.920618
Si Si7 0.989080 0.080659 0.939378
Si Si8 0.910646 0.585404 0.335848
O O1 0.426402 0.194148 0.843404
O O2 0.151478 0.204330 0.841027
O O3 0.196513 0.083761 0.868361
O O4 0.447222 0.129139 0.738339
O O5 0.970888 0.900998 0.693573
O O6 0.790673 0.896418 0.636575
O O7 0.160911 0.887523 0.547235
O O8 0.986134 0.000000 0.611514
O O9 0.470214 0.303008 0.237170
O O10 0.729367 0.294957 0.252788
O O11 0.754579 0.380612 0.156568
O O12 0.500000 0.109520 0.500000
O O13 0.425044 0.103531 0.401459
O O14 0.358797 0.000000 0.485952
O O15 0.847552 0.893575 0.926070
O O16 0.686456 0.000000 0.912757
O O17 0.500000 0.895672 0.000000
O O18 0.929076 0.000000 0.963438
O O19 0.000000 0.118570 0.000000
O O20 0.936154 0.500000 0.322076
#
# Coordination Sequence:
#
# PCOD9197542 Si02
#       8
#     8   8   8   8   8   8   8   8
#     4  11  21  42  59  85 111 156 196 240 283 344
#     4  10  20  35  60  89 118 150 186 235 294 352
#     4  11  21  42  59  85 111 156 196 240 283 344
#     4   9  19  33  53  88 123 148 182 234 293 345
#     4  10  24  38  61  79 116 152 202 242 280 321
#     4  10  22  39  61  89 120 149 184 238 295 346
#     4  10  22  39  61  89 120 149 184 238 295 346
#     4  10  20  35  60  89 118 150 186 235 294 352
#
# _framework density 20.175325999999998
#
# number of rings (size 3 to 8) (size 9 to 14) (size 15 to 20)
#    0.000    1.875    2.500    1.125    3.500    1.500 
#    0.000    3.750    0.000    4.500    0.000    0.000 
#    0.000    0.000    0.000    0.000    0.000    0.000 
#
# Total GULP energy -178193.603504 kJ/mol
# GULP energy per Si atom -5568.550110 kJ/mol
# Density = 2.012941 g / cm^3
# Si number density = 20.175326 Si / 1000 Ang^3
#
#
#
# Elastic Constant Matrix: (Units=GPa)
#
#
# Indices 1 2 3 4 5 6 
#
# 1 115.2433 18.8201 33.3819 0.0000 -2.9280 -0.0001
# 2 18.8201 28.0499 10.8791 0.0000 -1.3568 0.0000
# 3 33.3819 10.8791 109.9937 -0.0001 -8.1927 0.0000
# 4 0.0000 0.0000 -0.0001 -5.8124 0.0000 1.8619
# 5 -2.9280 -1.3568 -8.1927 0.0000 26.5625 0.0000
# 6 -0.0001 0.0000 0.0000 1.8619 0.0000 20.5385
#
#
#
# Elastic Compliance Matrix: (Units=1/GPa)
#
#
# Indices 1 2 3 4 5 6 
#
# 1 0.010397 -0.005980 -0.002560 0.000000 0.000051 0.000000
# 2 -0.005980 0.040529 -0.002138 0.000000 0.000752 0.000000
# 3 -0.002560 -0.002138 0.010287 0.000000 0.002781 0.000000
# 4 0.000000 0.000000 0.000000 -0.167190 0.000000 0.015156
# 5 0.000051 0.000752 0.002781 0.000000 0.038549 0.000000
# 6 0.000000 0.000000 0.000000 0.015156 0.000000 0.047315
#
#
# Mechanical properties :
#
#
# Convention : Reuss Voigt Hill
#
# Bulk Modulus (GPa) = 25.09002 42.16101 33.62552
# Shear Modulus (GPa) = 344.15569 20.93809 182.54689
#
# Velocity S-wave (km/s) = 13.07489 3.22500 9.52243
# Velocity P-wave (km/s) = 15.50484 5.90001 11.73052
#
# Compressibility (1/GPa) = 0.03985648
#
# Stress axis : x y z
#
# Youngs Moduli (GPa) = 96.18366 24.67386 97.21046
#
# Poissons Ratio (x) = 0.14756 0.24886
# Poissons Ratio (y) = 0.57521 0.20780
# Poissons Ratio (z) = 0.24623 0.05274
#
# Static dielectric constant tensor:
#      x y z
#    x 1.724540 0.000000 0.000080 
#    y 0.000000 1.772730 0.000000 
#    z 0.000080 0.000000 1.755870 
# 
# From -- ./inp_files/302297.got.cif
#   From: 2010.05.17/outbox.cif.g08.bks.cpg/sg12_152_cif.got.tgz:302297.got - 2010.06.03 13:09:07.
