data_PCOD9197018
_publ_section_title
;
Structure prediction by ZEFSAII (Michael W. Deem and Ramdas Pophale) SiO2 
 PCOD9197018
Probable space group: C 2/M
;
_chemical_formula_sum "Si O2"
_cell_formula_units_Z 64
_cell_length_a 31.052257
_cell_length_b 7.606632
_cell_length_c 19.117358
_cell_angle_alpha 90.000000
_cell_angle_beta 38.823563
_cell_angle_gamma 90.000000
_cell_volume 2830.926076
_symmetry_space_group_name_H-M "C 2/M"
_symmetry_group_IT_number 12
_symmetry_cell_setting 'monoclinic'
loop_
_space_group_symop_operation_xyz
x,y,z
-x,y,-z
-x,-y,-z
x,-y,z
1/2+x,1/2+y,z
1/2-x,1/2+y,-z
1/2-x,1/2-y,-z
1/2+x,1/2-y,z
loop_
_atom_site_type_symbol
_atom_site_label
_atom_site_fract_x
_atom_site_fract_y
_atom_site_fract_z
Si Si1 0.542261 0.789301 0.568610
Si Si2 0.813271 0.715252 0.217801
Si Si3 0.107514 0.206745 0.261583
Si Si4 0.177354 0.206740 0.311324
Si Si5 0.814084 0.305175 0.965866
Si Si6 0.680954 0.211029 0.629995
Si Si7 0.042278 0.715008 0.729948
Si Si8 0.401287 0.215719 0.980166
O O1 0.472238 0.729801 0.620066
O O2 0.610711 0.725708 0.444267
O O3 0.539504 0.728101 0.652689
O O4 0.543452 0.000000 0.566234
O O5 0.811052 0.500000 0.222395
O O6 0.744225 0.777192 0.265758
O O7 0.815664 0.776786 0.294537
O O8 0.877691 0.764787 0.087630
O O9 0.155879 0.277662 0.262337
O O10 0.123528 0.300545 0.168375
O O11 0.121051 0.000000 0.233928
O O12 0.189825 0.000000 0.284624
O O13 0.795984 0.500000 0.011476
O O14 0.843223 0.217821 0.998799
O O15 0.750000 0.250000 0.000000
O O16 0.750000 0.250000 0.500000
O O17 0.613054 0.274568 0.675863
O O18 0.675052 0.000000 0.641185
O O19 0.042000 0.500000 0.729655
O O20 0.975490 0.771832 0.858274
O O21 0.401696 0.000000 0.976867
#
# Coordination Sequence:
#
# PCOD9197018 Si02
#       8
#     8   8   8   8   8   8   8   8
#     4  11  21  35  54  79 110 146 185 229 281 337
#     4   9  18  33  55  82 109 140 182 225 272 329
#     4  11  22  36  54  78 109 146 189 233 281 332
#     4  10  21  36  52  76 110 146 184 231 283 333
#     4  11  21  35  56  80 112 152 191 232 279 329
#     4  10  20  35  58  86 112 141 181 225 272 334
#     4   9  18  33  54  82 113 142 178 228 283 329
#     4   9  17  33  55  79 111 145 179 229 281 320
#
# _framework density 22.607444999999998
#
# number of rings (size 3 to 8) (size 9 to 14) (size 15 to 20)
#    0.000    2.000    1.250    3.000    0.000    5.000 
#    0.000    3.125    0.000    1.500    0.000    0.875 
#    0.000    0.000    0.000    0.000    0.000    0.000 
#
# Total GULP energy -178826.311187 kJ/mol
# GULP energy per Si atom -5588.322225 kJ/mol
# Density = 2.255599 g / cm^3
# Si number density = 22.607445 Si / 1000 Ang^3
#
#
#
# Elastic Constant Matrix: (Units=GPa)
#
#
# Indices 1 2 3 4 5 6 
#
# 1 134.6311 6.2205 41.5459 0.0015 7.3919 0.0010
# 2 6.2205 49.1717 -7.5667 0.0332 1.2482 -0.0169
# 3 41.5459 -7.5667 117.6138 0.0084 14.1710 -0.0095
# 4 0.0015 0.0332 0.0084 19.4364 -0.0113 -2.7222
# 5 7.3919 1.2482 14.1710 -0.0113 43.6821 0.0022
# 6 0.0010 -0.0169 -0.0095 -2.7222 0.0022 10.0772
#
#
#
# Elastic Compliance Matrix: (Units=1/GPa)
#
#
# Indices 1 2 3 4 5 6 
#
# 1 0.008458 -0.001527 -0.003037 0.000002 -0.000402 -0.000006
# 2 -0.001527 0.020863 0.002001 -0.000033 -0.000987 0.000028
# 3 -0.003037 0.002001 0.010041 -0.000008 -0.002801 0.000012
# 4 0.000002 -0.000033 -0.000008 0.053473 0.000016 0.014445
# 5 -0.000402 -0.000987 -0.002801 0.000016 0.023898 -0.000005
# 6 -0.000006 0.000028 0.000012 0.014445 -0.000005 0.103136
#
#
# Mechanical properties :
#
#
# Convention : Reuss Voigt Hill
#
# Bulk Modulus (GPa) = 29.21047 42.42401 35.81724
# Shear Modulus (GPa) = 21.14985 32.05359 26.60172
#
# Velocity S-wave (km/s) = 3.06195 3.76950 3.43400
# Velocity P-wave (km/s) = 5.04475 6.14424 5.62144
#
# Compressibility (1/GPa) = 0.03423430
#
# Stress axis : x y z
#
# Youngs Moduli (GPa) = 118.23620 47.93166 99.58682
#
# Poissons Ratio (x) = 0.07320 0.30248
# Poissons Ratio (y) = 0.18056 -0.19923
# Poissons Ratio (z) = 0.35913 -0.09589
#
# Static dielectric constant tensor:
#      x y z
#    x 1.828270 -0.000010 -0.004580 
#    y -0.000010 1.883320 0.000020 
#    z -0.004580 0.000020 1.823960 
# 
# From -- ./inp_files/295653.got.cif
#   From: 2010.05.17/outbox.cif.g08.bks.cpg/sg12_148_cif.got.tgz:295653.got - 2010.06.03 13:09:07.
