data_PCOD9197056
_publ_section_title
;
Structure prediction by ZEFSAII (Michael W. Deem and Ramdas Pophale) SiO2 
 PCOD9197056
Probable space group: C 2/M
;
_chemical_formula_sum "Si O2"
_cell_formula_units_Z 48
_cell_length_a 19.631661
_cell_length_b 8.138950
_cell_length_c 31.180588
_cell_angle_alpha 90.000000
_cell_angle_beta 28.802992
_cell_angle_gamma 90.000000
_cell_volume 2400.357967
_symmetry_space_group_name_H-M "C 2/M"
_symmetry_group_IT_number 12
_symmetry_cell_setting 'monoclinic'
loop_
_space_group_symop_operation_xyz
x,y,z
-x,y,-z
-x,-y,-z
x,-y,z
1/2+x,1/2+y,z
1/2-x,1/2+y,-z
1/2-x,1/2-y,-z
1/2+x,1/2-y,z
loop_
_atom_site_type_symbol
_atom_site_label
_atom_site_fract_x
_atom_site_fract_y
_atom_site_fract_z
Si Si1 0.447218 0.301337 0.751710
Si Si2 0.633520 0.200947 0.954183
Si Si3 0.096738 0.302384 0.070175
Si Si4 0.377710 0.802246 0.262319
Si Si5 0.086718 0.804050 0.585999
Si Si6 0.440066 0.195275 0.578225
O O1 0.442632 0.500000 0.753100
O O2 0.289231 0.243894 0.852601
O O3 0.559856 0.252215 0.726214
O O4 0.498703 0.242655 0.676335
O O5 0.639894 0.000000 0.950612
O O6 0.500000 0.250992 0.000000
O O7 0.590959 0.257301 0.024955
O O8 0.084605 0.500000 0.076258
O O9 0.984607 0.241741 0.166502
O O10 0.250000 0.250000 0.000000
O O11 0.224931 0.736327 0.333784
O O12 0.372934 0.000000 0.264947
O O13 0.250000 0.750000 0.500000
O O14 0.016195 0.756789 0.579464
O O15 0.084965 0.000000 0.589186
O O16 0.500000 0.263088 0.500000
O O17 0.460642 0.000000 0.566859
#
# Coordination Sequence:
#
# PCOD9197056 Si02
#       6
#     8   8   8   8   8   8
#     4  10  21  38  61  87 118 160 202 241 294 360
#     4   9  18  33  57  83 113 154 198 241 285 342
#     4  10  20  35  58  86 118 156 200 243 291 351
#     4  11  23  37  60  92 124 156 199 252 301 352
#     4  11  24  41  64  92 122 156 198 245 299 358
#     4  11  25  44  65  89 118 156 202 246 298 363
#
# _framework density 19.997015999999999
#
# number of rings (size 3 to 8) (size 9 to 14) (size 15 to 20)
#    0.000    1.667    1.667    2.500    2.333    7.333 
#    0.000    0.000    0.000    1.000    0.000    0.000 
#    0.000    0.000    0.000    0.000    0.000    0.000 
#
# Total GULP energy -133967.007042 kJ/mol
# GULP energy per Si atom -5581.958627 kJ/mol
# Density = 1.995150 g / cm^3
# Si number density = 19.997016 Si / 1000 Ang^3
#
#
#
# Elastic Constant Matrix: (Units=GPa)
#
#
# Indices 1 2 3 4 5 6 
#
# 1 224.4242 11.7469 96.2013 0.0001 10.6610 -0.0003
# 2 11.7469 16.6248 5.2036 0.0033 8.3291 0.0007
# 3 96.2013 5.2036 147.0703 0.0001 14.0340 0.0002
# 4 0.0001 0.0033 0.0001 20.2263 -0.0002 -3.0602
# 5 10.6610 8.3291 14.0340 -0.0002 40.5733 0.0001
# 6 -0.0003 0.0007 0.0002 -3.0602 0.0001 29.7066
#
#
#
# Elastic Compliance Matrix: (Units=1/GPa)
#
#
# Indices 1 2 3 4 5 6 
#
# 1 0.006366 -0.003443 -0.004085 0.000001 0.000447 0.000000
# 2 -0.003443 0.069080 0.001112 -0.000012 -0.013661 -0.000003
# 3 -0.004085 0.001112 0.009671 0.000000 -0.002500 0.000000
# 4 0.000001 -0.000012 0.000000 0.050223 0.000003 0.005174
# 5 0.000447 -0.013661 -0.002500 0.000003 0.028198 0.000001
# 6 0.000000 -0.000003 0.000000 0.005174 0.000001 0.034196
#
#
# Mechanical properties :
#
#
# Convention : Reuss Voigt Hill
#
# Bulk Modulus (GPa) = 13.83437 68.26921 41.05179
# Shear Modulus (GPa) = 21.30729 36.43241 28.86985
#
# Velocity S-wave (km/s) = 3.26778 4.27299 3.80374
# Velocity P-wave (km/s) = 4.60120 7.65235 6.31385
#
# Compressibility (1/GPa) = 0.07228375
#
# Stress axis : x y z
#
# Youngs Moduli (GPa) = 157.08828 14.47592 103.40564
#
# Poissons Ratio (x) = 0.04985 0.42240
# Poissons Ratio (y) = 0.54093 -0.11497
# Poissons Ratio (z) = 0.64168 -0.01609
#
# Static dielectric constant tensor:
#      x y z
#    x 2.550010 0.000000 -0.333340 
#    y 0.000000 1.711570 0.000000 
#    z -0.333340 0.000000 1.842300 
# 
# From -- ./inp_files/295887.got.cif
#   From: 2010.05.17/outbox.cif.g08.bks.cpg/sg12_148_cif.got.tgz:295887.got - 2010.06.03 13:09:07.
