data_PCOD9197922
_publ_section_title
;
Structure prediction by ZEFSAII (Michael W. Deem and Ramdas Pophale) SiO2 
 PCOD9197922
Probable space group: C 2/M
;
_chemical_formula_sum "Si O2"
_cell_formula_units_Z 64
_cell_length_a 20.093063
_cell_length_b 8.816172
_cell_length_c 22.770462
_cell_angle_alpha 90.000000
_cell_angle_beta 89.919117
_cell_angle_gamma 90.000000
_cell_volume 4033.644411
_symmetry_space_group_name_H-M "C 2/M"
_symmetry_group_IT_number 12
_symmetry_cell_setting 'monoclinic'
loop_
_space_group_symop_operation_xyz
x,y,z
-x,y,-z
-x,-y,-z
x,-y,z
1/2+x,1/2+y,z
1/2-x,1/2+y,-z
1/2-x,1/2-y,-z
1/2+x,1/2-y,z
loop_
_atom_site_type_symbol
_atom_site_label
_atom_site_fract_x
_atom_site_fract_y
_atom_site_fract_z
Si Si1 0.266811 0.681854 0.372991
Si Si2 0.130843 0.317552 0.534278
Si Si3 0.370935 0.816637 0.283426
Si Si4 0.439591 0.319793 0.042326
Si Si5 0.693919 0.178910 0.960972
Si Si6 0.013901 0.681006 0.625728
Si Si7 0.873166 0.181356 0.596077
Si Si8 0.380529 0.182118 0.148349
O O1 0.265305 0.500000 0.376626
O O2 0.307941 0.749743 0.428388
O O3 0.310350 0.736987 0.317342
O O4 0.192185 0.747619 0.373207
O O5 0.138079 0.500000 0.530546
O O6 0.127977 0.244688 0.470441
O O7 0.062495 0.285896 0.570200
O O8 0.439244 0.782924 0.318435
O O9 0.375750 0.770705 0.215481
O O10 0.361522 0.000000 0.287069
O O11 0.430579 0.500000 0.045141
O O12 0.439062 0.255503 0.108878
O O13 0.500000 0.284938 0.000000
O O14 0.624242 0.239288 0.985508
O O15 0.684635 0.220139 0.891678
O O16 0.698993 0.000000 0.964113
O O17 0.750000 0.250000 0.000000
O O18 0.001026 0.500000 0.625310
O O19 0.943891 0.766131 0.622822
O O20 0.868335 0.000000 0.596417
O O21 0.388342 0.000000 0.147184
#
# Coordination Sequence:
#
# PCOD9197922 Si02
#       8
#     8   8   8   8   8   8   8   8
#     4  11  22  35  53  76 101 131 168 209 252 300
#     4  10  20  36  55  76 101 131 166 204 253 310
#     4   9  18  37  58  75  98 130 170 208 249 300
#     4   9  17  29  48  75 106 136 167 204 246 290
#     4   9  17  29  49  76 105 135 167 204 248 295
#     4   9  19  34  54  75  99 131 164 204 253 304
#     4  12  23  34  50  73 104 133 164 210 258 302
#     4   8  17  31  53  77 100 134 169 205 247 296
#
# _framework density 15.866546
#
# number of rings (size 3 to 8) (size 9 to 14) (size 15 to 20)
#    0.750    1.625    0.000    4.500    0.000    5.500 
#    0.000    0.000    2.750    0.000    0.000    0.000 
#    0.000    0.000    0.000    0.000    0.000    0.000 
#
# Total GULP energy -178138.695415 kJ/mol
# GULP energy per Si atom -5566.834232 kJ/mol
# Density = 1.583043 g / cm^3
# Si number density = 15.866546 Si / 1000 Ang^3
#
#
#
# Elastic Constant Matrix: (Units=GPa)
#
#
# Indices 1 2 3 4 5 6 
#
# 1 201.6402 52.0412 100.4572 0.0000 -26.4654 0.0000
# 2 52.0412 76.3129 48.1759 0.0000 0.1486 0.0000
# 3 100.4572 48.1759 141.7636 0.0000 -8.9287 0.0000
# 4 0.0000 0.0000 0.0000 22.4637 0.0000 -1.7199
# 5 -26.4654 0.1486 -8.9287 0.0000 17.1785 0.0000
# 6 0.0000 0.0000 0.0000 -1.7199 0.0000 29.3286
#
#
#
# Elastic Compliance Matrix: (Units=1/GPa)
#
#
# Indices 1 2 3 4 5 6 
#
# 1 0.010197 -0.003740 -0.005132 0.000000 0.013075 0.000000
# 2 -0.003740 0.018226 -0.004049 0.000000 -0.008024 0.000000
# 3 -0.005132 -0.004049 0.011962 0.000000 -0.001653 0.000000
# 4 0.000000 0.000000 0.000000 0.044717 0.000000 0.002622
# 5 0.013075 -0.008024 -0.001653 0.000000 0.077566 0.000000
# 6 0.000000 0.000000 0.000000 0.002622 0.000000 0.034250
#
#
# Mechanical properties :
#
#
# Convention : Reuss Voigt Hill
#
# Bulk Modulus (GPa) = 68.75405 91.22949 79.99177
# Shear Modulus (GPa) = 21.96758 28.39698 25.18228
#
# Velocity S-wave (km/s) = 3.72495 4.23512 3.98820
# Velocity P-wave (km/s) = 7.86938 9.02983 8.46950
#
# Compressibility (1/GPa) = 0.01454460
#
# Stress axis : x y z
#
# Youngs Moduli (GPa) = 98.06596 54.86645 83.59660
#
# Poissons Ratio (x) = 0.20519 0.42898
# Poissons Ratio (y) = 0.36675 0.33848
# Poissons Ratio (z) = 0.50323 0.22216
#
# Static dielectric constant tensor:
#      x y z
#    x 1.514520 0.000000 0.004790 
#    y 0.000000 1.529820 0.000000 
#    z 0.004790 0.000000 1.527610 
# 
# From -- ./inp_files/341948.got.cif
#   From: 2010.05.17/outbox.cif.g08.bks.cpg/sg12_171_cif.got.tgz:341948.got - 2010.06.03 13:09:07.
