data_PCOD9197184
_publ_section_title
;
Structure prediction by ZEFSAII (Michael W. Deem and Ramdas Pophale) SiO2 
 PCOD9197184
Probable space group: C 2/M
;
_chemical_formula_sum "Si O2"
_cell_formula_units_Z 54
_cell_length_a 16.899921
_cell_length_b 16.759998
_cell_length_c 16.608122
_cell_angle_alpha 90.000000
_cell_angle_beta 34.158393
_cell_angle_gamma 90.000000
_cell_volume 2641.286319
_symmetry_space_group_name_H-M "C 2/M"
_symmetry_group_IT_number 12
_symmetry_cell_setting 'monoclinic'
loop_
_space_group_symop_operation_xyz
x,y,z
-x,y,-z
-x,-y,-z
x,-y,z
1/2+x,1/2+y,z
1/2-x,1/2+y,-z
1/2-x,1/2-y,-z
1/2+x,1/2-y,z
loop_
_atom_site_type_symbol
_atom_site_label
_atom_site_fract_x
_atom_site_fract_y
_atom_site_fract_z
Si Si1 0.912203 0.329536 0.996890
Si Si2 0.835462 0.832736 0.412747
Si Si3 0.894768 0.803821 0.729825
Si Si4 0.587685 0.914840 0.554257
Si Si5 0.000000 0.000000 0.000000
Si Si6 0.453048 0.646727 0.913307
Si Si7 0.500000 0.791634 0.500000
Si Si8 0.134499 0.644720 0.141355
O O1 0.748457 0.351542 0.146525
O O2 0.927688 0.232436 0.978440
O O3 0.940227 0.359530 0.882329
O O4 0.000000 0.357133 0.000000
O O5 0.750000 0.750000 0.500000
O O6 0.715012 0.898527 0.507405
O O7 0.954913 0.843374 0.379738
O O8 0.923241 0.838233 0.255503
O O9 0.900485 0.760685 0.639286
O O10 0.884278 0.734415 0.807178
O O11 0.586213 0.846913 0.488343
O O12 0.444305 0.907887 0.725743
O O13 0.601109 0.000000 0.502936
O O14 0.988206 0.071960 0.940537
O O15 0.301173 0.628566 0.999473
#
# Coordination Sequence:
#
# PCOD9197184 Si02
#       8
#     8   8   8   8   2   8   4   8
#     4  11  20  36  66  92 119 160 226 288 312 366
#     4  12  21  41  62  84 127 183 223 264 312 404
#     4  10  20  35  58  89 124 167 218 265 326 373
#     4  11  25  39  60  92 133 176 206 256 341 412
#     4  12  28  40  60 110 138 190 202 262 352 416
#     4  11  23  40  59  90 139 173 217 258 327 413
#     4  10  21  36  58  92 135 164 202 264 317 394
#     4  10  20  42  61  83 125 177 219 269 318 387
#
# _framework density 20.444585
#
# number of rings (size 3 to 8) (size 9 to 14) (size 15 to 20)
#    0.000    1.185    6.667    1.111    4.148    2.370 
#    0.000    0.000    0.000    0.444    0.000    3.630 
#    0.000    0.000    0.000    0.000    0.000    0.000 
#
# Total GULP energy -150329.253203 kJ/mol
# GULP energy per Si atom -5567.750119 kJ/mol
# Density = 2.039805 g / cm^3
# Si number density = 20.444585 Si / 1000 Ang^3
#
#
#
# Elastic Constant Matrix: (Units=GPa)
#
#
# Indices 1 2 3 4 5 6 
#
# 1 108.0525 8.2811 42.4197 0.0000 15.6937 0.0001
# 2 8.2811 31.1307 9.0393 0.0001 5.8336 0.0000
# 3 42.4197 9.0393 93.8595 0.0002 -3.4446 0.0000
# 4 0.0000 0.0001 0.0002 3.7750 0.0000 5.4609
# 5 15.6937 5.8336 -3.4446 0.0000 38.4769 -0.0001
# 6 0.0001 0.0000 0.0000 5.4609 -0.0001 11.5967
#
#
#
# Elastic Compliance Matrix: (Units=1/GPa)
#
#
# Indices 1 2 3 4 5 6 
#
# 1 0.012338 -0.000600 -0.005718 0.000001 -0.005453 -0.000001
# 2 -0.000600 0.034195 -0.003214 -0.000004 -0.005228 0.000002
# 3 -0.005718 -0.003214 0.013697 -0.000002 0.004046 0.000001
# 4 0.000001 -0.000004 -0.000002 0.830943 0.000000 -0.391293
# 5 -0.005453 -0.005228 0.004046 0.000000 0.029369 0.000000
# 6 -0.000001 0.000002 0.000001 -0.391293 0.000000 0.270492
#
#
# Mechanical properties :
#
#
# Convention : Reuss Voigt Hill
#
# Bulk Modulus (GPa) = 24.29236 39.16921 31.73078
# Shear Modulus (GPa) = 4.08557 22.32322 13.20440
#
# Velocity S-wave (km/s) = 1.41517 3.30796 2.54414
# Velocity P-wave (km/s) = 3.81813 5.81295 4.91775
#
# Compressibility (1/GPa) = 0.04116521
#
# Stress axis : x y z
#
# Youngs Moduli (GPa) = 81.05233 29.24402 73.01044
#
# Poissons Ratio (x) = 0.01754 0.41750
# Poissons Ratio (y) = 0.04860 0.23466
# Poissons Ratio (z) = 0.46349 0.09399
#
# Static dielectric constant tensor:
#      x y z
#    x 1.770200 0.000000 -0.021010 
#    y 0.000000 1.742770 0.000000 
#    z -0.021010 0.000000 1.770920 
# 
# From -- ./inp_files/217690.got.cif
#   From: 2010.05.17/outbox.cif.g08.bks.cpg/sg12_109_cif.got.tgz:217690.got - 2010.06.03 13:09:07.
