data_PCOD9197353
_publ_section_title
;
Structure prediction by ZEFSAII (Michael W. Deem and Ramdas Pophale) SiO2 
 PCOD9197353
Probable space group: C 2/M
;
_chemical_formula_sum "Si O2"
_cell_formula_units_Z 64
_cell_length_a 19.029799
_cell_length_b 13.996644
_cell_length_c 12.553287
_cell_angle_alpha 90.000000
_cell_angle_beta 91.179274
_cell_angle_gamma 90.000000
_cell_volume 3342.901497
_symmetry_space_group_name_H-M "C 2/M"
_symmetry_group_IT_number 12
_symmetry_cell_setting 'monoclinic'
loop_
_space_group_symop_operation_xyz
x,y,z
-x,y,-z
-x,-y,-z
x,-y,z
1/2+x,1/2+y,z
1/2-x,1/2+y,-z
1/2-x,1/2-y,-z
1/2+x,1/2-y,z
loop_
_atom_site_type_symbol
_atom_site_label
_atom_site_fract_x
_atom_site_fract_y
_atom_site_fract_z
Si Si1 0.856786 0.210320 0.779352
Si Si2 0.066163 0.608399 0.579367
Si Si3 0.902220 0.254371 0.247885
Si Si4 0.812806 0.695936 0.562950
Si Si5 0.715084 0.112680 0.858820
Si Si6 0.298932 0.395970 0.301488
Si Si7 0.003026 0.887685 0.128288
Si Si8 0.698270 0.108927 0.108549
O O1 0.850625 0.238072 0.654040
O O2 0.785896 0.153518 0.808654
O O3 0.923597 0.149752 0.819455
O O4 0.852265 0.309896 0.845640
O O5 0.080496 0.500000 0.615802
O O6 0.050682 0.678634 0.676735
O O7 0.132538 0.648403 0.515594
O O8 0.000000 0.607310 0.500000
O O9 0.849799 0.325756 0.186064
O O10 0.854226 0.186938 0.320890
O O11 0.944343 0.182353 0.174664
O O12 0.750000 0.750000 0.500000
O O13 0.770229 0.617200 0.629750
O O14 0.707872 0.000000 0.835661
O O15 0.716339 0.125044 0.986309
O O16 0.330116 0.500000 0.318239
O O17 0.269548 0.385703 0.180438
O O18 0.992297 0.000000 0.154281
O O19 0.000000 0.879782 0.000000
O O20 0.671064 0.000000 0.119823
#
# Coordination Sequence:
#
# PCOD9197353 Si02
#       8
#     8   8   8   8   8   8   8   8
#     4  11  21  39  61  89 126 160 207 257 312 371
#     4  11  24  42  65  89 120 163 206 252 312 377
#     4  12  22  41  62  88 124 156 209 258 307 367
#     4  11  20  39  64  92 123 155 201 260 316 368
#     4  11  21  35  60  91 122 157 202 258 312 367
#     4  10  20  35  59  88 119 156 198 248 298 357
#     4  11  26  43  63  91 128 174 213 251 309 379
#     4   9  19  33  57  91 120 154 198 244 306 366
#
# _framework density 19.145045
#
# number of rings (size 3 to 8) (size 9 to 14) (size 15 to 20)
#    0.000    1.250    3.750    3.375    1.750    0.500 
#    0.000    3.125    0.000    4.875    0.000    0.000 
#    0.000    0.000    0.000    0.000    0.000    0.000 
#
# Total GULP energy -178663.127577 kJ/mol
# GULP energy per Si atom -5583.222737 kJ/mol
# Density = 1.910147 g / cm^3
# Si number density = 19.145045 Si / 1000 Ang^3
#
#
#
# Elastic Constant Matrix: (Units=GPa)
#
#
# Indices 1 2 3 4 5 6 
#
# 1 71.1805 40.5905 7.7121 0.0000 0.4878 0.0000
# 2 40.5905 152.8655 43.9471 0.0000 -1.0102 0.0000
# 3 7.7121 43.9471 46.6040 0.0000 1.3214 0.0000
# 4 0.0000 0.0000 0.0000 22.8746 0.0000 3.8467
# 5 0.4878 -1.0102 1.3214 0.0000 26.6767 0.0000
# 6 0.0000 0.0000 0.0000 3.8467 0.0000 20.0118
#
#
#
# Elastic Compliance Matrix: (Units=1/GPa)
#
#
# Indices 1 2 3 4 5 6 
#
# 1 0.016692 -0.005003 0.001973 0.000000 -0.000592 0.000000
# 2 -0.005003 0.010490 -0.009090 0.000000 0.000939 0.000000
# 3 0.001973 -0.009090 0.029756 0.000000 -0.001854 0.000000
# 4 0.000000 0.000000 0.000000 0.045177 0.000000 -0.008684
# 5 -0.000592 0.000939 -0.001854 0.000000 0.037624 0.000000
# 6 0.000000 0.000000 0.000000 -0.008684 0.000000 0.051640
#
#
# Mechanical properties :
#
#
# Convention : Reuss Voigt Hill
#
# Bulk Modulus (GPa) = 30.58527 50.57217 40.57872
# Shear Modulus (GPa) = 22.07314 25.80597 23.93955
#
# Velocity S-wave (km/s) = 3.39918 3.67538 3.53998
# Velocity P-wave (km/s) = 5.60501 6.66962 6.16036
#
# Compressibility (1/GPa) = 0.03269548
#
# Stress axis : x y z
#
# Youngs Moduli (GPa) = 59.90800 95.33017 33.60693
#
# Poissons Ratio (x) = 0.47697 -0.06629
# Poissons Ratio (y) = 0.29974 0.30550
# Poissons Ratio (z) = -0.11818 0.86660
#
# Static dielectric constant tensor:
#      x y z
#    x 1.736640 0.000000 0.100240 
#    y 0.000000 1.677840 0.000000 
#    z 0.100240 0.000000 1.800940 
# 
# From -- ./inp_files/156635.got.cif
#   From: 2010.05.17/outbox.cif.g08.bks.cpg/sg12_79_cif.got.tgz:156635.got - 2010.06.03 13:09:07.
