data_PCOD9197499
_publ_section_title
;
Structure prediction by ZEFSAII (Michael W. Deem and Ramdas Pophale) SiO2 
 PCOD9197499
Probable space group: C 2/M
;
_chemical_formula_sum "Si O2"
_cell_formula_units_Z 64
_cell_length_a 11.512197
_cell_length_b 17.526705
_cell_length_c 16.984488
_cell_angle_alpha 90.000000
_cell_angle_beta 80.784481
_cell_angle_gamma 90.000000
_cell_volume 3382.742874
_symmetry_space_group_name_H-M "C 2/M"
_symmetry_group_IT_number 12
_symmetry_cell_setting 'monoclinic'
loop_
_space_group_symop_operation_xyz
x,y,z
-x,y,-z
-x,-y,-z
x,-y,z
1/2+x,1/2+y,z
1/2-x,1/2+y,-z
1/2-x,1/2-y,-z
1/2+x,1/2-y,z
loop_
_atom_site_type_symbol
_atom_site_label
_atom_site_fract_x
_atom_site_fract_y
_atom_site_fract_z
Si Si1 0.056210 0.320021 0.192943
Si Si2 0.551641 0.343691 0.847487
Si Si3 0.305477 0.586036 0.881805
Si Si4 0.746849 0.332072 0.957523
Si Si5 0.377507 0.589940 0.602472
Si Si6 0.759231 0.175706 0.295292
Si Si7 0.805153 0.651640 0.255640
Si Si8 0.643077 0.407438 0.574869
O O1 0.142396 0.343466 0.112348
O O2 0.136525 0.320537 0.262179
O O3 0.006644 0.237025 0.171839
O O4 0.940494 0.369156 0.225226
O O5 0.445471 0.401895 0.868463
O O6 0.629034 0.334287 0.917504
O O7 0.645030 0.366436 0.770436
O O8 0.275796 0.500000 0.861010
O O9 0.254559 0.645321 0.823586
O O10 0.257484 0.606329 0.972832
O O11 0.750000 0.250000 0.000000
O O12 0.393492 0.500000 0.592387
O O13 0.277069 0.604897 0.676611
O O14 0.344526 0.616046 0.518005
O O15 0.508590 0.617396 0.611894
O O16 0.800642 0.263412 0.291742
O O17 0.766321 0.135022 0.378062
O O18 0.654283 0.500000 0.580614
#
# Coordination Sequence:
#
# PCOD9197499 Si02
#       8
#     8   8   8   8   8   8   8   8
#     4  10  21  38  56  84 114 155 198 236 289 354
#     4  10  20  36  57  84 114 149 190 242 297 342
#     4  12  24  38  58  88 116 150 201 253 299 344
#     4  11  21  37  61  83 114 156 196 241 297 354
#     4   9  19  38  62  88 119 156 194 238 299 352
#     4  10  20  35  60  86 117 151 195 242 289 350
#     4  11  22  37  58  83 121 157 196 238 294 358
#     4   9  19  37  63  91 117 150 196 247 294 347
#
# _framework density 18.919557000000001
#
# number of rings (size 3 to 8) (size 9 to 14) (size 15 to 20)
#    0.000    1.750    2.500    3.750    1.750    4.500 
#    0.000    5.625    0.000    1.500    0.000    0.000 
#    0.000    0.000    0.000    0.000    0.000    0.000 
#
# Total GULP energy -178455.028079 kJ/mol
# GULP energy per Si atom -5576.719627 kJ/mol
# Density = 1.887650 g / cm^3
# Si number density = 18.919557 Si / 1000 Ang^3
#
#
#
# Elastic Constant Matrix: (Units=GPa)
#
#
# Indices 1 2 3 4 5 6 
#
# 1 90.0354 1.5700 43.5690 0.0000 -6.4744 0.0000
# 2 1.5700 27.1791 9.6418 0.0000 11.0922 0.0000
# 3 43.5690 9.6418 97.8929 0.0000 18.4645 0.0000
# 4 0.0000 0.0000 0.0000 26.3433 0.0000 -4.1079
# 5 -6.4744 11.0922 18.4645 0.0000 22.9786 0.0000
# 6 0.0000 0.0000 0.0000 -4.1079 0.0000 13.3100
#
#
#
# Elastic Compliance Matrix: (Units=1/GPa)
#
#
# Indices 1 2 3 4 5 6 
#
# 1 0.017025 -0.003330 -0.009968 0.000000 0.014414 0.000000
# 2 -0.003330 0.046484 0.001548 0.000000 -0.024621 0.000000
# 3 -0.009968 0.001548 0.017880 0.000000 -0.017923 0.000000
# 4 0.000000 0.000000 0.000000 0.039880 0.000000 0.012308
# 5 0.014414 -0.024621 -0.017923 0.000000 0.073867 0.000000
# 6 0.000000 0.000000 0.000000 0.012308 0.000000 0.078930
#
#
# Mechanical properties :
#
#
# Convention : Reuss Voigt Hill
#
# Bulk Modulus (GPa) = 17.27465 36.07435 26.67450
# Shear Modulus (GPa) = 15.77967 23.21481 19.49724
#
# Velocity S-wave (km/s) = 2.89111 3.50670 3.21368
# Velocity P-wave (km/s) = 4.50501 5.95857 5.28203
#
# Compressibility (1/GPa) = 0.05788829
#
# Stress axis : x y z
#
# Youngs Moduli (GPa) = 58.73713 21.51266 55.92851
#
# Poissons Ratio (x) = 0.07164 0.55750
# Poissons Ratio (y) = 0.19559 -0.08655
# Poissons Ratio (z) = 0.58550 -0.03329
#
# Static dielectric constant tensor:
#      x y z
#    x 1.679380 0.000000 -0.012230 
#    y 0.000000 1.666280 0.000000 
#    z -0.012230 0.000000 1.671530 
# 
# From -- ./inp_files/206703.got.cif
#   From: 2010.05.17/outbox.cif.g08.bks.cpg/sg12_104_cif.got.tgz:206703.got - 2010.06.03 13:09:07.
