data_PCOD9197152
_publ_section_title
;
Structure prediction by ZEFSAII (Michael W. Deem and Ramdas Pophale) SiO2 
 PCOD9197152
Probable space group: C 2/M
;
_chemical_formula_sum "Si O2"
_cell_formula_units_Z 32
_cell_length_a 20.426680
_cell_length_b 8.678032
_cell_length_c 25.353070
_cell_angle_alpha 90.000000
_cell_angle_beta 156.610485
_cell_angle_gamma 90.000000
_cell_volume 1784.095700
_symmetry_space_group_name_H-M "C 2/M"
_symmetry_group_IT_number 12
_symmetry_cell_setting 'monoclinic'
loop_
_space_group_symop_operation_xyz
x,y,z
-x,y,-z
-x,-y,-z
x,-y,z
1/2+x,1/2+y,z
1/2-x,1/2+y,-z
1/2-x,1/2-y,-z
1/2+x,1/2-y,z
loop_
_atom_site_type_symbol
_atom_site_label
_atom_site_fract_x
_atom_site_fract_y
_atom_site_fract_z
Si Si1 0.932905 0.684435 0.644553
Si Si2 0.541159 0.184185 0.608846
Si Si3 0.740987 0.815882 0.318145
Si Si4 0.429777 0.683952 0.145033
O O1 0.923545 0.500000 0.645240
O O2 0.750000 0.750000 0.500000
O O3 0.034318 0.715327 0.665937
O O4 0.011977 0.761216 0.754144
O O5 0.375900 0.252304 0.459759
O O6 0.692535 0.257575 0.689033
O O7 0.540621 0.000000 0.600489
O O8 0.564759 0.749910 0.204144
O O9 0.740868 0.000000 0.319979
O O10 0.429058 0.500000 0.141909
O O11 0.250000 0.750000 0.000000
#
# Coordination Sequence:
#
# PCOD9197152 Si02
#       4
#     8   8   8   8
#     4  11  22  37  61  91 122 156 199 247 296 350
#     4  10  20  35  58  88 121 155 195 245 297 347
#     4  11  21  35  58  87 120 156 198 244 296 354
#     4  12  25  42  62  86 121 160 200 247 300 361
#
# _framework density 17.936257999999999
#
# number of rings (size 3 to 8) (size 9 to 14) (size 15 to 20)
#    0.000    1.000    2.500    7.500    0.000    3.000 
#    0.000    1.250    0.000    7.500    0.000    0.000 
#    0.000    0.000    0.000    0.000    0.000    0.000 
#
# Total GULP energy -89464.698621 kJ/mol
# GULP energy per Si atom -5591.543664 kJ/mol
# Density = 1.789543 g / cm^3
# Si number density = 17.936258 Si / 1000 Ang^3
#
#
#
# Elastic Constant Matrix: (Units=GPa)
#
#
# Indices 1 2 3 4 5 6 
#
# 1 139.9608 78.8385 80.6692 -0.0002 25.2297 0.0000
# 2 78.8385 155.7378 62.1104 -0.0010 14.7620 -0.0001
# 3 80.6692 62.1104 134.8577 -0.0016 19.5699 -0.0002
# 4 -0.0002 -0.0010 -0.0016 31.9509 -0.0003 1.9333
# 5 25.2297 14.7620 19.5699 -0.0003 31.6033 0.0000
# 6 0.0000 -0.0001 -0.0002 1.9333 0.0000 35.5188
#
#
#
# Elastic Compliance Matrix: (Units=1/GPa)
#
#
# Indices 1 2 3 4 5 6 
#
# 1 0.013645 -0.004222 -0.005409 0.000000 -0.005572 0.000000
# 2 -0.004222 0.009244 -0.001752 0.000000 0.000138 0.000000
# 3 -0.005409 -0.001752 0.011770 0.000000 -0.002152 0.000000
# 4 0.000000 0.000000 0.000000 0.031401 0.000000 -0.001709
# 5 -0.005572 0.000138 -0.002152 0.000000 0.037358 0.000000
# 6 0.000000 0.000000 0.000000 -0.001709 0.000000 0.028247
#
#
# Mechanical properties :
#
#
# Convention : Reuss Voigt Hill
#
# Bulk Modulus (GPa) = 84.08389 97.08804 90.58597
# Shear Modulus (GPa) = 31.56629 33.74382 32.65505
#
# Velocity S-wave (km/s) = 4.19969 4.34212 4.27150
# Velocity P-wave (km/s) = 8.39628 8.90987 8.65688
#
# Compressibility (1/GPa) = 0.01189288
#
# Stress axis : x y z
#
# Youngs Moduli (GPa) = 73.28580 108.17805 84.96199
#
# Poissons Ratio (x) = 0.45675 0.45958
# Poissons Ratio (y) = 0.30943 0.14883
# Poissons Ratio (z) = 0.39642 0.18950
#
# Static dielectric constant tensor:
#      x y z
#    x 1.628560 0.000000 0.010180 
#    y 0.000000 1.597810 0.000000 
#    z 0.010180 0.000000 1.571990 
# 
# From -- ./inp_files/81688.got.cif
#   From: 2010.05.17/outbox.cif.g08.bks.cpg/sg12_41_cif.got.tgz:81688.got - 2010.06.03 13:09:07.
