data_PCOD9197630
_publ_section_title
;
Structure prediction by ZEFSAII (Michael W. Deem and Ramdas Pophale) SiO2 
 PCOD9197630
Probable space group: C 2/M
;
_chemical_formula_sum "Si O2"
_cell_formula_units_Z 64
_cell_length_a 20.428191
_cell_length_b 14.596414
_cell_length_c 9.536549
_cell_angle_alpha 90.000000
_cell_angle_beta 98.117433
_cell_angle_gamma 90.000000
_cell_volume 2815.101596
_symmetry_space_group_name_H-M "C 2/M"
_symmetry_group_IT_number 12
_symmetry_cell_setting 'monoclinic'
loop_
_space_group_symop_operation_xyz
x,y,z
-x,y,-z
-x,-y,-z
x,-y,z
1/2+x,1/2+y,z
1/2-x,1/2+y,-z
1/2-x,1/2-y,-z
1/2+x,1/2-y,z
loop_
_atom_site_type_symbol
_atom_site_label
_atom_site_fract_x
_atom_site_fract_y
_atom_site_fract_z
Si Si1 0.933967 0.642633 0.054837
Si Si2 0.200247 0.895735 0.023686
Si Si3 0.678909 0.612228 0.331813
Si Si4 0.810679 0.612097 0.531369
Si Si5 0.530261 0.390359 0.357758
Si Si6 0.063532 0.389202 0.610164
Si Si7 0.943970 0.851588 0.079689
Si Si8 0.694960 0.105022 0.154619
O O1 0.936790 0.631923 0.223799
O O2 0.930306 0.750336 0.019369
O O3 0.869580 0.602398 0.961812
O O4 0.000000 0.606614 0.000000
O O5 0.194903 0.856186 0.178345
O O6 0.225428 0.000000 0.052129
O O7 0.126158 0.899376 0.941948
O O8 0.247746 0.850789 0.923143
O O9 0.677139 0.500000 0.328923
O O10 0.738768 0.638701 0.451301
O O11 0.605630 0.640935 0.357502
O O12 0.813971 0.500000 0.529272
O O13 0.869695 0.643737 0.447135
O O14 0.818957 0.643550 0.694844
O O15 0.500000 0.376292 0.500000
O O16 0.528887 0.500000 0.328504
O O17 0.479402 0.343700 0.237791
O O18 0.062930 0.500000 0.602579
O O19 0.000000 0.357173 0.500000
O O20 0.000000 0.896471 0.000000
O O21 0.716984 0.000000 0.190019
#
# Coordination Sequence:
#
# PCOD9197630 Si02
#       8
#     8   8   8   8   8   8   8   8
#     4  11  24  39  58  84 117 157 193 239 288 345
#     4  10  20  35  61  87 113 150 193 240 288 339
#     4   9  17  31  53  83 114 145 179 229 285 337
#     4   9  18  33  56  87 119 144 180 235 295 348
#     4  10  21  35  57  86 116 149 193 242 289 339
#     4  10  20  36  61  87 112 148 192 241 294 346
#     4  11  23  39  57  83 118 160 197 237 285 343
#     4  10  21  37  60  90 118 147 191 245 293 343
#
# _framework density 22.734525999999999
#
# number of rings (size 3 to 8) (size 9 to 14) (size 15 to 20)
#    0.000    2.000    1.250    2.250    1.750    5.500 
#    0.000    0.000    0.000    1.500    0.000    0.000 
#    0.000    0.000    0.000    0.000    0.000    0.000 
#
# Total GULP energy -178800.597919 kJ/mol
# GULP energy per Si atom -5587.518685 kJ/mol
# Density = 2.268278 g / cm^3
# Si number density = 22.734526 Si / 1000 Ang^3
#
#
#
# Elastic Constant Matrix: (Units=GPa)
#
#
# Indices 1 2 3 4 5 6 
#
# 1 154.9003 3.0240 99.7736 0.0000 -9.5407 0.0000
# 2 3.0240 49.2504 1.7703 0.0000 -6.5667 0.0000
# 3 99.7736 1.7703 167.0219 0.0000 -6.7629 0.0000
# 4 0.0000 0.0000 0.0000 18.6308 0.0000 -1.9207
# 5 -9.5407 -6.5667 -6.7629 0.0000 44.8023 0.0000
# 6 0.0000 0.0000 0.0000 -1.9207 0.0000 -0.4912
#
#
#
# Elastic Compliance Matrix: (Units=1/GPa)
#
#
# Indices 1 2 3 4 5 6 
#
# 1 0.010572 -0.000255 -0.006261 0.000000 0.001269 0.000000
# 2 -0.000255 0.020717 0.000054 0.000000 0.002990 0.000000
# 3 -0.006261 0.000054 0.009733 0.000000 0.000144 0.000000
# 4 0.000000 0.000000 0.000000 0.038253 0.000000 -0.149588
# 5 0.001269 0.002990 0.000144 0.000000 0.023050 0.000000
# 6 0.000000 0.000000 0.000000 -0.149588 0.000000 -1.450969
#
#
# Mechanical properties :
#
#
# Convention : Reuss Voigt Hill
#
# Bulk Modulus (GPa) = 35.59132 64.47870 50.03501
# Shear Modulus (GPa) = -3.76973 30.36204 13.29616
#
# Velocity S-wave (km/s) = -1.28909 3.65842 2.42098
# Velocity P-wave (km/s) = 3.67063 6.80210 5.46544
#
# Compressibility (1/GPa) = 0.02809674
#
# Stress axis : x y z
#
# Youngs Moduli (GPa) = 94.59116 48.26994 102.74619
#
# Poissons Ratio (x) = 0.01230 0.64331
# Poissons Ratio (y) = 0.02411 -0.00552
# Poissons Ratio (z) = 0.59225 -0.00259
#
# Static dielectric constant tensor:
#      x y z
#    x 1.808440 0.000000 -0.037760 
#    y 0.000000 1.900180 0.000000 
#    z -0.037760 0.000000 1.761980 
# 
# From -- ./inp_files/87937.got.cif
#   From: 2010.05.17/outbox.cif.g08.bks.cpg/sg12_44_cif.got.tgz:87937.got - 2010.06.03 13:09:07.
