data_PCOD9197084
_publ_section_title
;
Structure prediction by ZEFSAII (Michael W. Deem and Ramdas Pophale) SiO2 
 PCOD9197084
Probable space group: C 2/M
;
_chemical_formula_sum "Si O2"
_cell_formula_units_Z 48
_cell_length_a 16.336989
_cell_length_b 8.932064
_cell_length_c 14.762855
_cell_angle_alpha 90.000000
_cell_angle_beta 79.191412
_cell_angle_gamma 90.000000
_cell_volume 2116.022501
_symmetry_space_group_name_H-M "C 2/M"
_symmetry_group_IT_number 12
_symmetry_cell_setting 'monoclinic'
loop_
_space_group_symop_operation_xyz
x,y,z
-x,y,-z
-x,-y,-z
x,-y,z
1/2+x,1/2+y,z
1/2-x,1/2+y,-z
1/2-x,1/2-y,-z
1/2+x,1/2-y,z
loop_
_atom_site_type_symbol
_atom_site_label
_atom_site_fract_x
_atom_site_fract_y
_atom_site_fract_z
Si Si1 0.544366 0.322908 0.213931
Si Si2 0.593437 0.825318 0.380999
Si Si3 0.900025 0.324979 0.127448
Si Si4 0.334612 0.176333 0.947680
Si Si5 0.787161 0.824477 0.279808
Si Si6 0.837450 0.318896 0.447768
O O1 0.549026 0.500000 0.212939
O O2 0.541948 0.264326 0.317477
O O3 0.468630 0.267532 0.167285
O O4 0.624798 0.252916 0.147393
O O5 0.690588 0.811897 0.328702
O O6 0.596799 0.782018 0.486440
O O7 0.569568 0.000000 0.380634
O O8 0.911504 0.500000 0.145308
O O9 0.897531 0.307536 0.020076
O O10 0.812354 0.266814 0.185921
O O11 0.322428 0.000000 0.932648
O O12 0.250000 0.250000 0.000000
O O13 0.843665 0.754254 0.348260
O O14 0.805222 0.000000 0.264851
O O15 0.832502 0.500000 0.443060
O O16 0.750000 0.250000 0.500000
#
# Coordination Sequence:
#
# PCOD9197084 Si02
#       6
#     8   8   8   8   8   8
#     4  12  25  39  59  86 117 153 190 234 286 338
#     4   9  19  36  58  84 116 153 192 236 284 336
#     4  11  24  41  60  83 115 154 192 232 282 340
#     4  11  24  42  65  90 115 147 188 234 282 335
#     4  10  20  35  58  87 117 150 190 238 288 338
#     4   9  17  31  54  83 114 150 191 237 286 333
#
# _framework density 22.684069000000001
#
# number of rings (size 3 to 8) (size 9 to 14) (size 15 to 20)
#    0.000    1.667    0.000    6.000    0.000   11.333 
#    0.000    0.833    0.000    5.000    0.000    0.000 
#    0.000    0.000    0.000    0.000    0.000    0.000 
#
# Total GULP energy -134279.842339 kJ/mol
# GULP energy per Si atom -5594.993431 kJ/mol
# Density = 2.263244 g / cm^3
# Si number density = 22.684069 Si / 1000 Ang^3
#
#
#
# Elastic Constant Matrix: (Units=GPa)
#
#
# Indices 1 2 3 4 5 6 
#
# 1 76.7755 23.3968 3.0698 0.0000 15.4996 0.0000
# 2 23.3968 105.0752 50.0288 0.0000 30.5162 0.0000
# 3 3.0698 50.0288 106.9950 0.0000 15.9472 0.0000
# 4 0.0000 0.0000 0.0000 31.9731 0.0000 -0.2895
# 5 15.4996 30.5162 15.9472 0.0000 35.6766 0.0000
# 6 0.0000 0.0000 0.0000 -0.2895 0.0000 26.1695
#
#
#
# Elastic Compliance Matrix: (Units=1/GPa)
#
#
# Indices 1 2 3 4 5 6 
#
# 1 0.014735 -0.002589 0.001513 0.000000 -0.004863 0.000000
# 2 -0.002589 0.015672 -0.005810 0.000000 -0.009683 0.000000
# 3 0.001513 -0.005810 0.012189 0.000000 -0.001135 0.000000
# 4 0.000000 0.000000 0.000000 0.031279 0.000000 0.000346
# 5 -0.004863 -0.009683 -0.001135 0.000000 0.038933 0.000000
# 6 0.000000 0.000000 0.000000 0.000346 0.000000 0.038216
#
#
# Mechanical properties :
#
#
# Convention : Reuss Voigt Hill
#
# Bulk Modulus (GPa) = 34.69442 49.09294 41.89368
# Shear Modulus (GPa) = 28.66874 32.92052 30.79463
#
# Velocity S-wave (km/s) = 3.55889 3.81368 3.68848
# Velocity P-wave (km/s) = 5.67586 6.40946 6.05378
#
# Compressibility (1/GPa) = 0.02882308
#
# Stress axis : x y z
#
# Youngs Moduli (GPa) = 67.86435 63.80715 82.04165
#
# Poissons Ratio (x) = 0.16518 -0.12409
# Poissons Ratio (y) = 0.17569 0.47670
# Poissons Ratio (z) = -0.10265 0.37075
#
# Static dielectric constant tensor:
#      x y z
#    x 1.892270 0.000000 0.060600 
#    y 0.000000 1.741630 0.000000 
#    z 0.060600 0.000000 1.670600 
# 
# From -- ./inp_files/221714.got.cif
#   From: 2010.05.17/outbox.cif.g08.bks.cpg/sg12_111_cif.got.tgz:221714.got - 2010.06.03 13:09:07.
