data_PCOD9197274
_publ_section_title
;
Structure prediction by ZEFSAII (Michael W. Deem and Ramdas Pophale) SiO2 
 PCOD9197274
Probable space group: C 2/M
;
_chemical_formula_sum "Si O2"
_cell_formula_units_Z 48
_cell_length_a 29.535572
_cell_length_b 11.298458
_cell_length_c 17.162073
_cell_angle_alpha 90.000000
_cell_angle_beta 156.363461
_cell_angle_gamma 90.000000
_cell_volume 2296.182896
_symmetry_space_group_name_H-M "C 2/M"
_symmetry_group_IT_number 12
_symmetry_cell_setting 'monoclinic'
loop_
_space_group_symop_operation_xyz
x,y,z
-x,y,-z
-x,-y,-z
x,-y,z
1/2+x,1/2+y,z
1/2-x,1/2+y,-z
1/2-x,1/2-y,-z
1/2+x,1/2-y,z
loop_
_atom_site_type_symbol
_atom_site_label
_atom_site_fract_x
_atom_site_fract_y
_atom_site_fract_z
Si Si1 0.124902 0.708414 0.203699
Si Si2 0.867175 0.366438 0.312404
Si Si3 0.288601 0.634022 0.801681
Si Si4 0.032078 0.137278 0.775391
Si Si5 0.389716 0.364384 0.270771
Si Si6 0.360881 0.367797 0.623694
O O1 0.167115 0.774116 0.192050
O O2 0.229115 0.629681 0.396076
O O3 0.115574 0.802485 0.259128
O O4 0.000000 0.654436 0.000000
O O5 0.823830 0.500000 0.223019
O O6 0.834005 0.350575 0.351035
O O7 0.821926 0.247254 0.199310
O O8 0.000000 0.369841 0.500000
O O9 0.295074 0.500000 0.779847
O O10 0.370012 0.641470 0.005624
O O11 0.071200 0.177973 0.752942
O O12 0.925471 0.191495 0.652645
O O13 0.002061 0.000000 0.711450
O O14 0.500000 0.374508 0.500000
O O15 0.341470 0.500000 0.191803
O O16 0.405802 0.500000 0.703242
#
# Coordination Sequence:
#
# PCOD9197274 Si02
#       6
#     8   8   8   8   8   8
#     4  11  22  37  61  90 116 153 200 245 299 363
#     4   9  19  34  52  79 113 151 189 235 298 353
#     4  10  20  35  59  85 113 151 195 245 293 351
#     4   9  18  34  57  84 110 146 199 248 290 346
#     4   9  18  32  54  80 109 147 195 242 286 347
#     4  10  22  38  59  87 120 155 194 247 304 360
#
# _framework density 20.904257999999999
#
# number of rings (size 3 to 8) (size 9 to 14) (size 15 to 20)
#    0.000    2.333    1.667    0.500    4.667    1.667 
#    0.000    0.000    0.000    1.000    0.000    0.000 
#    0.000    0.000    0.000    0.000    0.000    0.000 
#
# Total GULP energy -133614.216167 kJ/mol
# GULP energy per Si atom -5567.259007 kJ/mol
# Density = 2.085668 g / cm^3
# Si number density = 20.904258 Si / 1000 Ang^3
#
#
#
# Elastic Constant Matrix: (Units=GPa)
#
#
# Indices 1 2 3 4 5 6 
#
# 1 114.0382 35.6102 12.4001 0.0000 -3.4531 0.0000
# 2 35.6102 97.4938 -10.1439 0.0000 -4.9099 0.0000
# 3 12.4001 -10.1439 66.1793 0.0000 8.5283 0.0000
# 4 0.0000 0.0000 0.0000 -15.1968 0.0000 13.4071
# 5 -3.4531 -4.9099 8.5283 0.0000 38.5233 0.0000
# 6 0.0000 0.0000 0.0000 13.4071 0.0000 18.6879
#
#
#
# Elastic Compliance Matrix: (Units=1/GPa)
#
#
# Indices 1 2 3 4 5 6 
#
# 1 0.010342 -0.004006 -0.002682 0.000000 0.001010 0.000000
# 2 -0.004006 0.012013 0.002512 0.000000 0.000616 0.000000
# 3 -0.002682 0.002512 0.016457 0.000000 -0.003564 0.000000
# 4 0.000000 0.000000 0.000000 -0.040298 0.000000 0.028910
# 5 0.001010 0.000616 -0.003564 0.000000 0.026916 0.000000
# 6 0.000000 0.000000 0.000000 0.028910 0.000000 0.032770
#
#
# Mechanical properties :
#
#
# Convention : Reuss Voigt Hill
#
# Bulk Modulus (GPa) = 32.82821 39.27156 36.04989
# Shear Modulus (GPa) = 65.18538 24.39254 44.78896
#
# Velocity S-wave (km/s) = 5.59022 3.41965 4.63382
# Velocity P-wave (km/s) = 7.57664 5.86679 6.77587
#
# Compressibility (1/GPa) = 0.03046160
#
# Stress axis : x y z
#
# Youngs Moduli (GPa) = 96.69279 83.24612 60.76329
#
# Poissons Ratio (x) = 0.33346 0.16297
# Poissons Ratio (y) = 0.38732 -0.15267
# Poissons Ratio (z) = 0.25933 -0.20915
#
# Static dielectric constant tensor:
#      x y z
#    x 1.791250 0.000000 0.043060 
#    y 0.000000 1.773920 0.000000 
#    z 0.043060 0.000000 1.802190 
# 
# From -- ./inp_files/213515.got.cif
#   From: 2010.05.17/outbox.cif.g08.bks.cpg/sg12_107_cif.got.tgz:213515.got - 2010.06.03 13:09:07.
