data_PCOD9197405
_publ_section_title
;
Structure prediction by ZEFSAII (Michael W. Deem and Ramdas Pophale) SiO2 
 PCOD9197405
Probable space group: C 2/M
;
_chemical_formula_sum "Si O2"
_cell_formula_units_Z 48
_cell_length_a 20.114156
_cell_length_b 8.696932
_cell_length_c 19.663891
_cell_angle_alpha 90.000000
_cell_angle_beta 44.849254
_cell_angle_gamma 90.000000
_cell_volume 2425.921270
_symmetry_space_group_name_H-M "C 2/M"
_symmetry_group_IT_number 12
_symmetry_cell_setting 'monoclinic'
loop_
_space_group_symop_operation_xyz
x,y,z
-x,y,-z
-x,-y,-z
x,-y,z
1/2+x,1/2+y,z
1/2-x,1/2+y,-z
1/2-x,1/2-y,-z
1/2+x,1/2-y,z
loop_
_atom_site_type_symbol
_atom_site_label
_atom_site_fract_x
_atom_site_fract_y
_atom_site_fract_z
Si Si1 0.608757 0.818955 0.831933
Si Si2 0.789949 0.182720 0.116463
Si Si3 0.105231 0.317585 0.586787
Si Si4 0.782565 0.818203 0.367902
Si Si5 0.920461 0.185268 0.901760
Si Si6 0.590462 0.683279 0.248966
O O1 0.633592 0.732235 0.883243
O O2 0.689021 0.776233 0.718785
O O3 0.511930 0.760927 0.868965
O O4 0.604843 0.000000 0.846935
O O5 0.691265 0.264010 0.203172
O O6 0.776776 0.000000 0.127679
O O7 0.830749 0.227477 0.012977
O O8 0.107572 0.500000 0.599187
O O9 0.146804 0.229086 0.622232
O O10 0.178162 0.287863 0.472626
O O11 0.999421 0.262282 0.651320
O O12 0.792940 0.000000 0.346739
O O13 0.911808 0.229303 0.829347
O O14 0.931010 0.000000 0.897193
O O15 0.581145 0.500000 0.260071
#
# Coordination Sequence:
#
# PCOD9197405 Si02
#       6
#     8   8   8   8   8   8
#     4  12  24  38  60  89 120 155 199 245 294 350
#     4  11  24  41  60  83 120 161 199 243 295 351
#     4  10  20  35  59  90 118 151 194 239 290 346
#     4  10  20  36  59  87 119 152 193 242 290 344
#     4  10  22  40  62  87 116 157 200 243 293 347
#     4  11  22  38  61  89 122 156 195 242 293 349
#
# _framework density 19.786297999999999
#
# number of rings (size 3 to 8) (size 9 to 14) (size 15 to 20)
#    0.000    1.333    1.667    4.500    0.000    6.000 
#    0.000    0.833    0.000    5.000    0.000    0.000 
#    0.000    0.000    0.000    0.000    0.000    0.000 
#
# Total GULP energy -134215.793915 kJ/mol
# GULP energy per Si atom -5592.324746 kJ/mol
# Density = 1.974126 g / cm^3
# Si number density = 19.786298 Si / 1000 Ang^3
#
#
#
# Elastic Constant Matrix: (Units=GPa)
#
#
# Indices 1 2 3 4 5 6 
#
# 1 40.4723 -1.8524 -4.7983 -0.0001 -14.2670 0.0001
# 2 -1.8524 19.9292 13.9114 -0.0003 -10.6696 0.0002
# 3 -4.7983 13.9114 62.7690 -0.0001 -16.0897 0.0001
# 4 -0.0001 -0.0003 -0.0001 26.5161 0.0001 -3.4521
# 5 -14.2670 -10.6696 -16.0897 0.0001 27.0998 0.0000
# 6 0.0001 0.0002 0.0001 -3.4521 0.0000 29.9196
#
#
#
# Elastic Compliance Matrix: (Units=1/GPa)
#
#
# Indices 1 2 3 4 5 6 
#
# 1 0.036328 0.013838 0.007088 0.000000 0.028782 0.000000
# 2 0.013838 0.073532 -0.007019 0.000001 0.032068 0.000000
# 3 0.007088 -0.007019 0.021558 0.000000 0.013767 0.000000
# 4 0.000000 0.000001 0.000000 0.038288 0.000000 0.004418
# 5 0.028782 0.032068 0.013767 0.000000 0.072853 0.000000
# 6 0.000000 0.000000 0.000000 0.004418 0.000000 0.033933
#
#
# Mechanical properties :
#
#
# Convention : Reuss Voigt Hill
#
# Bulk Modulus (GPa) = 6.28017 15.29909 10.78963
# Shear Modulus (GPa) = 16.56981 24.43444 20.50212
#
# Velocity S-wave (km/s) = 2.89699 3.51795 3.22246
# Velocity P-wave (km/s) = 3.79091 4.92445 4.39438
#
# Compressibility (1/GPa) = 0.15923134
#
# Stress axis : x y z
#
# Youngs Moduli (GPa) = 27.52711 13.59960 46.38691
#
# Poissons Ratio (x) = -0.18819 -0.32878
# Poissons Ratio (y) = -0.38092 0.32557
# Poissons Ratio (z) = -0.19511 0.09545
#
# Static dielectric constant tensor:
#      x y z
#    x 1.665320 0.000000 0.001940 
#    y 0.000000 1.655110 0.000000 
#    z 0.001940 0.000000 1.711990 
# 
# From -- ./inp_files/230411.got.cif
#   From: 2010.05.17/outbox.cif.g08.bks.cpg/sg12_116_cif.got.tgz:230411.got - 2010.06.03 13:09:07.
