data_PCOD9197453
_publ_section_title
;
Structure prediction by ZEFSAII (Michael W. Deem and Ramdas Pophale) SiO2 
 PCOD9197453
Probable space group: C 2/M
;
_chemical_formula_sum "Si O2"
_cell_formula_units_Z 42
_cell_length_a 19.377925
_cell_length_b 7.395508
_cell_length_c 12.162450
_cell_angle_alpha 90.000000
_cell_angle_beta 68.078515
_cell_angle_gamma 90.000000
_cell_volume 1616.970831
_symmetry_space_group_name_H-M "C 2/M"
_symmetry_group_IT_number 12
_symmetry_cell_setting 'monoclinic'
loop_
_space_group_symop_operation_xyz
x,y,z
-x,y,-z
-x,-y,-z
x,-y,z
1/2+x,1/2+y,z
1/2-x,1/2+y,-z
1/2-x,1/2-y,-z
1/2+x,1/2-y,z
loop_
_atom_site_type_symbol
_atom_site_label
_atom_site_fract_x
_atom_site_fract_y
_atom_site_fract_z
Si Si1 0.196148 0.802731 0.867377
Si Si2 0.731910 0.289148 0.385626
Si Si3 0.021163 0.217559 0.788739
Si Si4 0.000000 0.500000 0.000000
Si Si5 0.427383 0.278883 0.477820
Si Si6 0.648214 0.282225 0.121608
O O1 0.202976 0.763759 0.735939
O O2 0.282990 0.797120 0.852492
O O3 0.162857 0.000000 0.894149
O O4 0.156211 0.704528 0.991973
O O5 0.724605 0.500000 0.370676
O O6 0.750000 0.250000 0.500000
O O7 0.648643 0.213623 0.420515
O O8 0.936067 0.248034 0.796105
O O9 0.069593 0.268656 0.653118
O O10 0.027765 0.000000 0.806411
O O11 0.027487 0.340379 0.893400
O O12 0.500000 0.218435 0.500000
O O13 0.427946 0.500000 0.479655
O O14 0.661057 0.500000 0.118204
#
# Coordination Sequence:
#
# PCOD9197453 Si02
#       6
#     8   8   8   2   8   8
#     4  10  20  35  59  92 124 157 204 255 310 381
#     4  11  23  40  60  88 126 167 210 252 317 386
#     4  10  22  43  65  90 129 167 212 274 324 382
#     4  12  26  40  58  94 124 164 222 250 326 394
#     4   9  19  40  70  94 119 166 218 266 323 386
#     4   9  19  37  62  88 119 160 204 256 323 369
#
# _framework density 25.974494
#
# number of rings (size 3 to 8) (size 9 to 14) (size 15 to 20)
#    0.000    2.095    0.000    2.571    1.333    5.333 
#    6.857    6.190    0.000    0.000    0.000    0.000 
#    0.000    0.000    0.000    0.000    0.000    0.000 
#
# Total GULP energy -117111.779726 kJ/mol
# GULP energy per Si atom -5576.751416 kJ/mol
# Density = 2.591538 g / cm^3
# Si number density = 25.974494 Si / 1000 Ang^3
#
#
#
# Elastic Constant Matrix: (Units=GPa)
#
#
# Indices 1 2 3 4 5 6 
#
# 1 71.3535 -27.4437 -9.6459 0.0000 10.3263 0.0000
# 2 -27.4437 111.4391 11.4276 0.0000 -2.6286 0.0000
# 3 -9.6459 11.4276 162.1570 0.0000 2.7182 0.0000
# 4 0.0000 0.0000 0.0000 20.0770 0.0000 11.6675
# 5 10.3263 -2.6286 2.7182 0.0000 41.0045 0.0000
# 6 0.0000 0.0000 0.0000 11.6675 0.0000 3.3766
#
#
#
# Elastic Compliance Matrix: (Units=1/GPa)
#
#
# Indices 1 2 3 4 5 6 
#
# 1 0.016141 0.003806 0.000757 0.000000 -0.003871 0.000000
# 2 0.003806 0.009952 -0.000470 0.000000 -0.000289 0.000000
# 3 0.000757 -0.000470 0.006256 0.000000 -0.000635 0.000000
# 4 0.000000 0.000000 0.000000 -0.049411 0.000000 0.170733
# 5 -0.003871 -0.000289 -0.000635 0.000000 0.025386 0.000000
# 6 0.000000 0.000000 0.000000 0.170733 0.000000 -0.293792
#
#
# Mechanical properties :
#
#
# Convention : Reuss Voigt Hill
#
# Bulk Modulus (GPa) = 24.67024 32.62507 28.64765
# Shear Modulus (GPa) = -17.84809 37.59907 9.87549
#
# Velocity S-wave (km/s) = -2.62418 3.80878 1.95199
# Velocity P-wave (km/s) = 0.58030 5.65067 4.01664
#
# Compressibility (1/GPa) = 0.04053467
#
# Stress axis : x y z
#
# Youngs Moduli (GPa) = 61.95344 100.48023 159.85513
#
# Poissons Ratio (x) = -0.38244 -0.12098
# Poissons Ratio (y) = -0.23580 0.07515
# Poissons Ratio (z) = -0.04689 0.04724
#
# Static dielectric constant tensor:
#      x y z
#    x 2.070480 0.000000 0.042910 
#    y 0.000000 2.040990 0.000000 
#    z 0.042910 0.000000 2.044020 
# 
# From -- ./inp_files/163020.got.cif
#   From: 2010.05.17/outbox.cif.g08.bks.cpg/sg12_82_cif.got.tgz:163020.got - 2010.06.03 13:09:07.
