data_PCOD9197897
_publ_section_title
;
Structure prediction by ZEFSAII (Michael W. Deem and Ramdas Pophale) SiO2 
 PCOD9197897
Probable space group: C 2/M
;
_chemical_formula_sum "Si O2"
_cell_formula_units_Z 56
_cell_length_a 9.315539
_cell_length_b 23.608757
_cell_length_c 16.728569
_cell_angle_alpha 90.000000
_cell_angle_beta 51.470787
_cell_angle_gamma 90.000000
_cell_volume 2878.114361
_symmetry_space_group_name_H-M "C 2/M"
_symmetry_group_IT_number 12
_symmetry_cell_setting 'monoclinic'
loop_
_space_group_symop_operation_xyz
x,y,z
-x,y,-z
-x,-y,-z
x,-y,z
1/2+x,1/2+y,z
1/2-x,1/2+y,-z
1/2-x,1/2-y,-z
1/2+x,1/2-y,z
loop_
_atom_site_type_symbol
_atom_site_label
_atom_site_fract_x
_atom_site_fract_y
_atom_site_fract_z
Si Si1 0.370265 0.330450 0.623326
Si Si2 0.897087 0.722118 0.111591
Si Si3 0.847886 0.373544 0.902871
Si Si4 0.627476 0.625654 0.137502
Si Si5 0.742908 0.834438 0.240957
Si Si6 0.714927 0.063702 0.774394
Si Si7 0.089231 0.266256 0.616497
O O1 0.500000 0.338847 0.500000
O O2 0.299679 0.388609 0.685929
O O3 0.198408 0.292046 0.653583
O O4 0.478003 0.292716 0.651395
O O5 0.743808 0.679890 0.128986
O O6 0.822526 0.774078 0.186159
O O7 0.040948 0.683226 0.109348
O O8 0.000000 0.747994 0.000000
O O9 0.798007 0.366727 0.827697
O O10 0.999248 0.422717 0.857654
O O11 0.687112 0.380938 0.023977
O O12 0.411247 0.634363 0.224112
O O13 0.697804 0.575186 0.168978
O O14 0.558134 0.816156 0.352176
O O15 0.747406 0.000000 0.735791
O O16 0.250000 0.250000 0.500000
#
# Coordination Sequence:
#
# PCOD9197897 Si02
#       7
#     8   8   8   8   8   8   8
#     4  10  22  41  64  96 121 155 203 247 314 374
#     4   9  18  30  48  78 117 155 191 231 294 367
#     4  10  20  36  54  83 118 159 210 248 298 359
#     4  10  22  34  54  86 117 160 206 249 302 359
#     4  12  20  31  56  82 125 158 193 249 302 365
#     4  11  23  42  63  83 119 166 212 260 302 360
#     4  10  22  37  60  93 126 157 190 247 314 377
#
# _framework density 19.457183000000001
#
# number of rings (size 3 to 8) (size 9 to 14) (size 15 to 20)
#    0.000    1.714    1.429    5.143    4.000    3.714 
#    0.000    0.714    0.000    1.714    0.000    2.000 
#    0.000    0.000    0.000    0.000    0.000    0.000 
#
# Total GULP energy -156188.588394 kJ/mol
# GULP energy per Si atom -5578.163871 kJ/mol
# Density = 1.941290 g / cm^3
# Si number density = 19.457183 Si / 1000 Ang^3
#
#
#
# Elastic Constant Matrix: (Units=GPa)
#
#
# Indices 1 2 3 4 5 6 
#
# 1 81.5360 27.8612 11.0404 0.0000 -15.9396 0.0000
# 2 27.8612 100.5951 23.9330 0.0000 0.4039 0.0000
# 3 11.0404 23.9330 103.8446 0.0000 -8.3996 0.0000
# 4 0.0000 0.0000 0.0000 19.3017 0.0000 2.4267
# 5 -15.9396 0.4039 -8.3996 0.0000 26.7103 0.0000
# 6 0.0000 0.0000 0.0000 2.4267 0.0000 6.8977
#
#
#
# Elastic Compliance Matrix: (Units=1/GPa)
#
#
# Indices 1 2 3 4 5 6 
#
# 1 0.015584 -0.004381 0.000113 0.000000 0.009402 0.000000
# 2 -0.004381 0.011772 -0.002538 0.000000 -0.003590 0.000000
# 3 0.000113 -0.002538 0.010478 0.000000 0.003401 0.000000
# 4 0.000000 0.000000 0.000000 0.054207 0.000000 -0.019071
# 5 0.009402 -0.003590 0.003401 0.000000 0.044173 0.000000
# 6 0.000000 0.000000 0.000000 -0.019071 0.000000 0.151686
#
#
# Mechanical properties :
#
#
# Convention : Reuss Voigt Hill
#
# Bulk Modulus (GPa) = 41.28254 45.73833 43.51043
# Shear Modulus (GPa) = 16.15064 25.45800 20.80432
#
# Velocity S-wave (km/s) = 2.88420 3.62112 3.27346
# Velocity P-wave (km/s) = 5.68812 6.40637 6.05790
#
# Compressibility (1/GPa) = 0.02422331
#
# Stress axis : x y z
#
# Youngs Moduli (GPa) = 64.16778 84.94443 95.44069
#
# Poissons Ratio (x) = 0.37214 -0.01081
# Poissons Ratio (y) = 0.28112 0.24221
# Poissons Ratio (z) = -0.00727 0.21557
#
# Static dielectric constant tensor:
#      x y z
#    x 1.760520 0.000000 -0.005850 
#    y 0.000000 1.641300 0.000000 
#    z -0.005850 0.000000 1.776720 
# 
# From -- ./inp_files/259132.got.cif
#   From: 2010.05.17/outbox.cif.g08.bks.cpg/sg12_130_cif.got.tgz:259132.got - 2010.06.03 13:09:07.
