data_PCOD9197326
_publ_section_title
;
Structure prediction by ZEFSAII (Michael W. Deem and Ramdas Pophale) SiO2 
 PCOD9197326
Probable space group: C 2/M
;
_chemical_formula_sum "Si O2"
_cell_formula_units_Z 50
_cell_length_a 8.119042
_cell_length_b 13.024460
_cell_length_c 25.012214
_cell_angle_alpha 90.000000
_cell_angle_beta 115.722530
_cell_angle_gamma 90.000000
_cell_volume 2382.847975
_symmetry_space_group_name_H-M "C 2/M"
_symmetry_group_IT_number 12
_symmetry_cell_setting 'monoclinic'
loop_
_space_group_symop_operation_xyz
x,y,z
-x,y,-z
-x,-y,-z
x,-y,z
1/2+x,1/2+y,z
1/2-x,1/2+y,-z
1/2-x,1/2-y,-z
1/2+x,1/2-y,z
loop_
_atom_site_type_symbol
_atom_site_label
_atom_site_fract_x
_atom_site_fract_y
_atom_site_fract_z
Si Si1 0.311231 0.115271 0.552842
Si Si2 0.451968 0.384599 0.292632
Si Si3 0.500000 0.000000 0.000000
Si Si4 0.315811 0.314080 0.857784
Si Si5 0.292943 0.322675 0.056778
Si Si6 0.469214 0.668340 0.578490
Si Si7 0.058473 0.695120 0.229762
O O1 0.454859 0.207677 0.576535
O O2 0.197606 0.129093 0.481725
O O3 0.156486 0.133293 0.576493
O O4 0.384794 0.000000 0.567039
O O5 0.484497 0.500000 0.275616
O O6 0.542746 0.371786 0.363283
O O7 0.234119 0.369394 0.271925
O O8 0.518857 0.291280 0.263989
O O9 0.348640 0.912557 0.965898
O O10 0.499460 0.364174 0.907160
O O11 0.249514 0.243660 0.896911
O O12 0.380114 0.243901 0.817769
O O13 0.130859 0.365476 0.808612
O O14 0.250000 0.250000 0.000000
#
# Coordination Sequence:
#
# PCOD9197326 Si02
#       7
#     8   8   2   8   8   8   8
#     4  10  20  37  56  85 122 156 195 241 305 369
#     4  11  21  39  62  84 115 154 199 250 300 347
#     4  12  24  36  66  98 120 160 198 228 296 362
#     4   9  19  41  61  82 130 153 184 260 283 328
#     4  11  20  40  65  91 126 158 192 241 294 347
#     4  10  20  35  59  87 118 155 196 248 302 362
#     4   9  21  40  60  84 114 154 202 242 288 349
#
# _framework density 20.983294000000001
#
# number of rings (size 3 to 8) (size 9 to 14) (size 15 to 20)
#    0.000    1.920    1.600    2.880    0.000    0.000 
#   14.400   14.400    0.000    0.000    0.000    0.000 
#    0.000    0.000    0.000    0.000    0.000    0.000 
#
# Total GULP energy -139168.527356 kJ/mol
# GULP energy per Si atom -5566.741094 kJ/mol
# Density = 2.093554 g / cm^3
# Si number density = 20.983294 Si / 1000 Ang^3
#
#
#
# Elastic Constant Matrix: (Units=GPa)
#
#
# Indices 1 2 3 4 5 6 
#
# 1 46.1715 -6.5719 21.1268 0.0000 -4.9725 0.0000
# 2 -6.5719 95.3049 9.4689 0.0000 -4.4848 0.0000
# 3 21.1268 9.4689 82.8563 0.0000 -21.0459 0.0000
# 4 0.0000 0.0000 0.0000 15.6022 0.0000 19.7317
# 5 -4.9725 -4.4848 -21.0459 0.0000 24.4312 0.0000
# 6 0.0000 0.0000 0.0000 19.7317 0.0000 14.7546
#
#
#
# Elastic Compliance Matrix: (Units=1/GPa)
#
#
# Indices 1 2 3 4 5 6 
#
# 1 0.025047 0.002383 -0.006724 0.000000 -0.000257 0.000000
# 2 0.002383 0.010865 -0.001561 0.000000 0.001135 0.000000
# 3 -0.006724 -0.001561 0.017335 0.000000 0.013277 0.000000
# 4 0.000000 0.000000 0.000000 -0.092717 0.000000 0.123992
# 5 -0.000257 0.001135 0.013277 0.000000 0.052525 0.000000
# 6 0.000000 0.000000 0.000000 0.123992 0.000000 -0.098043
#
#
# Mechanical properties :
#
#
# Convention : Reuss Voigt Hill
#
# Bulk Modulus (GPa) = 24.12982 30.26447 27.19714
# Shear Modulus (GPa) = -84.21824 24.31153 -29.95335
#
# Velocity S-wave (km/s) = -6.34216 3.40753 -3.78231
# Velocity P-wave (km/s) = 6.48892 5.47139 2.46678
#
# Compressibility (1/GPa) = 0.04144250
#
# Stress axis : x y z
#
# Youngs Moduli (GPa) = 39.92549 92.03466 57.68824
#
# Poissons Ratio (x) = -0.21933 0.38790
# Poissons Ratio (y) = -0.09515 0.09006
# Poissons Ratio (z) = 0.26846 0.14368
#
# Static dielectric constant tensor:
#      x y z
#    x 1.793670 0.000000 0.047160 
#    y 0.000000 1.722200 0.000000 
#    z 0.047160 0.000000 1.781650 
# 
# From -- ./inp_files/355917.got.cif
#   From: 2010.05.17/outbox.cif.g08.bks.cpg/sg12_178_cif.got.tgz:355917.got - 2010.06.03 13:09:07.
