data_PCOD9197657
_publ_section_title
;
Structure prediction by ZEFSAII (Michael W. Deem and Ramdas Pophale) SiO2 
 PCOD9197657
Probable space group: C 2/M
;
_chemical_formula_sum "Si O2"
_cell_formula_units_Z 58
_cell_length_a 23.850923
_cell_length_b 9.218762
_cell_length_c 26.985788
_cell_angle_alpha 90.000000
_cell_angle_beta 26.564803
_cell_angle_gamma 90.000000
_cell_volume 2653.530801
_symmetry_space_group_name_H-M "C 2/M"
_symmetry_group_IT_number 12
_symmetry_cell_setting 'monoclinic'
loop_
_space_group_symop_operation_xyz
x,y,z
-x,y,-z
-x,-y,-z
x,-y,z
1/2+x,1/2+y,z
1/2-x,1/2+y,-z
1/2-x,1/2-y,-z
1/2+x,1/2-y,z
loop_
_atom_site_type_symbol
_atom_site_label
_atom_site_fract_x
_atom_site_fract_y
_atom_site_fract_z
Si Si1 0.515761 0.674259 0.306312
Si Si2 0.761482 0.835650 0.334348
Si Si3 0.395088 0.164707 0.312887
Si Si4 0.506275 0.768544 0.423627
Si Si5 0.790235 0.161969 0.202950
Si Si6 0.788515 0.823437 0.095469
Si Si7 0.646870 0.833623 0.049245
Si Si8 0.500000 0.500000 0.500000
O O1 0.527566 0.500000 0.294350
O O2 0.422632 0.735891 0.338389
O O3 0.470969 0.725398 0.395624
O O4 0.651676 0.752683 0.193031
O O5 0.801252 0.734429 0.347828
O O6 0.610875 0.842582 0.457016
O O7 0.805121 0.773993 0.246303
O O8 0.810404 0.000000 0.301367
O O9 0.524160 0.160268 0.179833
O O10 0.360193 0.000000 0.354506
O O11 0.639164 0.848102 0.316359
O O12 0.530933 0.624200 0.434561
O O13 0.830755 0.223496 0.117590
O O14 0.844542 0.000000 0.162853
O O15 0.782084 0.000000 0.098713
O O16 0.873033 0.757298 0.985244
O O17 0.685530 0.000000 0.007689
O O18 0.750000 0.750000 0.000000
#
# Coordination Sequence:
#
# PCOD9197657 Si02
#       8
#     8   8   8   8   8   8   8   2
#     4  11  22  37  58  89 119 156 199 244 291 354
#     4  11  23  40  62  86 118 163 205 246 295 356
#     4  11  26  42  60  84 120 158 198 246 304 357
#     4  11  22  36  61  89 124 154 202 244 294 345
#     4   9  19  37  60  89 118 152 196 246 295 346
#     4  10  20  35  61  91 121 150 191 249 302 349
#     4  11  22  39  62  89 116 153 197 246 302 362
#     4  12  20  36  58  96 120 162 198 244 296 352
#
# _framework density 21.857669999999999
#
# number of rings (size 3 to 8) (size 9 to 14) (size 15 to 20)
#    0.000    1.379    3.448    2.069    0.966    4.966 
#    0.000    0.690    0.000    4.138    0.000    0.000 
#    0.000    0.000    0.000    0.000    0.000    0.000 
#
# Total GULP energy -161638.228380 kJ/mol
# GULP energy per Si atom -5573.732013 kJ/mol
# Density = 2.180792 g / cm^3
# Si number density = 21.857670 Si / 1000 Ang^3
#
#
#
# Elastic Constant Matrix: (Units=GPa)
#
#
# Indices 1 2 3 4 5 6 
#
# 1 99.8955 30.0100 13.7595 -0.0008 33.8647 0.0004
# 2 30.0100 123.7426 9.2379 -0.0009 11.6668 0.0008
# 3 13.7595 9.2379 29.8992 -0.0009 17.8660 0.0004
# 4 -0.0008 -0.0009 -0.0009 13.8098 0.0003 -3.8259
# 5 33.8647 11.6668 17.8660 0.0003 44.8170 -0.0001
# 6 0.0004 0.0008 0.0004 -3.8259 -0.0001 41.9192
#
#
#
# Elastic Compliance Matrix: (Units=1/GPa)
#
#
# Indices 1 2 3 4 5 6 
#
# 1 0.014170 -0.002501 0.000342 0.000001 -0.010192 0.000000
# 2 -0.002501 0.008790 -0.001742 0.000000 0.000296 0.000000
# 3 0.000342 -0.001742 0.044251 0.000003 -0.017445 0.000000
# 4 0.000001 0.000000 0.000003 0.074291 -0.000002 0.006780
# 5 -0.010192 0.000296 -0.017445 -0.000002 0.036892 0.000000
# 6 0.000000 0.000000 0.000000 0.006780 0.000000 0.024474
#
#
# Mechanical properties :
#
#
# Convention : Reuss Voigt Hill
#
# Bulk Modulus (GPa) = 16.83229 39.95023 28.39126
# Shear Modulus (GPa) = 21.69462 33.47788 27.58625
#
# Velocity S-wave (km/s) = 3.15388 3.91785 3.55644
# Velocity P-wave (km/s) = 4.58041 6.22762 5.46641
#
# Compressibility (1/GPa) = 0.05940961
#
# Stress axis : x y z
#
# Youngs Moduli (GPa) = 70.57192 113.76608 22.59849
#
# Poissons Ratio (x) = 0.28454 -0.00773
# Poissons Ratio (y) = 0.17650 0.03936
# Poissons Ratio (z) = -0.02415 0.19815
#
# Static dielectric constant tensor:
#      x y z
#    x 1.827540 0.000000 -0.000870 
#    y 0.000000 1.786480 0.000000 
#    z -0.000870 0.000000 1.831720 
# 
# From -- ./inp_files/367525.got.cif
#   From: 2010.05.17/outbox.cif.g08.bks.cpg/sg12_184_cif.got.tgz:367525.got - 2010.06.03 13:09:07.
