data_PCOD9197789
_publ_section_title
;
Structure prediction by ZEFSAII (Michael W. Deem and Ramdas Pophale) SiO2 
 PCOD9197789
Probable space group: C 2/M
;
_chemical_formula_sum "Si O2"
_cell_formula_units_Z 58
_cell_length_a 23.638215
_cell_length_b 20.830458
_cell_length_c 9.389577
_cell_angle_alpha 90.000000
_cell_angle_beta 144.787134
_cell_angle_gamma 90.000000
_cell_volume 2665.913535
_symmetry_space_group_name_H-M "C 2/M"
_symmetry_group_IT_number 12
_symmetry_cell_setting 'monoclinic'
loop_
_space_group_symop_operation_xyz
x,y,z
-x,y,-z
-x,-y,-z
x,-y,z
1/2+x,1/2+y,z
1/2-x,1/2+y,-z
1/2-x,1/2-y,-z
1/2+x,1/2-y,z
loop_
_atom_site_type_symbol
_atom_site_label
_atom_site_fract_x
_atom_site_fract_y
_atom_site_fract_z
Si Si1 0.201855 0.924894 0.178013
Si Si2 0.100176 0.571646 0.936735
Si Si3 0.000000 0.500000 0.500000
Si Si4 0.182174 0.647593 0.346590
Si Si5 0.438274 0.688160 0.085918
Si Si6 0.611457 0.267771 0.735307
Si Si7 0.209599 0.359028 0.912355
Si Si8 0.637390 0.722283 0.383025
O O1 0.260411 0.904971 0.441447
O O2 0.183751 0.000000 0.136490
O O3 0.101317 0.883234 0.965595
O O4 0.264370 0.902282 0.169606
O O5 0.131767 0.500000 0.050019
O O6 0.100448 0.617129 0.074755
O O7 0.176205 0.598877 0.976707
O O8 0.008106 0.555473 0.644348
O O9 0.260813 0.684158 0.406740
O O10 0.149679 0.701406 0.394031
O O11 0.379321 0.733446 0.073300
O O12 0.554498 0.701263 0.323544
O O13 0.403361 0.704115 0.856551
O O14 0.500000 0.291285 0.500000
O O15 0.693731 0.316792 0.853771
O O16 0.629921 0.196720 0.716223
#
# Coordination Sequence:
#
# PCOD9197789 Si02
#       8
#     8   8   2   8   8   8   8   8
#     4  10  21  39  60  88 125 174 209 254 320 396
#     4  10  21  40  63  90 124 170 217 262 320 390
#     4   8  24  40  64  90 126 166 220 268 304 384
#     4  10  20  35  65  92 123 161 216 263 321 387
#     4   9  19  37  55  86 128 162 204 264 328 377
#     4  10  22  34  61  93 122 157 224 277 319 395
#     4  10  22  39  60  88 126 172 208 268 340 382
#     4   9  19  35  60  91 126 162 203 272 328 375
#
# _framework density 21.756143999999999
#
# number of rings (size 3 to 8) (size 9 to 14) (size 15 to 20)
#    0.414    1.931    0.000    1.655    4.828    2.207 
#    0.000    6.207    0.000    2.897    0.000    0.000 
#    0.000    0.000    0.000    0.000    0.000    0.000 
#
# Total GULP energy -161444.324182 kJ/mol
# GULP energy per Si atom -5567.045661 kJ/mol
# Density = 2.170663 g / cm^3
# Si number density = 21.756144 Si / 1000 Ang^3
#
#
#
# Elastic Constant Matrix: (Units=GPa)
#
#
# Indices 1 2 3 4 5 6 
#
# 1 89.2419 31.0603 0.5809 0.0000 -2.0653 0.0000
# 2 31.0603 119.2163 13.6111 0.0000 5.8751 0.0000
# 3 0.5809 13.6111 55.0061 0.0000 -6.0182 0.0000
# 4 0.0000 0.0000 0.0000 12.6062 0.0000 -13.3200
# 5 -2.0653 5.8751 -6.0182 0.0000 22.9071 0.0000
# 6 0.0000 0.0000 0.0000 -13.3200 0.0000 24.8945
#
#
#
# Elastic Compliance Matrix: (Units=1/GPa)
#
#
# Indices 1 2 3 4 5 6 
#
# 1 0.012459 -0.003469 0.000975 0.000000 0.002269 0.000000
# 2 -0.003469 0.009784 -0.002773 0.000000 -0.003550 0.000000
# 3 0.000975 -0.002773 0.019504 0.000000 0.005923 0.000000
# 4 0.000000 0.000000 0.000000 0.182508 0.000000 0.097653
# 5 0.002269 -0.003550 0.005923 0.000000 0.046326 0.000000
# 6 0.000000 0.000000 0.000000 0.097653 0.000000 0.092419
#
#
# Mechanical properties :
#
#
# Convention : Reuss Voigt Hill
#
# Bulk Modulus (GPa) = 32.03826 39.32989 35.68408
# Shear Modulus (GPa) = 13.02295 26.62901 19.82598
#
# Velocity S-wave (km/s) = 2.44926 3.50233 3.02202
# Velocity P-wave (km/s) = 4.77038 5.87128 5.34923
#
# Compressibility (1/GPa) = 0.03121268
#
# Stress axis : x y z
#
# Youngs Moduli (GPa) = 80.26248 102.21280 51.27244
#
# Poissons Ratio (x) = 0.35460 -0.05000
# Poissons Ratio (y) = 0.27845 0.14216
# Poissons Ratio (z) = -0.07827 0.28341
#
# Static dielectric constant tensor:
#      x y z
#    x 1.816800 0.000000 -0.000070 
#    y 0.000000 1.784790 0.000000 
#    z -0.000070 0.000000 1.927510 
# 
# From -- ./inp_files/99290.got.cif
#   From: 2010.05.17/outbox.cif.g08.bks.cpg/sg12_50_cif.got.tgz:99290.got - 2010.06.03 13:09:07.
