data_PCOD9197514
_publ_section_title
;
Structure prediction by ZEFSAII (Michael W. Deem and Ramdas Pophale) SiO2 
 PCOD9197514
Probable space group: C 2/M
;
_chemical_formula_sum "Si O2"
_cell_formula_units_Z 56
_cell_length_a 12.179209
_cell_length_b 17.653156
_cell_length_c 15.491158
_cell_angle_alpha 90.000000
_cell_angle_beta 65.962307
_cell_angle_gamma 90.000000
_cell_volume 3041.782593
_symmetry_space_group_name_H-M "C 2/M"
_symmetry_group_IT_number 12
_symmetry_cell_setting 'monoclinic'
loop_
_space_group_symop_operation_xyz
x,y,z
-x,y,-z
-x,-y,-z
x,-y,z
1/2+x,1/2+y,z
1/2-x,1/2+y,-z
1/2-x,1/2-y,-z
1/2+x,1/2-y,z
loop_
_atom_site_type_symbol
_atom_site_label
_atom_site_fract_x
_atom_site_fract_y
_atom_site_fract_z
Si Si1 0.867411 0.299690 0.499068
Si Si2 0.532071 0.916250 0.670386
Si Si3 0.584198 0.139007 0.837009
Si Si4 0.411589 0.308913 0.164666
Si Si5 0.841047 0.181430 0.987917
Si Si6 0.147907 0.413935 0.996818
Si Si7 0.275070 0.088991 0.679996
O O1 0.750000 0.250000 0.500000
O O2 0.911048 0.350286 0.404753
O O3 0.815266 0.358252 0.587062
O O4 0.000000 0.269735 0.500000
O O5 0.575871 0.910198 0.754286
O O6 0.387746 0.907938 0.710332
O O7 0.560709 0.000000 0.625415
O O8 0.619334 0.223401 0.797832
O O9 0.661409 0.107783 0.891966
O O10 0.452759 0.137497 0.924743
O O11 0.554692 0.317412 0.116492
O O12 0.339914 0.371719 0.239841
O O13 0.381107 0.311095 0.073171
O O14 0.771782 0.102727 0.002472
O O15 0.750000 0.250000 0.000000
O O16 0.108719 0.500000 0.018421
O O17 0.257082 0.000000 0.663813
#
# Coordination Sequence:
#
# PCOD9197514 Si02
#       7
#     8   8   8   8   8   8   8
#     4  10  21  41  66  94 122 156 204 253 310 369
#     4  10  20  35  60  87 117 153 194 243 296 361
#     4  11  19  33  53  82 112 143 192 238 291 351
#     4  11  22  34  58  79 109 154 193 243 297 354
#     4  11  20  38  52  76 112 151 197 239 292 357
#     4  11  21  33  53  77 111 149 187 243 298 349
#     4  10  22  39  59  88 121 155 199 250 302 363
#
# _framework density 18.410257999999999
#
# number of rings (size 3 to 8) (size 9 to 14) (size 15 to 20)
#    0.000    1.429    2.857    4.714    0.000    4.000 
#    0.000    1.429    0.000    3.429    0.000    0.000 
#    0.000    0.000    0.000    0.000    0.000    0.000 
#
# Total GULP energy -155878.857153 kJ/mol
# GULP energy per Si atom -5567.102041 kJ/mol
# Density = 1.836836 g / cm^3
# Si number density = 18.410258 Si / 1000 Ang^3
#
#
#
# Elastic Constant Matrix: (Units=GPa)
#
#
# Indices 1 2 3 4 5 6 
#
# 1 75.3076 40.8294 22.8125 0.0000 -9.7791 0.0000
# 2 40.8294 99.6222 20.4079 0.0000 -11.0481 0.0000
# 3 22.8125 20.4079 69.4092 0.0000 -7.6373 0.0000
# 4 0.0000 0.0000 0.0000 22.1498 0.0000 -5.2076
# 5 -9.7791 -11.0481 -7.6373 0.0000 28.9059 0.0000
# 6 0.0000 0.0000 0.0000 -5.2076 0.0000 23.5412
#
#
#
# Elastic Compliance Matrix: (Units=1/GPa)
#
#
# Indices 1 2 3 4 5 6 
#
# 1 0.018259 -0.006399 -0.003820 0.000000 0.002722 0.000000
# 2 -0.006399 0.013248 -0.001517 0.000000 0.002498 0.000000
# 3 -0.003820 -0.001517 0.016379 0.000000 0.002455 0.000000
# 4 0.000000 0.000000 0.000000 0.047624 0.000000 0.010535
# 5 0.002722 0.002498 0.002455 0.000000 0.037119 0.000000
# 6 0.000000 0.000000 0.000000 0.010535 0.000000 0.044809
#
#
# Mechanical properties :
#
#
# Convention : Reuss Voigt Hill
#
# Bulk Modulus (GPa) = 40.96071 45.82650 43.39360
# Shear Modulus (GPa) = 23.91781 25.60534 24.76158
#
# Velocity S-wave (km/s) = 3.60829 3.73341 3.67139
# Velocity P-wave (km/s) = 6.29737 6.59776 6.44931
#
# Compressibility (1/GPa) = 0.02441364
#
# Stress axis : x y z
#
# Youngs Moduli (GPa) = 54.76816 75.48159 61.05318
#
# Poissons Ratio (x) = 0.48299 0.23323
# Poissons Ratio (y) = 0.35045 0.09264
# Poissons Ratio (z) = 0.20922 0.11453
#
# Static dielectric constant tensor:
#      x y z
#    x 1.711770 0.000000 -0.005460 
#    y 0.000000 1.660800 0.000000 
#    z -0.005460 0.000000 1.596700 
# 
# From -- ./inp_files/206091.got.cif
#   From: 2010.05.17/outbox.cif.g08.bks.cpg/sg12_104_cif.got.tgz:206091.got - 2010.06.03 13:09:07.
