data_PCOD9197233
_publ_section_title
;
Structure prediction by ZEFSAII (Michael W. Deem and Ramdas Pophale) SiO2 
 PCOD9197233
Probable space group: C 2/M
;
_chemical_formula_sum "Si O2"
_cell_formula_units_Z 56
_cell_length_a 19.241508
_cell_length_b 17.742823
_cell_length_c 14.432529
_cell_angle_alpha 90.000000
_cell_angle_beta 32.094418
_cell_angle_gamma 90.000000
_cell_volume 2617.924981
_symmetry_space_group_name_H-M "C 2/M"
_symmetry_group_IT_number 12
_symmetry_cell_setting 'monoclinic'
loop_
_space_group_symop_operation_xyz
x,y,z
-x,y,-z
-x,-y,-z
x,-y,z
1/2+x,1/2+y,z
1/2-x,1/2+y,-z
1/2-x,1/2-y,-z
1/2+x,1/2-y,z
loop_
_atom_site_type_symbol
_atom_site_label
_atom_site_fract_x
_atom_site_fract_y
_atom_site_fract_z
Si Si1 0.559281 0.587114 0.121655
Si Si2 0.158480 0.678903 0.930321
Si Si3 0.856412 0.693227 0.263264
Si Si4 0.204359 0.147352 0.596185
Si Si5 0.227183 0.915998 0.763431
Si Si6 0.654042 0.912306 0.113449
Si Si7 0.887168 0.704385 0.689207
O O1 0.519671 0.500000 0.176056
O O2 0.439426 0.638984 0.286016
O O3 0.599017 0.601769 0.969642
O O4 0.695388 0.595963 0.022001
O O5 0.181670 0.663985 0.795143
O O6 0.268409 0.737571 0.841013
O O7 0.153333 0.609325 0.006476
O O8 0.010316 0.710109 0.096391
O O9 0.783854 0.771646 0.367308
O O10 0.811817 0.638717 0.396097
O O11 0.209338 0.089638 0.674855
O O12 0.333887 0.858255 0.678093
O O13 0.265536 0.000000 0.747739
O O14 0.580984 0.846183 0.255387
O O15 0.613850 0.000000 0.174593
O O16 0.000000 0.742878 0.500000
#
# Coordination Sequence:
#
# PCOD9197233 Si02
#       7
#     8   8   8   8   8   8   8
#     4   9  19  36  61  93 122 155 197 248 318 379
#     4  11  23  44  62  87 123 172 210 259 314 375
#     4  10  24  38  60  86 121 161 220 257 303 362
#     4  11  20  36  60  90 123 158 206 267 304 367
#     4  10  20  35  58  94 132 164 195 252 328 380
#     4  10  23  42  63  89 127 171 207 254 317 379
#     4  11  23  38  65  97 125 157 212 266 319 380
#
# _framework density 21.390986999999999
#
# number of rings (size 3 to 8) (size 9 to 14) (size 15 to 20)
#    0.000    1.714    1.429    4.286    4.000    3.429 
#    0.000    3.571    0.000    2.143    0.000    0.000 
#    0.000    0.000    0.000    0.000    0.000    0.000 
#
# Total GULP energy -156236.173958 kJ/mol
# GULP energy per Si atom -5579.863356 kJ/mol
# Density = 2.134230 g / cm^3
# Si number density = 21.390987 Si / 1000 Ang^3
#
#
#
# Elastic Constant Matrix: (Units=GPa)
#
#
# Indices 1 2 3 4 5 6 
#
# 1 71.9093 15.3152 21.6725 0.0000 27.9853 0.0000
# 2 15.3152 43.8039 17.2175 0.0000 9.8208 0.0000
# 3 21.6725 17.2175 94.9428 0.0000 26.1226 0.0000
# 4 0.0000 0.0000 0.0000 13.0377 0.0000 2.1708
# 5 27.9853 9.8208 26.1226 0.0000 24.3605 0.0000
# 6 0.0000 0.0000 0.0000 2.1708 0.0000 31.1569
#
#
#
# Elastic Compliance Matrix: (Units=1/GPa)
#
#
# Indices 1 2 3 4 5 6 
#
# 1 0.026235 -0.003258 0.003593 0.000000 -0.032678 0.000000
# 2 -0.003258 0.025930 -0.002996 0.000000 -0.003497 0.000000
# 3 0.003593 -0.002996 0.015688 0.000000 -0.019743 0.000000
# 4 0.000000 0.000000 0.000000 0.077601 0.000000 -0.005407
# 5 -0.032678 -0.003497 -0.019743 0.000000 0.101171 0.000000
# 6 0.000000 0.000000 0.000000 -0.005407 0.000000 0.032472
#
#
# Mechanical properties :
#
#
# Convention : Reuss Voigt Hill
#
# Bulk Modulus (GPa) = 15.99229 35.45183 25.72206
# Shear Modulus (GPa) = 16.37928 24.14108 20.26018
#
# Velocity S-wave (km/s) = 2.77015 3.36305 3.08090
# Velocity P-wave (km/s) = 4.20999 5.62933 4.97059
#
# Compressibility (1/GPa) = 0.06253012
#
# Stress axis : x y z
#
# Youngs Moduli (GPa) = 38.11708 38.56524 63.74391
#
# Poissons Ratio (x) = 0.12566 -0.22906
# Poissons Ratio (y) = 0.12420 0.19099
# Poissons Ratio (z) = -0.13697 0.11555
#
# Static dielectric constant tensor:
#      x y z
#    x 1.829440 0.000000 -0.010210 
#    y 0.000000 1.782810 0.000000 
#    z -0.010210 0.000000 1.841310 
# 
# From -- ./inp_files/234661.got.cif
#   From: 2010.05.17/outbox.cif.g08.bks.cpg/sg12_118_cif.got.tgz:234661.got - 2010.06.03 13:09:07.
