data_PCOD9197849
_publ_section_title
;
Structure prediction by ZEFSAII (Michael W. Deem and Ramdas Pophale) SiO2 
 PCOD9197849
Probable space group: C 2/M
;
_chemical_formula_sum "Si O2"
_cell_formula_units_Z 64
_cell_length_a 26.867193
_cell_length_b 7.322729
_cell_length_c 14.578928
_cell_angle_alpha 90.000000
_cell_angle_beta 86.817304
_cell_angle_gamma 90.000000
_cell_volume 2863.851308
_symmetry_space_group_name_H-M "C 2/M"
_symmetry_group_IT_number 12
_symmetry_cell_setting 'monoclinic'
loop_
_space_group_symop_operation_xyz
x,y,z
-x,y,-z
-x,-y,-z
x,-y,z
1/2+x,1/2+y,z
1/2-x,1/2+y,-z
1/2-x,1/2-y,-z
1/2+x,1/2-y,z
loop_
_atom_site_type_symbol
_atom_site_label
_atom_site_fract_x
_atom_site_fract_y
_atom_site_fract_z
Si Si1 0.272715 0.782615 0.898394
Si Si2 0.434570 0.778191 0.719338
Si Si3 0.262012 0.279425 0.290953
Si Si4 0.548285 0.777731 0.936021
Si Si5 0.158387 0.276804 0.396079
Si Si6 0.115597 0.277590 0.089294
Si Si7 0.955003 0.276515 0.275097
Si Si8 0.139917 0.287847 0.603012
O O1 0.241585 0.716068 0.814246
O O2 0.329235 0.712917 0.892731
O O3 0.276242 0.000000 0.885747
O O4 0.250000 0.750000 0.000000
O O5 0.389637 0.719174 0.658226
O O6 0.421178 0.724626 0.824824
O O7 0.490873 0.721308 0.692050
O O8 0.434218 0.000000 0.717067
O O9 0.262839 0.500000 0.292656
O O10 0.210956 0.220178 0.346409
O O11 0.311461 0.220664 0.338273
O O12 0.548844 0.717971 0.830857
O O13 0.547194 0.000000 0.933732
O O14 0.500000 0.722079 0.000000
O O15 0.595524 0.721000 0.992308
O O16 0.159308 0.500000 0.393811
O O17 0.152514 0.213261 0.501204
O O18 0.116311 0.500000 0.088651
O O19 0.954024 0.500000 0.273994
O O20 0.908241 0.212074 0.339552
O O21 0.127992 0.500000 0.587859
#
# Coordination Sequence:
#
# PCOD9197849 Si02
#       8
#     8   8   8   8   8   8   8   8
#     4  10  21  34  50  74 100 130 165 202 246 293
#     4   9  14  25  45  67  97 132 163 199 245 300
#     4  10  20  36  54  71  96 136 178 203 234 300
#     4   9  14  21  36  59  91 126 155 185 228 289
#     4   9  17  31  50  70  95 130 171 210 249 297
#     4   9  15  25  42  64  91 128 164 193 234 290
#     4   9  17  26  39  68 104 129 155 198 255 304
#     4  10  21  33  48  76 106 129 160 211 264 294
#
# _framework density 22.347529999999999
#
# number of rings (size 3 to 8) (size 9 to 14) (size 15 to 20)
#    0.000    2.625    2.500    0.375    1.750    1.000 
#    0.000    2.500    0.000    0.000    0.000    3.500 
#    0.000    3.000    0.000    0.000    0.000    0.000 
#
# Total GULP energy -178758.274203 kJ/mol
# GULP energy per Si atom -5586.196069 kJ/mol
# Density = 2.229667 g / cm^3
# Si number density = 22.347530 Si / 1000 Ang^3
#
#
#
# Elastic Constant Matrix: (Units=GPa)
#
#
# Indices 1 2 3 4 5 6 
#
# 1 148.0548 -10.2502 62.4619 0.0000 -5.9032 0.0000
# 2 -10.2502 84.9526 -9.4211 0.0000 -4.7314 0.0000
# 3 62.4619 -9.4211 112.0865 0.0000 -19.0932 0.0000
# 4 0.0000 0.0000 0.0000 -3.1640 0.0000 8.3081
# 5 -5.9032 -4.7314 -19.0932 0.0000 33.4104 0.0000
# 6 0.0000 0.0000 0.0000 8.3081 0.0000 -2.3043
#
#
#
# Elastic Compliance Matrix: (Units=1/GPa)
#
#
# Indices 1 2 3 4 5 6 
#
# 1 0.008904 0.000431 -0.005149 0.000000 -0.001308 0.000000
# 2 0.000431 0.012094 0.001198 0.000000 0.002473 0.000000
# 3 -0.005149 0.001198 0.013034 0.000000 0.006709 0.000000
# 4 0.000000 0.000000 0.000000 0.037326 0.000000 0.134580
# 5 -0.001308 0.002473 0.006709 0.000000 0.033884 0.000000
# 6 0.000000 0.000000 0.000000 0.134580 0.000000 0.051253
#
#
# Mechanical properties :
#
#
# Convention : Reuss Voigt Hill
#
# Bulk Modulus (GPa) = 37.04818 47.85277 42.45047
# Shear Modulus (GPa) = 28.98008 25.74199 27.36104
#
# Velocity S-wave (km/s) = 3.60501 3.39764 3.50286
# Velocity P-wave (km/s) = 5.82600 6.07054 5.94952
#
# Compressibility (1/GPa) = 0.02699188
#
# Stress axis : x y z
#
# Youngs Moduli (GPa) = 112.30938 82.68693 76.72100
#
# Poissons Ratio (x) = -0.03560 0.39500
# Poissons Ratio (y) = -0.04835 -0.09190
# Poissons Ratio (z) = 0.57823 -0.09905
#
# Static dielectric constant tensor:
#      x y z
#    x 1.788910 0.000000 -0.018800 
#    y 0.000000 1.943870 0.000000 
#    z -0.018800 0.000000 1.906110 
# 
# From -- ./inp_files/238709.got.cif
#   From: 2010.05.17/outbox.cif.g08.bks.cpg/sg12_120_cif.got.tgz:238709.got - 2010.06.03 13:09:07.
