data_PCOD9197007
_publ_section_title
;
Structure prediction by ZEFSAII (Michael W. Deem and Ramdas Pophale) SiO2 
 PCOD9197007
Probable space group: C 2/M
;
_chemical_formula_sum "Si O2"
_cell_formula_units_Z 58
_cell_length_a 22.499296
_cell_length_b 7.697217
_cell_length_c 20.310210
_cell_angle_alpha 90.000000
_cell_angle_beta 45.805513
_cell_angle_gamma 90.000000
_cell_volume 2521.870102
_symmetry_space_group_name_H-M "C 2/M"
_symmetry_group_IT_number 12
_symmetry_cell_setting 'monoclinic'
loop_
_space_group_symop_operation_xyz
x,y,z
-x,y,-z
-x,-y,-z
x,-y,z
1/2+x,1/2+y,z
1/2-x,1/2+y,-z
1/2-x,1/2-y,-z
1/2+x,1/2-y,z
loop_
_atom_site_type_symbol
_atom_site_label
_atom_site_fract_x
_atom_site_fract_y
_atom_site_fract_z
Si Si1 0.571900 0.703316 0.519676
Si Si2 0.095291 0.709200 0.789386
Si Si3 0.223805 0.799683 0.315745
Si Si4 0.453295 0.207657 0.319310
Si Si5 0.000000 0.500000 0.500000
Si Si6 0.241207 0.799124 0.848159
Si Si7 0.082796 0.208202 0.035311
Si Si8 0.133507 0.205753 0.141185
O O1 0.554248 0.500000 0.518337
O O2 0.649431 0.774175 0.416398
O O3 0.590169 0.716371 0.582981
O O4 0.502144 0.843417 0.555011
O O5 0.097215 0.500000 0.787789
O O6 0.184504 0.775644 0.743541
O O7 0.079235 0.769549 0.726730
O O8 0.014628 0.756909 0.894418
O O9 0.210416 0.792152 0.248088
O O10 0.227061 0.000000 0.334482
O O11 0.549828 0.259013 0.246408
O O12 0.445586 0.000000 0.326405
O O13 0.289750 0.785414 0.879401
O O14 0.236820 0.000000 0.832610
O O15 0.148536 0.725997 0.931066
O O16 0.113268 0.274054 0.083578
O O17 0.092267 0.000000 0.028493
O O18 0.147548 0.000000 0.126074
#
# Coordination Sequence:
#
# PCOD9197007 Si02
#       8
#     8   8   8   8   2   8   8   8
#     4  11  25  43  65  94 131 168 206 253 306 365
#     4   9  20  40  65  87 117 154 202 258 300 361
#     4  10  24  43  59  86 120 158 204 251 307 362
#     4  10  20  38  63  92 119 158 206 250 308 367
#     4  12  26  44  68  94 132 166 210 250 306 378
#     4  11  23  36  56  83 119 157 199 248 305 370
#     4   9  20  38  57  86 117 153 198 248 306 365
#     4  10  20  35  58  85 119 155 198 249 305 366
#
# _framework density 22.998805999999998
#
# number of rings (size 3 to 8) (size 9 to 14) (size 15 to 20)
#    0.000    1.931    0.690    1.862    2.897    3.862 
#    0.000    2.759    0.000    0.000    0.000    0.000 
#    0.000    0.000    0.000    0.000    0.000    0.000 
#
# Total GULP energy -161755.723068 kJ/mol
# GULP energy per Si atom -5577.783554 kJ/mol
# Density = 2.294646 g / cm^3
# Si number density = 22.998806 Si / 1000 Ang^3
#
#
#
# Elastic Constant Matrix: (Units=GPa)
#
#
# Indices 1 2 3 4 5 6 
#
# 1 45.7619 4.2988 0.7500 -0.0017 -17.9289 0.0004
# 2 4.2988 89.0851 -0.1322 0.0019 1.2208 -0.0009
# 3 0.7500 -0.1322 114.2686 -0.0044 -4.1233 -0.0024
# 4 -0.0017 0.0019 -0.0044 16.6115 -0.0026 1.4232
# 5 -17.9289 1.2208 -4.1233 -0.0026 21.7239 -0.0020
# 6 0.0004 -0.0009 -0.0024 1.4232 -0.0020 2.1791
#
#
#
# Elastic Compliance Matrix: (Units=1/GPa)
#
#
# Indices 1 2 3 4 5 6 
#
# 1 0.032694 -0.001950 0.000766 0.000007 0.027238 0.000015
# 2 -0.001950 0.011350 -0.000056 -0.000002 -0.002258 0.000004
# 3 0.000766 -0.000056 0.008830 0.000002 0.002311 0.000011
# 4 0.000007 -0.000002 0.000002 0.063767 0.000010 -0.041646
# 5 0.027238 -0.002258 0.002311 0.000010 0.069078 0.000055
# 6 0.000015 0.000004 0.000011 -0.041646 0.000055 0.486103
#
#
# Mechanical properties :
#
#
# Convention : Reuss Voigt Hill
#
# Bulk Modulus (GPa) = 19.84307 28.77208 24.30758
# Shear Modulus (GPa) = 7.23486 24.38284 15.80885
#
# Velocity S-wave (km/s) = 1.77555 3.25957 2.62463
# Velocity P-wave (km/s) = 3.58470 5.16757 4.44713
#
# Compressibility (1/GPa) = 0.05039543
#
# Stress axis : x y z
#
# Youngs Moduli (GPa) = 30.58643 88.10444 113.25520
#
# Poissons Ratio (x) = 0.17178 -0.08676
# Poissons Ratio (y) = 0.05964 0.00629
# Poissons Ratio (z) = -0.02343 0.00489
#
# Static dielectric constant tensor:
#      x y z
#    x 1.918910 0.000000 -0.024980 
#    y 0.000000 1.847680 0.000000 
#    z -0.024980 0.000000 1.915290 
# 
# From -- ./inp_files/324515.got.cif
#   From: 2010.05.17/outbox.cif.g08.bks.cpg/sg12_163_cif.got.tgz:324515.got - 2010.06.03 13:09:07.
