data_PCOD9197189
_publ_section_title
;
Structure prediction by ZEFSAII (Michael W. Deem and Ramdas Pophale) SiO2 
 PCOD9197189
Probable space group: C 2/M
;
_chemical_formula_sum "Si O2"
_cell_formula_units_Z 50
_cell_length_a 13.023513
_cell_length_b 27.101698
_cell_length_c 7.601493
_cell_angle_alpha 90.000000
_cell_angle_beta 55.388039
_cell_angle_gamma 90.000000
_cell_volume 2208.171406
_symmetry_space_group_name_H-M "C 2/M"
_symmetry_group_IT_number 12
_symmetry_cell_setting 'monoclinic'
loop_
_space_group_symop_operation_xyz
x,y,z
-x,y,-z
-x,-y,-z
x,-y,z
1/2+x,1/2+y,z
1/2-x,1/2+y,-z
1/2-x,1/2-y,-z
1/2+x,1/2-y,z
loop_
_atom_site_type_symbol
_atom_site_label
_atom_site_fract_x
_atom_site_fract_y
_atom_site_fract_z
Si Si1 0.125567 0.304982 0.470930
Si Si2 0.302548 0.911332 0.675155
Si Si3 0.845677 0.871568 0.838677
Si Si4 0.053524 0.943496 0.747456
Si Si5 0.863848 0.326339 0.148605
Si Si6 0.126794 0.776240 0.982721
Si Si7 0.500000 0.000000 0.500000
O O1 0.122991 0.364342 0.466830
O O2 0.140226 0.296537 0.664473
O O3 0.250330 0.289556 0.248601
O O4 0.000000 0.285470 0.500000
O O5 0.193773 0.925063 0.642428
O O6 0.391500 0.957109 0.617699
O O7 0.237408 0.893732 0.920289
O O8 0.750099 0.863159 0.771597
O O9 0.965709 0.906831 0.722194
O O10 0.884682 0.815706 0.850170
O O11 0.049850 0.000000 0.686282
O O12 0.000000 0.943550 0.000000
O O13 0.863395 0.282793 0.000922
O O14 0.000000 0.350886 0.000000
O O15 0.000000 0.784894 0.000000
#
# Coordination Sequence:
#
# PCOD9197189 Si02
#       7
#     8   8   8   8   8   8   2
#     4  11  22  40  62  88 119 159 204 254 307 373
#     4  10  20  35  58  90 116 157 203 250 293 358
#     4  10  20  36  60  87 119 155 197 251 304 360
#     4   9  17  33  58  85 115 148 193 239 291 353
#     4  11  23  38  60  88 125 160 200 253 313 364
#     4  10  21  40  61  89 120 160 204 250 301 371
#     4  12  20  32  62  90 118 156 222 244 300 344
#
# _framework density 22.643169
#
# number of rings (size 3 to 8) (size 9 to 14) (size 15 to 20)
#    0.000    1.760    1.600    5.280    1.120    1.280 
#    0.000    4.800    1.760    2.400    0.000    0.000 
#    0.000    0.000    0.000    0.000    0.000    0.000 
#
# Total GULP energy -139375.370286 kJ/mol
# GULP energy per Si atom -5575.014811 kJ/mol
# Density = 2.259163 g / cm^3
# Si number density = 22.643169 Si / 1000 Ang^3
#
#
#
# Elastic Constant Matrix: (Units=GPa)
#
#
# Indices 1 2 3 4 5 6 
#
# 1 180.3812 47.5449 40.6233 0.0000 -21.2085 0.0000
# 2 47.5449 93.5048 1.9299 0.0000 -7.4277 0.0000
# 3 40.6233 1.9299 58.3320 0.0000 2.5484 0.0000
# 4 0.0000 0.0000 0.0000 8.2063 0.0000 -16.7718
# 5 -21.2085 -7.4277 2.5484 0.0000 34.6531 0.0000
# 6 0.0000 0.0000 0.0000 -16.7718 0.0000 38.5681
#
#
#
# Elastic Compliance Matrix: (Units=1/GPa)
#
#
# Indices 1 2 3 4 5 6 
#
# 1 0.008453 -0.003793 -0.005971 0.000000 0.004799 0.000000
# 2 -0.003793 0.012595 0.002216 0.000000 0.000215 0.000000
# 3 -0.005971 0.002216 0.021436 0.000000 -0.004756 0.000000
# 4 0.000000 0.000000 0.000000 1.095448 0.000000 0.476368
# 5 0.004799 0.000215 -0.004756 0.000000 0.032191 0.000000
# 6 0.000000 0.000000 0.000000 0.476368 0.000000 0.233082
#
#
# Mechanical properties :
#
#
# Convention : Reuss Voigt Hill
#
# Bulk Modulus (GPa) = 36.51441 56.93490 46.72465
# Shear Modulus (GPa) = 3.50280 32.42681 17.96480
#
# Velocity S-wave (km/s) = 1.24512 3.78839 2.81977
# Velocity P-wave (km/s) = 4.26944 6.65844 5.59298
#
# Compressibility (1/GPa) = 0.02738645
#
# Stress axis : x y z
#
# Youngs Moduli (GPa) = 118.30646 79.39738 46.65093
#
# Poissons Ratio (x) = 0.30119 0.27854
# Poissons Ratio (y) = 0.44879 -0.10337
# Poissons Ratio (z) = 0.70637 -0.17593
#
# Static dielectric constant tensor:
#      x y z
#    x 1.908080 0.000000 0.033380 
#    y 0.000000 1.811410 0.000000 
#    z 0.033380 0.000000 1.889510 
# 
# From -- ./inp_files/53093.got.cif
#   From: 2010.05.17/outbox.cif.g08.bks.cpg/sg12_27_cif.got.tgz:53093.got - 2010.06.03 13:09:07.
