data_PCOD9197387
_publ_section_title
;
Structure prediction by ZEFSAII (Michael W. Deem and Ramdas Pophale) SiO2 
 PCOD9197387
Probable space group: C 2/M
;
_chemical_formula_sum "Si O2"
_cell_formula_units_Z 48
_cell_length_a 20.636898
_cell_length_b 22.614641
_cell_length_c 8.650123
_cell_angle_alpha 90.000000
_cell_angle_beta 149.763031
_cell_angle_gamma 90.000000
_cell_volume 2032.931357
_symmetry_space_group_name_H-M "C 2/M"
_symmetry_group_IT_number 12
_symmetry_cell_setting 'monoclinic'
loop_
_space_group_symop_operation_xyz
x,y,z
-x,y,-z
-x,-y,-z
x,-y,z
1/2+x,1/2+y,z
1/2-x,1/2+y,-z
1/2-x,1/2-y,-z
1/2+x,1/2-y,z
loop_
_atom_site_type_symbol
_atom_site_label
_atom_site_fract_x
_atom_site_fract_y
_atom_site_fract_z
Si Si1 0.636741 0.850187 0.869652
Si Si2 0.241142 0.435210 0.840172
Si Si3 0.524764 0.933042 0.887503
Si Si4 0.484258 0.564578 0.654069
Si Si5 0.752944 0.746091 0.316562
Si Si6 0.502544 0.686574 0.188668
O O1 0.500000 0.838287 0.500000
O O2 0.727990 0.881488 0.931911
O O3 0.613262 0.899097 0.952364
O O4 0.692416 0.795678 0.078931
O O5 0.242061 0.500000 0.923990
O O6 0.113309 0.434654 0.477208
O O7 0.365450 0.434697 0.988587
O O8 0.571641 0.000000 0.010293
O O9 0.500000 0.902278 0.000000
O O10 0.500000 0.565919 0.500000
O O11 0.429818 0.500000 0.586972
O O12 0.434776 0.627180 0.611903
O O13 0.750000 0.750000 0.500000
O O14 0.905314 0.755686 0.592770
O O15 0.645727 0.695494 0.065290
O O16 0.500000 0.678329 0.000000
#
# Coordination Sequence:
#
# PCOD9197387 Si02
#       6
#     8   8   8   8   8   8
#     4  10  20  35  59  89 120 165 216 260 313 378
#     4   9  18  34  56  86 126 166 205 253 309 373
#     4   9  18  31  51  85 126 165 206 255 310 370
#     4  10  21  38  61  89 122 159 201 255 315 373
#     4  10  23  42  63  89 122 161 207 262 319 374
#     4  10  23  43  66  92 124 165 211 259 315 379
#
# _framework density 23.611224
#
# number of rings (size 3 to 8) (size 9 to 14) (size 15 to 20)
#    0.000    2.333    0.000    1.500    0.000   10.333 
#    0.000    3.333    0.000    1.000    0.000    1.167 
#    0.000    0.000    0.000    0.000    0.000    0.000 
#
# Total GULP energy -133705.305796 kJ/mol
# GULP energy per Si atom -5571.054408 kJ/mol
# Density = 2.355748 g / cm^3
# Si number density = 23.611224 Si / 1000 Ang^3
#
#
#
# Elastic Constant Matrix: (Units=GPa)
#
#
# Indices 1 2 3 4 5 6 
#
# 1 70.5924 29.5175 22.7600 0.0000 -8.7394 0.0000
# 2 29.5175 94.3677 41.5508 0.0000 -13.0299 0.0000
# 3 22.7600 41.5508 72.5439 0.0000 -3.3103 0.0000
# 4 0.0000 0.0000 0.0000 24.4806 0.0000 -8.3153
# 5 -8.7394 -13.0299 -3.3103 0.0000 26.0463 0.0000
# 6 0.0000 0.0000 0.0000 -8.3153 0.0000 -19.9701
#
#
#
# Elastic Compliance Matrix: (Units=1/GPa)
#
#
# Indices 1 2 3 4 5 6 
#
# 1 0.017087 -0.003421 -0.003237 0.000000 0.003610 0.000000
# 2 -0.003421 0.015887 -0.007761 0.000000 0.005813 0.000000
# 3 -0.003237 -0.007761 0.019130 0.000000 -0.002537 0.000000
# 4 0.000000 0.000000 0.000000 0.035787 0.000000 -0.014901
# 5 0.003610 0.005813 -0.002537 0.000000 0.042190 0.000000
# 6 0.000000 0.000000 0.000000 -0.014901 0.000000 -0.043870
#
#
# Mechanical properties :
#
#
# Convention : Reuss Voigt Hill
#
# Bulk Modulus (GPa) = 42.98079 47.24006 45.11042
# Shear Modulus (GPa) = 40.71571 15.68975 28.20273
#
# Velocity S-wave (km/s) = 4.15712 2.58059 3.45985
# Velocity P-wave (km/s) = 6.42536 5.37868 5.92518
#
# Compressibility (1/GPa) = 0.02326621
#
# Stress axis : x y z
#
# Youngs Moduli (GPa) = 58.52476 62.94561 52.27503
#
# Poissons Ratio (x) = 0.21534 0.16920
# Poissons Ratio (y) = 0.20021 0.40570
# Poissons Ratio (z) = 0.18942 0.48851
#
# Static dielectric constant tensor:
#      x y z
#    x 1.874550 0.000000 0.046810 
#    y 0.000000 1.969170 0.000000 
#    z 0.046810 0.000000 1.967540 
# 
# From -- ./inp_files/99840.got.cif
#   From: 2010.05.17/outbox.cif.g08.bks.cpg/sg12_50_cif.got.tgz:99840.got - 2010.06.03 13:09:07.
