data_PCOD9197741
_publ_section_title
;
Structure prediction by ZEFSAII (Michael W. Deem and Ramdas Pophale) SiO2 
 PCOD9197741
Probable space group: C 2/M
;
_chemical_formula_sum "Si O2"
_cell_formula_units_Z 56
_cell_length_a 11.487403
_cell_length_b 31.991217
_cell_length_c 8.444853
_cell_angle_alpha 90.000000
_cell_angle_beta 122.904013
_cell_angle_gamma 90.000000
_cell_volume 2605.599956
_symmetry_space_group_name_H-M "C 2/M"
_symmetry_group_IT_number 12
_symmetry_cell_setting 'monoclinic'
loop_
_space_group_symop_operation_xyz
x,y,z
-x,y,-z
-x,-y,-z
x,-y,z
1/2+x,1/2+y,z
1/2-x,1/2+y,-z
1/2-x,1/2-y,-z
1/2+x,1/2-y,z
loop_
_atom_site_type_symbol
_atom_site_label
_atom_site_fract_x
_atom_site_fract_y
_atom_site_fract_z
Si Si1 0.574277 0.548503 0.901587
Si Si2 0.248323 0.103966 0.864212
Si Si3 0.504772 0.667089 0.315865
Si Si4 0.581959 0.754709 0.893375
Si Si5 0.287171 0.122416 0.413483
Si Si6 0.688557 0.549293 0.505738
Si Si7 0.942166 0.348647 0.216072
O O1 0.592864 0.500000 0.946986
O O2 0.721200 0.567824 0.971372
O O3 0.471374 0.551761 0.672948
O O4 0.500000 0.567967 0.000000
O O5 0.226286 0.079346 0.682157
O O6 0.122112 0.135690 0.805905
O O7 0.381073 0.130561 0.011882
O O8 0.500000 0.672426 0.500000
O O9 0.480068 0.712312 0.224018
O O10 0.644902 0.645670 0.356321
O O11 0.552960 0.798693 0.787607
O O12 0.500000 0.758759 0.000000
O O13 0.750000 0.750000 0.000000
O O14 0.267472 0.072611 0.420312
O O15 0.406578 0.135814 0.624401
O O16 0.339780 0.137159 0.282068
O O17 0.718914 0.500000 0.553650
#
# Coordination Sequence:
#
# PCOD9197741 Si02
#       7
#     8   8   8   8   8   8   8
#     4  10  20  35  63 101 138 181 237 300 361 430
#     4  12  22  41  66 103 139 189 233 299 365 433
#     4  12  25  43  73 105 144 183 243 292 365 439
#     4  12  28  48  73 111 146 192 244 309 368 439
#     4  11  25  49  67 106 135 198 234 299 368 442
#     4  11  23  42  69 104 144 185 242 303 361 438
#     4  11  28  46  72  96 148 188 244 296 368 439
#
# _framework density 21.492172
#
# number of rings (size 3 to 8) (size 9 to 14) (size 15 to 20)
#    0.000    0.714    4.286    2.571    6.000    1.714 
#    0.000    4.286    0.000    0.000    0.000    0.000 
#    0.000    0.000    0.000    0.000    0.000    0.000 
#
# Total GULP energy -156313.027432 kJ/mol
# GULP energy per Si atom -5582.608123 kJ/mol
# Density = 2.144325 g / cm^3
# Si number density = 21.492172 Si / 1000 Ang^3
#
#
#
# Elastic Constant Matrix: (Units=GPa)
#
#
# Indices 1 2 3 4 5 6 
#
# 1 140.6327 54.8508 45.5841 0.0000 1.7125 0.0000
# 2 54.8508 164.6494 41.8146 0.0000 7.3535 0.0000
# 3 45.5841 41.8146 74.7735 0.0000 4.9782 0.0000
# 4 0.0000 0.0000 0.0000 36.8915 0.0000 -2.8200
# 5 1.7125 7.3535 4.9782 0.0000 31.3936 0.0000
# 6 0.0000 0.0000 0.0000 -2.8200 0.0000 12.4791
#
#
#
# Elastic Compliance Matrix: (Units=1/GPa)
#
#
# Indices 1 2 3 4 5 6 
#
# 1 0.009383 -0.001972 -0.004663 0.000000 0.000690 0.000000
# 2 -0.001972 0.007527 -0.002928 0.000000 -0.001191 0.000000
# 3 -0.004663 -0.002928 0.017981 0.000000 -0.001911 0.000000
# 4 0.000000 0.000000 0.000000 0.027583 0.000000 0.006233
# 5 0.000690 -0.001191 -0.001911 0.000000 0.032398 0.000000
# 6 0.000000 0.000000 0.000000 0.006233 0.000000 0.081543
#
#
# Mechanical properties :
#
#
# Convention : Reuss Voigt Hill
#
# Bulk Modulus (GPa) = 63.43169 73.83940 68.63555
# Shear Modulus (GPa) = 24.90084 32.00658 28.45371
#
# Velocity S-wave (km/s) = 3.40751 3.86323 3.64251
# Velocity P-wave (km/s) = 6.71264 7.37091 7.04946
#
# Compressibility (1/GPa) = 0.01576499
#
# Stress axis : x y z
#
# Youngs Moduli (GPa) = 106.57457 132.84959 55.61450
#
# Poissons Ratio (x) = 0.26203 0.25934
# Poissons Ratio (y) = 0.21021 0.16282
# Poissons Ratio (z) = 0.49697 0.38894
#
# Static dielectric constant tensor:
#      x y z
#    x 1.826290 0.000000 -0.038180 
#    y 0.000000 1.856270 0.000000 
#    z -0.038180 0.000000 1.854870 
# 
# From -- ./inp_files/54788.got.cif
#   From: 2010.05.17/outbox.cif.g08.bks.cpg/sg12_28_cif.got.tgz:54788.got - 2010.06.03 13:09:07.
