data_PCOD9197515
_publ_section_title
;
Structure prediction by ZEFSAII (Michael W. Deem and Ramdas Pophale) SiO2 
 PCOD9197515
Probable space group: C 2/M
;
_chemical_formula_sum "Si O2"
_cell_formula_units_Z 64
_cell_length_a 18.019526
_cell_length_b 18.293499
_cell_length_c 14.821193
_cell_angle_alpha 90.000000
_cell_angle_beta 136.216402
_cell_angle_gamma 90.000000
_cell_volume 3380.567130
_symmetry_space_group_name_H-M "C 2/M"
_symmetry_group_IT_number 12
_symmetry_cell_setting 'monoclinic'
loop_
_space_group_symop_operation_xyz
x,y,z
-x,y,-z
-x,-y,-z
x,-y,z
1/2+x,1/2+y,z
1/2-x,1/2+y,-z
1/2-x,1/2-y,-z
1/2+x,1/2-y,z
loop_
_atom_site_type_symbol
_atom_site_label
_atom_site_fract_x
_atom_site_fract_y
_atom_site_fract_z
Si Si1 0.792560 0.083226 0.204948
Si Si2 0.252246 0.204214 0.679304
Si Si3 0.993092 0.139517 0.271151
Si Si4 0.488820 0.273878 0.893206
Si Si5 0.054637 0.387634 0.950735
Si Si6 0.952178 0.278575 0.556760
Si Si7 0.543821 0.079309 0.330172
Si Si8 0.278900 0.579070 0.491773
O O1 0.784557 0.152902 0.267870
O O2 0.890349 0.098433 0.222012
O O3 0.808303 0.000000 0.256579
O O4 0.675368 0.083330 0.056055
O O5 0.369068 0.239853 0.785722
O O6 0.173169 0.267723 0.575819
O O7 0.248209 0.144506 0.597870
O O8 0.981027 0.174366 0.162176
O O9 0.014638 0.207389 0.357549
O O10 0.103366 0.093246 0.365996
O O11 0.560113 0.200460 0.953070
O O12 0.500000 0.310901 0.000000
O O13 0.987110 0.412028 0.803411
O O14 0.000000 0.407094 0.000000
O O15 0.989872 0.349161 0.645179
O O16 0.000000 0.278200 0.500000
O O17 0.672426 0.077428 0.458667
O O18 0.500382 0.000000 0.320918
O O19 0.281122 0.500000 0.447122
#
# Coordination Sequence:
#
# PCOD9197515 Si02
#       8
#     8   8   8   8   8   8   8   8
#     4  12  24  38  60  92 130 161 192 247 314 369
#     4  11  20  37  59  92 120 158 198 248 300 362
#     4  11  23  40  60  89 122 162 199 248 297 363
#     4  11  21  40  63  89 115 155 213 250 297 349
#     4  11  21  39  61  92 120 158 201 250 304 363
#     4  11  22  38  58  85 121 158 198 245 298 356
#     4  11  22  38  60  88 117 157 202 248 302 355
#     4  10  20  35  60  87 118 154 194 246 300 355
#
# _framework density 18.931735
#
# number of rings (size 3 to 8) (size 9 to 14) (size 15 to 20)
#    0.000    1.000    6.250    1.875    0.000    4.750 
#    2.250    1.875    0.000    1.500    0.000    0.000 
#    0.000    0.000    0.000    0.000    0.000    0.000 
#
# Total GULP energy -178263.952989 kJ/mol
# GULP energy per Si atom -5570.748531 kJ/mol
# Density = 1.888865 g / cm^3
# Si number density = 18.931735 Si / 1000 Ang^3
#
#
#
# Elastic Constant Matrix: (Units=GPa)
#
#
# Indices 1 2 3 4 5 6 
#
# 1 40.9028 4.2897 19.7662 0.0000 -10.6457 0.0000
# 2 4.2897 61.2069 18.0921 0.0000 -15.5310 0.0000
# 3 19.7662 18.0921 64.2301 0.0000 0.4094 0.0000
# 4 0.0000 0.0000 0.0000 47.8306 0.0000 -33.5722
# 5 -10.6457 -15.5310 0.4094 0.0000 28.8511 0.0000
# 6 0.0000 0.0000 0.0000 -33.5722 0.0000 38.6022
#
#
#
# Elastic Compliance Matrix: (Units=1/GPa)
#
#
# Indices 1 2 3 4 5 6 
#
# 1 0.033632 0.005028 -0.011864 0.000000 0.015285 0.000000
# 2 0.005028 0.021749 -0.007761 0.000000 0.013673 0.000000
# 3 -0.011864 -0.007761 0.021462 0.000000 -0.008860 0.000000
# 4 0.000000 0.000000 0.000000 0.053668 0.000000 0.046675
# 5 0.015285 0.013673 -0.008860 0.000000 0.047787 0.000000
# 6 0.000000 0.000000 0.000000 0.046675 0.000000 0.066499
#
#
# Mechanical properties :
#
#
# Convention : Reuss Voigt Hill
#
# Bulk Modulus (GPa) = 20.98581 27.84842 24.41712
# Shear Modulus (GPa) = 17.24886 31.33622 24.29254
#
# Velocity S-wave (km/s) = 3.02173 4.07286 3.58602
# Velocity P-wave (km/s) = 4.82530 6.07119 5.48375
#
# Compressibility (1/GPa) = 0.04765125
#
# Stress axis : x y z
#
# Youngs Moduli (GPa) = 29.73335 45.97873 46.59296
#
# Poissons Ratio (x) = -0.23119 0.55277
# Poissons Ratio (y) = -0.14950 0.36160
# Poissons Ratio (z) = 0.35275 0.35683
#
# Static dielectric constant tensor:
#      x y z
#    x 1.716160 0.000000 0.046630 
#    y 0.000000 1.696020 0.000000 
#    z 0.046630 0.000000 1.708730 
# 
# From -- ./inp_files/226868.got.cif
#   From: 2010.05.17/outbox.cif.g08.bks.cpg/sg12_114_cif.got.tgz:226868.got - 2010.06.03 13:09:07.
