data_PCOD9197911
_publ_section_title
;
Structure prediction by ZEFSAII (Michael W. Deem and Ramdas Pophale) SiO2 
 PCOD9197911
Probable space group: C 2/M
;
_chemical_formula_sum "Si O2"
_cell_formula_units_Z 48
_cell_length_a 11.072298
_cell_length_b 21.367586
_cell_length_c 9.087461
_cell_angle_alpha 90.000000
_cell_angle_beta 87.631551
_cell_angle_gamma 90.000000
_cell_volume 2148.150114
_symmetry_space_group_name_H-M "C 2/M"
_symmetry_group_IT_number 12
_symmetry_cell_setting 'monoclinic'
loop_
_space_group_symop_operation_xyz
x,y,z
-x,y,-z
-x,-y,-z
x,-y,z
1/2+x,1/2+y,z
1/2-x,1/2+y,-z
1/2-x,1/2-y,-z
1/2+x,1/2-y,z
loop_
_atom_site_type_symbol
_atom_site_label
_atom_site_fract_x
_atom_site_fract_y
_atom_site_fract_z
Si Si1 0.500000 0.195582 0.500000
Si Si2 0.252922 0.684270 0.412149
Si Si3 0.882105 0.068734 0.354821
Si Si4 0.426792 0.390526 0.864453
Si Si5 0.000000 0.342934 0.000000
Si Si6 0.066670 0.234734 0.792176
Si Si7 0.713423 0.927303 0.069103
O O1 0.619658 0.158208 0.449422
O O2 0.478923 0.239754 0.361301
O O3 0.250000 0.750000 0.500000
O O4 0.345483 0.629389 0.450971
O O5 0.302155 0.704701 0.248467
O O6 0.016207 0.076822 0.280888
O O7 0.867246 0.000000 0.420750
O O8 0.791853 0.073479 0.216409
O O9 0.472699 0.318701 0.847206
O O10 0.291573 0.400512 0.926740
O O11 0.500000 0.418264 0.000000
O O12 0.927266 0.294476 0.105519
O O13 0.907231 0.386225 0.915974
O O14 0.686125 0.000000 0.040914
#
# Coordination Sequence:
#
# PCOD9197911 Si02
#       7
#     4   8   8   8   4   8   8
#     4  10  20  36  55  74 113 152 186 230 282 346
#     4   9  19  35  53  79 110 142 190 231 291 331
#     4   9  17  33  57  82 109 147 194 243 283 336
#     4   9  17  33  54  84 112 140 193 240 288 329
#     4  12  23  34  54  86 125 148 188 232 292 360
#     4  10  21  34  54  86 109 149 185 239 290 336
#     4  10  21  34  52  80 119 158 184 226 287 350
#
# _framework density 22.344806999999999
#
# number of rings (size 3 to 8) (size 9 to 14) (size 15 to 20)
#    0.000    2.333    0.833    1.750    2.333    2.667 
#    0.000    0.417    0.000    8.000    0.000    5.833 
#    0.000    0.000    0.000    0.000    0.000    0.000 
#
# Total GULP energy -133788.483649 kJ/mol
# GULP energy per Si atom -5574.520152 kJ/mol
# Density = 2.229395 g / cm^3
# Si number density = 22.344807 Si / 1000 Ang^3
#
#
#
# Elastic Constant Matrix: (Units=GPa)
#
#
# Indices 1 2 3 4 5 6 
#
# 1 58.2019 20.8914 17.0602 0.0000 -15.5969 0.0000
# 2 20.8914 145.8010 34.2186 0.0000 -19.4139 0.0000
# 3 17.0602 34.2186 50.0385 0.0000 -1.6981 0.0000
# 4 0.0000 0.0000 0.0000 23.0518 0.0000 -9.5143
# 5 -15.5969 -19.4139 -1.6981 0.0000 31.5695 0.0000
# 6 0.0000 0.0000 0.0000 -9.5143 0.0000 -31.5536
#
#
#
# Elastic Compliance Matrix: (Units=1/GPa)
#
#
# Indices 1 2 3 4 5 6 
#
# 1 0.022111 -0.000104 -0.007112 0.000000 0.010478 0.000000
# 2 -0.000104 0.008943 -0.005906 0.000000 0.005130 0.000000
# 3 -0.007112 -0.005906 0.026254 0.000000 -0.005733 0.000000
# 4 0.000000 0.000000 0.000000 0.038579 0.000000 -0.011633
# 5 0.010478 0.005130 -0.005733 0.000000 0.039699 0.000000
# 6 0.000000 0.000000 0.000000 -0.011633 0.000000 -0.028184
#
#
# Mechanical properties :
#
#
# Convention : Reuss Voigt Hill
#
# Bulk Modulus (GPa) = 32.19175 44.26465 38.22820
# Shear Modulus (GPa) = 34.72220 16.73828 25.73024
#
# Velocity S-wave (km/s) = 3.94626 2.73992 3.39707
# Velocity P-wave (km/s) = 5.93314 5.46465 5.70370
#
# Compressibility (1/GPa) = 0.03106386
#
# Stress axis : x y z
#
# Youngs Moduli (GPa) = 45.22566 111.82218 38.09012
#
# Poissons Ratio (x) = 0.01163 0.27090
# Poissons Ratio (y) = 0.00470 0.22496
# Poissons Ratio (z) = 0.32164 0.66041
#
# Static dielectric constant tensor:
#      x y z
#    x 1.969870 0.000000 -0.018110 
#    y 0.000000 1.833860 0.000000 
#    z -0.018110 0.000000 1.896550 
# 
# From -- ./inp_files/132524.got.cif
#   From: 2010.05.17/outbox.cif.g08.bks.cpg/sg12_67_cif.got.tgz:132524.got - 2010.06.03 13:09:07.
