data_PCOD9197278
_publ_section_title
;
Structure prediction by ZEFSAII (Michael W. Deem and Ramdas Pophale) SiO2 
 PCOD9197278
Probable space group: C 2/M
;
_chemical_formula_sum "Si O2"
_cell_formula_units_Z 56
_cell_length_a 9.574504
_cell_length_b 19.101127
_cell_length_c 15.758512
_cell_angle_alpha 90.000000
_cell_angle_beta 117.165574
_cell_angle_gamma 90.000000
_cell_volume 2564.068434
_symmetry_space_group_name_H-M "C 2/M"
_symmetry_group_IT_number 12
_symmetry_cell_setting 'monoclinic'
loop_
_space_group_symop_operation_xyz
x,y,z
-x,y,-z
-x,-y,-z
x,-y,z
1/2+x,1/2+y,z
1/2-x,1/2+y,-z
1/2-x,1/2-y,-z
1/2+x,1/2-y,z
loop_
_atom_site_type_symbol
_atom_site_label
_atom_site_fract_x
_atom_site_fract_y
_atom_site_fract_z
Si Si1 0.485208 0.845240 0.082726
Si Si2 0.331319 0.224637 0.438573
Si Si3 0.183708 0.418252 0.488427
Si Si4 0.995899 0.080747 0.349283
Si Si5 0.242795 0.727977 0.873026
Si Si6 0.092685 0.193911 0.241279
Si Si7 0.138953 0.584180 0.288250
O O1 0.616960 0.785578 0.095089
O O2 0.310645 0.815586 0.058096
O O3 0.541749 0.881778 0.185042
O O4 0.500000 0.889913 0.000000
O O5 0.500000 0.256973 0.500000
O O6 0.250000 0.250000 0.500000
O O7 0.348485 0.140111 0.449641
O O8 0.221325 0.239792 0.328643
O O9 0.147080 0.500000 0.495724
O O10 0.374036 0.415354 0.540545
O O11 0.106670 0.396838 0.377569
O O12 0.052552 0.127367 0.286818
O O13 0.821653 0.102019 0.325741
O O14 0.989903 0.000000 0.321344
O O15 0.314399 0.677607 0.819877
O O16 0.073947 0.765355 0.809934
O O17 0.122898 0.500000 0.279413
#
# Coordination Sequence:
#
# PCOD9197278 Si02
#       7
#     8   8   8   8   8   8   8
#     4  11  23  40  63  87 112 145 188 245 300 355
#     4  11  24  34  53  84 124 157 194 237 285 335
#     4   9  20  36  55  82 117 158 201 236 279 339
#     4   9  17  34  57  83 115 154 195 230 271 333
#     4  10  22  38  61  82 116 145 190 232 295 354
#     4  10  20  36  55  84 112 155 186 232 280 339
#     4  10  20  35  59  85 115 152 193 239 288 343
#
# _framework density 21.84029
#
# number of rings (size 3 to 8) (size 9 to 14) (size 15 to 20)
#    0.000    2.000    1.429    1.714    6.000    4.571 
#    0.000    0.714    0.000    0.000    0.000    2.000 
#    0.000    0.000    0.000    0.000    0.000    0.000 
#
# Total GULP energy -155928.644801 kJ/mol
# GULP energy per Si atom -5568.880171 kJ/mol
# Density = 2.179058 g / cm^3
# Si number density = 21.840290 Si / 1000 Ang^3
#
#
#
# Elastic Constant Matrix: (Units=GPa)
#
#
# Indices 1 2 3 4 5 6 
#
# 1 141.8806 10.7967 17.1809 0.0000 -9.9095 0.0000
# 2 10.7967 58.7608 11.7384 0.0000 -7.2942 0.0000
# 3 17.1809 11.7384 59.6714 0.0000 -10.0372 0.0000
# 4 0.0000 0.0000 0.0000 23.9743 0.0000 -2.2014
# 5 -9.9095 -7.2942 -10.0372 0.0000 41.7566 0.0000
# 6 0.0000 0.0000 0.0000 -2.2014 0.0000 13.2571
#
#
#
# Elastic Compliance Matrix: (Units=1/GPa)
#
#
# Indices 1 2 3 4 5 6 
#
# 1 0.007410 -0.000862 -0.001765 0.000000 0.001184 0.000000
# 2 -0.000862 0.018039 -0.002923 0.000000 0.002244 0.000000
# 3 -0.001765 -0.002923 0.018430 0.000000 0.003501 0.000000
# 4 0.000000 0.000000 0.000000 0.042357 0.000000 0.007033
# 5 0.001184 0.002244 0.003501 0.000000 0.025463 0.000000
# 6 0.000000 0.000000 0.000000 0.007033 0.000000 0.076599
#
#
# Mechanical properties :
#
#
# Convention : Reuss Voigt Hill
#
# Bulk Modulus (GPa) = 30.50649 37.74944 34.12797
# Shear Modulus (GPa) = 23.77271 30.50404 27.13838
#
# Velocity S-wave (km/s) = 3.30279 3.74128 3.52885
# Velocity P-wave (km/s) = 5.34255 5.99873 5.68012
#
# Compressibility (1/GPa) = 0.03277991
#
# Stress axis : x y z
#
# Youngs Moduli (GPa) = 134.94964 55.43549 54.25800
#
# Poissons Ratio (x) = 0.04779 0.09576
# Poissons Ratio (y) = 0.11633 0.15859
# Poissons Ratio (z) = 0.23817 0.16203
#
# Static dielectric constant tensor:
#      x y z
#    x 1.850470 0.000000 0.002490 
#    y 0.000000 1.877580 0.000000 
#    z 0.002490 0.000000 1.928910 
# 
# From -- ./inp_files/198944.got.cif
#   From: 2010.05.17/outbox.cif.g08.bks.cpg/sg12_100_cif.got.tgz:198944.got - 2010.06.03 13:09:07.
