data_PCOD9197959
_publ_section_title
;
Structure prediction by ZEFSAII (Michael W. Deem and Ramdas Pophale) SiO2 
 PCOD9197959
Probable space group: C 2/M
;
_chemical_formula_sum "Si O2"
_cell_formula_units_Z 56
_cell_length_a 30.208140
_cell_length_b 8.595925
_cell_length_c 12.279101
_cell_angle_alpha 90.000000
_cell_angle_beta 110.694896
_cell_angle_gamma 90.000000
_cell_volume 2982.741381
_symmetry_space_group_name_H-M "C 2/M"
_symmetry_group_IT_number 12
_symmetry_cell_setting 'monoclinic'
loop_
_space_group_symop_operation_xyz
x,y,z
-x,y,-z
-x,-y,-z
x,-y,z
1/2+x,1/2+y,z
1/2-x,1/2+y,-z
1/2-x,1/2-y,-z
1/2+x,1/2-y,z
loop_
_atom_site_type_symbol
_atom_site_label
_atom_site_fract_x
_atom_site_fract_y
_atom_site_fract_z
Si Si1 0.067283 0.311950 0.145641
Si Si2 0.885670 0.812440 0.206685
Si Si3 0.703274 0.313248 0.018998
Si Si4 0.161234 0.810516 0.613807
Si Si5 0.038077 0.312922 0.880690
Si Si6 0.770576 0.686408 0.728214
Si Si7 0.846424 0.813761 0.638655
O O1 0.071019 0.500000 0.150824
O O2 0.110759 0.240976 0.248053
O O3 0.016916 0.268037 0.155866
O O4 0.063645 0.263205 0.015791
O O5 0.871919 0.758027 0.315932
O O6 0.934112 0.752006 0.197885
O O7 0.886801 0.000000 0.208484
O O8 0.842839 0.764100 0.089138
O O9 0.704852 0.500000 0.021021
O O10 0.703844 0.250635 0.142004
O O11 0.750000 0.250000 0.000000
O O12 0.215696 0.763847 0.682142
O O13 0.146891 0.760971 0.480274
O O14 0.160791 0.000000 0.615058
O O15 0.039495 0.500000 0.879670
O O16 0.771976 0.500000 0.731615
O O17 0.798233 0.746847 0.647214
O O18 0.843619 0.000000 0.637338
#
# Coordination Sequence:
#
# PCOD9197959 Si02
#       7
#     8   8   8   8   8   8   8
#     4   9  19  38  59  80 110 140 173 219 277 330
#     4  10  20  36  55  78 110 146 179 218 270 321
#     4  11  21  34  54  81 112 144 181 223 268 320
#     4   9  20  38  54  73 109 151 185 222 267 322
#     4   9  19  36  59  84 107 138 175 218 272 332
#     4  11  21  37  57  77 109 149 185 226 277 321
#     4  11  22  36  56  81 107 140 188 231 268 322
#
# _framework density 18.774675999999999
#
# number of rings (size 3 to 8) (size 9 to 14) (size 15 to 20)
#    0.000    2.000    1.429    3.429    0.000    4.571 
#    0.000    5.714    0.000    4.286    0.000    0.000 
#    0.000    0.000    0.000    0.000    0.000    0.000 
#
# Total GULP energy -156377.614390 kJ/mol
# GULP energy per Si atom -5584.914800 kJ/mol
# Density = 1.873194 g / cm^3
# Si number density = 18.774676 Si / 1000 Ang^3
#
#
#
# Elastic Constant Matrix: (Units=GPa)
#
#
# Indices 1 2 3 4 5 6 
#
# 1 122.3969 15.6674 39.9701 0.0000 -35.0018 0.0000
# 2 15.6674 23.7505 12.1073 0.0000 -4.8959 0.0000
# 3 39.9701 12.1073 69.2614 0.0000 -25.5215 0.0000
# 4 0.0000 0.0000 0.0000 20.0855 0.0000 -4.7294
# 5 -35.0018 -4.8959 -25.5215 0.0000 28.3464 0.0000
# 6 0.0000 0.0000 0.0000 -4.7294 0.0000 33.3784
#
#
#
# Elastic Compliance Matrix: (Units=1/GPa)
#
#
# Indices 1 2 3 4 5 6 
#
# 1 0.013421 -0.005099 -0.001604 0.000000 0.014247 0.000000
# 2 -0.005099 0.048182 -0.007084 0.000000 -0.004352 0.000000
# 3 -0.001604 -0.007084 0.023078 0.000000 0.017574 0.000000
# 4 0.000000 0.000000 0.000000 0.051506 0.000000 0.007298
# 5 0.014247 -0.004352 0.017574 0.000000 0.067941 0.000000
# 6 0.000000 0.000000 0.000000 0.007298 0.000000 0.030993
#
#
# Mechanical properties :
#
#
# Convention : Reuss Voigt Hill
#
# Bulk Modulus (GPa) = 17.51082 38.98871 28.24976
# Shear Modulus (GPa) = 17.74759 26.20634 21.97696
#
# Velocity S-wave (km/s) = 3.07790 3.74014 3.42506
# Velocity P-wave (km/s) = 4.68811 6.28198 5.54264
#
# Compressibility (1/GPa) = 0.05710755
#
# Stress axis : x y z
#
# Youngs Moduli (GPa) = 74.51089 20.75477 43.33217
#
# Poissons Ratio (x) = 0.10582 0.06950
# Poissons Ratio (y) = 0.37991 0.30695
# Poissons Ratio (z) = 0.11951 0.14702
#
# Static dielectric constant tensor:
#      x y z
#    x 1.655270 0.000000 -0.022730 
#    y 0.000000 1.640560 0.000000 
#    z -0.022730 0.000000 1.650350 
# 
# From -- ./inp_files/186370.got.cif
#   From: 2010.05.17/outbox.cif.g08.bks.cpg/sg12_94_cif.got.tgz:186370.got - 2010.06.03 13:09:07.
