data_PCOD9197083
_publ_section_title
;
Structure prediction by ZEFSAII (Michael W. Deem and Ramdas Pophale) SiO2 
 PCOD9197083
Probable space group: C 2/M
;
_chemical_formula_sum "Si O2"
_cell_formula_units_Z 48
_cell_length_a 25.198765
_cell_length_b 7.823973
_cell_length_c 11.096556
_cell_angle_alpha 90.000000
_cell_angle_beta 105.841443
_cell_angle_gamma 90.000000
_cell_volume 2104.647023
_symmetry_space_group_name_H-M "C 2/M"
_symmetry_group_IT_number 12
_symmetry_cell_setting 'monoclinic'
loop_
_space_group_symop_operation_xyz
x,y,z
-x,y,-z
-x,-y,-z
x,-y,z
1/2+x,1/2+y,z
1/2-x,1/2+y,-z
1/2-x,1/2-y,-z
1/2+x,1/2-y,z
loop_
_atom_site_type_symbol
_atom_site_label
_atom_site_fract_x
_atom_site_fract_y
_atom_site_fract_z
Si Si1 0.169228 0.706573 0.009602
Si Si2 0.560329 0.194953 0.553906
Si Si3 0.939624 0.293838 0.924953
Si Si4 0.833236 0.707128 0.257385
Si Si5 0.223457 0.297067 0.290043
Si Si6 0.881744 0.806995 0.641238
O O1 0.175890 0.500000 0.012306
O O2 0.183725 0.770961 0.886087
O O3 0.105470 0.743097 0.000343
O O4 0.202343 0.771190 0.146367
O O5 0.500000 0.275366 0.500000
O O6 0.605763 0.271206 0.671884
O O7 0.592027 0.192562 0.446162
O O8 0.550368 0.000000 0.590603
O O9 0.941266 0.500000 0.911418
O O10 0.915844 0.221444 0.785698
O O11 0.000000 0.233872 0.000000
O O12 0.834913 0.500000 0.256352
O O13 0.787995 0.758100 0.328163
O O14 0.215215 0.500000 0.287923
O O15 0.182091 0.224086 0.363655
O O16 0.888397 0.000000 0.603172
#
# Coordination Sequence:
#
# PCOD9197083 Si02
#       6
#     8   8   8   8   8   8
#     4   8  16  31  53  86 118 146 183 232 285 341
#     4  10  23  41  62  85 113 153 200 242 284 344
#     4   9  18  33  59  87 115 152 195 238 285 343
#     4  10  20  35  58  87 117 149 191 239 291 344
#     4  10  20  37  60  86 117 150 192 237 290 354
#     4  11  23  39  59  83 118 154 192 243 293 341
#
# _framework density 22.806674999999998
#
# number of rings (size 3 to 8) (size 9 to 14) (size 15 to 20)
#    0.000    2.333    0.000    3.500    2.333    2.000 
#    0.000    3.333    0.000    0.000    0.000    0.000 
#    0.000    0.000    0.000    0.000    0.000    0.000 
#
# Total GULP energy -134041.170872 kJ/mol
# GULP energy per Si atom -5585.048786 kJ/mol
# Density = 2.275477 g / cm^3
# Si number density = 22.806675 Si / 1000 Ang^3
#
#
#
# Elastic Constant Matrix: (Units=GPa)
#
#
# Indices 1 2 3 4 5 6 
#
# 1 107.3875 -4.3621 20.2773 0.0000 13.5573 0.0000
# 2 -4.3621 47.7847 -5.1725 0.0000 3.5931 0.0000
# 3 20.2773 -5.1725 58.9925 0.0000 -9.0588 0.0000
# 4 0.0000 0.0000 0.0000 6.9627 0.0000 -8.0997
# 5 13.5573 3.5931 -9.0588 0.0000 34.9003 0.0000
# 6 0.0000 0.0000 0.0000 -8.0997 0.0000 40.5761
#
#
#
# Elastic Compliance Matrix: (Units=1/GPa)
#
#
# Indices 1 2 3 4 5 6 
#
# 1 0.010895 0.000920 -0.004508 0.000000 -0.005497 0.000000
# 2 0.000920 0.021310 0.001209 0.000000 -0.002238 0.000000
# 3 -0.004508 0.001209 0.019640 0.000000 0.006725 0.000000
# 4 0.000000 0.000000 0.000000 0.187059 0.000000 0.037340
# 5 -0.005497 -0.002238 0.006725 0.000000 0.032764 0.000000
# 6 0.000000 0.000000 0.000000 0.037340 0.000000 0.032099
#
#
# Mechanical properties :
#
#
# Convention : Reuss Voigt Hill
#
# Bulk Modulus (GPa) = 21.23813 26.18334 23.71074
# Shear Modulus (GPa) = 15.42158 30.04929 22.73544
#
# Velocity S-wave (km/s) = 2.60318 3.63377 3.16076
# Velocity P-wave (km/s) = 4.28577 5.39548 4.87232
#
# Compressibility (1/GPa) = 0.04708512
#
# Stress axis : x y z
#
# Youngs Moduli (GPa) = 91.78795 46.92580 50.91779
#
# Poissons Ratio (x) = -0.04317 0.22955
# Poissons Ratio (y) = -0.08443 -0.06155
# Poissons Ratio (z) = 0.41380 -0.05672
#
# Static dielectric constant tensor:
#      x y z
#    x 1.827030 0.000000 0.029860 
#    y 0.000000 1.834270 0.000000 
#    z 0.029860 0.000000 1.874490 
# 
# From -- ./inp_files/180248.got.cif
#   From: 2010.05.17/outbox.cif.g08.bks.cpg/sg12_91_cif.got.tgz:180248.got - 2010.06.03 13:09:07.
