data_PCOD9197239
_publ_section_title
;
Structure prediction by ZEFSAII (Michael W. Deem and Ramdas Pophale) SiO2 
 PCOD9197239
Probable space group: C 2/M
;
_chemical_formula_sum "Si O2"
_cell_formula_units_Z 32
_cell_length_a 27.655760
_cell_length_b 10.617456
_cell_length_c 7.632940
_cell_angle_alpha 90.000000
_cell_angle_beta 134.057273
_cell_angle_gamma 90.000000
_cell_volume 1610.691475
_symmetry_space_group_name_H-M "C 2/M"
_symmetry_group_IT_number 12
_symmetry_cell_setting 'monoclinic'
loop_
_space_group_symop_operation_xyz
x,y,z
-x,y,-z
-x,-y,-z
x,-y,z
1/2+x,1/2+y,z
1/2-x,1/2+y,-z
1/2-x,1/2-y,-z
1/2+x,1/2-y,z
loop_
_atom_site_type_symbol
_atom_site_label
_atom_site_fract_x
_atom_site_fract_y
_atom_site_fract_z
Si Si1 0.806704 0.146496 0.192745
Si Si2 0.913709 0.862199 0.162108
Si Si3 0.952812 0.641936 0.046642
Si Si4 0.825767 0.776627 0.636531
O O1 0.871290 0.163588 0.229941
O O2 0.826648 0.169109 0.444225
O O3 0.784016 0.000000 0.113316
O O4 0.750000 0.250000 0.000000
O O5 0.945311 0.000000 0.246518
O O6 0.960214 0.747649 0.214966
O O7 0.858566 0.864391 0.866620
O O8 0.965124 0.500000 0.137998
O O9 0.875974 0.657507 0.783314
O O10 0.000000 0.669833 0.000000
O O11 0.750000 0.750000 0.500000
#
# Coordination Sequence:
#
# PCOD9197239 Si02
#       4
#     8   8   8   8
#     4  11  21  35  54  84 118 149 188 233 281 338
#     4   9  20  35  55  81 111 144 185 231 280 331
#     4   9  20  39  61  83 112 151 192 233 282 338
#     4  10  20  35  59  82 115 150 184 230 282 333
#
# _framework density 19.867243999999999
#
# number of rings (size 3 to 8) (size 9 to 14) (size 15 to 20)
#    1.500    0.750    2.500    0.750    0.000    6.500 
#    0.000    1.250    0.000    6.000    0.000    0.000 
#    0.000    0.000    0.000    0.000    0.000    0.000 
#
# Total GULP energy -89073.629127 kJ/mol
# GULP energy per Si atom -5567.101820 kJ/mol
# Density = 1.982203 g / cm^3
# Si number density = 19.867244 Si / 1000 Ang^3
#
#
#
# Elastic Constant Matrix: (Units=GPa)
#
#
# Indices 1 2 3 4 5 6 
#
# 1 129.9135 83.7694 33.5006 0.0000 -30.3323 0.0000
# 2 83.7694 144.4738 8.4384 0.0000 -10.7078 0.0000
# 3 33.5006 8.4384 89.0458 0.0000 -14.9752 0.0000
# 4 0.0000 0.0000 0.0000 -4.6427 0.0000 0.0453
# 5 -30.3323 -10.7078 -14.9752 0.0000 36.1635 0.0000
# 6 0.0000 0.0000 0.0000 0.0453 0.0000 25.9110
#
#
#
# Elastic Compliance Matrix: (Units=1/GPa)
#
#
# Indices 1 2 3 4 5 6 
#
# 1 0.016500 -0.008626 -0.003754 0.000000 0.009731 0.000000
# 2 -0.008626 0.011597 0.001620 0.000000 -0.003131 0.000000
# 3 -0.003754 0.001620 0.012941 0.000000 0.002690 0.000000
# 4 0.000000 0.000000 0.000000 -0.215387 0.000000 0.000377
# 5 0.009731 -0.003131 0.002690 0.000000 0.036001 0.000000
# 6 0.000000 0.000000 0.000000 0.000377 0.000000 0.038593
#
#
# Mechanical properties :
#
#
# Convention : Reuss Voigt Hill
#
# Bulk Modulus (GPa) = 51.23594 68.31667 59.77630
# Shear Modulus (GPa) = -69.70649 27.33466 -21.18592
#
# Velocity S-wave (km/s) = -5.92978 3.71329 -3.26908
# Velocity P-wave (km/s) = 4.58671 7.26952 3.98798
#
# Compressibility (1/GPa) = 0.01951755
#
# Stress axis : x y z
#
# Youngs Moduli (GPa) = 60.60714 86.23034 77.27226
#
# Poissons Ratio (x) = 0.74387 0.29005
# Poissons Ratio (y) = 0.52283 -0.12517
# Poissons Ratio (z) = 0.22749 -0.13969
#
# Static dielectric constant tensor:
#      x y z
#    x 1.672100 0.000000 0.013480 
#    y 0.000000 1.724430 0.000000 
#    z 0.013480 0.000000 1.737580 
# 
# From -- ./inp_files/107615.got.cif
#   From: 2010.05.17/outbox.cif.g08.bks.cpg/sg12_54_cif.got.tgz:107615.got - 2010.06.03 13:09:07.
