data_PCOD9197504
_publ_section_title
;
Structure prediction by ZEFSAII (Michael W. Deem and Ramdas Pophale) SiO2 
 PCOD9197504
Probable space group: C 2/M
;
_chemical_formula_sum "Si O2"
_cell_formula_units_Z 64
_cell_length_a 29.317141
_cell_length_b 13.829522
_cell_length_c 9.758152
_cell_angle_alpha 90.000000
_cell_angle_beta 58.280327
_cell_angle_gamma 90.000000
_cell_volume 3365.405367
_symmetry_space_group_name_H-M "C 2/M"
_symmetry_group_IT_number 12
_symmetry_cell_setting 'monoclinic'
loop_
_space_group_symop_operation_xyz
x,y,z
-x,y,-z
-x,-y,-z
x,-y,z
1/2+x,1/2+y,z
1/2-x,1/2+y,-z
1/2-x,1/2-y,-z
1/2+x,1/2-y,z
loop_
_atom_site_type_symbol
_atom_site_label
_atom_site_fract_x
_atom_site_fract_y
_atom_site_fract_z
Si Si1 0.254030 0.383074 0.438890
Si Si2 0.131218 0.616738 0.121836
Si Si3 0.542326 0.387378 0.051765
Si Si4 0.914086 0.699986 0.356435
Si Si5 0.126060 0.112382 0.690162
Si Si6 0.977417 0.732624 0.685500
Si Si7 0.349608 0.883793 0.219436
Si Si8 0.682634 0.116671 0.312092
O O1 0.257088 0.500000 0.428245
O O2 0.312749 0.353405 0.393476
O O3 0.207034 0.358833 0.620212
O O4 0.233128 0.349430 0.322939
O O5 0.125881 0.500000 0.133916
O O6 0.175162 0.645197 0.166442
O O7 0.074555 0.665392 0.246810
O O8 0.147282 0.645234 0.943003
O O9 0.531080 0.500000 0.100790
O O10 0.538185 0.321949 0.191710
O O11 0.500000 0.356779 0.000000
O O12 0.598760 0.381657 0.882984
O O13 0.904735 0.815496 0.362407
O O14 0.973667 0.679753 0.312771
O O15 0.897581 0.661544 0.232662
O O16 0.870365 0.653130 0.525677
O O17 0.123090 0.000000 0.652236
O O18 0.000000 0.760009 0.500000
O O19 0.354563 0.000000 0.220364
O O20 0.682821 0.000000 0.317574
#
# Coordination Sequence:
#
# PCOD9197504 Si02
#       8
#     8   8   8   8   8   8   8   8
#     4   8  16  33  58  82 107 141 182 224 268 326
#     4  10  21  35  54  82 117 151 182 220 265 322
#     4  10  21  39  61  81 104 139 182 230 282 328
#     4  11  20  34  55  79 108 146 182 231 271 321
#     4  10  20  35  60  87 107 135 185 233 276 327
#     4  12  24  37  55  81 111 148 188 227 275 327
#     4   9  19  34  54  82 113 144 181 221 270 319
#     4   9  18  34  54  78 112 150 184 217 264 323
#
# _framework density 19.017025
#
# number of rings (size 3 to 8) (size 9 to 14) (size 15 to 20)
#    0.000    2.125    2.500    1.875    0.000    3.500 
#    0.000    1.250    2.750    2.250    0.000    0.000 
#    0.000    0.000    0.000    0.000    0.000    0.000 
#
# Total GULP energy -178527.744833 kJ/mol
# GULP energy per Si atom -5578.992026 kJ/mol
# Density = 1.897374 g / cm^3
# Si number density = 19.017025 Si / 1000 Ang^3
#
#
#
# Elastic Constant Matrix: (Units=GPa)
#
#
# Indices 1 2 3 4 5 6 
#
# 1 65.8300 3.6218 21.4803 0.0000 3.2763 0.0000
# 2 3.6218 34.9329 8.8993 0.0000 5.8241 0.0000
# 3 21.4803 8.8993 61.1322 0.0000 20.4998 0.0000
# 4 0.0000 0.0000 0.0000 19.7538 0.0000 8.9561
# 5 3.2763 5.8241 20.4998 0.0000 35.2013 0.0000
# 6 0.0000 0.0000 0.0000 8.9561 0.0000 10.4933
#
#
#
# Elastic Compliance Matrix: (Units=1/GPa)
#
#
# Indices 1 2 3 4 5 6 
#
# 1 0.017327 -0.000462 -0.006842 0.000000 0.002448 0.000000
# 2 -0.000462 0.029995 -0.003175 0.000000 -0.003071 0.000000
# 3 -0.006842 -0.003175 0.023405 0.000000 -0.012468 0.000000
# 4 0.000000 0.000000 0.000000 0.082578 0.000000 -0.070480
# 5 0.002448 -0.003071 -0.012468 0.000000 0.035949 0.000000
# 6 0.000000 0.000000 0.000000 -0.070480 0.000000 0.155453
#
#
# Mechanical properties :
#
#
# Convention : Reuss Voigt Hill
#
# Bulk Modulus (GPa) = 20.09210 25.54422 22.81816
# Shear Modulus (GPa) = 13.08034 21.61593 17.34813
#
# Velocity S-wave (km/s) = 2.62548 3.37510 3.02361
# Velocity P-wave (km/s) = 4.44737 5.35256 4.92082
#
# Compressibility (1/GPa) = 0.04977080
#
# Stress axis : x y z
#
# Youngs Moduli (GPa) = 57.71436 33.33900 42.72551
#
# Poissons Ratio (x) = 0.01539 0.29232
# Poissons Ratio (y) = 0.02664 0.13563
# Poissons Ratio (z) = 0.39488 0.10584
#
# Static dielectric constant tensor:
#      x y z
#    x 1.666830 0.000000 0.000230 
#    y 0.000000 1.687290 0.000000 
#    z 0.000230 0.000000 1.655890 
# 
# From -- ./inp_files/111948.got.cif
#   From: 2010.05.17/outbox.cif.g08.bks.cpg/sg12_56_cif.got.tgz:111948.got - 2010.06.03 13:09:07.
