data_PCOD9197229
_publ_section_title
;
Structure prediction by ZEFSAII (Michael W. Deem and Ramdas Pophale) SiO2 
 PCOD9197229
Probable space group: C 2/M
;
_chemical_formula_sum "Si O2"
_cell_formula_units_Z 32
_cell_length_a 12.771876
_cell_length_b 22.180263
_cell_length_c 12.091226
_cell_angle_alpha 90.000000
_cell_angle_beta 156.207003
_cell_angle_gamma 90.000000
_cell_volume 1381.858711
_symmetry_space_group_name_H-M "C 2/M"
_symmetry_group_IT_number 12
_symmetry_cell_setting 'monoclinic'
loop_
_space_group_symop_operation_xyz
x,y,z
-x,y,-z
-x,-y,-z
x,-y,z
1/2+x,1/2+y,z
1/2-x,1/2+y,-z
1/2-x,1/2-y,-z
1/2+x,1/2-y,z
loop_
_atom_site_type_symbol
_atom_site_label
_atom_site_fract_x
_atom_site_fract_y
_atom_site_fract_z
Si Si1 0.000000 0.125306 0.000000
Si Si2 0.727459 0.500000 0.808981
Si Si3 0.785123 0.262127 0.355265
Si Si4 0.988123 0.103228 0.238589
Si Si5 0.007032 0.322730 0.225854
O O1 0.776092 0.175497 0.766866
O O2 0.004100 0.089308 0.887363
O O3 0.500000 0.500000 0.500000
O O4 0.660196 0.555738 0.826345
O O5 0.000000 0.500000 0.000000
O O6 0.913955 0.284148 0.592444
O O7 0.550452 0.219873 0.163188
O O8 0.000000 0.224321 0.500000
O O9 0.275017 0.122997 0.558514
O O10 0.788929 0.158530 0.050312
#
# Coordination Sequence:
#
# PCOD9197229 Si02
#       5
#     4   4   8   8   8
#     4  10  22  39  68  96 138 159 214 274 328 390
#     4  12  28  51  72  93 128 172 228 280 326 392
#     4  10  20  35  58  93 139 172 207 252 322 388
#     4  11  24  45  67  97 127 173 223 273 332 372
#     4  10  23  37  62  94 132 172 213 255 318 396
#
# _framework density 23.157215000000001
#
# number of rings (size 3 to 8) (size 9 to 14) (size 15 to 20)
#    0.000    1.500    2.500    1.500    3.500    6.500 
#    0.000    0.000    0.000    6.000    0.000    0.000 
#    0.000    0.000    0.000    0.000    0.000    0.000 
#
# Total GULP energy -89160.112908 kJ/mol
# GULP energy per Si atom -5572.507057 kJ/mol
# Density = 2.310451 g / cm^3
# Si number density = 23.157215 Si / 1000 Ang^3
#
#
#
# Elastic Constant Matrix: (Units=GPa)
#
#
# Indices 1 2 3 4 5 6 
#
# 1 158.1449 37.8691 29.3430 0.0001 -2.8682 -0.0006
# 2 37.8691 38.8991 7.8616 -0.0001 -9.5575 -0.0007
# 3 29.3430 7.8616 105.5464 0.0017 5.2786 -0.0020
# 4 0.0001 -0.0001 0.0017 17.4381 0.0006 12.5689
# 5 -2.8682 -9.5575 5.2786 0.0006 44.5612 -0.0001
# 6 -0.0006 -0.0007 -0.0020 12.5689 -0.0001 5.8931
#
#
#
# Elastic Compliance Matrix: (Units=1/GPa)
#
#
# Indices 1 2 3 4 5 6 
#
# 1 0.008608 -0.008281 -0.001725 -0.000001 -0.001018 0.000002
# 2 -0.008281 0.035685 -0.000716 0.000004 0.007205 -0.000005
# 3 -0.001725 -0.000716 0.010080 0.000006 -0.001459 -0.000009
# 4 -0.000001 0.000004 0.000006 -0.106738 0.000002 0.227650
# 5 -0.001018 0.007205 -0.001459 0.000002 0.024094 -0.000003
# 6 0.000002 -0.000005 -0.000009 0.227650 -0.000003 -0.315842
#
#
# Mechanical properties :
#
#
# Convention : Reuss Voigt Hill
#
# Bulk Modulus (GPa) = 30.36964 50.30420 40.33692
# Shear Modulus (GPa) = -16.04152 28.74627 6.35237
#
# Velocity S-wave (km/s) = -2.63482 3.52711 1.65804
# Velocity P-wave (km/s) = 1.97146 6.19333 4.59587
#
# Compressibility (1/GPa) = 0.03292762
#
# Stress axis : x y z
#
# Youngs Moduli (GPa) = 116.17012 28.02311 99.20174
#
# Poissons Ratio (x) = 0.23207 0.17116
# Poissons Ratio (y) = 0.96206 0.07103
# Poissons Ratio (z) = 0.20044 0.02006
#
# Static dielectric constant tensor:
#      x y z
#    x 1.935950 0.000000 -0.002940 
#    y 0.000000 1.921130 0.000000 
#    z -0.002940 0.000000 1.932400 
# 
# From -- ./inp_files/6615.got.cif
#   From: 2010.05.17/outbox.cif.g08.bks.cpg/sg12_4_cif.got.tgz:6615.got - 2010.06.03 13:09:07.
