data_PCOD9197886
_publ_section_title
;
Structure prediction by ZEFSAII (Michael W. Deem and Ramdas Pophale) SiO2 
 PCOD9197886
Probable space group: C 2/M
;
_chemical_formula_sum "Si O2"
_cell_formula_units_Z 40
_cell_length_a 14.954510
_cell_length_b 28.484392
_cell_length_c 7.012514
_cell_angle_alpha 90.000000
_cell_angle_beta 28.049251
_cell_angle_gamma 90.000000
_cell_volume 1404.635214
_symmetry_space_group_name_H-M "C 2/M"
_symmetry_group_IT_number 12
_symmetry_cell_setting 'monoclinic'
loop_
_space_group_symop_operation_xyz
x,y,z
-x,y,-z
-x,-y,-z
x,-y,z
1/2+x,1/2+y,z
1/2-x,1/2+y,-z
1/2-x,1/2-y,-z
1/2+x,1/2-y,z
loop_
_atom_site_type_symbol
_atom_site_label
_atom_site_fract_x
_atom_site_fract_y
_atom_site_fract_z
Si Si1 0.579947 0.901640 0.132605
Si Si2 0.844956 0.800837 0.126812
Si Si3 0.348223 0.402384 0.115269
Si Si4 0.805303 0.500000 0.162627
Si Si5 0.064294 0.301083 0.158780
Si Si6 0.759346 0.000000 0.267905
O O1 0.500000 0.902910 0.500000
O O2 0.377542 0.904394 0.398106
O O3 0.721368 0.945165 0.842127
O O4 0.669214 0.850373 0.925168
O O5 0.850254 0.750422 0.017211
O O6 0.869063 0.851340 0.977575
O O7 0.628289 0.802089 0.603428
O O8 0.000000 0.799519 0.000000
O O9 0.356294 0.453500 0.004136
O O10 0.500000 0.402143 0.000000
O O11 0.031873 0.500000 0.673405
O O12 0.731599 0.500000 0.519047
O O13 0.000000 0.304638 0.500000
#
# Coordination Sequence:
#
# PCOD9197886 Si02
#       6
#     8   8   8   4   8   4
#     4   9  18  33  54  77 102 137 171 209 258 310
#     4  10  20  36  54  81 107 140 181 221 263 310
#     4   9  18  33  55  73 101 137 170 206 261 315
#     4   9  17  32  51  81 102 128 172 221 253 301
#     4  10  20  36  55  79 109 144 178 215 265 319
#     4   9  17  32  53  77 103 133 169 214 262 307
#
# _framework density 28.477143000000002
#
# number of rings (size 3 to 8) (size 9 to 14) (size 15 to 20)
#    0.000    2.600    0.000    1.800    0.000    0.000 
#   18.000    0.000    0.000    1.200    0.000    0.000 
#    0.000    0.000    0.000    0.000    0.000    0.000 
#
# Total GULP energy -111614.118196 kJ/mol
# GULP energy per Si atom -5580.705910 kJ/mol
# Density = 2.841233 g / cm^3
# Si number density = 28.477143 Si / 1000 Ang^3
#
#
#
# Elastic Constant Matrix: (Units=GPa)
#
#
# Indices 1 2 3 4 5 6 
#
# 1 111.8491 26.0888 42.0377 0.0000 -14.4387 0.0000
# 2 26.0888 407.1150 36.1875 0.0000 19.8435 0.0000
# 3 42.0377 36.1875 114.6131 0.0000 -17.2878 0.0000
# 4 0.0000 0.0000 0.0000 18.4566 0.0000 14.3887
# 5 -14.4387 19.8435 -17.2878 0.0000 37.9075 0.0000
# 6 0.0000 0.0000 0.0000 14.3887 0.0000 4.6249
#
#
#
# Elastic Compliance Matrix: (Units=1/GPa)
#
#
# Indices 1 2 3 4 5 6 
#
# 1 0.010678 -0.000527 -0.003324 0.000000 0.002827 0.000000
# 2 -0.000527 0.002675 -0.000959 0.000000 -0.002038 0.000000
# 3 -0.003324 -0.000959 0.010880 0.000000 0.004198 0.000000
# 4 0.000000 0.000000 0.000000 -0.038010 0.000000 0.118255
# 5 0.002827 -0.002038 0.004198 0.000000 0.030438 0.000000
# 6 0.000000 0.000000 0.000000 0.118255 0.000000 -0.151687
#
#
# Mechanical properties :
#
#
# Convention : Reuss Voigt Hill
#
# Bulk Modulus (GPa) = 68.42673 93.57838 81.00256
# Shear Modulus (GPa) = -41.48092 47.48202 3.00055
#
# Velocity S-wave (km/s) = -3.82073 4.08778 1.02760
# Velocity P-wave (km/s) = 2.14867 7.43049 5.46941
#
# Compressibility (1/GPa) = 0.01461417
#
# Stress axis : x y z
#
# Youngs Moduli (GPa) = 93.65457 373.88749 91.91246
#
# Poissons Ratio (x) = 0.19689 0.30548
# Poissons Ratio (y) = 0.04932 0.08812
# Poissons Ratio (z) = 0.31127 0.35845
#
# Static dielectric constant tensor:
#      x y z
#    x 2.314930 0.000000 -0.007660 
#    y 0.000000 2.306050 0.000000 
#    z -0.007660 0.000000 2.225240 
# 
# From -- ./inp_files/40376.got.cif
#   From: 2010.05.17/outbox.cif.g08.bks.cpg/sg12_21_cif.got.tgz:40376.got - 2010.06.03 13:09:07.
