data_PCOD9197456
_publ_section_title
;
Structure prediction by ZEFSAII (Michael W. Deem and Ramdas Pophale) SiO2 
 PCOD9197456
Probable space group: C 2/M
;
_chemical_formula_sum "Si O2"
_cell_formula_units_Z 44
_cell_length_a 22.976224
_cell_length_b 13.983474
_cell_length_c 18.969132
_cell_angle_alpha 90.000000
_cell_angle_beta 162.503918
_cell_angle_gamma 90.000000
_cell_volume 1832.267159
_symmetry_space_group_name_H-M "C 2/M"
_symmetry_group_IT_number 12
_symmetry_cell_setting 'monoclinic'
loop_
_space_group_symop_operation_xyz
x,y,z
-x,y,-z
-x,-y,-z
x,-y,z
1/2+x,1/2+y,z
1/2-x,1/2+y,-z
1/2-x,1/2-y,-z
1/2+x,1/2-y,z
loop_
_atom_site_type_symbol
_atom_site_label
_atom_site_fract_x
_atom_site_fract_y
_atom_site_fract_z
Si Si1 0.500000 0.649339 0.000000
Si Si2 0.284140 0.882735 0.096968
Si Si3 0.598334 0.392006 0.270625
Si Si4 0.147342 0.610128 0.235808
Si Si5 0.006778 0.616540 0.795300
Si Si6 0.409361 0.750961 0.469243
O O1 0.551110 0.602549 0.133633
O O2 0.699568 0.702685 0.212727
O O3 0.318262 0.857926 0.054313
O O4 0.448653 0.829169 0.332485
O O5 0.302863 0.000000 0.127017
O O6 0.078601 0.849622 0.890030
O O7 0.612845 0.500000 0.314814
O O8 0.810535 0.351521 0.528687
O O9 0.196529 0.500000 0.305754
O O10 0.028624 0.649660 0.165819
O O11 0.343437 0.666245 0.445090
O O12 0.000000 0.613041 0.000000
O O13 0.018596 0.500000 0.812448
O O14 0.500000 0.716939 0.500000
#
# Coordination Sequence:
#
# PCOD9197456 Si02
#       6
#     4   8   8   8   8   8
#     4  12  21  36  57  90 134 170 204 246 290 372
#     4  10  21  37  60  95 134 167 198 241 303 377
#     4  10  20  35  59  92 131 173 205 238 295 371
#     4  10  23  46  70  88 114 160 215 274 324 356
#     4   9  19  39  63  89 124 162 206 256 310 367
#     4  12  24  40  62  92 128 165 210 255 301 369
#
# _framework density 24.013966
#
# number of rings (size 3 to 8) (size 9 to 14) (size 15 to 20)
#    0.000    1.636    4.545    0.273    0.000    2.182 
#    3.273    0.909    0.000    0.000    0.000    0.000 
#    0.000    0.000    0.000    0.000    0.000    0.000 
#
# Total GULP energy -122938.241230 kJ/mol
# GULP energy per Si atom -5588.101874 kJ/mol
# Density = 2.395931 g / cm^3
# Si number density = 24.013966 Si / 1000 Ang^3
#
#
#
# Elastic Constant Matrix: (Units=GPa)
#
#
# Indices 1 2 3 4 5 6 
#
# 1 224.9689 27.5689 46.9375 0.0001 25.8932 0.0002
# 2 27.5689 74.0834 9.9993 -0.0001 13.8473 -0.0007
# 3 46.9375 9.9993 86.3263 0.0003 17.6071 0.0003
# 4 0.0001 -0.0001 0.0003 17.9829 -0.0004 12.5135
# 5 25.8932 13.8473 17.6071 -0.0004 52.2154 0.0002
# 6 0.0002 -0.0007 0.0003 12.5135 0.0002 29.6713
#
#
#
# Elastic Compliance Matrix: (Units=1/GPa)
#
#
# Indices 1 2 3 4 5 6 
#
# 1 0.005284 -0.001370 -0.002420 0.000000 -0.001441 0.000000
# 2 -0.001370 0.014629 -0.000319 0.000000 -0.003093 0.000000
# 3 -0.002420 -0.000319 0.013611 0.000000 -0.003305 0.000000
# 4 0.000000 0.000000 0.000000 0.078706 0.000001 -0.033193
# 5 -0.001441 -0.003093 -0.003305 0.000001 0.021800 0.000000
# 6 0.000000 0.000000 0.000000 -0.033193 0.000000 0.047702
#
#
# Mechanical properties :
#
#
# Convention : Reuss Voigt Hill
#
# Bulk Modulus (GPa) = 39.51738 61.59889 50.55813
# Shear Modulus (GPa) = 25.20340 40.03212 32.61776
#
# Velocity S-wave (km/s) = 3.24316 4.08736 3.68949
# Velocity P-wave (km/s) = 5.52411 6.92693 6.26491
#
# Compressibility (1/GPa) = 0.02530532
#
# Stress axis : x y z
#
# Youngs Moduli (GPa) = 189.25847 68.35587 73.47042
#
# Poissons Ratio (x) = 0.09367 0.17782
# Poissons Ratio (y) = 0.25934 0.02341
# Poissons Ratio (z) = 0.45807 0.02178
#
# Static dielectric constant tensor:
#      x y z
#    x 1.939600 0.000000 -0.007760 
#    y 0.000000 2.033390 0.000000 
#    z -0.007760 0.000000 1.863380 
# 
# From -- ./inp_files/285287.got.cif
#   From: 2010.05.17/outbox.cif.g08.bks.cpg/sg12_143_cif.got.tgz:285287.got - 2010.06.03 13:09:07.
