data_PCOD9197952
_publ_section_title
;
Structure prediction by ZEFSAII (Michael W. Deem and Ramdas Pophale) SiO2 
 PCOD9197952
Probable space group: C 2/M
;
_chemical_formula_sum "Si O2"
_cell_formula_units_Z 52
_cell_length_a 18.799724
_cell_length_b 29.687931
_cell_length_c 5.369196
_cell_angle_alpha 90.000000
_cell_angle_beta 108.893871
_cell_angle_gamma 90.000000
_cell_volume 2835.220811
_symmetry_space_group_name_H-M "C 2/M"
_symmetry_group_IT_number 12
_symmetry_cell_setting 'monoclinic'
loop_
_space_group_symop_operation_xyz
x,y,z
-x,y,-z
-x,-y,-z
x,-y,z
1/2+x,1/2+y,z
1/2-x,1/2+y,-z
1/2-x,1/2-y,-z
1/2+x,1/2-y,z
loop_
_atom_site_type_symbol
_atom_site_label
_atom_site_fract_x
_atom_site_fract_y
_atom_site_fract_z
Si Si1 0.336935 0.898976 0.512525
Si Si2 0.085136 0.666080 0.054745
Si Si3 0.822959 0.780593 0.293352
Si Si4 0.166604 0.500000 0.473895
Si Si5 0.587820 0.268990 0.126138
Si Si6 0.930161 0.500000 0.132942
Si Si7 0.000000 0.575438 0.500000
Si Si8 0.702477 0.818238 0.832246
O O1 0.361318 0.873726 0.791842
O O2 0.419574 0.902755 0.471790
O O3 0.285162 0.863177 0.308950
O O4 0.301469 0.948688 0.499532
O O5 0.091046 0.715106 0.190731
O O6 0.115209 0.678610 0.816646
O O7 0.000000 0.651397 0.000000
O O8 0.869995 0.791940 0.592845
O O9 0.788635 0.730137 0.289189
O O10 0.873143 0.778267 0.096564
O O11 0.754817 0.812921 0.135035
O O12 0.126945 0.500000 0.698297
O O13 0.113478 0.500000 0.171533
O O14 0.500000 0.280630 0.000000
O O15 0.980628 0.456620 0.245107
#
# Coordination Sequence:
#
# PCOD9197952 Si02
#       8
#     8   8   8   4   8   4   4   8
#     4  11  21  33  46  67  92 134 170 224 250 301
#     4  10  21  31  49  70 100 133 179 221 250 286
#     4  10  21  36  55  74 103 133 168 209 250 311
#     4  10  24  33  50  62  96 122 177 210 270 281
#     4  10  20  36  55  78 102 129 163 208 257 302
#     4   9  20  38  44  66  84 132 166 227 256 301
#     4   9  20  32  50  62  94 122 180 218 270 273
#     4  10  22  34  50  72 100 135 177 210 257 298
#
# _framework density 18.340724000000002
#
# number of rings (size 3 to 8) (size 9 to 14) (size 15 to 20)
#    0.000    2.000    1.538    1.846    8.615    6.154 
#    0.000    0.000    0.000    0.000    0.000    0.000 
#    0.000    0.000    0.000    4.154    0.000    0.385 
#
# Total GULP energy -144806.329118 kJ/mol
# GULP energy per Si atom -5569.474197 kJ/mol
# Density = 1.829898 g / cm^3
# Si number density = 18.340724 Si / 1000 Ang^3
#
#
#
# Elastic Constant Matrix: (Units=GPa)
#
#
# Indices 1 2 3 4 5 6 
#
# 1 57.8041 13.5983 13.0183 0.0000 -2.8151 0.0000
# 2 13.5983 96.2391 26.5322 0.0000 5.3570 0.0000
# 3 13.0183 26.5322 99.6971 0.0000 0.9737 0.0000
# 4 0.0000 0.0000 0.0000 13.3402 0.0000 12.5837
# 5 -2.8151 5.3570 0.9737 0.0000 22.9818 0.0000
# 6 0.0000 0.0000 0.0000 12.5837 0.0000 15.7102
#
#
#
# Elastic Compliance Matrix: (Units=1/GPa)
#
#
# Indices 1 2 3 4 5 6 
#
# 1 0.018380 -0.002252 -0.001829 0.000000 0.002854 0.000000
# 2 -0.002252 0.011633 -0.002774 0.000000 -0.002870 0.000000
# 3 -0.001829 -0.002774 0.011008 0.000000 -0.000044 0.000000
# 4 0.000000 0.000000 0.000000 0.306668 0.000000 -0.245637
# 5 0.002854 -0.002870 -0.000044 0.000000 0.044533 0.000000
# 6 0.000000 0.000000 0.000000 -0.245637 0.000000 0.260404
#
#
# Mechanical properties :
#
#
# Convention : Reuss Voigt Hill
#
# Bulk Modulus (GPa) = 36.61282 40.00420 38.30851
# Shear Modulus (GPa) = 7.40257 23.77921 15.59089
#
# Velocity S-wave (km/s) = 2.01119 3.60464 2.91876
# Velocity P-wave (km/s) = 5.03975 6.25968 5.68255
#
# Compressibility (1/GPa) = 0.02731284
#
# Stress axis : x y z
#
# Youngs Moduli (GPa) = 54.40590 85.95898 90.84456
#
# Poissons Ratio (x) = 0.19356 0.16613
# Poissons Ratio (y) = 0.12251 0.25200
# Poissons Ratio (z) = 0.09949 0.23844
#
# Static dielectric constant tensor:
#      x y z
#    x 1.707600 0.000000 -0.032660 
#    y 0.000000 1.696370 0.000000 
#    z -0.032660 0.000000 1.715720 
# 
# From -- ./inp_files/22720.got.cif
#   From: 2010.05.17/outbox.cif.g08.bks.cpg/sg12_12_cif.got.tgz:22720.got - 2010.06.03 13:09:07.
