data_PCOD9197134
_publ_section_title
;
Structure prediction by ZEFSAII (Michael W. Deem and Ramdas Pophale) SiO2 
 PCOD9197134
Probable space group: C 2/M
;
_chemical_formula_sum "Si O2"
_cell_formula_units_Z 56
_cell_length_a 15.506565
_cell_length_b 18.557166
_cell_length_c 12.754851
_cell_angle_alpha 90.000000
_cell_angle_beta 129.366655
_cell_angle_gamma 90.000000
_cell_volume 2837.526438
_symmetry_space_group_name_H-M "C 2/M"
_symmetry_group_IT_number 12
_symmetry_cell_setting 'monoclinic'
loop_
_space_group_symop_operation_xyz
x,y,z
-x,y,-z
-x,-y,-z
x,-y,z
1/2+x,1/2+y,z
1/2-x,1/2+y,-z
1/2-x,1/2-y,-z
1/2+x,1/2-y,z
loop_
_atom_site_type_symbol
_atom_site_label
_atom_site_fract_x
_atom_site_fract_y
_atom_site_fract_z
Si Si1 0.854059 0.581564 0.779392
Si Si2 0.799417 0.731449 0.651383
Si Si3 0.601311 0.230643 0.651021
Si Si4 0.847543 0.420815 0.237175
Si Si5 0.441469 0.275641 0.148266
Si Si6 0.884805 0.620982 0.031063
Si Si7 0.392835 0.580000 0.990610
O O1 0.825484 0.500000 0.728260
O O2 0.806122 0.645066 0.671400
O O3 0.987806 0.592652 0.876770
O O4 0.825112 0.596569 0.879063
O O5 0.750000 0.750000 0.500000
O O6 0.716138 0.758682 0.677476
O O7 0.924646 0.763411 0.757154
O O8 0.500000 0.255868 0.500000
O O9 0.586444 0.145800 0.665169
O O10 0.595260 0.267870 0.759440
O O11 0.891684 0.500000 0.296141
O O12 0.841660 0.410441 0.106746
O O13 0.717681 0.415058 0.166126
O O14 0.389018 0.207719 0.044849
O O15 0.401999 0.351368 0.072644
O O16 0.389425 0.500000 0.038641
O O17 0.500000 0.582844 0.000000
#
# Coordination Sequence:
#
# PCOD9197134 Si02
#       7
#     8   8   8   8   8   8   8
#     4  10  20  35  58  88 118 148 183 234 295 349
#     4  11  23  41  60  81 116 158 200 245 282 342
#     4  11  23  40  60  84 113 156 207 240 283 350
#     4  10  21  36  58  87 118 147 186 243 296 346
#     4  10  22  38  61  87 116 157 193 240 295 346
#     4   9  19  33  58  90 118 145 179 234 299 362
#     4  10  22  38  58  87 122 155 192 239 290 351
#
# _framework density 19.735499000000001
#
# number of rings (size 3 to 8) (size 9 to 14) (size 15 to 20)
#    0.000    1.857    1.429    2.571    8.000    1.429 
#    0.000    1.429    0.000    0.857    0.000    0.000 
#    0.000    0.000    0.000    0.000    0.000    0.000 
#
# Total GULP energy -156371.422220 kJ/mol
# GULP energy per Si atom -5584.693651 kJ/mol
# Density = 1.969058 g / cm^3
# Si number density = 19.735499 Si / 1000 Ang^3
#
#
#
# Elastic Constant Matrix: (Units=GPa)
#
#
# Indices 1 2 3 4 5 6 
#
# 1 77.7823 -1.5198 2.8775 0.0000 -14.5015 0.0000
# 2 -1.5198 169.3840 41.5868 0.0000 -14.6372 0.0000
# 3 2.8775 41.5868 49.6508 0.0000 -7.9762 0.0000
# 4 0.0000 0.0000 0.0000 14.0085 0.0000 3.7097
# 5 -14.5015 -14.6372 -7.9762 0.0000 17.2081 0.0000
# 6 0.0000 0.0000 0.0000 3.7097 0.0000 9.7242
#
#
#
# Elastic Compliance Matrix: (Units=1/GPa)
#
#
# Indices 1 2 3 4 5 6 
#
# 1 0.015547 0.001303 0.000314 0.000000 0.014355 0.000000
# 2 0.001303 0.007768 -0.005774 0.000000 0.005029 0.000000
# 3 0.000314 -0.005774 0.026160 0.000000 0.007479 0.000000
# 4 0.000000 0.000000 0.000000 0.079407 0.000000 -0.030293
# 5 0.014355 0.005029 0.007479 0.000000 0.077954 0.000000
# 6 0.000000 0.000000 0.000000 -0.030293 0.000000 0.114392
#
#
# Mechanical properties :
#
#
# Convention : Reuss Voigt Hill
#
# Bulk Modulus (GPa) = 24.29539 42.52289 33.40914
# Shear Modulus (GPa) = 14.56617 25.11299 19.83958
#
# Velocity S-wave (km/s) = 2.71969 3.57105 3.17405
# Velocity P-wave (km/s) = 4.71164 6.21260 5.51343
#
# Compressibility (1/GPa) = 0.04116008
#
# Stress axis : x y z
#
# Youngs Moduli (GPa) = 64.32286 128.74112 38.22662
#
# Poissons Ratio (x) = -0.16774 -0.01199
# Poissons Ratio (y) = -0.08381 0.22071
# Poissons Ratio (z) = -0.02018 0.74330
#
# Static dielectric constant tensor:
#      x y z
#    x 1.760410 0.000000 0.006130 
#    y 0.000000 1.702610 0.000000 
#    z 0.006130 0.000000 1.666240 
# 
# From -- ./inp_files/146216.got.cif
#   From: 2010.05.17/outbox.cif.g08.bks.cpg/sg12_74_cif.got.tgz:146216.got - 2010.06.03 13:09:07.
