data_PCOD9197003
_publ_section_title
;
Structure prediction by ZEFSAII (Michael W. Deem and Ramdas Pophale) SiO2 
 PCOD9197003
Probable space group: C 2/M
;
_chemical_formula_sum "Si O2"
_cell_formula_units_Z 56
_cell_length_a 13.251421
_cell_length_b 25.590441
_cell_length_c 9.711608
_cell_angle_alpha 90.000000
_cell_angle_beta 110.161297
_cell_angle_gamma 90.000000
_cell_volume 3091.507032
_symmetry_space_group_name_H-M "C 2/M"
_symmetry_group_IT_number 12
_symmetry_cell_setting 'monoclinic'
loop_
_space_group_symop_operation_xyz
x,y,z
-x,y,-z
-x,-y,-z
x,-y,z
1/2+x,1/2+y,z
1/2-x,1/2+y,-z
1/2-x,1/2-y,-z
1/2+x,1/2-y,z
loop_
_atom_site_type_symbol
_atom_site_label
_atom_site_fract_x
_atom_site_fract_y
_atom_site_fract_z
Si Si1 0.252315 0.250170 0.337768
Si Si2 0.232708 0.439238 0.272387
Si Si3 0.604929 0.896617 0.962061
Si Si4 0.486773 0.714585 0.842276
Si Si5 0.402439 0.651667 0.344536
Si Si6 0.329234 0.208746 0.111472
Si Si7 0.528746 0.936988 0.357657
O O1 0.250000 0.250000 0.500000
O O2 0.132321 0.234693 0.239876
O O3 0.309191 0.304961 0.327267
O O4 0.316689 0.209588 0.270656
O O5 0.258657 0.500000 0.308591
O O6 0.337471 0.402583 0.315178
O O7 0.145850 0.421468 0.349301
O O8 0.169529 0.433683 0.096914
O O9 0.679111 0.847557 0.959201
O O10 0.558783 0.919784 0.797899
O O11 0.500000 0.879610 0.000000
O O12 0.536895 0.672412 0.762684
O O13 0.555457 0.767291 0.863756
O O14 0.500000 0.692501 0.000000
O O15 0.500000 0.651975 0.500000
O O16 0.250000 0.250000 0.000000
O O17 0.500000 0.918850 0.500000
O O18 0.529532 0.000000 0.360611
#
# Coordination Sequence:
#
# PCOD9197003 Si02
#       7
#     8   8   8   8   8   8   8
#     4  11  23  39  58  86 123 158 197 243 300 359
#     4  10  22  39  63  88 117 159 209 255 301 360
#     4  10  20  35  58  85 117 153 197 242 297 356
#     4  11  22  38  61  86 121 161 195 245 295 359
#     4  11  24  41  61  86 120 162 201 253 303 364
#     4  11  22  34  55  87 117 157 195 236 293 360
#     4   9  19  37  59  89 122 149 187 248 310 358
#
# _framework density 18.114142999999999
#
# number of rings (size 3 to 8) (size 9 to 14) (size 15 to 20)
#    0.000    1.571    2.857    2.571    4.000    3.143 
#    0.000    0.000    0.000    0.429    0.000    0.000 
#    0.000    0.000    0.000    0.000    0.000    0.000 
#
# Total GULP energy -155985.043809 kJ/mol
# GULP energy per Si atom -5570.894422 kJ/mol
# Density = 1.807291 g / cm^3
# Si number density = 18.114143 Si / 1000 Ang^3
#
#
#
# Elastic Constant Matrix: (Units=GPa)
#
#
# Indices 1 2 3 4 5 6 
#
# 1 97.6872 54.9184 61.6635 0.0000 -8.4237 0.0000
# 2 54.9184 66.2161 32.3629 0.0000 1.7833 0.0000
# 3 61.6635 32.3629 146.9599 0.0000 -24.0532 0.0000
# 4 0.0000 0.0000 0.0000 15.0101 0.0000 10.3626
# 5 -8.4237 1.7833 -24.0532 0.0000 30.3252 0.0000
# 6 0.0000 0.0000 0.0000 10.3626 0.0000 8.4749
#
#
#
# Elastic Compliance Matrix: (Units=1/GPa)
#
#
# Indices 1 2 3 4 5 6 
#
# 1 0.023546 -0.016836 -0.005677 0.000000 0.003028 0.000000
# 2 -0.016836 0.029523 -0.000560 0.000000 -0.006857 0.000000
# 3 -0.005677 -0.000560 0.010408 0.000000 0.006712 0.000000
# 4 0.000000 0.000000 0.000000 0.427479 0.000000 -0.522696
# 5 0.003028 -0.006857 0.006712 0.000000 0.039544 0.000000
# 6 0.000000 0.000000 0.000000 -0.522696 0.000000 0.757116
#
#
# Mechanical properties :
#
#
# Convention : Reuss Voigt Hill
#
# Bulk Modulus (GPa) = 57.69108 67.63919 62.66513
# Shear Modulus (GPa) = 3.73263 21.55660 12.64461
#
# Velocity S-wave (km/s) = 1.43704 3.45344 2.64493
# Velocity P-wave (km/s) = 5.88823 7.30228 6.63304
#
# Compressibility (1/GPa) = 0.01733370
#
# Stress axis : x y z
#
# Youngs Moduli (GPa) = 42.47009 33.87139 96.07800
#
# Poissons Ratio (x) = 0.57025 0.54540
# Poissons Ratio (y) = 0.71501 0.05376
# Poissons Ratio (z) = 0.24109 0.01895
#
# Static dielectric constant tensor:
#      x y z
#    x 1.598110 0.000000 -0.031740 
#    y 0.000000 1.489640 0.000000 
#    z -0.031740 0.000000 1.644580 
# 
# From -- ./inp_files/53296.got.cif
#   From: 2010.05.17/outbox.cif.g08.bks.cpg/sg12_27_cif.got.tgz:53296.got - 2010.06.03 13:09:07.
