data_PCOD9197057
_publ_section_title
;
Structure prediction by ZEFSAII (Michael W. Deem and Ramdas Pophale) SiO2 
 PCOD9197057
Probable space group: C 2/M
;
_chemical_formula_sum "Si O2"
_cell_formula_units_Z 64
_cell_length_a 20.856319
_cell_length_b 18.722589
_cell_length_c 9.242414
_cell_angle_alpha 90.000000
_cell_angle_beta 122.294093
_cell_angle_gamma 90.000000
_cell_volume 3050.763516
_symmetry_space_group_name_H-M "C 2/M"
_symmetry_group_IT_number 12
_symmetry_cell_setting 'monoclinic'
loop_
_space_group_symop_operation_xyz
x,y,z
-x,y,-z
-x,-y,-z
x,-y,z
1/2+x,1/2+y,z
1/2-x,1/2+y,-z
1/2-x,1/2-y,-z
1/2+x,1/2-y,z
loop_
_atom_site_type_symbol
_atom_site_label
_atom_site_fract_x
_atom_site_fract_y
_atom_site_fract_z
Si Si1 0.666564 0.079839 0.696164
Si Si2 0.527292 0.081743 0.722469
Si Si3 0.984330 0.719417 0.809548
Si Si4 0.289401 0.864074 0.540437
Si Si5 0.573863 0.689775 0.683772
Si Si6 0.229478 0.165705 0.972741
Si Si7 0.335371 0.917521 0.884525
Si Si8 0.655219 0.714115 0.484788
O O1 0.580650 0.098573 0.646052
O O2 0.686585 0.080668 0.552426
O O3 0.676295 0.000000 0.768889
O O4 0.728625 0.130851 0.841132
O O5 0.472355 0.144340 0.710124
O O6 0.497685 0.000000 0.675450
O O7 0.589320 0.082770 0.927887
O O8 0.046392 0.755047 0.774540
O O9 0.914560 0.773800 0.707659
O O10 0.000000 0.711508 0.000000
O O11 0.342454 0.877759 0.741736
O O12 0.299553 0.787425 0.478778
O O13 0.204473 0.855243 0.503253
O O14 0.500000 0.662381 0.500000
O O15 0.640158 0.647739 0.850009
O O16 0.623730 0.717379 0.609218
O O17 0.272643 0.127174 0.893827
O O18 0.250000 0.250000 0.000000
O O19 0.313552 0.000000 0.834045
#
# Coordination Sequence:
#
# PCOD9197057 Si02
#       8
#     8   8   8   8   8   8   8   8
#     4  10  22  37  59  90 122 153 192 245 302 356
#     4   9  19  37  56  81 118 160 197 232 286 365
#     4  11  22  35  55  81 118 150 197 244 296 343
#     4  11  20  35  59  84 121 146 199 243 299 338
#     4  10  21  38  54  81 117 151 187 243 303 350
#     4  11  20  34  61  86 113 154 199 240 296 348
#     4  10  20  35  58  86 119 151 192 241 293 355
#     4  10  22  35  54  87 114 153 193 249 285 346
#
# _framework density 20.978354
#
# number of rings (size 3 to 8) (size 9 to 14) (size 15 to 20)
#    0.000    1.750    1.250    5.250    3.500    0.250 
#    0.000    1.250    0.000    6.375    0.000    3.500 
#    0.000    0.000    0.000    0.000    0.000    0.000 
#
# Total GULP energy -178294.233769 kJ/mol
# GULP energy per Si atom -5571.694805 kJ/mol
# Density = 2.093061 g / cm^3
# Si number density = 20.978354 Si / 1000 Ang^3
#
#
#
# Elastic Constant Matrix: (Units=GPa)
#
#
# Indices 1 2 3 4 5 6 
#
# 1 93.5746 27.7740 38.7973 0.0000 -10.2197 0.0000
# 2 27.7740 51.3831 12.5029 0.0000 3.5499 0.0000
# 3 38.7973 12.5029 100.3417 0.0000 -21.8314 0.0000
# 4 0.0000 0.0000 0.0000 22.5105 0.0000 2.8706
# 5 -10.2197 3.5499 -21.8314 0.0000 40.8848 0.0000
# 6 0.0000 0.0000 0.0000 2.8706 0.0000 15.6476
#
#
#
# Elastic Compliance Matrix: (Units=1/GPa)
#
#
# Indices 1 2 3 4 5 6 
#
# 1 0.014838 -0.007078 -0.004429 0.000000 0.001958 0.000000
# 2 -0.007078 0.023894 -0.001219 0.000000 -0.004495 0.000000
# 3 -0.004429 -0.001219 0.013139 0.000000 0.006015 0.000000
# 4 0.000000 0.000000 0.000000 0.045488 0.000000 -0.008345
# 5 0.001958 -0.004495 0.006015 0.000000 0.028550 0.000000
# 6 0.000000 0.000000 0.000000 -0.008345 0.000000 0.065438
#
#
# Mechanical properties :
#
#
# Convention : Reuss Voigt Hill
#
# Bulk Modulus (GPa) = 37.84979 44.82753 41.33866
# Shear Modulus (GPa) = 22.16264 26.89026 24.52645
#
# Velocity S-wave (km/s) = 3.25384 3.58412 3.42297
# Velocity P-wave (km/s) = 5.67434 6.20828 5.94730
#
# Compressibility (1/GPa) = 0.02642023
#
# Stress axis : x y z
#
# Youngs Moduli (GPa) = 67.39627 41.85083 76.11020
#
# Poissons Ratio (x) = 0.29621 0.33709
# Poissons Ratio (y) = 0.47701 0.09275
# Poissons Ratio (z) = 0.29850 0.05100
#
# Static dielectric constant tensor:
#      x y z
#    x 1.846540 0.000000 0.009330 
#    y 0.000000 1.761650 0.000000 
#    z 0.009330 0.000000 1.851650 
# 
# From -- ./inp_files/89609.got.cif
#   From: 2010.05.17/outbox.cif.g08.bks.cpg/sg12_45_cif.got.tgz:89609.got - 2010.06.03 13:09:07.
