data_PCOD9197045
_publ_section_title
;
Structure prediction by ZEFSAII (Michael W. Deem and Ramdas Pophale) SiO2 
 PCOD9197045
Probable space group: C 2/M
;
_chemical_formula_sum "Si O2"
_cell_formula_units_Z 64
_cell_length_a 31.081321
_cell_length_b 14.679623
_cell_length_c 12.417676
_cell_angle_alpha 90.000000
_cell_angle_beta 144.508339
_cell_angle_gamma 90.000000
_cell_volume 3289.425864
_symmetry_space_group_name_H-M "C 2/M"
_symmetry_group_IT_number 12
_symmetry_cell_setting 'monoclinic'
loop_
_space_group_symop_operation_xyz
x,y,z
-x,y,-z
-x,-y,-z
x,-y,z
1/2+x,1/2+y,z
1/2-x,1/2+y,-z
1/2-x,1/2-y,-z
1/2+x,1/2-y,z
loop_
_atom_site_type_symbol
_atom_site_label
_atom_site_fract_x
_atom_site_fract_y
_atom_site_fract_z
Si Si1 0.798824 0.181710 0.944662
Si Si2 0.660650 0.715203 0.747704
Si Si3 0.468883 0.286278 0.052810
Si Si4 0.250502 0.108890 0.604927
Si Si5 0.899941 0.108422 0.569085
Si Si6 0.411834 0.100290 0.304956
Si Si7 0.813640 0.106933 0.747528
Si Si8 0.111773 0.329980 0.970657
O O1 0.733978 0.255104 0.831937
O O2 0.783655 0.121261 0.808524
O O3 0.815848 0.152683 0.101921
O O4 0.871942 0.235396 0.057710
O O5 0.609476 0.659869 0.563126
O O6 0.626866 0.812057 0.719058
O O7 0.526812 0.354237 0.225535
O O8 0.458391 0.193682 0.099741
O O9 0.500000 0.264188 0.000000
O O10 0.389112 0.336310 0.883608
O O11 0.172455 0.129275 0.504840
O O12 0.242433 0.134945 0.462605
O O13 0.260664 0.000000 0.630122
O O14 0.318964 0.150543 0.810030
O O15 0.902853 0.000000 0.561106
O O16 0.500000 0.108955 0.500000
O O17 0.396293 0.102455 0.144973
O O18 0.611841 0.000000 0.701295
O O19 0.830006 0.000000 0.765842
#
# Coordination Sequence:
#
# PCOD9197045 Si02
#       8
#     8   8   8   8   8   8   8   8
#     4   9  20  35  55  82 114 150 194 242 300 354
#     4  10  20  38  57  85 120 150 199 256 297 363
#     4  11  22  36  57  85 119 163 205 247 301 369
#     4  10  20  35  58  86 116 154 201 253 304 359
#     4  11  22  36  59  90 124 161 202 248 304 367
#     4  10  21  38  61  84 113 158 203 249 304 364
#     4  10  21  36  55  81 120 158 197 250 302 362
#     4  10  20  37  58  85 117 152 199 254 301 360
#
# _framework density 19.456282000000002
#
# number of rings (size 3 to 8) (size 9 to 14) (size 15 to 20)
#    0.000    1.875    2.500    1.500    0.000    4.500 
#    0.000    0.000    0.000   10.875    0.000    0.000 
#    0.000    0.000    0.000    0.000    0.000    0.000 
#
# Total GULP energy -178278.440917 kJ/mol
# GULP energy per Si atom -5571.201279 kJ/mol
# Density = 1.941200 g / cm^3
# Si number density = 19.456282 Si / 1000 Ang^3
#
#
#
# Elastic Constant Matrix: (Units=GPa)
#
#
# Indices 1 2 3 4 5 6 
#
# 1 97.7966 28.7211 31.4758 0.0000 -17.9758 0.0000
# 2 28.7211 51.8030 15.8522 0.0000 -10.5135 0.0000
# 3 31.4758 15.8522 85.9709 0.0000 -15.2733 0.0000
# 4 0.0000 0.0000 0.0000 43.2592 0.0000 5.7786
# 5 -17.9758 -10.5135 -15.2733 0.0000 27.2024 0.0000
# 6 0.0000 0.0000 0.0000 5.7786 0.0000 32.4462
#
#
#
# Elastic Compliance Matrix: (Units=1/GPa)
#
#
# Indices 1 2 3 4 5 6 
#
# 1 0.013847 -0.005670 -0.003097 0.000000 0.005220 0.000000
# 2 -0.005670 0.023845 -0.001499 0.000000 0.004628 0.000000
# 3 -0.003097 -0.001499 0.013969 0.000000 0.005217 0.000000
# 4 0.000000 0.000000 0.000000 0.023680 0.000000 -0.004217
# 5 0.005220 0.004628 0.005217 0.000000 0.044929 0.000000
# 6 0.000000 0.000000 0.000000 -0.004217 0.000000 0.031571
#
#
# Mechanical properties :
#
#
# Convention : Reuss Voigt Hill
#
# Bulk Modulus (GPa) = 32.12343 43.07430 37.59886
# Shear Modulus (GPa) = 27.36000 31.21631 29.28816
#
# Velocity S-wave (km/s) = 3.75404 4.00988 3.88407
# Velocity P-wave (km/s) = 5.94448 6.60500 6.28342
#
# Compressibility (1/GPa) = 0.03112993
#
# Stress axis : x y z
#
# Youngs Moduli (GPa) = 72.21983 41.93689 71.58760
#
# Poissons Ratio (x) = 0.23778 0.22168
# Poissons Ratio (y) = 0.40948 0.10730
# Poissons Ratio (z) = 0.22364 0.06286
#
# Static dielectric constant tensor:
#      x y z
#    x 1.738220 0.000000 -0.026890 
#    y 0.000000 1.700680 0.000000 
#    z -0.026890 0.000000 1.695020 
# 
# From -- ./inp_files/189463.got.cif
#   From: 2010.05.17/outbox.cif.g08.bks.cpg/sg12_95_cif.got.tgz:189463.got - 2010.06.03 13:09:07.
