data_PCOD9197908
_publ_section_title
;
Structure prediction by ZEFSAII (Michael W. Deem and Ramdas Pophale) SiO2 
 PCOD9197908
Probable space group: C 2/M
;
_chemical_formula_sum "Si O2"
_cell_formula_units_Z 56
_cell_length_a 5.249294
_cell_length_b 14.738373
_cell_length_c 36.474060
_cell_angle_alpha 90.000000
_cell_angle_beta 68.924672
_cell_angle_gamma 90.000000
_cell_volume 2633.095910
_symmetry_space_group_name_H-M "C 2/M"
_symmetry_group_IT_number 12
_symmetry_cell_setting 'monoclinic'
loop_
_space_group_symop_operation_xyz
x,y,z
-x,y,-z
-x,-y,-z
x,-y,z
1/2+x,1/2+y,z
1/2-x,1/2+y,-z
1/2-x,1/2-y,-z
1/2+x,1/2-y,z
loop_
_atom_site_type_symbol
_atom_site_label
_atom_site_fract_x
_atom_site_fract_y
_atom_site_fract_z
Si Si1 0.839658 0.691264 0.541618
Si Si2 0.916425 0.305278 0.757767
Si Si3 0.523858 0.888889 0.113250
Si Si4 0.313698 0.608987 0.373400
Si Si5 0.069406 0.609489 0.672953
Si Si6 0.588473 0.390818 0.841169
Si Si7 0.689367 0.889062 0.023706
O O1 0.550513 0.728069 0.541679
O O2 0.788488 0.637838 0.581472
O O3 0.000000 0.642421 0.500000
O O4 0.711565 0.223230 0.758031
O O5 0.754725 0.359511 0.797253
O O6 0.961524 0.357901 0.717571
O O7 0.753972 0.861079 0.130264
O O8 0.586806 0.858179 0.068763
O O9 0.224717 0.859433 0.142020
O O10 0.523814 0.000000 0.112627
O O11 0.314955 0.500000 0.372075
O O12 0.621487 0.640252 0.350009
O O13 0.118475 0.641340 0.350864
O O14 0.067507 0.500000 0.673026
O O15 0.583850 0.500000 0.841679
O O16 0.681350 0.000000 0.024748
O O17 0.500000 0.859519 0.000000
O O18 0.000000 0.862859 0.000000
#
# Coordination Sequence:
#
# PCOD9197908 Si02
#       7
#     8   8   8   8   8   8   8
#     4  10  21  36  55  81 114 151 188 227 273 323
#     4  12  25  39  57  83 110 137 178 225 270 319
#     4   9  17  29  48  73 101 140 181 210 255 321
#     4  10  21  37  59  84 110 143 184 227 269 321
#     4  10  22  40  59  82 112 145 180 220 274 331
#     4  10  20  36  55  74 104 143 178 215 261 317
#     4   9  15  23  38  65 103 137 164 206 261 309
#
# _framework density 21.267738999999999
#
# number of rings (size 3 to 8) (size 9 to 14) (size 15 to 20)
#    0.000    2.000    0.000    3.857    0.000    7.143 
#    0.000    5.714    0.000    5.143    0.000    0.000 
#    0.000   40.000    0.000    0.000    0.000    0.000 
#
# Total GULP energy -156584.865891 kJ/mol
# GULP energy per Si atom -5592.316639 kJ/mol
# Density = 2.121933 g / cm^3
# Si number density = 21.267739 Si / 1000 Ang^3
#
#
#
# Elastic Constant Matrix: (Units=GPa)
#
#
# Indices 1 2 3 4 5 6 
#
# 1 111.2493 -2.4703 26.0428 0.0000 2.3283 0.0000
# 2 -2.4703 40.5921 7.1294 0.0000 -1.1136 0.0000
# 3 26.0428 7.1294 152.8653 0.0000 0.8680 0.0000
# 4 0.0000 0.0000 0.0000 52.3315 0.0000 -12.2219
# 5 2.3283 -1.1136 0.8680 0.0000 39.0041 0.0000
# 6 0.0000 0.0000 0.0000 -12.2219 0.0000 -9.4418
#
#
#
# Elastic Compliance Matrix: (Units=1/GPa)
#
#
# Indices 1 2 3 4 5 6 
#
# 1 0.009402 0.000846 -0.001638 0.000000 -0.000501 0.000000
# 2 0.000846 0.024936 -0.001311 0.000000 0.000691 0.000000
# 3 -0.001638 -0.001311 0.006882 0.000000 -0.000093 0.000000
# 4 0.000000 0.000000 0.000000 0.014673 0.000000 -0.018993
# 5 -0.000501 0.000691 -0.000093 0.000000 0.025690 0.000000
# 6 0.000000 0.000000 0.000000 -0.018993 0.000000 -0.081326
#
#
# Mechanical properties :
#
#
# Convention : Reuss Voigt Hill
#
# Bulk Modulus (GPa) = 27.01702 40.67894 33.84798
# Shear Modulus (GPa) = 297.59346 34.64575 166.11961
#
# Velocity S-wave (km/s) = 11.84191 4.04050 8.84750
# Velocity P-wave (km/s) = 14.13172 6.39813 10.96908
#
# Compressibility (1/GPa) = 0.03701371
#
# Stress axis : x y z
#
# Youngs Moduli (GPa) = 106.36478 40.10263 145.29626
#
# Poissons Ratio (x) = -0.03393 0.23804
# Poissons Ratio (y) = -0.09000 0.19049
# Poissons Ratio (z) = 0.17426 0.05258
#
# Static dielectric constant tensor:
#      x y z
#    x 1.729630 0.000000 -0.000970 
#    y 0.000000 1.785680 0.000000 
#    z -0.000970 0.000000 1.714940 
# 
# From -- ./inp_files/371595.got.cif
#   From: 2010.05.17/outbox.cif.g08.bks.cpg/sg12_186_cif.got.tgz:371595.got - 2010.06.03 13:09:07.
