data_PCOD9197686
_publ_section_title
;
Structure prediction by ZEFSAII (Michael W. Deem and Ramdas Pophale) SiO2 
 PCOD9197686
Probable space group: C 2/M
;
_chemical_formula_sum "Si O2"
_cell_formula_units_Z 40
_cell_length_a 11.229448
_cell_length_b 19.763686
_cell_length_c 7.850459
_cell_angle_alpha 90.000000
_cell_angle_beta 83.036913
_cell_angle_gamma 90.000000
_cell_volume 1729.443492
_symmetry_space_group_name_H-M "C 2/M"
_symmetry_group_IT_number 12
_symmetry_cell_setting 'monoclinic'
loop_
_space_group_symop_operation_xyz
x,y,z
-x,y,-z
-x,-y,-z
x,-y,z
1/2+x,1/2+y,z
1/2-x,1/2+y,-z
1/2-x,1/2-y,-z
1/2+x,1/2-y,z
loop_
_atom_site_type_symbol
_atom_site_label
_atom_site_fract_x
_atom_site_fract_y
_atom_site_fract_z
Si Si1 0.422347 0.926505 0.343687
Si Si2 0.681674 0.421958 0.075071
Si Si3 0.098609 0.345064 0.097385
Si Si4 0.235852 0.324164 0.431284
Si Si5 0.062187 0.078221 0.721972
O O1 0.500000 0.932225 0.500000
O O2 0.515538 0.906061 0.181886
O O3 0.333300 0.867694 0.414235
O O4 0.366661 0.000000 0.327327
O O5 0.718710 0.500000 0.083557
O O6 0.579088 0.407455 0.231902
O O7 0.793580 0.371935 0.039211
O O8 0.617112 0.419827 0.902565
O O9 0.161598 0.319708 0.262815
O O10 0.000000 0.303708 0.000000
O O11 0.250000 0.250000 0.500000
O O12 0.359818 0.364895 0.382861
O O13 0.078287 0.000000 0.657797
#
# Coordination Sequence:
#
# PCOD9197686 Si02
#       5
#     8   8   8   8   8
#     4   9  18  34  60  93 128 166 212 263 319 382
#     4   8  14  26  51  90 128 160 200 261 329 379
#     4  10  20  35  61  94 125 162 211 271 337 388
#     4  10  20  36  62  90 129 177 219 268 321 386
#     4   8  14  28  54  88 125 164 215 269 317 374
#
# _framework density 23.128827999999999
#
# number of rings (size 3 to 8) (size 9 to 14) (size 15 to 20)
#    0.000    3.000    0.000    2.400    0.000    6.400 
#    0.000    1.000   22.000    0.000    0.000    4.200 
#    0.000    3.200    0.000    0.000    0.000    0.000 
#
# Total GULP energy -111551.195614 kJ/mol
# GULP energy per Si atom -5577.559781 kJ/mol
# Density = 2.307619 g / cm^3
# Si number density = 23.128828 Si / 1000 Ang^3
#
#
#
# Elastic Constant Matrix: (Units=GPa)
#
#
# Indices 1 2 3 4 5 6 
#
# 1 134.2658 67.9887 70.3634 0.0000 2.4835 0.0000
# 2 67.9887 162.3728 67.3067 0.0000 -30.3981 0.0000
# 3 70.3634 67.3067 120.7784 0.0000 2.9666 0.0000
# 4 0.0000 0.0000 0.0000 -3.9695 0.0000 -17.2181
# 5 2.4835 -30.3981 2.9666 0.0000 48.3125 0.0000
# 6 0.0000 0.0000 0.0000 -17.2181 0.0000 -3.2598
#
#
#
# Elastic Compliance Matrix: (Units=1/GPa)
#
#
# Indices 1 2 3 4 5 6 
#
# 1 0.011767 -0.003326 -0.004943 0.000000 -0.002394 0.000000
# 2 -0.003326 0.010596 -0.004141 0.000000 0.007092 0.000000
# 3 -0.004943 -0.004141 0.013545 0.000000 -0.003183 0.000000
# 4 0.000000 0.000000 0.000000 0.011498 0.000000 -0.060729
# 5 -0.002394 0.007092 -0.003183 0.000000 0.025479 0.000000
# 6 0.000000 0.000000 0.000000 -0.060729 0.000000 0.014001
#
#
# Mechanical properties :
#
#
# Convention : Reuss Voigt Hill
#
# Bulk Modulus (GPa) = 90.19211 92.08160 91.13686
# Shear Modulus (GPa) = 43.32711 22.33386 32.83049
#
# Velocity S-wave (km/s) = 4.33285 3.11083 3.77166
# Velocity P-wave (km/s) = 8.00698 7.26649 7.64570
#
# Compressibility (1/GPa) = 0.01108744
#
# Stress axis : x y z
#
# Youngs Moduli (GPa) = 84.98449 94.37716 73.82814
#
# Poissons Ratio (x) = 0.31394 0.36490
# Poissons Ratio (y) = 0.28270 0.30572
# Poissons Ratio (z) = 0.42004 0.39082
#
# Static dielectric constant tensor:
#      x y z
#    x 1.955620 0.000000 0.074360 
#    y 0.000000 1.742830 0.000000 
#    z 0.074360 0.000000 1.927750 
# 
# From -- ./inp_files/48517.got.cif
#   From: 2010.05.17/outbox.cif.g08.bks.cpg/sg12_25_cif.got.tgz:48517.got - 2010.06.03 13:09:07.
