data_PCOD9197784
_publ_section_title
;
Structure prediction by ZEFSAII (Michael W. Deem and Ramdas Pophale) SiO2 
 PCOD9197784
Probable space group: C 2/M
;
_chemical_formula_sum "Si O2"
_cell_formula_units_Z 56
_cell_length_a 13.068806
_cell_length_b 27.233885
_cell_length_c 9.243938
_cell_angle_alpha 90.000000
_cell_angle_beta 47.467288
_cell_angle_gamma 90.000000
_cell_volume 2424.410083
_symmetry_space_group_name_H-M "C 2/M"
_symmetry_group_IT_number 12
_symmetry_cell_setting 'monoclinic'
loop_
_space_group_symop_operation_xyz
x,y,z
-x,y,-z
-x,-y,-z
x,-y,z
1/2+x,1/2+y,z
1/2-x,1/2+y,-z
1/2-x,1/2-y,-z
1/2+x,1/2-y,z
loop_
_atom_site_type_symbol
_atom_site_label
_atom_site_fract_x
_atom_site_fract_y
_atom_site_fract_z
Si Si1 0.549589 0.915200 0.302859
Si Si2 0.594812 0.806894 0.233342
Si Si3 0.462960 0.371906 0.285884
Si Si4 0.725890 0.806981 0.538665
Si Si5 0.332641 0.445490 0.064356
Si Si6 0.679433 0.300376 0.233265
Si Si7 0.755055 0.443353 0.511028
O O1 0.500000 0.939365 0.500000
O O2 0.610467 0.861121 0.285092
O O3 0.686791 0.941893 0.117330
O O4 0.407262 0.918390 0.348271
O O5 0.434882 0.811009 0.342096
O O6 0.629037 0.756795 0.286536
O O7 0.695029 0.803389 0.000140
O O8 0.339541 0.337456 0.337822
O O9 0.556810 0.334772 0.289589
O O10 0.367494 0.413816 0.451423
O O11 0.567556 0.402131 0.083865
O O12 0.750000 0.750000 0.500000
O O13 0.763788 0.818162 0.668234
O O14 0.393324 0.500000 0.982322
O O15 0.292006 0.441397 0.273427
O O16 0.765110 0.500000 0.460667
#
# Coordination Sequence:
#
# PCOD9197784 Si02
#       7
#     8   8   8   8   8   8   8
#     4  10  20  35  64  97 127 166 212 260 323 382
#     4  11  23  45  66  94 125 173 206 266 318 381
#     4  12  22  38  61  92 125 172 207 254 321 377
#     4  12  26  43  66  93 127 171 209 265 318 377
#     4  10  21  39  62  94 134 168 211 272 327 379
#     4  11  26  44  64  93 130 166 220 257 316 384
#     4  10  21  38  62  96 132 167 213 270 329 380
#
# _framework density 23.098402
#
# number of rings (size 3 to 8) (size 9 to 14) (size 15 to 20)
#    0.000    1.143    4.286    2.143    2.000    2.857 
#    5.143    0.000    0.000    6.857    0.000    2.000 
#    0.000    0.000    0.000    0.000    0.000    0.000 
#
# Total GULP energy -156265.661137 kJ/mol
# GULP energy per Si atom -5580.916469 kJ/mol
# Density = 2.304583 g / cm^3
# Si number density = 23.098402 Si / 1000 Ang^3
#
#
#
# Elastic Constant Matrix: (Units=GPa)
#
#
# Indices 1 2 3 4 5 6 
#
# 1 46.6364 10.9385 21.2832 0.0000 -16.3724 0.0000
# 2 10.9385 164.6878 40.7719 0.0000 -6.8965 0.0000
# 3 21.2832 40.7719 149.7803 0.0000 -26.7894 0.0000
# 4 0.0000 0.0000 0.0000 42.7162 0.0000 -7.9626
# 5 -16.3724 -6.8965 -26.7894 0.0000 40.5371 0.0000
# 6 0.0000 0.0000 0.0000 -7.9626 0.0000 18.2426
#
#
#
# Elastic Compliance Matrix: (Units=1/GPa)
#
#
# Indices 1 2 3 4 5 6 
#
# 1 0.025632 -0.000882 -0.001789 0.000000 0.009020 0.000000
# 2 -0.000882 0.006541 -0.001724 0.000000 -0.000382 0.000000
# 3 -0.001789 -0.001724 0.008186 0.000000 0.004394 0.000000
# 4 0.000000 0.000000 0.000000 0.025484 0.000000 0.011123
# 5 0.009020 -0.000382 0.004394 0.000000 0.031151 0.000000
# 6 0.000000 0.000000 0.000000 0.011123 0.000000 0.059672
#
#
# Mechanical properties :
#
#
# Convention : Reuss Voigt Hill
#
# Bulk Modulus (GPa) = 31.67501 56.34351 44.00926
# Shear Modulus (GPa) = 28.41261 39.50658 33.95960
#
# Velocity S-wave (km/s) = 3.51104 4.14014 3.83850
# Velocity P-wave (km/s) = 5.49357 6.87751 6.22412
#
# Compressibility (1/GPa) = 0.03157063
#
# Stress axis : x y z
#
# Youngs Moduli (GPa) = 39.01310 152.87245 122.16374
#
# Poissons Ratio (x) = 0.13482 0.21853
# Poissons Ratio (y) = 0.03441 0.21058
# Poissons Ratio (z) = 0.06979 0.26351
#
# Static dielectric constant tensor:
#      x y z
#    x 2.033330 0.000000 -0.091440 
#    y 0.000000 1.942890 0.000000 
#    z -0.091440 0.000000 1.928070 
# 
# From -- ./inp_files/99415.got.cif
#   From: 2010.05.17/outbox.cif.g08.bks.cpg/sg12_50_cif.got.tgz:99415.got - 2010.06.03 13:09:07.
