data_PCOD9197743
_publ_section_title
;
Structure prediction by ZEFSAII (Michael W. Deem and Ramdas Pophale) SiO2 
 PCOD9197743
Probable space group: C 2/M
;
_chemical_formula_sum "Si O2"
_cell_formula_units_Z 56
_cell_length_a 18.248698
_cell_length_b 28.741413
_cell_length_c 5.208697
_cell_angle_alpha 90.000000
_cell_angle_beta 112.780698
_cell_angle_gamma 90.000000
_cell_volume 2518.819358
_symmetry_space_group_name_H-M "C 2/M"
_symmetry_group_IT_number 12
_symmetry_cell_setting 'monoclinic'
loop_
_space_group_symop_operation_xyz
x,y,z
-x,y,-z
-x,-y,-z
x,-y,z
1/2+x,1/2+y,z
1/2-x,1/2+y,-z
1/2-x,1/2-y,-z
1/2+x,1/2-y,z
loop_
_atom_site_type_symbol
_atom_site_label
_atom_site_fract_x
_atom_site_fract_y
_atom_site_fract_z
Si Si1 0.274726 0.452003 0.458886
Si Si2 0.049627 0.293071 0.812923
Si Si3 0.700605 0.734301 0.179577
Si Si4 0.404002 0.052546 0.778562
Si Si5 0.378694 0.891788 0.215256
Si Si6 0.916493 0.948206 0.252744
Si Si7 0.799484 0.875514 0.877904
O O1 0.280373 0.500000 0.636581
O O2 0.186167 0.454605 0.239222
O O3 0.346844 0.454282 0.364704
O O4 0.278789 0.402386 0.592140
O O5 0.090424 0.339069 0.750848
O O6 0.000000 0.273277 0.500000
O O7 0.115923 0.258809 0.021007
O O8 0.000000 0.306376 0.000000
O O9 0.750000 0.750000 0.500000
O O10 0.690787 0.678759 0.152613
O O11 0.750000 0.750000 0.000000
O O12 0.396502 0.081479 0.505874
O O13 0.433557 0.000000 0.766453
O O14 0.430312 0.081686 0.063772
O O15 0.281456 0.885616 0.067516
O O16 0.000000 0.937890 0.500000
O O17 0.926746 0.000000 0.139973
O O18 0.880335 0.903599 0.058720
#
# Coordination Sequence:
#
# PCOD9197743 Si02
#       7
#     8   8   8   8   8   8   8
#     4   9  19  34  57  91 131 173 222 276 337 413
#     4  12  27  50  75 105 144 189 240 300 377 447
#     4  12  28  48  77 107 143 187 245 313 367 429
#     4  10  20  35  63 104 137 170 230 290 342 412
#     4  11  22  39  71  99 135 186 231 289 348 428
#     4  10  21  38  61  96 144 188 232 288 358 438
#     4  11  23  39  68  93 135 179 242 287 356 418
#
# _framework density 22.232638000000001
#
# number of rings (size 3 to 8) (size 9 to 14) (size 15 to 20)
#    0.000    1.286    2.857    2.571    6.000    2.286 
#    2.571    2.143    0.000    8.571    0.000    0.000 
#    0.000    0.000    0.000    0.000    0.000    0.000 
#
# Total GULP energy -155926.971803 kJ/mol
# GULP energy per Si atom -5568.820422 kJ/mol
# Density = 2.218204 g / cm^3
# Si number density = 22.232638 Si / 1000 Ang^3
#
#
#
# Elastic Constant Matrix: (Units=GPa)
#
#
# Indices 1 2 3 4 5 6 
#
# 1 51.7179 7.9537 33.3458 0.0000 6.1580 0.0000
# 2 7.9537 209.6044 53.9476 0.0000 6.2777 0.0000
# 3 33.3458 53.9476 119.2490 0.0000 17.5311 0.0000
# 4 0.0000 0.0000 0.0000 24.6268 0.0000 -0.3424
# 5 6.1580 6.2777 17.5311 0.0000 47.3294 0.0000
# 6 0.0000 0.0000 0.0000 -0.3424 0.0000 27.1632
#
#
#
# Elastic Compliance Matrix: (Units=1/GPa)
#
#
# Indices 1 2 3 4 5 6 
#
# 1 0.023760 0.000909 -0.006962 0.000000 -0.000633 0.000000
# 2 0.000909 0.005436 -0.002739 0.000000 0.000175 0.000000
# 3 -0.006962 -0.002739 0.012041 0.000000 -0.003191 0.000000
# 4 0.000000 0.000000 0.000000 0.040613 0.000000 0.000512
# 5 -0.000633 0.000175 -0.003191 0.000000 0.022370 0.000000
# 6 0.000000 0.000000 0.000000 0.000512 0.000000 0.036821
#
#
# Mechanical properties :
#
#
# Convention : Reuss Voigt Hill
#
# Bulk Modulus (GPa) = 42.27852 63.45174 52.86513
# Shear Modulus (GPa) = 30.02812 38.84548 34.43680
#
# Velocity S-wave (km/s) = 3.67908 4.18452 3.93991
# Velocity P-wave (km/s) = 6.09141 7.20755 6.67286
#
# Compressibility (1/GPa) = 0.02365267
#
# Stress axis : x y z
#
# Youngs Moduli (GPa) = 42.08702 183.95256 83.04889
#
# Poissons Ratio (x) = -0.16727 0.57822
# Poissons Ratio (y) = -0.03827 0.22750
# Poissons Ratio (z) = 0.29303 0.50391
#
# Static dielectric constant tensor:
#      x y z
#    x 1.716520 0.000000 -0.025050 
#    y 0.000000 2.088260 0.000000 
#    z -0.025050 0.000000 1.892480 
# 
# From -- ./inp_files/17715.got.cif
#   From: 2010.05.17/outbox.cif.g08.bks.cpg/sg12_9_cif.got.tgz:17715.got - 2010.06.03 13:09:07.
