data_PCOD9197195
_publ_section_title
;
Structure prediction by ZEFSAII (Michael W. Deem and Ramdas Pophale) SiO2 
 PCOD9197195
Probable space group: C 2/M
;
_chemical_formula_sum "Si O2"
_cell_formula_units_Z 56
_cell_length_a 19.818186
_cell_length_b 8.340936
_cell_length_c 27.674428
_cell_angle_alpha 90.000000
_cell_angle_beta 138.091491
_cell_angle_gamma 90.000000
_cell_volume 3055.602107
_symmetry_space_group_name_H-M "C 2/M"
_symmetry_group_IT_number 12
_symmetry_cell_setting 'monoclinic'
loop_
_space_group_symop_operation_xyz
x,y,z
-x,y,-z
-x,-y,-z
x,-y,z
1/2+x,1/2+y,z
1/2-x,1/2+y,-z
1/2-x,1/2-y,-z
1/2+x,1/2-y,z
loop_
_atom_site_type_symbol
_atom_site_label
_atom_site_fract_x
_atom_site_fract_y
_atom_site_fract_z
Si Si1 0.847342 0.000000 0.451252
Si Si2 0.819261 0.685894 0.302854
Si Si3 0.907587 0.805970 0.985720
Si Si4 0.025761 0.186951 0.780052
Si Si5 0.556385 0.500000 0.604892
Si Si6 0.307868 0.180307 0.679532
Si Si7 0.211735 0.310467 0.822909
Si Si8 0.364779 0.810962 0.066102
O O1 0.772205 0.152419 0.406841
O O2 0.934794 0.000000 0.537158
O O3 0.902530 0.000000 0.428385
O O4 0.857698 0.500000 0.324787
O O5 0.740607 0.709725 0.304963
O O6 0.768289 0.708950 0.223280
O O7 0.899317 0.832985 0.350341
O O8 0.803457 0.750436 0.904987
O O9 0.903996 0.000000 0.988715
O O10 0.917590 0.731305 0.043755
O O11 0.000000 0.766208 0.000000
O O12 0.917467 0.270957 0.720271
O O13 0.105710 0.235307 0.781713
O O14 0.079241 0.230626 0.859185
O O15 0.007559 0.000000 0.768132
O O16 0.316264 0.000000 0.705671
O O17 0.203381 0.500000 0.827976
O O18 0.363175 0.000000 0.073621
O O19 0.250000 0.750000 0.000000
#
# Coordination Sequence:
#
# PCOD9197195 Si02
#       8
#     4   8   8   8   4   8   8   8
#     4   7  16  34  62  86 121 152 187 237 299 333
#     4  10  20  35  58  90 123 157 197 241 291 355
#     4  10  22  40  59  81 112 150 190 243 298 340
#     4  12  24  37  59  85 113 153 200 242 292 356
#     4   9  16  36  60  90 120 159 189 238 292 349
#     4   9  19  37  59  85 118 154 186 243 295 339
#     4  10  22  38  56  82 116 155 196 244 293 346
#     4  12  24  40  58  81 111 149 196 245 293 345
#
# _framework density 18.326993999999999
#
# number of rings (size 3 to 8) (size 9 to 14) (size 15 to 20)
#    0.429    1.429    2.143    3.000    3.000    0.286 
#    0.000    6.429    0.000    0.857    0.000    0.000 
#    0.000    0.000    0.000    0.000    0.000    0.000 
#
# Total GULP energy -156073.583121 kJ/mol
# GULP energy per Si atom -5574.056540 kJ/mol
# Density = 1.828528 g / cm^3
# Si number density = 18.326994 Si / 1000 Ang^3
#
#
#
# Elastic Constant Matrix: (Units=GPa)
#
#
# Indices 1 2 3 4 5 6 
#
# 1 53.3435 2.6008 3.0951 0.0000 14.2960 0.0000
# 2 2.6008 62.3261 13.2183 0.0000 2.0368 0.0000
# 3 3.0951 13.2183 43.6249 0.0000 23.6813 0.0000
# 4 0.0000 0.0000 0.0000 14.2360 0.0000 -3.6303
# 5 14.2960 2.0368 23.6813 0.0000 28.4903 0.0000
# 6 0.0000 0.0000 0.0000 -3.6303 0.0000 23.6328
#
#
#
# Elastic Compliance Matrix: (Units=1/GPa)
#
#
# Indices 1 2 3 4 5 6 
#
# 1 0.023614 -0.002422 0.009834 0.000000 -0.019850 0.000000
# 2 -0.002422 0.017906 -0.009509 0.000000 0.007840 0.000000
# 3 0.009834 -0.009509 0.049957 0.000000 -0.045779 0.000000
# 4 0.000000 0.000000 0.000000 0.073108 0.000000 0.011231
# 5 -0.019850 0.007840 -0.045779 0.000000 0.082552 0.000000
# 6 0.000000 0.000000 0.000000 0.011231 0.000000 0.044039
#
#
# Mechanical properties :
#
#
# Convention : Reuss Voigt Hill
#
# Bulk Modulus (GPa) = 11.45716 21.90254 16.67985
# Shear Modulus (GPa) = 15.40993 22.63050 19.02021
#
# Velocity S-wave (km/s) = 2.90286 3.51781 3.22502
# Velocity P-wave (km/s) = 4.18336 5.33638 4.79465
#
# Compressibility (1/GPa) = 0.08728170
#
# Stress axis : x y z
#
# Youngs Moduli (GPa) = 42.34834 55.84621 20.01709
#
# Poissons Ratio (x) = 0.13528 -0.19685
# Poissons Ratio (y) = 0.10258 0.19035
# Poissons Ratio (z) = -0.41645 0.53106
#
# Static dielectric constant tensor:
#      x y z
#    x 1.631960 0.000000 0.025930 
#    y 0.000000 1.640140 0.000000 
#    z 0.025930 0.000000 1.640770 
# 
# From -- ./inp_files/363254.got.cif
#   From: 2010.05.17/outbox.cif.g08.bks.cpg/sg12_182_cif.got.tgz:363254.got - 2010.06.03 13:09:07.
