data_PCOD9197154
_publ_section_title
;
Structure prediction by ZEFSAII (Michael W. Deem and Ramdas Pophale) SiO2 
 PCOD9197154
Probable space group: C 2/M
;
_chemical_formula_sum "Si O2"
_cell_formula_units_Z 64
_cell_length_a 11.609996
_cell_length_b 14.696309
_cell_length_c 29.483367
_cell_angle_alpha 90.000000
_cell_angle_beta 36.644987
_cell_angle_gamma 90.000000
_cell_volume 3002.522628
_symmetry_space_group_name_H-M "C 2/M"
_symmetry_group_IT_number 12
_symmetry_cell_setting 'monoclinic'
loop_
_space_group_symop_operation_xyz
x,y,z
-x,y,-z
-x,-y,-z
x,-y,z
1/2+x,1/2+y,z
1/2-x,1/2+y,-z
1/2-x,1/2-y,-z
1/2+x,1/2-y,z
loop_
_atom_site_type_symbol
_atom_site_label
_atom_site_fract_x
_atom_site_fract_y
_atom_site_fract_z
Si Si1 0.921577 0.899583 0.855159
Si Si2 0.466449 0.762465 0.636259
Si Si3 0.606914 0.803931 0.010426
Si Si4 0.523381 0.898768 0.438619
Si Si5 0.628367 0.106800 0.836992
Si Si6 0.149721 0.604239 0.246047
Si Si7 0.969757 0.287010 0.221344
Si Si8 0.061276 0.898273 0.665975
O O1 0.950952 0.813050 0.813772
O O2 0.119452 0.898112 0.821618
O O3 0.905901 0.000000 0.838356
O O4 0.741338 0.879742 0.944356
O O5 0.553082 0.815629 0.566389
O O6 0.431515 0.839239 0.685726
O O7 0.582713 0.680149 0.621976
O O8 0.254041 0.721298 0.692944
O O9 0.446703 0.848509 0.093314
O O10 0.500000 0.757798 0.000000
O O11 0.750000 0.750000 0.000000
O O12 0.500000 0.890912 0.500000
O O13 0.756368 0.896362 0.358343
O O14 0.454779 0.000000 0.446856
O O15 0.528562 0.158983 0.826657
O O16 0.856126 0.116330 0.754589
O O17 0.582099 0.000000 0.851014
O O18 0.080132 0.500000 0.267511
O O19 0.087887 0.658731 0.221265
O O20 0.059024 0.000000 0.646335
#
# Coordination Sequence:
#
# PCOD9197154 Si02
#       8
#     8   8   8   8   8   8   8   8
#     4  10  23  40  60  87 118 155 206 261 312 370
#     4  10  20  35  58  88 121 160 203 249 298 363
#     4  12  27  44  63  89 122 165 211 267 322 381
#     4  10  21  38  61  89 121 157 197 245 302 364
#     4  10  21  40  64  90 119 160 208 258 312 372
#     4  10  21  37  60  89 122 160 203 256 313 370
#     4  10  20  37  61  89 125 160 205 252 314 373
#     4   9  20  39  61  87 119 155 198 246 300 362
#
# _framework density 21.315408999999999
#
# number of rings (size 3 to 8) (size 9 to 14) (size 15 to 20)
#    0.000    1.875    1.250    1.875    1.750    4.500 
#    0.000    5.625    0.000    4.125    0.000    0.000 
#    0.000    0.000    0.000    0.000    0.000    0.000 
#
# Total GULP energy -178847.348599 kJ/mol
# GULP energy per Si atom -5588.979644 kJ/mol
# Density = 2.126689 g / cm^3
# Si number density = 21.315409 Si / 1000 Ang^3
#
#
#
# Elastic Constant Matrix: (Units=GPa)
#
#
# Indices 1 2 3 4 5 6 
#
# 1 103.5926 72.4411 20.4180 0.0001 16.9525 0.0001
# 2 72.4411 144.9293 23.7150 -0.0004 9.3578 -0.0001
# 3 20.4180 23.7150 61.5066 -0.0012 7.3505 -0.0008
# 4 0.0001 -0.0004 -0.0012 12.5227 -0.0004 4.5391
# 5 16.9525 9.3578 7.3505 -0.0004 30.1915 0.0002
# 6 0.0001 -0.0001 -0.0008 4.5391 0.0002 33.1897
#
#
#
# Elastic Compliance Matrix: (Units=1/GPa)
#
#
# Indices 1 2 3 4 5 6 
#
# 1 0.016228 -0.007410 -0.001767 -0.000001 -0.006385 0.000000
# 2 -0.007410 0.010828 -0.001865 0.000000 0.001259 0.000000
# 3 -0.001767 -0.001865 0.017897 0.000001 -0.002787 0.000000
# 4 -0.000001 0.000000 0.000001 0.084020 0.000001 -0.011491
# 5 -0.006385 0.001259 -0.002787 0.000001 0.036995 0.000000
# 6 0.000000 0.000000 0.000000 -0.011491 0.000000 0.031701
#
#
# Mechanical properties :
#
#
# Convention : Reuss Voigt Hill
#
# Bulk Modulus (GPa) = 43.72878 60.35298 52.04088
# Shear Modulus (GPa) = 21.98983 28.07775 25.03379
#
# Velocity S-wave (km/s) = 3.21540 3.63333 3.43074
# Velocity P-wave (km/s) = 5.86044 6.78065 6.33727
#
# Compressibility (1/GPa) = 0.02286824
#
# Stress axis : x y z
#
# Youngs Moduli (GPa) = 61.62151 92.35600 55.87438
#
# Poissons Ratio (x) = 0.68436 0.09873
# Poissons Ratio (y) = 0.45662 0.10423
# Poissons Ratio (z) = 0.10889 0.17228
#
# Static dielectric constant tensor:
#      x y z
#    x 1.795680 0.000000 -0.005850 
#    y 0.000000 1.771400 0.000000 
#    z -0.005850 0.000000 1.791130 
# 
# From -- ./inp_files/374094.got.cif
#   From: 2010.05.17/outbox.cif.g08.bks.cpg/sg12_188_cif.got.tgz:374094.got - 2010.06.03 13:09:07.
