data_PCOD9197136
_publ_section_title
;
Structure prediction by ZEFSAII (Michael W. Deem and Ramdas Pophale) SiO2 
 PCOD9197136
Probable space group: C 2/M
;
_chemical_formula_sum "Si O2"
_cell_formula_units_Z 32
_cell_length_a 16.200649
_cell_length_b 24.868914
_cell_length_c 9.089698
_cell_angle_alpha 90.000000
_cell_angle_beta 27.089348
_cell_angle_gamma 90.000000
_cell_volume 1667.677487
_symmetry_space_group_name_H-M "C 2/M"
_symmetry_group_IT_number 12
_symmetry_cell_setting 'monoclinic'
loop_
_space_group_symop_operation_xyz
x,y,z
-x,y,-z
-x,-y,-z
x,-y,z
1/2+x,1/2+y,z
1/2-x,1/2+y,-z
1/2-x,1/2-y,-z
1/2+x,1/2-y,z
loop_
_atom_site_type_symbol
_atom_site_label
_atom_site_fract_x
_atom_site_fract_y
_atom_site_fract_z
Si Si1 0.983722 0.500000 0.851243
Si Si2 0.151660 0.386427 0.883401
Si Si3 0.681737 0.810887 0.115842
Si Si4 0.047460 0.098889 0.252068
Si Si5 0.207940 0.500000 0.236222
O O1 0.171478 0.500000 0.467952
O O2 0.887849 0.443232 0.970537
O O3 0.000000 0.500000 0.000000
O O4 0.349126 0.394203 0.497118
O O5 0.153447 0.338856 0.000739
O O6 0.000000 0.378323 0.000000
O O7 0.500000 0.814494 0.500000
O O8 0.750000 0.750000 0.000000
O O9 0.838549 0.846752 0.940152
O O10 0.000000 0.090109 0.500000
O O11 0.174020 0.051238 0.995792
O O12 0.000000 0.500000 0.500000
#
# Coordination Sequence:
#
# PCOD9197136 Si02
#       5
#     4   8   8   8   4
#     4  10  21  37  55  84 125 158 188 239 296 352
#     4  10  21  40  61  86 121 158 195 246 301 356
#     4  11  22  40  61  85 116 155 199 249 298 351
#     4  10  20  35  58  88 118 153 199 253 299 350
#     4  12  20  33  60  90 116 160 209 245 291 358
#
# _framework density 19.188362999999999
#
# number of rings (size 3 to 8) (size 9 to 14) (size 15 to 20)
#    0.000    1.500    0.000    8.625    0.000    0.000 
#    0.000   21.250    0.000    0.000    0.000    0.000 
#    0.000    0.000    0.000    0.000    0.000    0.000 
#
# Total GULP energy -89304.345774 kJ/mol
# GULP energy per Si atom -5581.521611 kJ/mol
# Density = 1.914469 g / cm^3
# Si number density = 19.188363 Si / 1000 Ang^3
#
#
#
# Elastic Constant Matrix: (Units=GPa)
#
#
# Indices 1 2 3 4 5 6 
#
# 1 72.9249 41.6796 52.9417 0.0005 -20.1011 -0.0001
# 2 41.6796 203.7499 87.1384 0.0001 -3.8759 0.0000
# 3 52.9417 87.1384 199.9512 0.0009 -11.1794 0.0001
# 4 0.0005 0.0001 0.0009 44.3798 -0.0004 0.4670
# 5 -20.1011 -3.8759 -11.1794 -0.0004 41.8090 0.0002
# 6 -0.0001 0.0000 0.0001 0.4670 0.0002 21.4598
#
#
#
# Elastic Compliance Matrix: (Units=1/GPa)
#
#
# Indices 1 2 3 4 5 6 
#
# 1 0.020165 -0.002314 -0.003858 0.000000 0.008449 0.000000
# 2 -0.002314 0.006299 -0.002195 0.000000 -0.001116 0.000000
# 3 -0.003858 -0.002195 0.006968 0.000000 -0.000195 0.000000
# 4 0.000000 0.000000 0.000000 0.022538 0.000000 -0.000490
# 5 0.008449 -0.001116 -0.000195 0.000000 0.027825 0.000000
# 6 0.000000 0.000000 0.000000 -0.000490 0.000000 0.046609
#
#
# Mechanical properties :
#
#
# Convention : Reuss Voigt Hill
#
# Bulk Modulus (GPa) = 59.88721 93.34949 76.61835
# Shear Modulus (GPa) = 32.74288 41.18746 36.96517
#
# Velocity S-wave (km/s) = 4.13533 4.63804 4.39388
# Velocity P-wave (km/s) = 7.35386 8.79980 8.10912
#
# Compressibility (1/GPa) = 0.01669806
#
# Stress axis : x y z
#
# Youngs Moduli (GPa) = 49.58997 158.76198 143.50726
#
# Poissons Ratio (x) = 0.36742 0.55370
# Poissons Ratio (y) = 0.11476 0.31494
# Poissons Ratio (z) = 0.19133 0.34842
#
# Static dielectric constant tensor:
#      x y z
#    x 1.741560 0.000000 -0.027920 
#    y 0.000000 1.636050 0.000000 
#    z -0.027920 0.000000 1.688050 
# 
# From -- ./inp_files/169570.got.cif
#   From: 2010.05.17/outbox.cif.g08.bks.cpg/sg12_85_cif.got.tgz:169570.got - 2010.06.03 13:09:07.
