data_PCOD9197384
_publ_section_title
;
Structure prediction by ZEFSAII (Michael W. Deem and Ramdas Pophale) SiO2 
 PCOD9197384
Probable space group: C 2/M
;
_chemical_formula_sum "Si O2"
_cell_formula_units_Z 64
_cell_length_a 32.530441
_cell_length_b 11.250892
_cell_length_c 20.057436
_cell_angle_alpha 90.000000
_cell_angle_beta 25.985689
_cell_angle_gamma 90.000000
_cell_volume 3216.412972
_symmetry_space_group_name_H-M "C 2/M"
_symmetry_group_IT_number 12
_symmetry_cell_setting 'monoclinic'
loop_
_space_group_symop_operation_xyz
x,y,z
-x,y,-z
-x,-y,-z
x,-y,z
1/2+x,1/2+y,z
1/2-x,1/2+y,-z
1/2-x,1/2-y,-z
1/2+x,1/2-y,z
loop_
_atom_site_type_symbol
_atom_site_label
_atom_site_fract_x
_atom_site_fract_y
_atom_site_fract_z
Si Si1 0.346206 0.130604 0.678860
Si Si2 0.998363 0.724475 0.638570
Si Si3 0.642618 0.287877 0.955022
Si Si4 0.175109 0.367807 0.040148
Si Si5 0.253640 0.635013 0.542016
Si Si6 0.879999 0.135321 0.720266
Si Si7 0.465007 0.629224 0.286487
Si Si8 0.398337 0.140379 0.118503
O O1 0.422593 0.144310 0.509276
O O2 0.239424 0.139308 0.808390
O O3 0.367022 0.249705 0.691642
O O4 0.358369 0.000000 0.693770
O O5 0.028552 0.772218 0.666126
O O6 0.899515 0.659454 0.794280
O O7 0.970725 0.835332 0.631700
O O8 0.628090 0.210504 0.909949
O O9 0.660160 0.214327 0.997749
O O10 0.545103 0.353312 0.113980
O O11 0.157123 0.500000 0.041604
O O12 0.283496 0.362773 0.903947
O O13 0.232348 0.500000 0.545812
O O14 0.250000 0.750000 0.500000
O O15 0.360838 0.630901 0.409937
O O16 0.181360 0.653926 0.708617
O O17 0.884087 0.000000 0.686098
O O18 0.482688 0.500000 0.292107
O O19 0.404453 0.000000 0.093469
O O20 0.500000 0.176751 0.000000
#
# Coordination Sequence:
#
# PCOD9197384 Si02
#       8
#     8   8   8   8   8   8   8   8
#     4  11  24  39  57  83 116 153 191 237 292 344
#     4  11  21  35  57  83 113 148 189 237 288 342
#     4  10  20  37  58  81 113 152 193 235 281 337
#     4   9  19  35  55  81 111 147 190 235 283 336
#     4  10  21  39  61  87 117 151 191 234 281 335
#     4  10  22  39  59  83 111 148 194 239 285 342
#     4  10  21  37  58  82 112 151 192 235 283 336
#     4  10  20  35  59  89 120 154 191 234 287 344
#
# _framework density 19.897942
#
# number of rings (size 3 to 8) (size 9 to 14) (size 15 to 20)
#    0.000    1.875    0.000    3.750    0.000    3.500 
#    0.000    8.750    0.000    3.375    0.000    0.000 
#    0.000    0.000    0.000    0.000    0.000    0.000 
#
# Total GULP energy -178339.488774 kJ/mol
# GULP energy per Si atom -5573.109024 kJ/mol
# Density = 1.985265 g / cm^3
# Si number density = 19.897942 Si / 1000 Ang^3
#
#
#
# Elastic Constant Matrix: (Units=GPa)
#
#
# Indices 1 2 3 4 5 6 
#
# 1 57.9818 26.4441 31.0654 0.0000 -7.9641 0.0000
# 2 26.4441 104.2345 48.0381 0.0000 -2.9696 0.0000
# 3 31.0654 48.0381 155.1628 0.0000 -13.6522 0.0000
# 4 0.0000 0.0000 0.0000 13.2691 0.0000 13.6425
# 5 -7.9641 -2.9696 -13.6522 0.0000 19.6848 0.0000
# 6 0.0000 0.0000 0.0000 13.6425 0.0000 19.4841
#
#
#
# Elastic Compliance Matrix: (Units=1/GPa)
#
#
# Indices 1 2 3 4 5 6 
#
# 1 0.021288 -0.004097 -0.002439 0.000000 0.006303 0.000000
# 2 -0.004097 0.011990 -0.003065 0.000000 -0.001975 0.000000
# 3 -0.002439 -0.003065 0.008259 0.000000 0.004278 0.000000
# 4 0.000000 0.000000 0.000000 0.269054 0.000000 -0.188389
# 5 0.006303 -0.001975 0.004278 0.000000 0.056020 0.000000
# 6 0.000000 0.000000 0.000000 -0.188389 0.000000 0.183231
#
#
# Mechanical properties :
#
#
# Convention : Reuss Voigt Hill
#
# Bulk Modulus (GPa) = 44.77657 58.71936 51.74796
# Shear Modulus (GPa) = 8.67319 24.60971 16.64145
#
# Velocity S-wave (km/s) = 2.09005 3.52063 2.89509
# Velocity P-wave (km/s) = 5.32695 6.78975 6.10234
#
# Compressibility (1/GPa) = 0.02233311
#
# Stress axis : x y z
#
# Youngs Moduli (GPa) = 46.97501 83.40514 121.08478
#
# Poissons Ratio (x) = 0.34171 0.29533
# Poissons Ratio (y) = 0.19246 0.37118
# Poissons Ratio (z) = 0.11458 0.25568
#
# Static dielectric constant tensor:
#      x y z
#    x 1.685840 0.000000 0.000510 
#    y 0.000000 1.743870 0.000000 
#    z 0.000510 0.000000 1.728470 
# 
# From -- ./inp_files/296478.got.cif
#   From: 2010.05.17/outbox.cif.g08.bks.cpg/sg12_149_cif.got.tgz:296478.got - 2010.06.03 13:09:07.
