data_PCOD9197320
_publ_section_title
;
Structure prediction by ZEFSAII (Michael W. Deem and Ramdas Pophale) SiO2 
 PCOD9197320
Probable space group: C 2/M
;
_chemical_formula_sum "Si O2"
_cell_formula_units_Z 48
_cell_length_a 9.315845
_cell_length_b 14.020468
_cell_length_c 26.865755
_cell_angle_alpha 90.000000
_cell_angle_beta 141.299516
_cell_angle_gamma 90.000000
_cell_volume 2194.001869
_symmetry_space_group_name_H-M "C 2/M"
_symmetry_group_IT_number 12
_symmetry_cell_setting 'monoclinic'
loop_
_space_group_symop_operation_xyz
x,y,z
-x,y,-z
-x,-y,-z
x,-y,z
1/2+x,1/2+y,z
1/2-x,1/2+y,-z
1/2-x,1/2-y,-z
1/2+x,1/2-y,z
loop_
_atom_site_type_symbol
_atom_site_label
_atom_site_fract_x
_atom_site_fract_y
_atom_site_fract_z
Si Si1 0.911496 0.115738 0.921204
Si Si2 0.299655 0.391222 0.197604
Si Si3 0.589718 0.891402 0.249966
Si Si4 0.231438 0.293625 0.657074
Si Si5 0.390399 0.108809 0.023697
Si Si6 0.745767 0.283385 0.556622
O O1 0.665968 0.145425 0.833499
O O2 0.885590 0.000000 0.916324
O O3 0.000000 0.146937 0.000000
O O4 0.132289 0.144588 0.948901
O O5 0.321275 0.500000 0.184627
O O6 0.227186 0.393248 0.235436
O O7 0.545726 0.343901 0.260457
O O8 0.082187 0.345562 0.110616
O O9 0.723163 0.818783 0.321237
O O10 0.575445 0.000000 0.265311
O O11 0.233017 0.297706 0.596877
O O12 0.003668 0.326548 0.625345
O O13 0.361152 0.000000 0.036031
O O14 0.500000 0.105092 0.000000
O O15 0.500000 0.335440 0.500000
O O16 0.750000 0.250000 0.500000
#
# Coordination Sequence:
#
# PCOD9197320 Si02
#       6
#     8   8   8   8   8   8
#     4   9  15  28  51  74 105 155 202 234 275 333
#     4  10  20  36  59  85 117 157 195 237 291 339
#     4  10  20  35  59  87 116 155 198 239 287 335
#     4  11  20  38  63  90 116 146 188 238 283 346
#     4   9  17  30  49  76 112 153 198 243 283 325
#     4   9  20  38  64  88 115 153 183 216 288 359
#
# _framework density 21.877828999999998
#
# number of rings (size 3 to 8) (size 9 to 14) (size 15 to 20)
#    0.000    2.333    3.333    0.000    0.000    1.333 
#    0.000    4.167    0.000   20.000    0.000    0.000 
#    0.000    0.000    0.000    0.000    0.000    0.000 
#
# Total GULP energy -133622.416826 kJ/mol
# GULP energy per Si atom -5567.600701 kJ/mol
# Density = 2.182803 g / cm^3
# Si number density = 21.877829 Si / 1000 Ang^3
#
#
#
# Elastic Constant Matrix: (Units=GPa)
#
#
# Indices 1 2 3 4 5 6 
#
# 1 127.0332 6.3196 39.0384 0.0000 40.6338 0.0000
# 2 6.3196 58.1048 26.9161 0.0000 13.1630 0.0000
# 3 39.0384 26.9161 104.3223 0.0000 34.0283 0.0001
# 4 0.0000 0.0000 0.0000 9.9324 0.0000 0.2365
# 5 40.6338 13.1630 34.0283 0.0000 55.4887 0.0000
# 6 0.0000 0.0000 0.0001 0.2365 0.0000 -0.8546
#
#
#
# Elastic Compliance Matrix: (Units=1/GPa)
#
#
# Indices 1 2 3 4 5 6 
#
# 1 0.010632 0.001364 -0.002107 0.000000 -0.006817 0.000000
# 2 0.001364 0.019888 -0.004722 0.000000 -0.002821 0.000000
# 3 -0.002107 -0.004722 0.013405 0.000000 -0.005558 0.000001
# 4 0.000000 0.000000 0.000000 0.100021 0.000000 0.027682
# 5 -0.006817 -0.002821 -0.005558 0.000000 0.027092 0.000000
# 6 0.000000 0.000000 0.000001 0.027682 0.000000 -1.162540
#
#
# Mechanical properties :
#
#
# Convention : Reuss Voigt Hill
#
# Bulk Modulus (GPa) = 30.30594 48.22318 39.26456
# Shear Modulus (GPa) = -5.15690 27.39240 11.11775
#
# Velocity S-wave (km/s) = -1.53696 3.54229 2.25672
# Velocity P-wave (km/s) = 3.27609 6.23059 4.97760
#
# Compressibility (1/GPa) = 0.03299683
#
# Stress axis : x y z
#
# Youngs Moduli (GPa) = 94.05367 50.28101 74.59821
#
# Poissons Ratio (x) = -0.06858 0.15717
# Poissons Ratio (y) = -0.12829 0.35222
# Poissons Ratio (z) = 0.19816 0.23740
#
# Static dielectric constant tensor:
#      x y z
#    x 2.066630 0.000000 0.416470 
#    y 0.000000 1.868900 0.000000 
#    z 0.416470 0.000000 2.541760 
# 
# From -- ./inp_files/356359.got.cif
#   From: 2010.05.17/outbox.cif.g08.bks.cpg/sg12_179_cif.got.tgz:356359.got - 2010.06.03 13:09:07.
