data_PCOD9197739
_publ_section_title
;
Structure prediction by ZEFSAII (Michael W. Deem and Ramdas Pophale) SiO2 
 PCOD9197739
Probable space group: C 2/M
;
_chemical_formula_sum "Si O2"
_cell_formula_units_Z 28
_cell_length_a 14.136166
_cell_length_b 10.993218
_cell_length_c 7.693117
_cell_angle_alpha 90.000000
_cell_angle_beta 98.269495
_cell_angle_gamma 90.000000
_cell_volume 1183.094950
_symmetry_space_group_name_H-M "C 2/M"
_symmetry_group_IT_number 12
_symmetry_cell_setting 'monoclinic'
loop_
_space_group_symop_operation_xyz
x,y,z
-x,y,-z
-x,-y,-z
x,-y,z
1/2+x,1/2+y,z
1/2-x,1/2+y,-z
1/2-x,1/2-y,-z
1/2+x,1/2-y,z
loop_
_atom_site_type_symbol
_atom_site_label
_atom_site_fract_x
_atom_site_fract_y
_atom_site_fract_z
Si Si1 0.189183 0.133941 0.428052
Si Si2 0.928542 0.633127 0.145207
Si Si3 0.500000 0.260172 0.500000
Si Si4 0.617034 0.631118 0.014091
O O1 0.250000 0.250000 0.500000
O O2 0.090369 0.153526 0.502487
O O3 0.161052 0.139051 0.217410
O O4 0.231340 0.000000 0.475359
O O5 0.883916 0.500000 0.158567
O O6 0.986770 0.674080 0.329871
O O7 0.860452 0.746915 0.085638
O O8 0.000000 0.624210 0.000000
O O9 0.644601 0.500000 0.943315
O O10 0.500000 0.628931 0.000000
#
# Coordination Sequence:
#
# PCOD9197739 Si02
#       4
#     8   8   4   8
#     4  11  25  43  69 104 141 179 229 287 341 407
#     4  10  20  35  62  99 133 172 223 281 336 394
#     4  12  22  42  72 102 132 188 232 270 344 420
#     4   9  17  37  64  90 128 176 220 273 333 397
#
# _framework density 23.666740999999998
#
# number of rings (size 3 to 8) (size 9 to 14) (size 15 to 20)
#    0.000    1.714    5.714    0.857    0.000    4.571 
#    0.000    1.429    0.000    0.000    0.000    0.000 
#    0.000    0.000    0.000    0.000    0.000    0.000 
#
# Total GULP energy -78256.269055 kJ/mol
# GULP energy per Si atom -5589.733504 kJ/mol
# Density = 2.361287 g / cm^3
# Si number density = 23.666741 Si / 1000 Ang^3
#
#
#
# Elastic Constant Matrix: (Units=GPa)
#
#
# Indices 1 2 3 4 5 6 
#
# 1 73.1148 21.3779 8.5846 0.0000 6.2774 0.0000
# 2 21.3779 289.6012 65.3532 0.0000 22.1447 0.0000
# 3 8.5846 65.3532 132.7899 0.0000 2.5710 0.0000
# 4 0.0000 0.0000 0.0000 81.8041 0.0000 3.5749
# 5 6.2774 22.1447 2.5710 0.0000 28.2429 0.0000
# 6 0.0000 0.0000 0.0000 3.5749 0.0000 5.5985
#
#
#
# Elastic Compliance Matrix: (Units=1/GPa)
#
#
# Indices 1 2 3 4 5 6 
#
# 1 0.014169 -0.000739 -0.000503 0.000000 -0.002524 0.000000
# 2 -0.000739 0.004171 -0.001948 0.000000 -0.002929 0.000000
# 3 -0.000503 -0.001948 0.008505 0.000000 0.000865 0.000000
# 4 0.000000 0.000000 0.000000 0.012575 0.000000 -0.008030
# 5 -0.002524 -0.002929 0.000865 0.000000 0.038186 0.000000
# 6 0.000000 0.000000 0.000000 -0.008030 0.000000 0.183746
#
#
# Mechanical properties :
#
#
# Convention : Reuss Voigt Hill
#
# Bulk Modulus (GPa) = 48.86710 76.23746 62.55228
# Shear Modulus (GPa) = 18.21120 49.80845 34.00983
#
# Velocity S-wave (km/s) = 2.77697 4.59254 3.79493
# Velocity P-wave (km/s) = 5.56551 7.77205 6.75943
#
# Compressibility (1/GPa) = 0.02046367
#
# Stress axis : x y z
#
# Youngs Moduli (GPa) = 70.57618 239.73606 117.57258
#
# Poissons Ratio (x) = 0.17726 0.05917
# Poissons Ratio (y) = 0.05218 0.22908
# Poissons Ratio (z) = 0.03552 0.46710
#
# Static dielectric constant tensor:
#      x y z
#    x 1.950570 0.000000 0.022040 
#    y 0.000000 1.972040 0.000000 
#    z 0.022040 0.000000 1.881430 
# 
# From -- ./inp_files/56601.got.cif
#   From: 2010.05.17/outbox.cif.g08.bks.cpg/sg12_29_cif.got.tgz:56601.got - 2010.06.03 13:09:07.
