data_PCOD9197138
_publ_section_title
;
Structure prediction by ZEFSAII (Michael W. Deem and Ramdas Pophale) SiO2 
 PCOD9197138
Probable space group: C 2/M
;
_chemical_formula_sum "Si O2"
_cell_formula_units_Z 48
_cell_length_a 15.485162
_cell_length_b 8.595782
_cell_length_c 19.484595
_cell_angle_alpha 90.000000
_cell_angle_beta 90.053183
_cell_angle_gamma 90.000000
_cell_volume 2593.536366
_symmetry_space_group_name_H-M "C 2/M"
_symmetry_group_IT_number 12
_symmetry_cell_setting 'monoclinic'
loop_
_space_group_symop_operation_xyz
x,y,z
-x,y,-z
-x,-y,-z
x,-y,z
1/2+x,1/2+y,z
1/2-x,1/2+y,-z
1/2-x,1/2-y,-z
1/2+x,1/2-y,z
loop_
_atom_site_type_symbol
_atom_site_label
_atom_site_fract_x
_atom_site_fract_y
_atom_site_fract_z
Si Si1 0.530348 0.686651 0.577514
Si Si2 0.376548 0.812352 0.826829
Si Si3 0.026403 0.187759 0.922712
Si Si4 0.278233 0.814094 0.425623
Si Si5 0.625554 0.187296 0.331614
Si Si6 0.277076 0.688086 0.074444
O O1 0.500000 0.726175 0.500000
O O2 0.533776 0.500000 0.582841
O O3 0.625231 0.755452 0.589470
O O4 0.459323 0.752308 0.629423
O O5 0.459797 0.753992 0.867916
O O6 0.375341 0.762374 0.747803
O O7 0.291993 0.759868 0.868954
O O8 0.376925 0.000000 0.827432
O O9 0.124979 0.236589 0.909797
O O10 0.022155 0.000000 0.920395
O O11 0.000000 0.235958 0.000000
O O12 0.250000 0.750000 0.500000
O O13 0.209233 0.752347 0.370721
O O14 0.276161 0.000000 0.427419
O O15 0.627369 0.000000 0.334640
O O16 0.275873 0.500000 0.071851
O O17 0.250000 0.750000 0.000000
#
# Coordination Sequence:
#
# PCOD9197138 Si02
#       6
#     8   8   8   8   8   8
#     4  11  23  40  65  94 122 159 208 255 309 368
#     4  10  23  40  59  87 122 158 197 246 304 358
#     4  10  20  35  58  88 118 154 202 248 295 355
#     4  12  24  40  65  95 125 162 206 253 305 365
#     4  11  24  42  62  90 128 164 205 256 309 368
#     4  10  20  36  58  85 117 154 198 245 295 351
#
# _framework density 18.507548
#
# number of rings (size 3 to 8) (size 9 to 14) (size 15 to 20)
#    0.000    1.333    3.333    2.500    0.000    4.333 
#    0.000    1.667    0.000    0.000    0.000    0.000 
#    0.000    0.000    0.000    0.000    0.000    0.000 
#
# Total GULP energy -134161.825378 kJ/mol
# GULP energy per Si atom -5590.076057 kJ/mol
# Density = 1.846542 g / cm^3
# Si number density = 18.507548 Si / 1000 Ang^3
#
#
#
# Elastic Constant Matrix: (Units=GPa)
#
#
# Indices 1 2 3 4 5 6 
#
# 1 225.5215 49.4924 124.3445 0.0000 -0.4103 0.0000
# 2 49.4924 49.1670 50.8653 0.0000 -2.1996 0.0000
# 3 124.3445 50.8653 197.9745 0.0000 1.0552 0.0000
# 4 0.0000 0.0000 0.0000 25.9674 0.0000 5.4079
# 5 -0.4103 -2.1996 1.0552 0.0000 34.5871 0.0000
# 6 0.0000 0.0000 0.0000 5.4079 0.0000 33.1157
#
#
#
# Elastic Compliance Matrix: (Units=1/GPa)
#
#
# Indices 1 2 3 4 5 6 
#
# 1 0.007200 -0.003501 -0.003622 0.000000 -0.000027 0.000000
# 2 -0.003501 0.029541 -0.005402 0.000000 0.002002 0.000000
# 3 -0.003622 -0.005402 0.008718 0.000000 -0.000652 0.000000
# 4 0.000000 0.000000 0.000000 0.039866 0.000000 -0.006510
# 5 -0.000027 0.002002 -0.000652 0.000000 0.029059 0.000000
# 6 0.000000 0.000000 0.000000 -0.006510 0.000000 0.031260
#
#
# Mechanical properties :
#
#
# Convention : Reuss Voigt Hill
#
# Bulk Modulus (GPa) = 49.00012 102.45191 75.72602
# Shear Modulus (GPa) = 28.16965 35.26477 31.71721
#
# Velocity S-wave (km/s) = 3.90559 4.36985 4.14423
# Velocity P-wave (km/s) = 6.84627 8.99655 7.99404
#
# Compressibility (1/GPa) = 0.02040811
#
# Stress axis : x y z
#
# Youngs Moduli (GPa) = 138.89503 33.85145 114.71073
#
# Poissons Ratio (x) = 0.11852 0.41552
# Poissons Ratio (y) = 0.48628 0.61962
# Poissons Ratio (z) = 0.50312 0.18285
#
# Static dielectric constant tensor:
#      x y z
#    x 1.614260 0.000000 -0.013130 
#    y 0.000000 1.631350 0.000000 
#    z -0.013130 0.000000 1.608260 
# 
# From -- ./inp_files/267601.got.cif
#   From: 2010.05.17/outbox.cif.g08.bks.cpg/sg12_134_cif.got.tgz:267601.got - 2010.06.03 13:09:07.
