data_PCOD9197489
_publ_section_title
;
Structure prediction by ZEFSAII (Michael W. Deem and Ramdas Pophale) SiO2 
 PCOD9197489
Probable space group: C 2/M
;
_chemical_formula_sum "Si O2"
_cell_formula_units_Z 36
_cell_length_a 13.125521
_cell_length_b 14.605565
_cell_length_c 10.481794
_cell_angle_alpha 90.000000
_cell_angle_beta 124.518728
_cell_angle_gamma 90.000000
_cell_volume 1655.642822
_symmetry_space_group_name_H-M "C 2/M"
_symmetry_group_IT_number 12
_symmetry_cell_setting 'monoclinic'
loop_
_space_group_symop_operation_xyz
x,y,z
-x,y,-z
-x,-y,-z
x,-y,z
1/2+x,1/2+y,z
1/2-x,1/2+y,-z
1/2-x,1/2-y,-z
1/2+x,1/2-y,z
loop_
_atom_site_type_symbol
_atom_site_label
_atom_site_fract_x
_atom_site_fract_y
_atom_site_fract_z
Si Si1 0.748029 0.837686 0.226273
Si Si2 0.000000 0.253118 0.000000
Si Si3 0.901027 0.900912 0.115712
Si Si4 0.133243 0.676938 0.560800
Si Si5 0.643928 0.365402 0.436969
O O1 0.781530 0.883098 0.117229
O O2 0.817748 0.739030 0.287279
O O3 0.618717 0.743893 0.441224
O O4 0.804991 0.891663 0.387537
O O5 0.069668 0.184005 0.954027
O O6 0.895657 0.315610 0.861901
O O7 0.016137 0.903476 0.296436
O O8 0.892967 0.000000 0.044361
O O9 0.247523 0.619016 0.588767
O O10 0.000000 0.636399 0.500000
#
# Coordination Sequence:
#
# PCOD9197489 Si02
#       5
#     8   4   8   8   8
#     4  10  20  35  60  85 110 152 206 237 281 335
#     4  12  23  40  57  86 120 162 192 234 281 360
#     4  12  23  38  58  89 122 151 189 243 299 343
#     4   9  14  29  55  84 111 135 191 246 276 318
#     4   9  17  33  55  83 112 143 189 249 282 323
#
# _framework density 21.743819999999999
#
# number of rings (size 3 to 8) (size 9 to 14) (size 15 to 20)
#    1.333    0.444    4.444    1.667    0.000    1.778 
#    0.000    0.556    0.000    0.667    0.000    0.000 
#    0.000    0.000    0.000    0.000    0.000    0.000 
#
# Total GULP energy -100269.387180 kJ/mol
# GULP energy per Si atom -5570.521510 kJ/mol
# Density = 2.169433 g / cm^3
# Si number density = 21.743820 Si / 1000 Ang^3
#
#
#
# Elastic Constant Matrix: (Units=GPa)
#
#
# Indices 1 2 3 4 5 6 
#
# 1 105.5987 4.1480 -2.5363 0.0000 -5.9952 0.0000
# 2 4.1480 38.9660 1.4675 0.0000 -3.2466 0.0000
# 3 -2.5363 1.4675 45.2183 0.0000 3.6067 0.0000
# 4 0.0000 0.0000 0.0000 -13.1310 0.0000 8.1323
# 5 -5.9952 -3.2466 3.6067 0.0000 32.6651 0.0000
# 6 0.0000 0.0000 0.0000 8.1323 0.0000 -25.0126
#
#
#
# Elastic Compliance Matrix: (Units=1/GPa)
#
#
# Indices 1 2 3 4 5 6 
#
# 1 0.009608 -0.000904 0.000439 0.000000 0.001625 0.000000
# 2 -0.000904 0.026013 -0.001098 0.000000 0.002541 0.000000
# 3 0.000439 -0.001098 0.022374 0.000000 -0.002499 0.000000
# 4 0.000000 0.000000 0.000000 -0.095357 0.000000 -0.031003
# 5 0.001625 0.002541 -0.002499 0.000000 0.031440 0.000000
# 6 0.000000 0.000000 0.000000 -0.031003 0.000000 -0.050060
#
#
# Mechanical properties :
#
#
# Convention : Reuss Voigt Hill
#
# Bulk Modulus (GPa) = 18.22502 21.77125 19.99814
# Shear Modulus (GPa) = -144.65213 11.35122 -66.65046
#
# Velocity S-wave (km/s) = -8.16517 2.28731 -5.54249
# Velocity P-wave (km/s) = 8.97182 4.12432 5.63398
#
# Compressibility (1/GPa) = 0.05486962
#
# Stress axis : x y z
#
# Youngs Moduli (GPa) = 104.07862 38.44284 44.69376
#
# Poissons Ratio (x) = 0.03475 -0.01960
# Poissons Ratio (y) = 0.09408 0.04905
# Poissons Ratio (z) = -0.04565 0.04219
#
# Static dielectric constant tensor:
#      x y z
#    x 1.799390 0.000000 -0.014030 
#    y 0.000000 1.861980 0.000000 
#    z -0.014030 0.000000 1.813550 
# 
# From -- ./inp_files/48080.got.cif
#   From: 2010.05.17/outbox.cif.g08.bks.cpg/sg12_25_cif.got.tgz:48080.got - 2010.06.03 13:09:07.
