data_PCOD9197254
_publ_section_title
;
Structure prediction by ZEFSAII (Michael W. Deem and Ramdas Pophale) SiO2 
 PCOD9197254
Probable space group: C 2/M
;
_chemical_formula_sum "Si O2"
_cell_formula_units_Z 42
_cell_length_a 21.761998
_cell_length_b 7.849551
_cell_length_c 14.171016
_cell_angle_alpha 90.000000
_cell_angle_beta 120.264328
_cell_angle_gamma 90.000000
_cell_volume 2090.798914
_symmetry_space_group_name_H-M "C 2/M"
_symmetry_group_IT_number 12
_symmetry_cell_setting 'monoclinic'
loop_
_space_group_symop_operation_xyz
x,y,z
-x,y,-z
-x,-y,-z
x,-y,z
1/2+x,1/2+y,z
1/2-x,1/2+y,-z
1/2-x,1/2-y,-z
1/2+x,1/2-y,z
loop_
_atom_site_type_symbol
_atom_site_label
_atom_site_fract_x
_atom_site_fract_y
_atom_site_fract_z
Si Si1 0.728413 0.699161 0.117065
Si Si2 0.500000 0.500000 0.500000
Si Si3 0.144861 0.703865 0.447782
Si Si4 0.228133 0.699016 0.328847
Si Si5 0.131979 0.195705 0.878472
Si Si6 0.979124 0.695638 0.352006
O O1 0.738480 0.500000 0.100876
O O2 0.718875 0.716123 0.220845
O O3 0.799392 0.792328 0.137052
O O4 0.662143 0.760280 0.002136
O O5 0.458745 0.346454 0.407756
O O6 0.155217 0.500000 0.459204
O O7 0.177468 0.766310 0.373724
O O8 0.192418 0.779685 0.568220
O O9 0.061630 0.736629 0.393097
O O10 0.213017 0.500000 0.304590
O O11 0.068573 0.292159 0.778253
O O12 0.109836 0.000000 0.872582
O O13 0.972828 0.500000 0.382062
#
# Coordination Sequence:
#
# PCOD9197254 Si02
#       6
#     8   2   8   8   8   8
#     4  10  21  36  58  85 115 151 195 242 293 347
#     4  12  26  40  60  94 114 160 198 234 296 366
#     4   9  21  39  56  82 115 152 191 238 292 346
#     4  10  20  35  59  84 112 149 194 239 289 347
#     4  10  21  39  58  83 117 155 195 242 291 348
#     4  11  24  41  61  86 124 155 192 243 296 347
#
# _framework density 20.088014000000001
#
# number of rings (size 3 to 8) (size 9 to 14) (size 15 to 20)
#    0.000    1.905    0.952    2.000    4.000    3.048 
#    0.000    0.952    0.000    5.714    0.000    0.000 
#    0.000    0.000    0.000    0.000    0.000    0.000 
#
# Total GULP energy -116995.182791 kJ/mol
# GULP energy per Si atom -5571.199181 kJ/mol
# Density = 2.004229 g / cm^3
# Si number density = 20.088014 Si / 1000 Ang^3
#
#
#
# Elastic Constant Matrix: (Units=GPa)
#
#
# Indices 1 2 3 4 5 6 
#
# 1 45.3929 29.1942 42.6167 0.0000 9.2268 0.0000
# 2 29.1942 68.8603 31.1448 0.0000 6.2309 0.0000
# 3 42.6167 31.1448 162.5700 0.0000 2.5297 0.0000
# 4 0.0000 0.0000 0.0000 21.5735 0.0000 4.4673
# 5 9.2268 6.2309 2.5297 0.0000 27.7422 0.0000
# 6 0.0000 0.0000 0.0000 4.4673 0.0000 10.2527
#
#
#
# Elastic Compliance Matrix: (Units=1/GPa)
#
#
# Indices 1 2 3 4 5 6 
#
# 1 0.039114 -0.012205 -0.007767 0.000000 -0.009560 0.000000
# 2 -0.012205 0.020016 -0.000629 0.000000 -0.000379 0.000000
# 3 -0.007767 -0.000629 0.008277 0.000000 0.001970 0.000000
# 4 0.000000 0.000000 0.000000 0.050950 0.000000 -0.022200
# 5 -0.009560 -0.000379 0.001970 0.000000 0.039131 0.000000
# 6 0.000000 0.000000 0.000000 -0.022200 0.000000 0.107208
#
#
# Mechanical properties :
#
#
# Convention : Reuss Voigt Hill
#
# Bulk Modulus (GPa) = 38.16063 53.63717 45.89890
# Shear Modulus (GPa) = 15.89154 23.50485 19.69819
#
# Velocity S-wave (km/s) = 2.81569 3.42437 3.13484
# Velocity P-wave (km/s) = 5.44140 6.51108 6.00012
#
# Compressibility (1/GPa) = 0.02620502
#
# Stress axis : x y z
#
# Youngs Moduli (GPa) = 25.56610 49.96117 120.81631
#
# Poissons Ratio (x) = 0.60979 0.93833
# Poissons Ratio (y) = 0.31204 0.07601
# Poissons Ratio (z) = 0.19856 0.03143
#
# Static dielectric constant tensor:
#      x y z
#    x 1.714110 0.000000 -0.012440 
#    y 0.000000 1.741810 0.000000 
#    z -0.012440 0.000000 1.730720 
# 
# From -- ./inp_files/163286.got.cif
#   From: 2010.05.17/outbox.cif.g08.bks.cpg/sg12_82_cif.got.tgz:163286.got - 2010.06.03 13:09:07.
