data_PCOD9197046
_publ_section_title
;
Structure prediction by ZEFSAII (Michael W. Deem and Ramdas Pophale) SiO2 
 PCOD9197046
Probable space group: C 2/M
;
_chemical_formula_sum "Si O2"
_cell_formula_units_Z 40
_cell_length_a 8.248370
_cell_length_b 29.200086
_cell_length_c 13.943872
_cell_angle_alpha 90.000000
_cell_angle_beta 145.667557
_cell_angle_gamma 90.000000
_cell_volume 1894.130620
_symmetry_space_group_name_H-M "C 2/M"
_symmetry_group_IT_number 12
_symmetry_cell_setting 'monoclinic'
loop_
_space_group_symop_operation_xyz
x,y,z
-x,y,-z
-x,-y,-z
x,-y,z
1/2+x,1/2+y,z
1/2-x,1/2+y,-z
1/2-x,1/2-y,-z
1/2+x,1/2-y,z
loop_
_atom_site_type_symbol
_atom_site_label
_atom_site_fract_x
_atom_site_fract_y
_atom_site_fract_z
Si Si1 0.392738 0.210318 0.634469
Si Si2 0.209358 0.947574 0.180448
Si Si3 0.308883 0.887831 0.504423
Si Si4 0.062817 0.731949 0.130401
Si Si5 0.170875 0.052488 0.811797
O O1 0.250000 0.250000 0.500000
O O2 0.309307 0.162436 0.547938
O O3 0.727063 0.225185 0.788060
O O4 0.326688 0.210093 0.716142
O O5 0.502828 0.920898 0.336822
O O6 0.026102 0.948640 0.188757
O O7 0.271873 0.000000 0.182715
O O8 0.000000 0.925859 0.000000
O O9 0.500000 0.885615 0.500000
O O10 0.998431 0.910559 0.334848
O O11 0.000000 0.704635 0.000000
O O12 0.750000 0.750000 0.000000
O O13 0.168592 0.000000 0.771480
O O14 0.500000 0.063532 0.000000
#
# Coordination Sequence:
#
# PCOD9197046 Si02
#       5
#     8   8   8   8   8
#     4  11  21  38  59  83 117 156 199 247 297 347
#     4   9  18  34  57  84 114 150 191 236 291 361
#     4  10  20  35  58  86 116 156 201 243 294 363
#     4   9  20  38  60  83 110 151 201 247 296 352
#     4   9  18  36  61  88 118 149 189 248 310 362
#
# _framework density 21.117868000000001
#
# number of rings (size 3 to 8) (size 9 to 14) (size 15 to 20)
#    0.000    2.400    0.000    2.400    0.000    4.800 
#    0.000   14.000    0.000    4.800    0.000    0.000 
#    0.000    2.400    0.000    0.000    0.000    3.400 
#
# Total GULP energy -111489.169582 kJ/mol
# GULP energy per Si atom -5574.458479 kJ/mol
# Density = 2.106980 g / cm^3
# Si number density = 21.117868 Si / 1000 Ang^3
#
#
#
# Elastic Constant Matrix: (Units=GPa)
#
#
# Indices 1 2 3 4 5 6 
#
# 1 50.9701 30.9207 45.2644 0.0000 -3.9203 0.0000
# 2 30.9207 136.7953 105.2953 0.0000 -1.1838 0.0000
# 3 45.2644 105.2953 181.4042 0.0000 -1.8643 0.0000
# 4 0.0000 0.0000 0.0000 2.9216 0.0000 -13.6657
# 5 -3.9203 -1.1838 -1.8643 0.0000 49.5564 0.0000
# 6 0.0000 0.0000 0.0000 -13.6657 0.0000 19.7884
#
#
#
# Elastic Compliance Matrix: (Units=1/GPa)
#
#
# Indices 1 2 3 4 5 6 
#
# 1 0.025543 -0.001566 -0.005446 0.000000 0.001778 0.000000
# 2 -0.001566 0.013310 -0.007336 0.000000 -0.000082 0.000000
# 3 -0.005446 -0.007336 0.011128 0.000000 -0.000187 0.000000
# 4 0.000000 0.000000 0.000000 -0.153473 0.000000 -0.105987
# 5 0.001778 -0.000082 -0.000187 0.000000 0.020311 0.000000
# 6 0.000000 0.000000 0.000000 -0.105987 0.000000 -0.022659
#
#
# Mechanical properties :
#
#
# Convention : Reuss Voigt Hill
#
# Bulk Modulus (GPa) = 46.98324 81.34780 64.16552
# Shear Modulus (GPa) = -71.37730 26.96592 -22.20569
#
# Velocity S-wave (km/s) = -5.82004 3.57728 -3.24622
# Velocity P-wave (km/s) = 4.78199 7.46104 4.04967
#
# Compressibility (1/GPa) = 0.02128419
#
# Stress axis : x y z
#
# Youngs Moduli (GPa) = 39.15012 75.13094 89.86647
#
# Poissons Ratio (x) = 0.11766 0.48943
# Poissons Ratio (y) = 0.06131 0.65925
# Poissons Ratio (z) = 0.21322 0.55115
#
# Static dielectric constant tensor:
#      x y z
#    x 1.871800 0.000000 -0.097640 
#    y 0.000000 1.726560 0.000000 
#    z -0.097640 0.000000 1.860570 
# 
# From -- ./inp_files/68465.got.cif
#   From: 2010.05.17/outbox.cif.g08.bks.cpg/sg12_35_cif.got.tgz:68465.got - 2010.06.03 13:09:07.
