data_PCOD9197890
_publ_section_title
;
Structure prediction by ZEFSAII (Michael W. Deem and Ramdas Pophale) SiO2 
 PCOD9197890
Probable space group: C 2/M
;
_chemical_formula_sum "Si O2"
_cell_formula_units_Z 56
_cell_length_a 13.991477
_cell_length_b 26.506647
_cell_length_c 13.542349
_cell_angle_alpha 90.000000
_cell_angle_beta 146.986805
_cell_angle_gamma 90.000000
_cell_volume 2736.371740
_symmetry_space_group_name_H-M "C 2/M"
_symmetry_group_IT_number 12
_symmetry_cell_setting 'monoclinic'
loop_
_space_group_symop_operation_xyz
x,y,z
-x,y,-z
-x,-y,-z
x,-y,z
1/2+x,1/2+y,z
1/2-x,1/2+y,-z
1/2-x,1/2-y,-z
1/2+x,1/2-y,z
loop_
_atom_site_type_symbol
_atom_site_label
_atom_site_fract_x
_atom_site_fract_y
_atom_site_fract_z
Si Si1 0.667522 0.748979 0.207591
Si Si2 0.939968 0.155280 0.745642
Si Si3 0.883534 0.760991 0.205655
Si Si4 0.386698 0.556765 0.137547
Si Si5 0.364085 0.557210 0.457300
Si Si6 0.135471 0.319355 0.349392
Si Si7 0.022862 0.599358 0.902362
O O1 0.603377 0.697765 0.208258
O O2 0.810130 0.744164 0.246517
O O3 0.725960 0.792229 0.334438
O O4 0.500000 0.767699 0.000000
O O5 0.757277 0.149313 0.528417
O O6 0.061201 0.181650 0.766644
O O7 0.040419 0.104216 0.863668
O O8 0.053825 0.727140 0.336643
O O9 0.750000 0.750000 0.000000
O O10 0.381310 0.500000 0.088876
O O11 0.530908 0.555847 0.349772
O O12 0.195899 0.568463 0.021005
O O13 0.500000 0.583885 0.500000
O O14 0.338704 0.500000 0.397823
O O15 0.168074 0.577542 0.292758
O O16 0.977189 0.350340 0.163393
O O17 0.000000 0.606529 0.000000
#
# Coordination Sequence:
#
# PCOD9197890 Si02
#       7
#     8   8   8   8   8   8   8
#     4  11  22  39  64  93 126 167 207 258 319 385
#     4  11  24  41  62  93 130 168 214 264 319 381
#     4  11  21  39  63  91 127 161 206 258 315 389
#     4  11  24  41  61  87 124 170 220 273 319 370
#     4  10  20  36  54  81 117 159 214 264 314 373
#     4  11  24  38  57  97 128 166 212 255 320 394
#     4  12  23  35  59  87 124 169 214 257 324 382
#
# _framework density 20.465056000000001
#
# number of rings (size 3 to 8) (size 9 to 14) (size 15 to 20)
#    0.000    1.000    5.714    3.429    2.000    2.857 
#    0.000    0.000    0.000    0.429    0.000    1.000 
#    0.000    0.000    0.000    0.000    0.000    0.000 
#
# Total GULP energy -156062.027489 kJ/mol
# GULP energy per Si atom -5573.643839 kJ/mol
# Density = 2.041848 g / cm^3
# Si number density = 20.465056 Si / 1000 Ang^3
#
#
#
# Elastic Constant Matrix: (Units=GPa)
#
#
# Indices 1 2 3 4 5 6 
#
# 1 86.7285 19.6031 10.0497 0.0000 8.4576 0.0000
# 2 19.6031 93.8587 12.1988 0.0000 10.8323 0.0000
# 3 10.0497 12.1988 95.9440 0.0000 14.4446 0.0000
# 4 0.0000 0.0000 0.0000 -0.5821 0.0000 3.0205
# 5 8.4576 10.8323 14.4446 0.0000 23.9445 0.0000
# 6 0.0000 0.0000 0.0000 3.0205 0.0000 16.8504
#
#
#
# Elastic Compliance Matrix: (Units=1/GPa)
#
#
# Indices 1 2 3 4 5 6 
#
# 1 0.012382 -0.002160 -0.000562 0.000000 -0.003057 0.000000
# 2 -0.002160 0.011665 -0.000635 0.000000 -0.004131 0.000000
# 3 -0.000562 -0.000635 0.011537 0.000000 -0.006474 0.000000
# 4 0.000000 0.000000 0.000000 -0.890056 0.000000 0.159546
# 5 -0.003057 -0.004131 -0.006474 0.000000 0.048618 0.000000
# 6 0.000000 0.000000 0.000000 0.159546 0.000000 0.030747
#
#
# Mechanical properties :
#
#
# Convention : Reuss Voigt Hill
#
# Bulk Modulus (GPa) = 34.63877 40.02604 37.33240
# Shear Modulus (GPa) = -6.58960 23.68786 8.54913
#
# Velocity S-wave (km/s) = -1.79636 3.40586 2.04609
# Velocity P-wave (km/s) = 3.55809 5.92176 4.88504
#
# Compressibility (1/GPa) = 0.02886939
#
# Stress axis : x y z
#
# Youngs Moduli (GPa) = 80.76408 85.72830 86.67749
#
# Poissons Ratio (x) = 0.18519 0.04871
# Poissons Ratio (y) = 0.17446 0.05503
# Poissons Ratio (z) = 0.04539 0.05443
#
# Static dielectric constant tensor:
#      x y z
#    x 1.868660 0.000000 0.045650 
#    y 0.000000 1.901560 0.000000 
#    z 0.045650 0.000000 1.786980 
# 
# From -- ./inp_files/219124.got.cif
#   From: 2010.05.17/outbox.cif.g08.bks.cpg/sg12_110_cif.got.tgz:219124.got - 2010.06.03 13:09:07.
