data_PCOD9197767
_publ_section_title
;
Structure prediction by ZEFSAII (Michael W. Deem and Ramdas Pophale) SiO2 
 PCOD9197767
Probable space group: C 2/M
;
_chemical_formula_sum "Si O2"
_cell_formula_units_Z 48
_cell_length_a 15.224886
_cell_length_b 11.468262
_cell_length_c 18.890573
_cell_angle_alpha 90.000000
_cell_angle_beta 131.101111
_cell_angle_gamma 90.000000
_cell_volume 2485.474049
_symmetry_space_group_name_H-M "C 2/M"
_symmetry_group_IT_number 12
_symmetry_cell_setting 'monoclinic'
loop_
_space_group_symop_operation_xyz
x,y,z
-x,y,-z
-x,-y,-z
x,-y,z
1/2+x,1/2+y,z
1/2-x,1/2+y,-z
1/2-x,1/2-y,-z
1/2+x,1/2-y,z
loop_
_atom_site_type_symbol
_atom_site_label
_atom_site_fract_x
_atom_site_fract_y
_atom_site_fract_z
Si Si1 0.814521 0.363666 0.068832
Si Si2 0.416743 0.862821 0.276725
Si Si3 0.440795 0.500000 0.583456
Si Si4 0.260448 0.750489 0.712880
Si Si5 0.819529 0.000000 0.375222
Si Si6 0.148374 0.777886 0.389027
Si Si7 0.450633 0.133612 0.896529
O O1 0.767040 0.500000 0.035375
O O2 0.839984 0.341582 0.165261
O O3 0.940907 0.367735 0.099097
O O4 0.750000 0.250000 0.000000
O O5 0.353511 0.799754 0.309253
O O6 0.549445 0.821931 0.333436
O O7 0.416572 0.000000 0.290203
O O8 0.343558 0.500000 0.471013
O O9 0.560922 0.500000 0.605261
O O10 0.424035 0.387074 0.621057
O O11 0.298951 0.691148 0.660005
O O12 0.361980 0.767348 0.824110
O O13 0.242735 0.882392 0.677789
O O14 0.250000 0.750000 0.500000
O O15 0.401437 0.000000 0.873133
O O16 0.500000 0.158832 0.000000
#
# Coordination Sequence:
#
# PCOD9197767 Si02
#       7
#     8   8   4   8   4   8   8
#     4  10  21  42  66  95 133 176 219 276 335 398
#     4  11  26  45  64  95 138 177 216 269 340 399
#     4  11  24  44  60  96 128 162 225 281 322 388
#     4  12  23  42  67  95 128 173 219 267 328 391
#     4  11  22  40  69  89 126 167 217 276 329 371
#     4  12  26  42  68  94 129 175 224 271 331 394
#     4  10  20  35  63  97 125 161 215 267 320 386
#
# _framework density 19.312211000000001
#
# number of rings (size 3 to 8) (size 9 to 14) (size 15 to 20)
#    0.000    1.000    5.833    1.000    3.500    0.667 
#    3.000    1.667    0.000    3.000    0.000    0.000 
#    0.000    0.000    0.000    0.000    0.000    0.000 
#
# Total GULP energy -133851.866725 kJ/mol
# GULP energy per Si atom -5577.161114 kJ/mol
# Density = 1.926826 g / cm^3
# Si number density = 19.312211 Si / 1000 Ang^3
#
#
#
# Elastic Constant Matrix: (Units=GPa)
#
#
# Indices 1 2 3 4 5 6 
#
# 1 105.8407 4.3152 12.7537 0.0000 -16.8418 0.0000
# 2 4.3152 70.7095 14.2018 0.0000 -0.4148 0.0000
# 3 12.7537 14.2018 70.0197 0.0000 -7.1406 0.0000
# 4 0.0000 0.0000 0.0000 -24.1241 0.0000 -0.9042
# 5 -16.8418 -0.4148 -7.1406 0.0000 30.9526 0.0000
# 6 0.0000 0.0000 0.0000 -0.9042 0.0000 19.9696
#
#
#
# Elastic Compliance Matrix: (Units=1/GPa)
#
#
# Indices 1 2 3 4 5 6 
#
# 1 0.010477 -0.000349 -0.001287 0.000000 0.005399 0.000000
# 2 -0.000349 0.014762 -0.003000 0.000000 -0.000684 0.000000
# 3 -0.001287 -0.003000 0.015412 0.000000 0.002815 0.000000
# 4 0.000000 0.000000 0.000000 -0.041382 0.000000 -0.001874
# 5 0.005399 -0.000684 0.002815 0.000000 0.035885 0.000000
# 6 0.000000 0.000000 0.000000 -0.001874 0.000000 0.049991
#
#
# Mechanical properties :
#
#
# Convention : Reuss Voigt Hill
#
# Bulk Modulus (GPa) = 31.86971 34.34568 33.10769
# Shear Modulus (GPa) = 47.67482 19.71290 33.69386
#
# Velocity S-wave (km/s) = 4.97393 3.19838 4.18148
# Velocity P-wave (km/s) = 7.03739 5.60915 6.36346
#
# Compressibility (1/GPa) = 0.03137776
#
# Stress axis : x y z
#
# Youngs Moduli (GPa) = 95.45112 67.74019 64.88574
#
# Poissons Ratio (x) = 0.02366 0.08350
# Poissons Ratio (y) = 0.03333 0.19468
# Poissons Ratio (z) = 0.12283 0.20324
#
# Static dielectric constant tensor:
#      x y z
#    x 1.694790 0.000000 0.010080 
#    y 0.000000 1.683470 0.000000 
#    z 0.010080 0.000000 1.740760 
# 
# From -- ./inp_files/212680.got.cif
#   From: 2010.05.17/outbox.cif.g08.bks.cpg/sg12_107_cif.got.tgz:212680.got - 2010.06.03 13:09:07.
