data_PCOD9197220
_publ_section_title
;
Structure prediction by ZEFSAII (Michael W. Deem and Ramdas Pophale) SiO2 
 PCOD9197220
Probable space group: C 2/M
;
_chemical_formula_sum "Si O2"
_cell_formula_units_Z 58
_cell_length_a 19.631243
_cell_length_b 23.243312
_cell_length_c 8.965167
_cell_angle_alpha 90.000000
_cell_angle_beta 40.653522
_cell_angle_gamma 90.000000
_cell_volume 2665.062586
_symmetry_space_group_name_H-M "C 2/M"
_symmetry_group_IT_number 12
_symmetry_cell_setting 'monoclinic'
loop_
_space_group_symop_operation_xyz
x,y,z
-x,y,-z
-x,-y,-z
x,-y,z
1/2+x,1/2+y,z
1/2-x,1/2+y,-z
1/2-x,1/2-y,-z
1/2+x,1/2-y,z
loop_
_atom_site_type_symbol
_atom_site_label
_atom_site_fract_x
_atom_site_fract_y
_atom_site_fract_z
Si Si1 0.519836 0.277655 0.796286
Si Si2 0.821960 0.832672 0.056788
Si Si3 0.405899 0.182097 0.537408
Si Si4 0.000000 0.000000 0.000000
Si Si5 0.011398 0.435463 0.661441
Si Si6 0.353643 0.612157 0.327484
Si Si7 0.116774 0.061627 0.244287
Si Si8 0.702989 0.935374 0.806476
O O1 0.586891 0.232358 0.594917
O O2 0.571577 0.341236 0.714130
O O3 0.500000 0.260174 0.000000
O O4 0.407273 0.282937 0.905611
O O5 0.706822 0.815382 0.200627
O O6 0.825491 0.856288 0.220080
O O7 0.859746 0.885770 0.897733
O O8 0.500000 0.186438 0.500000
O O9 0.415510 0.119613 0.441885
O O10 0.916958 0.947660 0.194728
O O11 0.045230 0.500000 0.653032
O O12 0.000000 0.439099 0.500000
O O13 0.902249 0.421238 0.926672
O O14 0.249049 0.602427 0.597367
O O15 0.201534 0.062384 0.234380
O O16 0.000000 0.064702 0.500000
O O17 0.126043 0.000000 0.145870
O O18 0.685886 0.000000 0.776711
#
# Coordination Sequence:
#
# PCOD9197220 Si02
#       8
#     8   8   8   2   8   8   8   8
#     4  10  24  44  63  93 131 172 216 273 331 395
#     4  11  24  42  63  95 127 175 222 273 338 396
#     4  11  25  43  67  93 125 175 225 272 335 397
#     4  12  20  40  72 102 142 176 210 274 340 408
#     4   9  19  39  62  86 121 162 210 268 320 375
#     4  11  23  39  69 100 138 172 214 274 333 404
#     4  10  21  32  56  93 133 167 208 267 336 402
#     4  10  20  35  58  92 127 168 213 262 326 390
#
# _framework density 21.763090999999999
#
# number of rings (size 3 to 8) (size 9 to 14) (size 15 to 20)
#    0.000    1.655    2.759    2.483    0.966    8.276 
#    0.000    0.000    0.000    2.069    0.000    0.000 
#    0.000    0.000    0.000    0.000    0.000    0.000 
#
# Total GULP energy -161726.503646 kJ/mol
# GULP energy per Si atom -5576.775988 kJ/mol
# Density = 2.171356 g / cm^3
# Si number density = 21.763091 Si / 1000 Ang^3
#
#
#
# Elastic Constant Matrix: (Units=GPa)
#
#
# Indices 1 2 3 4 5 6 
#
# 1 39.6009 15.1883 -3.7260 0.0000 -12.5431 0.0000
# 2 15.1883 88.8269 17.3770 0.0000 -0.1952 0.0000
# 3 -3.7260 17.3770 85.0989 0.0000 -1.2240 0.0000
# 4 0.0000 0.0000 0.0000 33.4541 0.0000 2.9305
# 5 -12.5431 -0.1952 -1.2240 0.0000 27.2549 0.0000
# 6 0.0000 0.0000 0.0000 2.9305 0.0000 6.1005
#
#
#
# Elastic Compliance Matrix: (Units=1/GPa)
#
#
# Indices 1 2 3 4 5 6 
#
# 1 0.032659 -0.006118 0.002897 0.000000 0.015116 0.000000
# 2 -0.006118 0.012872 -0.002937 0.000000 -0.002855 0.000000
# 3 0.002897 -0.002937 0.012505 0.000000 0.001874 0.000000
# 4 0.000000 0.000000 0.000000 0.031205 0.000000 -0.014990
# 5 0.015116 -0.002855 0.001874 0.000000 0.043711 0.000000
# 6 0.000000 0.000000 0.000000 -0.014990 0.000000 0.171121
#
#
# Mechanical properties :
#
#
# Convention : Reuss Voigt Hill
#
# Bulk Modulus (GPa) = 21.87294 30.13392 26.00343
# Shear Modulus (GPa) = 15.07709 25.67441 20.37575
#
# Velocity S-wave (km/s) = 2.63493 3.43844 3.06314
# Velocity P-wave (km/s) = 4.39653 5.44428 4.94821
#
# Compressibility (1/GPa) = 0.04571858
#
# Stress axis : x y z
#
# Youngs Moduli (GPa) = 30.61973 77.68647 79.97046
#
# Poissons Ratio (x) = 0.47526 -0.23164
# Poissons Ratio (y) = 0.18732 0.23491
# Poissons Ratio (z) = -0.08869 0.22820
#
# Static dielectric constant tensor:
#      x y z
#    x 1.886590 0.000000 0.019880 
#    y 0.000000 1.780230 0.000000 
#    z 0.019880 0.000000 1.825790 
# 
# From -- ./inp_files/90798.got.cif
#   From: 2010.05.17/outbox.cif.g08.bks.cpg/sg12_46_cif.got.tgz:90798.got - 2010.06.03 13:09:07.
