data_PCOD9197826
_publ_section_title
;
Structure prediction by ZEFSAII (Michael W. Deem and Ramdas Pophale) SiO2 
 PCOD9197826
Probable space group: C 2/M
;
_chemical_formula_sum "Si O2"
_cell_formula_units_Z 64
_cell_length_a 22.441700
_cell_length_b 14.680493
_cell_length_c 13.642446
_cell_angle_alpha 90.000000
_cell_angle_beta 43.979104
_cell_angle_gamma 90.000000
_cell_volume 3121.014835
_symmetry_space_group_name_H-M "C 2/M"
_symmetry_group_IT_number 12
_symmetry_cell_setting 'monoclinic'
loop_
_space_group_symop_operation_xyz
x,y,z
-x,y,-z
-x,-y,-z
x,-y,z
1/2+x,1/2+y,z
1/2-x,1/2+y,-z
1/2-x,1/2-y,-z
1/2+x,1/2-y,z
loop_
_atom_site_type_symbol
_atom_site_label
_atom_site_fract_x
_atom_site_fract_y
_atom_site_fract_z
Si Si1 0.189546 0.327129 0.120618
Si Si2 0.963424 0.716746 0.154355
Si Si3 0.924830 0.164410 0.712058
Si Si4 0.957121 0.100892 0.881127
Si Si5 0.286368 0.205095 0.282172
Si Si6 0.215479 0.102909 0.799313
Si Si7 0.876456 0.602903 0.996030
Si Si8 0.616834 0.605987 0.447567
O O1 0.231169 0.373900 0.165315
O O2 0.166386 0.393078 0.059347
O O3 0.106552 0.267989 0.249632
O O4 0.250000 0.250000 0.000000
O O5 0.864209 0.690057 0.265323
O O6 0.977902 0.816185 0.182813
O O7 0.028292 0.645199 0.126305
O O8 0.000000 0.722100 0.000000
O O9 0.026643 0.153366 0.578137
O O10 0.908303 0.117368 0.836034
O O11 0.877355 0.116317 0.677571
O O12 0.995605 0.000000 0.836678
O O13 0.884733 0.106599 0.050433
O O14 0.269978 0.312777 0.290194
O O15 0.197897 0.152650 0.401915
O O16 0.324045 0.167004 0.133467
O O17 0.234356 0.000000 0.743678
O O18 0.878726 0.500000 0.032015
O O19 0.610756 0.500000 0.479612
#
# Coordination Sequence:
#
# PCOD9197826 Si02
#       8
#     8   8   8   8   8   8   8   8
#     4  12  18  35  56  82 113 142 174 223 287 338
#     4  10  20  36  52  81 114 145 190 226 277 333
#     4  11  20  37  60  81 117 142 178 228 281 334
#     4  11  20  34  58  84 115 146 177 232 286 332
#     4  11  21  37  54  79 114 152 186 229 275 325
#     4  11  21  33  55  86 114 143 180 227 285 343
#     4  11  21  34  55  82 113 148 183 226 283 341
#     4  11  23  37  57  87 114 146 187 229 277 331
#
# _framework density 20.506150999999999
#
# number of rings (size 3 to 8) (size 9 to 14) (size 15 to 20)
#    0.000    1.000    7.500    2.250    0.000    3.500 
#    0.000    0.625    0.000    2.250    0.000    0.000 
#    0.000    0.000    0.000    0.000    0.000    0.000 
#
# Total GULP energy -178756.811750 kJ/mol
# GULP energy per Si atom -5586.150367 kJ/mol
# Density = 2.045948 g / cm^3
# Si number density = 20.506151 Si / 1000 Ang^3
#
#
#
# Elastic Constant Matrix: (Units=GPa)
#
#
# Indices 1 2 3 4 5 6 
#
# 1 65.2562 15.1792 7.9246 0.0000 -29.4685 0.0000
# 2 15.1792 102.8243 23.3318 0.0000 -28.9639 0.0000
# 3 7.9246 23.3318 31.6219 0.0000 -22.0799 0.0000
# 4 0.0000 0.0000 0.0000 6.8069 0.0000 0.6158
# 5 -29.4685 -28.9639 -22.0799 0.0000 31.2429 0.0000
# 6 0.0000 0.0000 0.0000 0.6158 0.0000 -8.4523
#
#
#
# Elastic Compliance Matrix: (Units=1/GPa)
#
#
# Indices 1 2 3 4 5 6 
#
# 1 0.038777 0.005053 0.030330 0.000000 0.062695 0.000000
# 2 0.005053 0.013910 0.001584 0.000000 0.018782 0.000000
# 3 0.030330 0.001584 0.086577 0.000000 0.091262 0.000000
# 4 0.000000 0.000000 0.000000 0.145949 0.000000 0.010634
# 5 0.062695 0.018782 0.091262 0.000000 0.173051 0.000000
# 6 0.000000 0.000000 0.000000 0.010634 0.000000 -0.117537
#
#
# Mechanical properties :
#
#
# Convention : Reuss Voigt Hill
#
# Bulk Modulus (GPa) = 4.69040 32.50821 18.59931
# Shear Modulus (GPa) = 14.79908 16.13727 15.46818
#
# Velocity S-wave (km/s) = 2.68934 2.80830 2.74947
# Velocity P-wave (km/s) = 3.45481 5.13836 4.37827
#
# Compressibility (1/GPa) = 0.21320133
#
# Stress axis : x y z
#
# Youngs Moduli (GPa) = 25.78821 71.88892 11.55035
#
# Poissons Ratio (x) = -0.36329 -0.35032
# Poissons Ratio (y) = -0.13032 -0.01830
# Poissons Ratio (z) = -0.78216 -0.11390
#
# Static dielectric constant tensor:
#      x y z
#    x 1.758980 0.000000 0.010430 
#    y 0.000000 1.724020 0.000000 
#    z 0.010430 0.000000 1.779430 
# 
# From -- ./inp_files/240695.got.cif
#   From: 2010.05.17/outbox.cif.g08.bks.cpg/sg12_121_cif.got.tgz:240695.got - 2010.06.03 13:09:07.
