data_PCOD9197817
_publ_section_title
;
Structure prediction by ZEFSAII (Michael W. Deem and Ramdas Pophale) SiO2 
 PCOD9197817
Probable space group: C 2/M
;
_chemical_formula_sum "Si O2"
_cell_formula_units_Z 52
_cell_length_a 19.742440
_cell_length_b 24.848060
_cell_length_c 6.741206
_cell_angle_alpha 90.000000
_cell_angle_beta 70.545002
_cell_angle_gamma 90.000000
_cell_volume 3118.157921
_symmetry_space_group_name_H-M "C 2/M"
_symmetry_group_IT_number 12
_symmetry_cell_setting 'monoclinic'
loop_
_space_group_symop_operation_xyz
x,y,z
-x,y,-z
-x,-y,-z
x,-y,z
1/2+x,1/2+y,z
1/2-x,1/2+y,-z
1/2-x,1/2-y,-z
1/2+x,1/2-y,z
loop_
_atom_site_type_symbol
_atom_site_label
_atom_site_fract_x
_atom_site_fract_y
_atom_site_fract_z
Si Si1 0.500000 0.756713 0.000000
Si Si2 0.304370 0.937626 0.828632
Si Si3 0.129725 0.755037 0.132028
Si Si4 0.576708 0.063850 0.997267
Si Si5 0.686553 0.885877 0.578952
Si Si6 0.066214 0.690355 0.546851
Si Si7 0.756880 0.335312 0.111382
O O1 0.567328 0.727904 0.039900
O O2 0.463927 0.790727 0.212436
O O3 0.290499 0.927897 0.610226
O O4 0.288528 0.000000 0.896835
O O5 0.387443 0.927502 0.821084
O O6 0.261458 0.890737 0.983867
O O7 0.090486 0.737703 0.373995
O O8 0.188704 0.800188 0.116103
O O9 0.173132 0.702490 0.004476
O O10 0.635777 0.085591 0.788488
O O11 0.571835 0.000000 0.980597
O O12 0.500000 0.086618 0.000000
O O13 0.636373 0.844457 0.511120
O O14 0.742281 0.852460 0.658138
O O15 0.000000 0.661766 0.500000
#
# Coordination Sequence:
#
# PCOD9197817 Si02
#       7
#     4   8   8   8   8   8   8
#     4  10  20  36  52  76 108 142 168 218 254 322
#     4  10  21  36  50  71 101 140 182 221 263 304
#     4  10  20  36  53  80 107 136 177 213 267 317
#     4   9  20  32  43  62  92 132 182 228 255 287
#     4  11  20  30  48  70  97 139 174 218 259 300
#     4  10  21  30  48  74 102 138 176 209 256 306
#     4  10  21  35  54  78 106 137 176 224 260 313
#
# _framework density 16.676513
#
# number of rings (size 3 to 8) (size 9 to 14) (size 15 to 20)
#    0.000    2.000    3.077    0.462    3.231    2.462 
#    0.000    2.308    0.000    0.000    0.000    0.538 
#    0.000    6.769    0.000    0.154    0.000    0.000 
#
# Total GULP energy -144775.629072 kJ/mol
# GULP energy per Si atom -5568.293426 kJ/mol
# Density = 1.663856 g / cm^3
# Si number density = 16.676513 Si / 1000 Ang^3
#
#
#
# Elastic Constant Matrix: (Units=GPa)
#
#
# Indices 1 2 3 4 5 6 
#
# 1 87.1979 41.8959 27.4280 0.0000 17.3454 0.0000
# 2 41.8959 79.1968 28.5245 0.0000 9.9678 0.0000
# 3 27.4280 28.5245 61.8515 0.0000 21.0828 0.0000
# 4 0.0000 0.0000 0.0000 19.1479 0.0000 0.6947
# 5 17.3454 9.9678 21.0828 0.0000 23.8958 0.0000
# 6 0.0000 0.0000 0.0000 0.6947 0.0000 16.5622
#
#
#
# Elastic Compliance Matrix: (Units=1/GPa)
#
#
# Indices 1 2 3 4 5 6 
#
# 1 0.017135 -0.007558 -0.001356 0.000000 -0.008089 0.000000
# 2 -0.007558 0.018477 -0.006310 0.000000 0.003346 0.000000
# 3 -0.001356 -0.006310 0.026380 0.000000 -0.019658 0.000000
# 4 0.000000 0.000000 0.000000 0.052305 0.000000 -0.002194
# 5 -0.008089 0.003346 -0.019658 0.000000 0.063668 0.000000
# 6 0.000000 0.000000 0.000000 -0.002194 0.000000 0.060470
#
#
# Mechanical properties :
#
#
# Convention : Reuss Voigt Hill
#
# Bulk Modulus (GPa) = 31.70185 47.10476 39.40330
# Shear Modulus (GPa) = 17.89569 20.61437 19.25503
#
# Velocity S-wave (km/s) = 3.27939 3.51968 3.40166
# Velocity P-wave (km/s) = 5.77843 6.69515 6.25361
#
# Compressibility (1/GPa) = 0.03154390
#
# Stress axis : x y z
#
# Youngs Moduli (GPa) = 58.35934 54.12220 37.90815
#
# Poissons Ratio (x) = 0.40907 0.05139
# Poissons Ratio (y) = 0.44110 0.23920
# Poissons Ratio (z) = 0.07911 0.34150
#
# Static dielectric constant tensor:
#      x y z
#    x 1.588850 0.000000 0.031790 
#    y 0.000000 1.560590 0.000000 
#    z 0.031790 0.000000 1.613460 
# 
# From -- ./inp_files/21586.got.cif
#   From: 2010.05.17/outbox.cif.g08.bks.cpg/sg12_11_cif.got.tgz:21586.got - 2010.06.03 13:09:07.
