data_PCOD9197328
_publ_section_title
;
Structure prediction by ZEFSAII (Michael W. Deem and Ramdas Pophale) SiO2 
 PCOD9197328
Probable space group: C 2/M
;
_chemical_formula_sum "Si O2"
_cell_formula_units_Z 48
_cell_length_a 11.615818
_cell_length_b 16.579857
_cell_length_c 14.833840
_cell_angle_alpha 90.000000
_cell_angle_beta 46.957764
_cell_angle_gamma 90.000000
_cell_volume 2087.915288
_symmetry_space_group_name_H-M "C 2/M"
_symmetry_group_IT_number 12
_symmetry_cell_setting 'monoclinic'
loop_
_space_group_symop_operation_xyz
x,y,z
-x,y,-z
-x,-y,-z
x,-y,z
1/2+x,1/2+y,z
1/2-x,1/2+y,-z
1/2-x,1/2-y,-z
1/2+x,1/2-y,z
loop_
_atom_site_type_symbol
_atom_site_label
_atom_site_fract_x
_atom_site_fract_y
_atom_site_fract_z
Si Si1 0.805869 0.409828 0.968844
Si Si2 0.844806 0.859498 0.130309
Si Si3 0.509200 0.817134 0.392535
Si Si4 0.548086 0.365330 0.384523
Si Si5 0.107961 0.327407 0.731907
Si Si6 0.507936 0.357956 0.212220
O O1 0.813831 0.500000 0.001795
O O2 0.723086 0.411281 0.914838
O O3 0.973250 0.371365 0.860700
O O4 0.692429 0.354449 0.089297
O O5 0.685867 0.818246 0.254992
O O6 0.919199 0.901573 0.178110
O O7 0.000000 0.816440 0.000000
O O8 0.500000 0.851614 0.500000
O O9 0.464317 0.723210 0.428482
O O10 0.403271 0.853435 0.368188
O O11 0.500000 0.410544 0.500000
O O12 0.731086 0.347238 0.304188
O O13 0.502184 0.398304 0.312335
O O14 0.064620 0.232160 0.751607
#
# Coordination Sequence:
#
# PCOD9197328 Si02
#       6
#     8   8   8   8   8   8
#     4  10  22  40  61  85 115 155 199 245 294 346
#     4   9  18  33  55  84 116 149 187 243 294 338
#     4   9  18  30  53  83 118 156 190 239 294 346
#     4  10  21  33  54  89 117 153 196 238 295 348
#     4  10  20  36  56  87 124 152 191 246 290 347
#     4  10  20  35  59  87 119 153 192 239 295 355
#
# _framework density 22.989438
#
# number of rings (size 3 to 8) (size 9 to 14) (size 15 to 20)
#    0.000    2.333    1.667    0.500    2.333    7.000 
#    0.000    1.667    0.000   10.000    0.000    0.000 
#    0.000    0.000    0.000    0.000    0.000    0.000 
#
# Total GULP energy -133632.150753 kJ/mol
# GULP energy per Si atom -5568.006281 kJ/mol
# Density = 2.293711 g / cm^3
# Si number density = 22.989438 Si / 1000 Ang^3
#
#
#
# Elastic Constant Matrix: (Units=GPa)
#
#
# Indices 1 2 3 4 5 6 
#
# 1 98.8304 -2.8181 29.8859 0.0002 10.7523 0.0000
# 2 -2.8181 38.0464 8.6827 0.0002 -7.9933 -0.0001
# 3 29.8859 8.6827 90.7645 0.0007 15.2767 -0.0003
# 4 0.0002 0.0002 0.0007 -32.1060 -0.0004 4.2065
# 5 10.7523 -7.9933 15.2767 -0.0004 42.9760 0.0001
# 6 0.0000 -0.0001 -0.0003 4.2065 0.0001 -2.9366
#
#
#
# Elastic Compliance Matrix: (Units=1/GPa)
#
#
# Indices 1 2 3 4 5 6 
#
# 1 0.011410 0.001414 -0.003676 0.000000 -0.001285 0.000000
# 2 0.001414 0.028744 -0.004314 0.000000 0.006526 0.000000
# 3 -0.003676 -0.004314 0.013424 0.000000 -0.004654 -0.000001
# 4 0.000000 0.000000 0.000000 -0.038343 0.000000 -0.054924
# 5 -0.001285 0.006526 -0.004654 0.000000 0.026459 0.000001
# 6 0.000000 0.000000 -0.000001 -0.054924 0.000001 -0.419202
#
#
# Mechanical properties :
#
#
# Convention : Reuss Voigt Hill
#
# Bulk Modulus (GPa) = 24.73608 33.23804 28.98706
# Shear Modulus (GPa) = -14.24980 14.37939 0.06480
#
# Velocity S-wave (km/s) = -2.49236 2.50367 0.16807
# Velocity P-wave (km/s) = 1.58134 4.77987 3.56004
#
# Compressibility (1/GPa) = 0.04042677
#
# Stress axis : x y z
#
# Youngs Moduli (GPa) = 87.64191 34.79002 74.49370
#
# Poissons Ratio (x) = -0.04920 0.27384
# Poissons Ratio (y) = -0.12393 0.32134
# Poissons Ratio (z) = 0.32217 0.15007
#
# Static dielectric constant tensor:
#      x y z
#    x 1.906880 0.000000 0.030950 
#    y 0.000000 1.844830 0.000000 
#    z 0.030950 0.000000 1.972340 
# 
# From -- ./inp_files/207927.got.cif
#   From: 2010.05.17/outbox.cif.g08.bks.cpg/sg12_104_cif.got.tgz:207927.got - 2010.06.03 13:09:07.
