data_PCOD9197143
_publ_section_title
;
Structure prediction by ZEFSAII (Michael W. Deem and Ramdas Pophale) SiO2 
 PCOD9197143
Probable space group: C 2/M
;
_chemical_formula_sum "Si O2"
_cell_formula_units_Z 48
_cell_length_a 15.484594
_cell_length_b 8.589936
_cell_length_c 30.307313
_cell_angle_alpha 90.000000
_cell_angle_beta 40.017379
_cell_angle_gamma 90.000000
_cell_volume 2592.158921
_symmetry_space_group_name_H-M "C 2/M"
_symmetry_group_IT_number 12
_symmetry_cell_setting 'monoclinic'
loop_
_space_group_symop_operation_xyz
x,y,z
-x,y,-z
-x,-y,-z
x,-y,z
1/2+x,1/2+y,z
1/2-x,1/2+y,-z
1/2-x,1/2-y,-z
1/2+x,1/2-y,z
loop_
_atom_site_type_symbol
_atom_site_label
_atom_site_fract_x
_atom_site_fract_y
_atom_site_fract_z
Si Si1 0.834624 0.188224 0.425537
Si Si2 0.363736 0.312229 0.673179
Si Si3 0.357682 0.187893 0.577280
Si Si4 0.333583 0.686032 0.925554
Si Si5 0.146504 0.813216 0.922647
Si Si6 0.127125 0.312556 0.831563
O O1 0.750000 0.250000 0.500000
O O2 0.760263 0.236758 0.409810
O O3 0.988557 0.240490 0.368944
O O4 0.832044 0.000000 0.428069
O O5 0.364412 0.500000 0.672655
O O6 0.342171 0.254251 0.632032
O O7 0.246201 0.262061 0.752173
O O8 0.500000 0.236064 0.500000
O O9 0.358422 0.000000 0.579628
O O10 0.334174 0.500000 0.927035
O O11 0.259315 0.743408 0.910521
O O12 0.484505 0.748807 0.870718
O O13 0.250000 0.750000 0.000000
O O14 0.153409 0.749042 0.870509
O O15 0.157595 0.000000 0.917991
O O16 0.000000 0.772720 0.000000
O O17 0.122041 0.500000 0.834555
#
# Coordination Sequence:
#
# PCOD9197143 Si02
#       6
#     8   8   8   8   8   8
#     4  10  20  36  58  85 117 153 198 245 294 352
#     4  10  23  40  59  87 122 158 197 247 303 358
#     4  10  20  35  58  88 119 155 201 248 297 356
#     4  12  24  40  65  94 123 161 206 254 308 365
#     4  11  23  40  65  95 125 160 206 253 304 366
#     4  11  24  42  62  90 128 164 206 256 309 367
#
# _framework density 18.517382999999999
#
# number of rings (size 3 to 8) (size 9 to 14) (size 15 to 20)
#    0.000    1.333    3.333    2.500    0.000    4.333 
#    0.000    1.667    0.000    0.000    0.000    0.000 
#    0.000    0.000    0.000    0.000    0.000    0.000 
#
# Total GULP energy -134161.837103 kJ/mol
# GULP energy per Si atom -5590.076546 kJ/mol
# Density = 1.847524 g / cm^3
# Si number density = 18.517383 Si / 1000 Ang^3
#
#
#
# Elastic Constant Matrix: (Units=GPa)
#
#
# Indices 1 2 3 4 5 6 
#
# 1 220.9914 46.7532 122.5481 -0.0001 0.4855 -0.0001
# 2 46.7532 48.7103 48.3044 -0.0003 -0.8202 0.0006
# 3 122.5481 48.3044 198.3197 0.0000 -0.6236 0.0001
# 4 -0.0001 -0.0003 0.0000 25.4506 0.0000 6.9337
# 5 0.4855 -0.8202 -0.6236 0.0000 34.5548 0.0000
# 6 -0.0001 0.0006 0.0001 6.9337 0.0000 34.1242
#
#
#
# Elastic Compliance Matrix: (Units=1/GPa)
#
#
# Indices 1 2 3 4 5 6 
#
# 1 0.007273 -0.003332 -0.003683 0.000000 -0.000248 0.000000
# 2 -0.003332 0.028604 -0.004906 0.000000 0.000637 -0.000001
# 3 -0.003683 -0.004906 0.008514 0.000000 0.000089 0.000000
# 4 0.000000 0.000000 0.000000 0.041594 0.000000 -0.008451
# 5 -0.000248 0.000637 0.000089 0.000000 0.028960 0.000000
# 6 0.000000 -0.000001 0.000000 -0.008451 0.000000 0.031022
#
#
# Mechanical properties :
#
#
# Convention : Reuss Voigt Hill
#
# Bulk Modulus (GPa) = 48.66817 100.35921 74.51369
# Shear Modulus (GPa) = 28.30313 35.52030 31.91172
#
# Velocity S-wave (km/s) = 3.91380 4.38449 4.15581
# Velocity P-wave (km/s) = 6.83836 8.94129 7.95958
#
# Compressibility (1/GPa) = 0.02054731
#
# Stress axis : x y z
#
# Youngs Moduli (GPa) = 137.49012 34.96056 117.45812
#
# Poissons Ratio (x) = 0.11650 0.43266
# Poissons Ratio (y) = 0.45817 0.57622
# Poissons Ratio (z) = 0.50644 0.17151
#
# Static dielectric constant tensor:
#      x y z
#    x 1.616400 0.000000 -0.015890 
#    y 0.000000 1.631400 0.000000 
#    z -0.015890 0.000000 1.606740 
# 
# From -- ./inp_files/308606.got.cif
#   From: 2010.05.17/outbox.cif.g08.bks.cpg/sg12_155_cif.got.tgz:308606.got - 2010.06.03 13:09:07.
