data_PCOD9197684
_publ_section_title
;
Structure prediction by ZEFSAII (Michael W. Deem and Ramdas Pophale) SiO2 
 PCOD9197684
Probable space group: C 2/M
;
_chemical_formula_sum "Si O2"
_cell_formula_units_Z 48
_cell_length_a 20.797007
_cell_length_b 13.346359
_cell_length_c 9.519440
_cell_angle_alpha 90.000000
_cell_angle_beta 116.446377
_cell_angle_gamma 90.000000
_cell_volume 2365.748856
_symmetry_space_group_name_H-M "C 2/M"
_symmetry_group_IT_number 12
_symmetry_cell_setting 'monoclinic'
loop_
_space_group_symop_operation_xyz
x,y,z
-x,y,-z
-x,-y,-z
x,-y,z
1/2+x,1/2+y,z
1/2-x,1/2+y,-z
1/2-x,1/2-y,-z
1/2+x,1/2-y,z
loop_
_atom_site_type_symbol
_atom_site_label
_atom_site_fract_x
_atom_site_fract_y
_atom_site_fract_z
Si Si1 0.954709 0.114542 0.086865
Si Si2 0.084923 0.288556 0.595492
Si Si3 0.666056 0.761185 0.956609
Si Si4 0.094148 0.881978 0.394235
Si Si5 0.683729 0.764652 0.274209
Si Si6 0.702862 0.112477 0.560329
O O1 0.878585 0.160489 0.050842
O O2 0.009931 0.119819 0.270458
O O3 0.941834 0.000000 0.034213
O O4 0.000000 0.160708 0.000000
O O5 0.119777 0.303857 0.782291
O O6 0.104879 0.178847 0.549150
O O7 0.121965 0.369700 0.530414
O O8 0.000000 0.297760 0.500000
O O9 0.750000 0.750000 0.000000
O O10 0.659321 0.811853 0.103957
O O11 0.132892 0.812624 0.312971
O O12 0.115646 0.000000 0.415755
O O13 0.708126 0.849993 0.405674
O O14 0.750444 0.691674 0.307116
O O15 0.726891 0.000000 0.603054
#
# Coordination Sequence:
#
# PCOD9197684 Si02
#       6
#     8   8   8   8   8   8
#     4  10  20  35  61  94 124 163 208 256 317 383
#     4  11  23  39  61  88 125 167 206 250 311 371
#     4  12  23  40  58  92 135 164 199 256 320 377
#     4  10  20  36  61  93 123 159 208 253 309 384
#     4  10  21  39  65  90 122 162 208 256 313 374
#     4  10  22  42  64  87 119 164 212 255 304 370
#
# _framework density 20.289559000000001
#
# number of rings (size 3 to 8) (size 9 to 14) (size 15 to 20)
#    0.000    1.500    5.000    0.500    0.000    2.000 
#    0.000    1.667    0.000    1.000    0.000    0.000 
#    0.000    0.000    0.000    0.000    0.000    0.000 
#
# Total GULP energy -133687.548002 kJ/mol
# GULP energy per Si atom -5570.314500 kJ/mol
# Density = 2.024338 g / cm^3
# Si number density = 20.289559 Si / 1000 Ang^3
#
#
#
# Elastic Constant Matrix: (Units=GPa)
#
#
# Indices 1 2 3 4 5 6 
#
# 1 117.5654 13.8467 13.3667 0.0000 10.5756 0.0000
# 2 13.8467 39.6645 10.5519 0.0000 -3.9843 0.0000
# 3 13.3667 10.5519 130.0150 0.0000 -6.3971 0.0000
# 4 0.0000 0.0000 0.0000 11.0162 0.0000 3.7439
# 5 10.5756 -3.9843 -6.3971 0.0000 28.2535 0.0000
# 6 0.0000 0.0000 0.0000 3.7439 0.0000 17.2959
#
#
#
# Elastic Compliance Matrix: (Units=1/GPa)
#
#
# Indices 1 2 3 4 5 6 
#
# 1 0.009394 -0.003465 -0.000892 0.000000 -0.004207 0.000000
# 2 -0.003465 0.027334 -0.001627 0.000000 0.004783 0.000000
# 3 -0.000892 -0.001627 0.008009 0.000000 0.001918 0.000000
# 4 0.000000 0.000000 0.000000 0.097983 0.000000 -0.021209
# 5 -0.004207 0.004783 0.001918 0.000000 0.038077 0.000000
# 6 0.000000 0.000000 0.000000 -0.021209 0.000000 0.062408
#
#
# Mechanical properties :
#
#
# Convention : Reuss Voigt Hill
#
# Bulk Modulus (GPa) = 30.51459 40.30838 35.41149
# Shear Modulus (GPa) = 18.79021 27.94509 23.36765
#
# Velocity S-wave (km/s) = 3.04649 3.71524 3.39736
# Velocity P-wave (km/s) = 5.23899 6.18981 5.73414
#
# Compressibility (1/GPa) = 0.03277121
#
# Stress axis : x y z
#
# Youngs Moduli (GPa) = 106.45385 36.58420 124.85209
#
# Poissons Ratio (x) = 0.12675 0.11131
# Poissons Ratio (y) = 0.36883 0.20312
# Poissons Ratio (z) = 0.09491 0.05952
#
# Static dielectric constant tensor:
#      x y z
#    x 1.806620 0.000000 -0.001700 
#    y 0.000000 1.693080 0.000000 
#    z -0.001700 0.000000 1.816080 
# 
# From -- ./inp_files/85968.got.cif
#   From: 2010.05.17/outbox.cif.g08.bks.cpg/sg12_43_cif.got.tgz:85968.got - 2010.06.03 13:09:07.
