data_PCOD9197276
_publ_section_title
;
Structure prediction by ZEFSAII (Michael W. Deem and Ramdas Pophale) SiO2 
 PCOD9197276
Probable space group: C 2/M
;
_chemical_formula_sum "Si O2"
_cell_formula_units_Z 56
_cell_length_a 21.328264
_cell_length_b 8.887859
_cell_length_c 18.310883
_cell_angle_alpha 90.000000
_cell_angle_beta 122.723162
_cell_angle_gamma 90.000000
_cell_volume 2920.174980
_symmetry_space_group_name_H-M "C 2/M"
_symmetry_group_IT_number 12
_symmetry_cell_setting 'monoclinic'
loop_
_space_group_symop_operation_xyz
x,y,z
-x,y,-z
-x,-y,-z
x,-y,z
1/2+x,1/2+y,z
1/2-x,1/2+y,-z
1/2-x,1/2-y,-z
1/2+x,1/2-y,z
loop_
_atom_site_type_symbol
_atom_site_label
_atom_site_fract_x
_atom_site_fract_y
_atom_site_fract_z
Si Si1 0.232438 0.323962 0.371386
Si Si2 0.083258 0.678642 0.028620
Si Si3 0.297057 0.326300 0.799093
Si Si4 0.138578 0.675315 0.774998
Si Si5 0.333198 0.679307 0.056356
Si Si6 0.362020 0.675986 0.566999
Si Si7 0.979182 0.821460 0.404719
O O1 0.229672 0.500000 0.350802
O O2 0.225771 0.224227 0.295781
O O3 0.308871 0.295454 0.463760
O O4 0.166994 0.279611 0.386269
O O5 0.083966 0.500000 0.015523
O O6 0.138721 0.721292 0.128996
O O7 0.116378 0.761307 0.978468
O O8 0.000000 0.723464 0.000000
O O9 0.321396 0.500000 0.815442
O O10 0.224280 0.312586 0.803862
O O11 0.122009 0.500000 0.778435
O O12 0.130839 0.769553 0.844271
O O13 0.087348 0.736382 0.677319
O O14 0.326453 0.500000 0.048270
O O15 0.250000 0.750000 0.000000
O O16 0.350714 0.500000 0.579961
O O17 0.446813 0.697548 0.597352
O O18 0.000000 0.771679 0.500000
O O19 0.961124 0.000000 0.397563
#
# Coordination Sequence:
#
# PCOD9197276 Si02
#       7
#     8   8   8   8   8   8   8
#     4  10  20  35  59  85 114 155 201 251 303 364
#     4  11  25  44  67  95 127 163 206 260 318 377
#     4  11  23  39  61  88 120 158 201 251 308 374
#     4  11  24  40  62  93 124 162 210 258 310 373
#     4  12  24  42  69  96 127 167 210 261 317 379
#     4   9  19  36  56  82 117 157 200 247 305 368
#     4  10  21  38  60  87 122 162 204 254 310 368
#
# _framework density 19.176932999999998
#
# number of rings (size 3 to 8) (size 9 to 14) (size 15 to 20)
#    0.000    1.429    1.429    3.857    0.000    6.571 
#    0.000    0.000    0.000    0.000    0.000    0.000 
#    0.000    0.000    0.000    0.000    0.000    0.000 
#
# Total GULP energy -156525.343458 kJ/mol
# GULP energy per Si atom -5590.190838 kJ/mol
# Density = 1.913329 g / cm^3
# Si number density = 19.176933 Si / 1000 Ang^3
#
#
#
# Elastic Constant Matrix: (Units=GPa)
#
#
# Indices 1 2 3 4 5 6 
#
# 1 76.6079 50.5163 28.2789 0.0000 3.3199 0.0000
# 2 50.5163 83.0770 34.1870 0.0000 1.8025 0.0000
# 3 28.2789 34.1870 65.5407 0.0000 -5.6072 0.0000
# 4 0.0000 0.0000 0.0000 30.3890 0.0000 -0.0292
# 5 3.3199 1.8025 -5.6072 0.0000 26.8236 0.0000
# 6 0.0000 0.0000 0.0000 -0.0292 0.0000 20.7731
#
#
#
# Elastic Compliance Matrix: (Units=1/GPa)
#
#
# Indices 1 2 3 4 5 6 
#
# 1 0.022513 -0.012143 -0.003613 0.000000 -0.002726 0.000000
# 2 -0.012143 0.022079 -0.006390 0.000000 -0.001316 0.000000
# 3 -0.003613 -0.006390 0.020593 0.000000 0.005181 0.000000
# 4 0.000000 0.000000 0.000000 0.032907 0.000000 0.000046
# 5 -0.002726 -0.001316 0.005181 0.000000 0.038789 0.000000
# 6 0.000000 0.000000 0.000000 0.000046 0.000000 0.048139
#
#
# Mechanical properties :
#
#
# Convention : Reuss Voigt Hill
#
# Bulk Modulus (GPa) = 47.86344 50.13224 48.99784
# Shear Modulus (GPa) = 21.16172 23.08006 22.12089
#
# Velocity S-wave (km/s) = 3.32550 3.47296 3.40003
# Velocity P-wave (km/s) = 6.30542 6.50236 6.40464
#
# Compressibility (1/GPa) = 0.02089277
#
# Stress axis : x y z
#
# Youngs Moduli (GPa) = 44.41937 45.29174 48.56090
#
# Poissons Ratio (x) = 0.55000 0.17543
# Poissons Ratio (y) = 0.53941 0.31030
# Poissons Ratio (z) = 0.16047 0.28941
#
# Static dielectric constant tensor:
#      x y z
#    x 1.648260 0.000000 -0.005290 
#    y 0.000000 1.648720 0.000000 
#    z -0.005290 0.000000 1.652490 
# 
# From -- ./inp_files/281723.got.cif
#   From: 2010.05.17/outbox.cif.g08.bks.cpg/sg12_141_cif.got.tgz:281723.got - 2010.06.03 13:09:07.
