data_PCOD9197365
_publ_section_title
;
Structure prediction by ZEFSAII (Michael W. Deem and Ramdas Pophale) SiO2 
 PCOD9197365
Probable space group: C 2/M
;
_chemical_formula_sum "Si O2"
_cell_formula_units_Z 48
_cell_length_a 16.480407
_cell_length_b 20.127874
_cell_length_c 14.005759
_cell_angle_alpha 90.000000
_cell_angle_beta 147.406508
_cell_angle_gamma 90.000000
_cell_volume 2502.645756
_symmetry_space_group_name_H-M "C 2/M"
_symmetry_group_IT_number 12
_symmetry_cell_setting 'monoclinic'
loop_
_space_group_symop_operation_xyz
x,y,z
-x,y,-z
-x,-y,-z
x,-y,z
1/2+x,1/2+y,z
1/2-x,1/2+y,-z
1/2-x,1/2-y,-z
1/2+x,1/2-y,z
loop_
_atom_site_type_symbol
_atom_site_label
_atom_site_fract_x
_atom_site_fract_y
_atom_site_fract_z
Si Si1 0.908366 0.714816 0.185375
Si Si2 0.305550 0.924181 0.161498
Si Si3 0.064515 0.820236 0.463561
Si Si4 0.394008 0.767710 0.808424
Si Si5 0.840742 0.112380 0.794221
Si Si6 0.527731 0.427104 0.263236
O O1 0.889126 0.637472 0.193924
O O2 0.978696 0.753405 0.345168
O O3 0.016636 0.726630 0.202188
O O4 0.750000 0.750000 0.000000
O O5 0.284340 0.908804 0.253551
O O6 0.361949 0.000000 0.204257
O O7 0.136484 0.921781 0.949088
O O8 0.240416 0.807194 0.648854
O O9 0.038950 0.871509 0.353423
O O10 0.000000 0.843607 0.500000
O O11 0.349992 0.691527 0.788678
O O12 0.500000 0.790860 0.000000
O O13 0.847080 0.082050 0.695240
O O14 0.000000 0.091723 0.000000
O O15 0.541851 0.500000 0.319831
#
# Coordination Sequence:
#
# PCOD9197365 Si02
#       6
#     8   8   8   8   8   8
#     4  12  21  40  63  93 129 162 207 256 311 376
#     4  10  20  35  62  94 129 167 199 248 318 386
#     4  12  24  39  62  92 122 162 212 262 311 362
#     4  11  23  39  65  93 120 160 210 265 312 368
#     4   9  16  34  58  91 119 153 203 251 307 368
#     4  10  20  35  59  88 123 164 209 256 306 370
#
# _framework density 19.179703
#
# number of rings (size 3 to 8) (size 9 to 14) (size 15 to 20)
#    0.000    1.333    3.333    5.000    0.000    2.333 
#    0.000    0.833    0.000    2.500    0.000    0.000 
#    0.000    0.000    0.000    0.000    0.000    0.000 
#
# Total GULP energy -134049.685642 kJ/mol
# GULP energy per Si atom -5585.403568 kJ/mol
# Density = 1.913605 g / cm^3
# Si number density = 19.179703 Si / 1000 Ang^3
#
#
#
# Elastic Constant Matrix: (Units=GPa)
#
#
# Indices 1 2 3 4 5 6 
#
# 1 81.6743 38.6923 31.6307 0.0000 -10.7080 0.0000
# 2 38.6923 135.5673 36.7246 0.0000 -10.9186 0.0000
# 3 31.6307 36.7246 41.9219 0.0000 -6.0716 0.0000
# 4 0.0000 0.0000 0.0000 -23.9194 0.0000 3.6898
# 5 -10.7080 -10.9186 -6.0716 0.0000 26.8084 0.0000
# 6 0.0000 0.0000 0.0000 3.6898 0.0000 21.5902
#
#
#
# Elastic Compliance Matrix: (Units=1/GPa)
#
#
# Indices 1 2 3 4 5 6 
#
# 1 0.018035 -0.001705 -0.011550 0.000000 0.003893 0.000000
# 2 -0.001705 0.009947 -0.007175 0.000000 0.001745 0.000000
# 3 -0.011550 -0.007175 0.039043 0.000000 0.001307 0.000000
# 4 0.000000 0.000000 0.000000 -0.040733 0.000000 0.006961
# 5 0.003893 0.001745 0.001307 0.000000 0.039864 0.000000
# 6 0.000000 0.000000 0.000000 0.006961 0.000000 0.045128
#
#
# Mechanical properties :
#
#
# Convention : Reuss Voigt Hill
#
# Bulk Modulus (GPa) = 38.21821 52.58433 45.40127
# Shear Modulus (GPa) = 31.08182 15.03691 23.05936
#
# Velocity S-wave (km/s) = 4.02998 2.80304 3.47115
# Velocity P-wave (km/s) = 6.45167 6.16054 6.30778
#
# Compressibility (1/GPa) = 0.02616554
#
# Stress axis : x y z
#
# Youngs Moduli (GPa) = 55.44750 100.53062 25.61252
#
# Poissons Ratio (x) = 0.17139 0.29583
# Poissons Ratio (y) = 0.09453 0.18377
# Poissons Ratio (z) = 0.64044 0.72129
#
# Static dielectric constant tensor:
#      x y z
#    x 1.695250 0.000000 0.006220 
#    y 0.000000 1.679020 0.000000 
#    z 0.006220 0.000000 1.671510 
# 
# From -- ./inp_files/148022.got.cif
#   From: 2010.05.17/outbox.cif.g08.bks.cpg/sg12_75_cif.got.tgz:148022.got - 2010.06.03 13:09:07.
