data_PCOD9197037
_publ_section_title
;
Structure prediction by ZEFSAII (Michael W. Deem and Ramdas Pophale) SiO2 
 PCOD9197037
Probable space group: C 2/M
;
_chemical_formula_sum "Si O2"
_cell_formula_units_Z 56
_cell_length_a 20.612237
_cell_length_b 9.362212
_cell_length_c 13.746575
_cell_angle_alpha 90.000000
_cell_angle_beta 74.835533
_cell_angle_gamma 90.000000
_cell_volume 2560.388855
_symmetry_space_group_name_H-M "C 2/M"
_symmetry_group_IT_number 12
_symmetry_cell_setting 'monoclinic'
loop_
_space_group_symop_operation_xyz
x,y,z
-x,y,-z
-x,-y,-z
x,-y,z
1/2+x,1/2+y,z
1/2-x,1/2+y,-z
1/2-x,1/2-y,-z
1/2+x,1/2-y,z
loop_
_atom_site_type_symbol
_atom_site_label
_atom_site_fract_x
_atom_site_fract_y
_atom_site_fract_z
Si Si1 0.792050 0.657937 0.409299
Si Si2 0.635609 0.333112 0.283977
Si Si3 0.637108 0.334030 0.772246
Si Si4 0.193019 0.331364 0.085298
Si Si5 0.420253 0.833521 0.028143
Si Si6 0.984002 0.160211 0.332369
Si Si7 0.412921 0.160015 0.510771
O O1 0.764264 0.500000 0.403610
O O2 0.750000 0.750000 0.500000
O O3 0.806805 0.742399 0.305176
O O4 0.860744 0.644947 0.442121
O O5 0.654593 0.500000 0.284440
O O6 0.683014 0.244560 0.193332
O O7 0.560233 0.329908 0.267926
O O8 0.622424 0.259287 0.393989
O O9 0.655785 0.500000 0.770212
O O10 0.618557 0.267230 0.881897
O O11 0.569533 0.322271 0.732496
O O12 0.209356 0.500000 0.088543
O O13 0.250000 0.250000 0.000000
O O14 0.121513 0.322526 0.055581
O O15 0.415315 0.000000 0.061669
O O16 0.500000 0.798350 0.000000
O O17 0.972973 0.269772 0.424429
O O18 0.973146 0.000000 0.377175
O O19 0.424723 0.000000 0.545180
#
# Coordination Sequence:
#
# PCOD9197037 Si02
#       7
#     8   8   8   8   8   8   8
#     4  10  21  37  56  79 110 147 188 234 283 341
#     4  11  22  37  59  84 114 153 193 236 287 345
#     4  10  20  35  58  86 116 150 188 236 292 348
#     4  11  25  44  64  87 119 158 201 250 300 354
#     4  10  22  41  65  92 120 153 197 249 303 355
#     4   9  19  35  55  85 121 152 186 231 286 346
#     4  10  21  35  54  83 115 148 188 232 282 344
#
# _framework density 21.871676999999998
#
# number of rings (size 3 to 8) (size 9 to 14) (size 15 to 20)
#    0.000    1.857    0.000    3.429    0.000    7.714 
#    0.000    0.000    0.000    0.000    0.000    0.000 
#    0.000    0.000    0.000    0.000    0.000    0.000 
#
# Total GULP energy -156377.619248 kJ/mol
# GULP energy per Si atom -5584.914973 kJ/mol
# Density = 2.182190 g / cm^3
# Si number density = 21.871677 Si / 1000 Ang^3
#
#
#
# Elastic Constant Matrix: (Units=GPa)
#
#
# Indices 1 2 3 4 5 6 
#
# 1 57.8225 12.3888 5.7195 0.0000 0.7191 0.0000
# 2 12.3888 176.0574 95.7846 0.0000 -5.3531 0.0000
# 3 5.7195 95.7846 127.2363 0.0000 -10.1273 0.0000
# 4 0.0000 0.0000 0.0000 43.7160 0.0000 -3.2206
# 5 0.7191 -5.3531 -10.1273 0.0000 27.4624 0.0000
# 6 0.0000 0.0000 0.0000 -3.2206 0.0000 23.3520
#
#
#
# Elastic Compliance Matrix: (Units=1/GPa)
#
#
# Indices 1 2 3 4 5 6 
#
# 1 0.017575 -0.001352 0.000175 0.000000 -0.000659 0.000000
# 2 -0.001352 0.009742 -0.007334 0.000000 -0.000770 0.000000
# 3 0.000175 -0.007334 0.013660 0.000000 0.003603 0.000000
# 4 0.000000 0.000000 0.000000 0.023110 0.000000 0.003187
# 5 -0.000659 -0.000770 0.003603 0.000000 0.037609 0.000000
# 6 0.000000 0.000000 0.000000 0.003187 0.000000 0.043263
#
#
# Mechanical properties :
#
#
# Convention : Reuss Voigt Hill
#
# Bulk Modulus (GPa) = 41.74616 65.43356 53.58986
# Shear Modulus (GPa) = 29.41781 35.38761 32.40271
#
# Velocity S-wave (km/s) = 3.67143 4.02676 3.85319
# Velocity P-wave (km/s) = 6.09104 7.18343 6.65967
#
# Compressibility (1/GPa) = 0.02395430
#
# Stress axis : x y z
#
# Youngs Moduli (GPa) = 56.89940 102.64841 73.20817
#
# Poissons Ratio (x) = 0.13880 -0.01285
# Poissons Ratio (y) = 0.07694 0.53694
# Poissons Ratio (z) = -0.00998 0.75286
#
# Static dielectric constant tensor:
#      x y z
#    x 1.940030 0.000000 0.012670 
#    y 0.000000 1.794480 0.000000 
#    z 0.012670 0.000000 1.734630 
# 
# From -- ./inp_files/238413.got.cif
#   From: 2010.05.17/outbox.cif.g08.bks.cpg/sg12_120_cif.got.tgz:238413.got - 2010.06.03 13:09:07.
