data_PCOD9197242
_publ_section_title
;
Structure prediction by ZEFSAII (Michael W. Deem and Ramdas Pophale) SiO2 
 PCOD9197242
Probable space group: C 2/M
;
_chemical_formula_sum "Si O2"
_cell_formula_units_Z 40
_cell_length_a 10.093866
_cell_length_b 14.602353
_cell_length_c 17.788908
_cell_angle_alpha 90.000000
_cell_angle_beta 42.229283
_cell_angle_gamma 90.000000
_cell_volume 1762.231625
_symmetry_space_group_name_H-M "C 2/M"
_symmetry_group_IT_number 12
_symmetry_cell_setting 'monoclinic'
loop_
_space_group_symop_operation_xyz
x,y,z
-x,y,-z
-x,-y,-z
x,-y,z
1/2+x,1/2+y,z
1/2-x,1/2+y,-z
1/2-x,1/2-y,-z
1/2+x,1/2-y,z
loop_
_atom_site_type_symbol
_atom_site_label
_atom_site_fract_x
_atom_site_fract_y
_atom_site_fract_z
Si Si1 0.117343 0.888116 0.524437
Si Si2 0.279227 0.650235 0.084402
Si Si3 0.905134 0.104975 0.300877
Si Si4 0.424819 0.110797 0.672646
Si Si5 0.302244 0.132416 0.044714
O O1 0.042181 0.857265 0.638598
O O2 0.347639 0.861787 0.427828
O O3 0.000000 0.854597 0.500000
O O4 0.105202 0.000000 0.525853
O O5 0.161042 0.635935 0.210034
O O6 0.296858 0.758159 0.060142
O O7 0.500000 0.613224 0.000000
O O8 0.187543 0.610190 0.047410
O O9 0.722948 0.147032 0.330393
O O10 0.097259 0.102612 0.167849
O O11 0.843794 0.000000 0.341369
O O12 0.421232 0.000000 0.669477
O O13 0.500000 0.098452 0.000000
#
# Coordination Sequence:
#
# PCOD9197242 Si02
#       5
#     8   8   8   8   8
#     4   9  19  35  54  80 112 142 174 220 276 322
#     4  10  20  38  56  78 110 146 183 215 268 327
#     4  10  20  36  57  82 110 141 181 223 267 320
#     4  10  20  35  59  83 107 141 181 225 267 318
#     4  10  22  36  55  79 111 149 178 218 269 321
#
# _framework density 22.698492000000002
#
# number of rings (size 3 to 8) (size 9 to 14) (size 15 to 20)
#    0.000    2.200    2.000    0.600    2.800    4.000 
#    0.000    1.000    0.000    0.000    0.000    0.000 
#    0.000    0.000    0.000    0.000    0.000    0.000 
#
# Total GULP energy -111712.580170 kJ/mol
# GULP energy per Si atom -5585.629009 kJ/mol
# Density = 2.264683 g / cm^3
# Si number density = 22.698492 Si / 1000 Ang^3
#
#
#
# Elastic Constant Matrix: (Units=GPa)
#
#
# Indices 1 2 3 4 5 6 
#
# 1 216.7136 8.1893 59.6325 0.0004 29.2775 0.0004
# 2 8.1893 52.9010 -12.3219 0.0001 2.6735 0.0003
# 3 59.6325 -12.3219 94.7121 0.0004 23.8836 0.0004
# 4 0.0004 0.0001 0.0004 25.7288 -0.0004 -10.8928
# 5 29.2775 2.6735 23.8836 -0.0004 42.2841 -0.0005
# 6 0.0004 0.0003 0.0004 -10.8928 -0.0005 -26.1353
#
#
#
# Elastic Compliance Matrix: (Units=1/GPa)
#
#
# Indices 1 2 3 4 5 6 
#
# 1 0.005887 -0.001598 -0.003396 0.000000 -0.002057 0.000000
# 2 -0.001598 0.020285 0.004303 0.000000 -0.002606 0.000000
# 3 -0.003396 0.004303 0.014846 0.000000 -0.006307 0.000000
# 4 0.000000 0.000000 0.000000 0.033037 0.000000 -0.013769
# 5 -0.002057 -0.002606 -0.006307 0.000000 0.028801 -0.000001
# 6 0.000000 0.000000 0.000000 -0.013769 -0.000001 -0.032524
#
#
# Mechanical properties :
#
#
# Convention : Reuss Voigt Hill
#
# Bulk Modulus (GPa) = 25.23038 52.81404 39.02221
# Shear Modulus (GPa) = 58.87354 28.96397 43.91875
#
# Velocity S-wave (km/s) = 5.09838 3.57603 4.40349
# Velocity P-wave (km/s) = 6.76739 6.35365 6.56378
#
# Compressibility (1/GPa) = 0.03963477
#
# Stress axis : x y z
#
# Youngs Moduli (GPa) = 169.86237 49.29866 67.35595
#
# Poissons Ratio (x) = 0.07880 0.22873
# Poissons Ratio (y) = 0.27150 -0.28980
# Poissons Ratio (z) = 0.57683 -0.21211
#
# Static dielectric constant tensor:
#      x y z
#    x 1.855520 0.000000 0.029340 
#    y 0.000000 1.909020 0.000000 
#    z 0.029340 0.000000 1.791830 
# 
# From -- ./inp_files/118873.got.cif
#   From: 2010.05.17/outbox.cif.g08.bks.cpg/sg12_60_cif.got.tgz:118873.got - 2010.06.03 13:09:07.
