data_PCOD9197650
_publ_section_title
;
Structure prediction by ZEFSAII (Michael W. Deem and Ramdas Pophale) SiO2 
 PCOD9197650
Probable space group: C 2/M
;
_chemical_formula_sum "Si O2"
_cell_formula_units_Z 64
_cell_length_a 27.420609
_cell_length_b 17.061601
_cell_length_c 11.530595
_cell_angle_alpha 90.000000
_cell_angle_beta 146.911192
_cell_angle_gamma 90.000000
_cell_volume 2945.046586
_symmetry_space_group_name_H-M "C 2/M"
_symmetry_group_IT_number 12
_symmetry_cell_setting 'monoclinic'
loop_
_space_group_symop_operation_xyz
x,y,z
-x,y,-z
-x,-y,-z
x,-y,z
1/2+x,1/2+y,z
1/2-x,1/2+y,-z
1/2-x,1/2-y,-z
1/2+x,1/2-y,z
loop_
_atom_site_type_symbol
_atom_site_label
_atom_site_fract_x
_atom_site_fract_y
_atom_site_fract_z
Si Si1 0.121091 0.587484 0.655188
Si Si2 0.434201 0.089597 0.978552
Si Si3 0.422372 0.634320 0.257233
Si Si4 0.281187 0.382341 0.790669
Si Si5 0.745659 0.664420 0.929364
Si Si6 0.228727 0.915777 0.492814
Si Si7 0.998235 0.711613 0.701567
Si Si8 0.314018 0.718414 0.430148
O O1 0.087725 0.500000 0.594458
O O2 0.200019 0.591662 0.714001
O O3 0.047605 0.649460 0.474107
O O4 0.167714 0.615814 0.865683
O O5 0.333413 0.091306 0.731707
O O6 0.452224 0.000000 0.058980
O O7 0.500000 0.101562 0.000000
O O8 0.448765 0.158807 0.100107
O O9 0.500000 0.605156 0.500000
O O10 0.338764 0.628863 0.175418
O O11 0.450996 0.721561 0.270372
O O12 0.375097 0.603131 0.044392
O O13 0.281227 0.418582 0.664616
O O14 0.253582 0.292076 0.706685
O O15 0.723768 0.668715 0.752349
O O16 0.750000 0.750000 0.000000
O O17 0.184595 0.837978 0.457106
O O18 0.196428 0.000000 0.477173
O O19 0.913493 0.752410 0.597125
#
# Coordination Sequence:
#
# PCOD9197650 Si02
#       8
#     8   8   8   8   8   8   8   8
#     4  10  20  35  61  90 123 165 203 247 302 367
#     4  10  21  37  58  88 129 166 198 245 306 367
#     4  11  20  35  62  92 117 153 197 263 308 348
#     4  10  21  37  63  89 119 159 215 253 290 366
#     4  11  19  38  60  86 120 165 210 251 298 355
#     4  11  24  42  63  88 126 166 202 251 312 371
#     4  11  21  34  60  94 125 155 199 255 307 366
#     4  11  21  37  62  89 120 166 211 249 296 363
#
# _framework density 21.731404000000001
#
# number of rings (size 3 to 8) (size 9 to 14) (size 15 to 20)
#    0.000    1.375    5.000    3.375    0.000    2.500 
#    0.000    0.000    0.000   15.375    0.000    0.000 
#    0.000    0.000    0.000    0.000    0.000    0.000 
#
# Total GULP energy -178632.062396 kJ/mol
# GULP energy per Si atom -5582.251950 kJ/mol
# Density = 2.168194 g / cm^3
# Si number density = 21.731404 Si / 1000 Ang^3
#
#
#
# Elastic Constant Matrix: (Units=GPa)
#
#
# Indices 1 2 3 4 5 6 
#
# 1 58.6013 33.8001 32.7085 0.0000 -15.8181 0.0000
# 2 33.8001 81.2397 25.5619 0.0000 -2.3457 0.0000
# 3 32.7085 25.5619 129.5899 0.0000 -17.1674 0.0000
# 4 0.0000 0.0000 0.0000 59.6507 0.0000 34.2981
# 5 -15.8181 -2.3457 -17.1674 0.0000 31.6216 0.0000
# 6 0.0000 0.0000 0.0000 34.2981 0.0000 16.8957
#
#
#
# Elastic Compliance Matrix: (Units=1/GPa)
#
#
# Indices 1 2 3 4 5 6 
#
# 1 0.027983 -0.010198 -0.003553 0.000000 0.011313 0.000000
# 2 -0.010198 0.016847 -0.001357 0.000000 -0.004588 0.000000
# 3 -0.003553 -0.001357 0.009301 0.000000 0.003172 0.000000
# 4 0.000000 0.000000 0.000000 -0.100257 0.000000 0.203521
# 5 0.011313 -0.004588 0.003172 0.000000 0.038665 0.000000
# 6 0.000000 0.000000 0.000000 0.203521 0.000000 -0.353961
#
#
# Mechanical properties :
#
#
# Convention : Reuss Voigt Hill
#
# Bulk Modulus (GPa) = 41.81349 50.39687 46.10518
# Shear Modulus (GPa) = -15.46860 33.45761 8.99450
#
# Velocity S-wave (km/s) = -2.67087 3.92803 2.03665
# Velocity P-wave (km/s) = 3.12593 6.61919 5.17615
#
# Compressibility (1/GPa) = 0.02391573
#
# Stress axis : x y z
#
# Youngs Moduli (GPa) = 35.73594 59.35907 107.51313
#
# Poissons Ratio (x) = 0.60534 0.38196
# Poissons Ratio (y) = 0.36443 0.14589
# Poissons Ratio (z) = 0.12696 0.08055
#
# Static dielectric constant tensor:
#      x y z
#    x 1.800520 0.000000 -0.010800 
#    y 0.000000 1.854290 0.000000 
#    z -0.010800 0.000000 1.754100 
# 
# From -- ./inp_files/190111.got.cif
#   From: 2010.05.17/outbox.cif.g08.bks.cpg/sg12_96_cif.got.tgz:190111.got - 2010.06.03 13:09:07.
