data_PCOD9197334
_publ_section_title
;
Structure prediction by ZEFSAII (Michael W. Deem and Ramdas Pophale) SiO2 
 PCOD9197334
Probable space group: C 2/M
;
_chemical_formula_sum "Si O2"
_cell_formula_units_Z 48
_cell_length_a 30.204005
_cell_length_b 8.851550
_cell_length_c 19.662628
_cell_angle_alpha 90.000000
_cell_angle_beta 31.425934
_cell_angle_gamma 90.000000
_cell_volume 2740.899144
_symmetry_space_group_name_H-M "C 2/M"
_symmetry_group_IT_number 12
_symmetry_cell_setting 'monoclinic'
loop_
_space_group_symop_operation_xyz
x,y,z
-x,y,-z
-x,-y,-z
x,-y,z
1/2+x,1/2+y,z
1/2-x,1/2+y,-z
1/2-x,1/2-y,-z
1/2+x,1/2-y,z
loop_
_atom_site_type_symbol
_atom_site_label
_atom_site_fract_x
_atom_site_fract_y
_atom_site_fract_z
Si Si1 0.720837 0.679623 0.832278
Si Si2 0.476468 0.318328 0.608289
Si Si3 0.281050 0.680174 0.889219
Si Si4 0.599186 0.317583 0.869944
Si Si5 0.135709 0.679776 0.466646
Si Si6 0.260285 0.819374 0.411791
O O1 0.716540 0.500000 0.849944
O O2 0.727685 0.762843 0.894562
O O3 0.643356 0.722237 0.884035
O O4 0.805152 0.710751 0.676944
O O5 0.500000 0.277648 0.500000
O O6 0.485051 0.500000 0.603650
O O7 0.379350 0.275940 0.748893
O O8 0.542473 0.239074 0.572038
O O9 0.276781 0.500000 0.897969
O O10 0.250000 0.750000 0.000000
O O11 0.606842 0.500000 0.852210
O O12 0.655374 0.241645 0.737282
O O13 0.500000 0.277822 0.000000
O O14 0.136951 0.500000 0.476744
O O15 0.181757 0.763138 0.468327
O O16 0.250000 0.750000 0.500000
O O17 0.262244 0.000000 0.412289
#
# Coordination Sequence:
#
# PCOD9197334 Si02
#       6
#     8   8   8   8   8   8
#     4   9  18  34  57  83 111 146 186 228 279 335
#     4  10  20  36  58  84 112 145 188 232 277 333
#     4  11  23  38  56  79 113 151 186 230 283 334
#     4   9  19  38  62  87 115 150 190 233 283 342
#     4  10  20  35  59  88 114 145 188 235 283 336
#     4  11  22  38  60  85 118 153 189 236 288 338
#
# _framework density 17.512499999999999
#
# number of rings (size 3 to 8) (size 9 to 14) (size 15 to 20)
#    0.000    2.000    1.667    3.500    0.000    4.667 
#    3.000    0.000    0.000    0.000    0.000    0.000 
#    0.000    0.000    0.000    0.000    0.000    0.000 
#
# Total GULP energy -133992.498542 kJ/mol
# GULP energy per Si atom -5583.020773 kJ/mol
# Density = 1.747264 g / cm^3
# Si number density = 17.512500 Si / 1000 Ang^3
#
#
#
# Elastic Constant Matrix: (Units=GPa)
#
#
# Indices 1 2 3 4 5 6 
#
# 1 155.8722 66.8217 97.8614 -0.0010 7.0303 0.0002
# 2 66.8217 59.1500 56.1549 -0.0040 10.0275 0.0014
# 3 97.8614 56.1549 124.3972 -0.0042 4.5205 0.0010
# 4 -0.0010 -0.0040 -0.0042 28.5486 0.0010 1.7435
# 5 7.0303 10.0275 4.5205 0.0010 32.9646 0.0001
# 6 0.0002 0.0014 0.0010 1.7435 0.0001 34.4891
#
#
#
# Elastic Compliance Matrix: (Units=1/GPa)
#
#
# Indices 1 2 3 4 5 6 
#
# 1 0.015723 -0.010760 -0.007547 -0.000002 0.000955 0.000001
# 2 -0.010760 0.038754 -0.008728 0.000004 -0.008297 -0.000001
# 3 -0.007547 -0.008728 0.017850 0.000001 0.001817 0.000000
# 4 -0.000002 0.000004 0.000001 0.035137 -0.000002 -0.001776
# 5 0.000955 -0.008297 0.001817 -0.000002 0.032407 0.000000
# 6 0.000001 -0.000001 0.000000 -0.001776 0.000000 0.029084
#
#
# Mechanical properties :
#
#
# Convention : Reuss Voigt Hill
#
# Bulk Modulus (GPa) = 54.77142 86.78836 70.77989
# Shear Modulus (GPa) = 21.82353 27.10587 24.46470
#
# Velocity S-wave (km/s) = 3.53394 3.93848 3.74168
# Velocity P-wave (km/s) = 6.92785 8.38735 7.69230
#
# Compressibility (1/GPa) = 0.01825770
#
# Stress axis : x y z
#
# Youngs Moduli (GPa) = 63.60034 25.80361 56.02291
#
# Poissons Ratio (x) = 0.27764 0.42279
# Poissons Ratio (y) = 0.68432 0.48899
# Poissons Ratio (z) = 0.47998 0.22522
#
# Static dielectric constant tensor:
#      x y z
#    x 1.580820 0.000000 -0.011530 
#    y 0.000000 1.588210 0.000000 
#    z -0.011530 0.000000 1.576480 
# 
# From -- ./inp_files/274126.got.cif
#   From: 2010.05.17/outbox.cif.g08.bks.cpg/sg12_138_cif.got.tgz:274126.got - 2010.06.03 13:09:07.
