data_PCOD9197909
_publ_section_title
;
Structure prediction by ZEFSAII (Michael W. Deem and Ramdas Pophale) SiO2 
 PCOD9197909
Probable space group: C 2/M
;
_chemical_formula_sum "Si O2"
_cell_formula_units_Z 56
_cell_length_a 14.745440
_cell_length_b 7.536491
_cell_length_c 23.759265
_cell_angle_alpha 90.000000
_cell_angle_beta 111.442502
_cell_angle_gamma 90.000000
_cell_volume 2457.588970
_symmetry_space_group_name_H-M "C 2/M"
_symmetry_group_IT_number 12
_symmetry_cell_setting 'monoclinic'
loop_
_space_group_symop_operation_xyz
x,y,z
-x,y,-z
-x,-y,-z
x,-y,z
1/2+x,1/2+y,z
1/2-x,1/2+y,-z
1/2-x,1/2-y,-z
1/2+x,1/2-y,z
loop_
_atom_site_type_symbol
_atom_site_label
_atom_site_fract_x
_atom_site_fract_y
_atom_site_fract_z
Si Si1 0.336519 0.000000 0.451229
Si Si2 0.469272 0.000000 0.582146
Si Si3 0.951517 0.286110 0.749742
Si Si4 0.938331 0.798907 0.326964
Si Si5 0.248333 0.289124 0.356214
Si Si6 0.903353 0.282493 0.863684
Si Si7 0.905177 0.704780 0.040423
Si Si8 0.251361 0.215053 0.913084
O O1 0.278647 0.827795 0.416543
O O2 0.371741 0.000000 0.523431
O O3 0.437662 0.000000 0.438591
O O4 0.485952 0.168967 0.625322
O O5 0.956504 0.500000 0.752645
O O6 0.044511 0.220620 0.735753
O O7 0.855371 0.236164 0.692523
O O8 0.932459 0.221814 0.808458
O O9 0.831118 0.757116 0.326824
O O10 0.958903 0.000000 0.348086
O O11 0.247596 0.500000 0.367887
O O12 0.905342 0.500000 0.863723
O O13 0.798230 0.232665 0.864392
O O14 0.987701 0.221682 0.925800
O O15 0.916641 0.500000 0.026647
O O16 0.850998 0.713642 0.088537
O O17 0.829958 0.779597 0.977965
O O18 0.244848 0.000000 0.913807
#
# Coordination Sequence:
#
# PCOD9197909 Si02
#       8
#     4   4   8   8   8   8   8   8
#     4   9  18  34  62  84 111 143 184 225 274 328
#     4   9  18  36  58  88 111 143 182 227 274 328
#     4  10  20  36  55  74 108 146 185 231 274 327
#     4  10  20  36  58  82 111 147 183 225 277 327
#     4   9  20  36  56  81 110 146 183 225 276 327
#     4   9  18  32  52  75 100 141 181 219 264 319
#     4   9  17  31  51  76 104 136 177 221 268 322
#     4   9  17  31  52  75 103 139 176 219 271 322
#
# _framework density 22.786562
#
# number of rings (size 3 to 8) (size 9 to 14) (size 15 to 20)
#    0.000    2.714    0.714    0.429    1.000    3.429 
#    0.000    7.143    0.000    3.429    0.000    0.000 
#    0.000    0.000    0.000    0.000    0.000    0.000 
#
# Total GULP energy -156350.649504 kJ/mol
# GULP energy per Si atom -5583.951768 kJ/mol
# Density = 2.273470 g / cm^3
# Si number density = 22.786562 Si / 1000 Ang^3
#
#
#
# Elastic Constant Matrix: (Units=GPa)
#
#
# Indices 1 2 3 4 5 6 
#
# 1 99.1139 3.8607 6.4751 0.0000 -14.5818 0.0000
# 2 3.8607 60.4968 -1.8971 0.0000 2.1130 0.0000
# 3 6.4751 -1.8971 19.3029 0.0000 -5.7847 0.0000
# 4 0.0000 0.0000 0.0000 6.6164 0.0000 -4.9984
# 5 -14.5818 2.1130 -5.7847 0.0000 31.6969 0.0000
# 6 0.0000 0.0000 0.0000 -4.9984 0.0000 5.6001
#
#
#
# Elastic Compliance Matrix: (Units=1/GPa)
#
#
# Indices 1 2 3 4 5 6 
#
# 1 0.010969 -0.000938 -0.002370 0.000000 0.004676 0.000000
# 2 -0.000938 0.016683 0.001578 0.000000 -0.001255 0.000000
# 3 -0.002370 0.001578 0.055429 0.000000 0.008920 0.000000
# 4 0.000000 0.000000 0.000000 0.464028 0.000000 0.414172
# 5 0.004676 -0.001255 0.008920 0.000000 0.035412 0.000000
# 6 0.000000 0.000000 0.000000 0.414172 0.000000 0.548242
#
#
# Mechanical properties :
#
#
# Convention : Reuss Voigt Hill
#
# Bulk Modulus (GPa) = 12.55956 21.75455 17.15705
# Shear Modulus (GPa) = 4.30752 20.14769 12.22760
#
# Velocity S-wave (km/s) = 1.37640 2.97676 2.31901
# Velocity P-wave (km/s) = 2.83721 4.62414 3.83617
#
# Compressibility (1/GPa) = 0.07962065
#
# Stress axis : x y z
#
# Youngs Moduli (GPa) = 91.16852 59.94140 18.04112
#
# Poissons Ratio (x) = 0.05620 0.04276
# Poissons Ratio (y) = 0.08548 -0.02847
# Poissons Ratio (z) = 0.21609 -0.09458
#
# Static dielectric constant tensor:
#      x y z
#    x 1.870740 0.000000 -0.040590 
#    y 0.000000 1.842080 0.000000 
#    z -0.040590 0.000000 1.843310 
# 
# From -- ./inp_files/339135.got.cif
#   From: 2010.05.17/outbox.cif.g08.bks.cpg/sg12_170_cif.got.tgz:339135.got - 2010.06.03 13:09:07.
