data_PCOD9197906
_publ_section_title
;
Structure prediction by ZEFSAII (Michael W. Deem and Ramdas Pophale) SiO2 
 PCOD9197906
Probable space group: C 2/M
;
_chemical_formula_sum "Si O2"
_cell_formula_units_Z 42
_cell_length_a 22.747647
_cell_length_b 18.417426
_cell_length_c 5.287156
_cell_angle_alpha 90.000000
_cell_angle_beta 119.035954
_cell_angle_gamma 90.000000
_cell_volume 1936.669983
_symmetry_space_group_name_H-M "C 2/M"
_symmetry_group_IT_number 12
_symmetry_cell_setting 'monoclinic'
loop_
_space_group_symop_operation_xyz
x,y,z
-x,y,-z
-x,-y,-z
x,-y,z
1/2+x,1/2+y,z
1/2-x,1/2+y,-z
1/2-x,1/2-y,-z
1/2+x,1/2-y,z
loop_
_atom_site_type_symbol
_atom_site_label
_atom_site_fract_x
_atom_site_fract_y
_atom_site_fract_z
Si Si1 0.099611 0.879873 0.310659
Si Si2 0.686202 0.284956 0.136950
Si Si3 0.260530 0.000000 0.448462
Si Si4 0.930818 0.741070 0.484134
Si Si5 0.182405 0.655581 0.512210
Si Si6 0.169856 0.000000 0.759246
Si Si7 0.000000 0.000000 0.000000
O O1 0.161931 0.845412 0.290332
O O2 0.058094 0.809661 0.310473
O O3 0.055998 0.936213 0.059969
O O4 0.124533 0.929362 0.599240
O O5 0.756682 0.315568 0.180137
O O6 0.693531 0.208145 0.295048
O O7 0.624599 0.273514 0.822169
O O8 0.305042 0.072129 0.513622
O O9 0.224402 0.000000 0.645173
O O10 0.205839 0.000000 0.104633
O O11 0.890613 0.676456 0.536281
O O12 0.000000 0.719334 0.500000
#
# Coordination Sequence:
#
# PCOD9197906 Si02
#       7
#     8   8   4   8   8   4   2
#     4  10  21  38  58  91 129 175 213 261 321 397
#     4  10  20  40  65  89 127 163 223 270 326 387
#     4  12  24  42  67  99 130 165 217 281 347 383
#     4  11  23  39  62  90 128 175 221 269 326 397
#     4  10  23  38  64  95 121 168 217 280 329 389
#     4  11  24  39  65  98 136 165 212 272 338 397
#     4  10  20  36  54  88 134 170 208 250 320 410
#
# _framework density 21.686707999999999
#
# number of rings (size 3 to 8) (size 9 to 14) (size 15 to 20)
#    0.000    1.524    1.905    2.857    2.667    2.286 
#    0.000    2.381    0.000    1.143    0.000    0.000 
#    0.000    0.000    0.000    0.000    0.000    0.000 
#
# Total GULP energy -117112.155368 kJ/mol
# GULP energy per Si atom -5576.769303 kJ/mol
# Density = 2.163735 g / cm^3
# Si number density = 21.686708 Si / 1000 Ang^3
#
#
#
# Elastic Constant Matrix: (Units=GPa)
#
#
# Indices 1 2 3 4 5 6 
#
# 1 150.8985 59.4156 4.1282 0.0000 6.8220 0.0000
# 2 59.4156 167.0472 7.0400 0.0000 8.3631 0.0000
# 3 4.1282 7.0400 47.1623 0.0000 3.5758 0.0000
# 4 0.0000 0.0000 0.0000 23.7690 0.0000 8.3266
# 5 6.8220 8.3631 3.5758 0.0000 21.8332 0.0000
# 6 0.0000 0.0000 0.0000 8.3266 0.0000 29.0375
#
#
#
# Elastic Compliance Matrix: (Units=1/GPa)
#
#
# Indices 1 2 3 4 5 6 
#
# 1 0.007749 -0.002680 -0.000175 0.000000 -0.001366 0.000000
# 2 -0.002680 0.007056 -0.000686 0.000000 -0.001753 0.000000
# 3 -0.000175 -0.000686 0.021565 0.000000 -0.003215 0.000000
# 4 0.000000 0.000000 0.000000 0.046770 0.000000 -0.013411
# 5 -0.001366 -0.001753 -0.003215 0.000000 0.047426 0.000000
# 6 0.000000 0.000000 0.000000 -0.013411 0.000000 0.038284
#
#
# Mechanical properties :
#
#
# Convention : Reuss Voigt Hill
#
# Bulk Modulus (GPa) = 34.14317 56.25286 45.19802
# Shear Modulus (GPa) = 26.92593 34.56288 30.74440
#
# Velocity S-wave (km/s) = 3.52744 3.99649 3.76927
# Velocity P-wave (km/s) = 5.68933 6.87685 6.31108
#
# Compressibility (1/GPa) = 0.02928843
#
# Stress axis : x y z
#
# Youngs Moduli (GPa) = 129.05066 141.71597 46.37196
#
# Poissons Ratio (x) = 0.37986 0.00810
# Poissons Ratio (y) = 0.34591 0.03180
# Poissons Ratio (z) = 0.02253 0.09719
#
# Static dielectric constant tensor:
#      x y z
#    x 1.824570 0.000000 0.000130 
#    y 0.000000 1.760800 0.000000 
#    z 0.000130 0.000000 1.938670 
# 
# From -- ./inp_files/20372.got.cif
#   From: 2010.05.17/outbox.cif.g08.bks.cpg/sg12_11_cif.got.tgz:20372.got - 2010.06.03 13:09:07.
