data_PCOD9197251
_publ_section_title
;
Structure prediction by ZEFSAII (Michael W. Deem and Ramdas Pophale) SiO2 
 PCOD9197251
Probable space group: C 2/M
;
_chemical_formula_sum "Si O2"
_cell_formula_units_Z 56
_cell_length_a 8.887063
_cell_length_b 19.319291
_cell_length_c 18.141256
_cell_angle_alpha 90.000000
_cell_angle_beta 75.502754
_cell_angle_gamma 90.000000
_cell_volume 3015.530909
_symmetry_space_group_name_H-M "C 2/M"
_symmetry_group_IT_number 12
_symmetry_cell_setting 'monoclinic'
loop_
_space_group_symop_operation_xyz
x,y,z
-x,y,-z
-x,-y,-z
x,-y,z
1/2+x,1/2+y,z
1/2-x,1/2+y,-z
1/2-x,1/2-y,-z
1/2+x,1/2-y,z
loop_
_atom_site_type_symbol
_atom_site_label
_atom_site_fract_x
_atom_site_fract_y
_atom_site_fract_z
Si Si1 0.863998 0.350351 0.228383
Si Si2 0.127300 0.805830 0.045699
Si Si3 0.313866 0.918818 0.527620
Si Si4 0.858378 0.418703 0.072249
Si Si5 0.879812 0.809149 0.370458
Si Si6 0.071284 0.765309 0.213520
Si Si7 0.211525 0.839520 0.395627
O O1 0.885290 0.398153 0.154513
O O2 0.025355 0.314287 0.231430
O O3 0.741780 0.290681 0.216144
O O4 0.782421 0.375771 0.313267
O O5 0.215455 0.874598 0.059677
O O6 0.052255 0.776884 0.129442
O O7 0.250000 0.750000 0.000000
O O8 0.000000 0.818498 0.000000
O O9 0.500000 0.911639 0.500000
O O10 0.242135 0.869869 0.599560
O O11 0.241688 0.887739 0.461479
O O12 0.276634 0.000000 0.541669
O O13 0.831396 0.500000 0.070840
O O14 0.000000 0.400673 0.000000
O O15 0.952054 0.807303 0.279699
O O16 0.800791 0.734282 0.394090
O O17 0.031431 0.821614 0.402872
#
# Coordination Sequence:
#
# PCOD9197251 Si02
#       7
#     8   8   8   8   8   8   8
#     4   9  18  33  54  80 107 137 175 227 274 321
#     4  11  20  33  57  84 111 144 185 230 272 320
#     4  11  24  40  56  77 108 145 185 230 280 332
#     4  10  21  36  52  75 111 151 186 222 271 327
#     4  10  20  36  57  82 111 142 178 225 276 328
#     4   9  18  32  52  82 109 135 175 221 272 321
#     4  10  20  35  59  84 108 140 181 225 274 328
#
# _framework density 18.570526999999998
#
# number of rings (size 3 to 8) (size 9 to 14) (size 15 to 20)
#    0.000    2.000    0.000    4.714    0.000    3.143 
#    0.000    5.714    0.000    1.714    0.000    0.000 
#    0.000    0.000    0.000    0.000    0.000    0.000 
#
# Total GULP energy -156199.768845 kJ/mol
# GULP energy per Si atom -5578.563173 kJ/mol
# Density = 1.852826 g / cm^3
# Si number density = 18.570527 Si / 1000 Ang^3
#
#
#
# Elastic Constant Matrix: (Units=GPa)
#
#
# Indices 1 2 3 4 5 6 
#
# 1 46.7052 26.7550 23.7416 0.0000 -9.6030 0.0000
# 2 26.7550 69.7914 36.9251 0.0000 -15.5559 0.0000
# 3 23.7416 36.9251 114.6859 0.0000 -4.1751 0.0000
# 4 0.0000 0.0000 0.0000 21.5510 0.0000 -4.2846
# 5 -9.6030 -15.5559 -4.1751 0.0000 27.3613 0.0000
# 6 0.0000 0.0000 0.0000 -4.2846 0.0000 22.6612
#
#
#
# Elastic Compliance Matrix: (Units=1/GPa)
#
#
# Indices 1 2 3 4 5 6 
#
# 1 0.028742 -0.008283 -0.003105 0.000000 0.004905 0.000000
# 2 -0.008283 0.022197 -0.005107 0.000000 0.008933 0.000000
# 3 -0.003105 -0.005107 0.010922 0.000000 -0.002327 0.000000
# 4 0.000000 0.000000 0.000000 0.048214 0.000000 0.009116
# 5 0.004905 0.008933 -0.002327 0.000000 0.042993 0.000000
# 6 0.000000 0.000000 0.000000 0.009116 0.000000 0.045852
#
#
# Mechanical properties :
#
#
# Convention : Reuss Voigt Hill
#
# Bulk Modulus (GPa) = 34.63518 45.11400 39.87459
# Shear Modulus (GPa) = 20.70118 23.89877 22.29997
#
# Velocity S-wave (km/s) = 3.34238 3.59126 3.46905
# Velocity P-wave (km/s) = 5.79538 6.44533 6.12898
#
# Compressibility (1/GPa) = 0.02887238
#
# Stress axis : x y z
#
# Youngs Moduli (GPa) = 34.79197 45.05181 91.56067
#
# Poissons Ratio (x) = 0.37315 0.28427
# Poissons Ratio (y) = 0.28817 0.46758
# Poissons Ratio (z) = 0.10802 0.23007
#
# Static dielectric constant tensor:
#      x y z
#    x 1.662640 0.000000 0.006460 
#    y 0.000000 1.615360 0.000000 
#    z 0.006460 0.000000 1.770890 
# 
# From -- ./inp_files/256996.got.cif
#   From: 2010.05.17/outbox.cif.g08.bks.cpg/sg12_129_cif.got.tgz:256996.got - 2010.06.03 13:09:07.
