data_PCOD9197876
_publ_section_title
;
Structure prediction by ZEFSAII (Michael W. Deem and Ramdas Pophale) SiO2 
 PCOD9197876
Probable space group: C 2/M
;
_chemical_formula_sum "Si O2"
_cell_formula_units_Z 64
_cell_length_a 14.483950
_cell_length_b 8.330912
_cell_length_c 30.575380
_cell_angle_alpha 90.000000
_cell_angle_beta 117.897190
_cell_angle_gamma 90.000000
_cell_volume 3260.617174
_symmetry_space_group_name_H-M "C 2/M"
_symmetry_group_IT_number 12
_symmetry_cell_setting 'monoclinic'
loop_
_space_group_symop_operation_xyz
x,y,z
-x,y,-z
-x,-y,-z
x,-y,z
1/2+x,1/2+y,z
1/2-x,1/2+y,-z
1/2-x,1/2-y,-z
1/2+x,1/2-y,z
loop_
_atom_site_type_symbol
_atom_site_label
_atom_site_fract_x
_atom_site_fract_y
_atom_site_fract_z
Si Si1 0.977310 0.188886 0.633858
Si Si2 0.844737 0.689567 0.817491
Si Si3 0.947097 0.804461 0.443730
Si Si4 0.723128 0.809887 0.360565
Si Si5 0.203463 0.807955 0.097281
Si Si6 0.933035 0.304894 0.113884
Si Si7 0.195812 0.685531 0.710756
Si Si8 0.137067 0.693048 0.992852
O O1 0.883052 0.272609 0.637963
O O2 0.994266 0.247375 0.587660
O O3 0.088642 0.216054 0.681976
O O4 0.954849 0.000000 0.627538
O O5 0.840249 0.500000 0.807289
O O6 0.822293 0.721441 0.863410
O O7 0.761562 0.774451 0.768263
O O8 0.964203 0.748539 0.837735
O O9 0.825589 0.759536 0.411085
O O10 0.000000 0.746437 0.500000
O O11 0.950714 0.000000 0.444990
O O12 0.734041 0.725319 0.316138
O O13 0.731749 0.000000 0.354639
O O14 0.321887 0.758999 0.109589
O O15 0.130072 0.762232 0.039903
O O16 0.201022 0.000000 0.102640
O O17 0.934494 0.500000 0.113737
O O18 0.936663 0.254048 0.063610
O O19 0.166468 0.500000 0.703742
O O20 0.133400 0.500000 0.995103
O O21 0.250000 0.750000 0.000000
#
# Coordination Sequence:
#
# PCOD9197876 Si02
#       8
#     8   8   8   8   8   8   8   8
#     4  10  20  36  59  85 113 150 194 234 277 332
#     4  11  22  38  57  79 105 138 179 224 276 334
#     4   8  16  32  54  83 121 158 191 231 276 324
#     4  10  20  36  59  85 114 151 192 233 280 332
#     4  10  20  36  54  78 108 140 176 217 267 325
#     4   8  18  35  55  75 103 139 173 210 262 327
#     4  11  23  40  58  79 109 143 184 237 288 335
#     4   9  16  31  53  77 103 137 175 214 263 322
#
# _framework density 19.628185999999999
#
# number of rings (size 3 to 8) (size 9 to 14) (size 15 to 20)
#    0.000    2.375    0.000    4.500    0.000    2.000 
#    0.000   13.750    0.000   12.750    0.000    0.000 
#    0.000    0.000    0.000    0.000    0.000    0.000 
#
# Total GULP energy -178584.072538 kJ/mol
# GULP energy per Si atom -5580.752267 kJ/mol
# Density = 1.958351 g / cm^3
# Si number density = 19.628186 Si / 1000 Ang^3
#
#
#
# Elastic Constant Matrix: (Units=GPa)
#
#
# Indices 1 2 3 4 5 6 
#
# 1 74.9461 -15.1270 14.1377 0.0000 1.4733 0.0000
# 2 -15.1270 25.4303 -11.4693 0.0000 -1.0317 0.0000
# 3 14.1377 -11.4693 92.1510 0.0000 3.4317 0.0000
# 4 0.0000 0.0000 0.0000 19.3409 0.0000 -2.5345
# 5 1.4733 -1.0317 3.4317 0.0000 9.7755 0.0000
# 6 0.0000 0.0000 0.0000 -2.5345 0.0000 19.8310
#
#
#
# Elastic Compliance Matrix: (Units=1/GPa)
#
#
# Indices 1 2 3 4 5 6 
#
# 1 0.015315 0.008505 -0.001255 0.000000 -0.000970 0.000000
# 2 0.008505 0.046450 0.004399 0.000000 0.002076 0.000000
# 3 -0.001255 0.004399 0.011721 0.000000 -0.003461 0.000000
# 4 0.000000 0.000000 0.000000 0.052585 0.000000 0.006721
# 5 -0.000970 0.002076 -0.003461 0.000000 0.103877 0.000000
# 6 0.000000 0.000000 0.000000 0.006721 0.000000 0.051285
#
#
# Mechanical properties :
#
#
# Convention : Reuss Voigt Hill
#
# Bulk Modulus (GPa) = 10.33223 18.62336 14.47780
# Shear Modulus (GPa) = 17.22970 23.45522 20.34246
#
# Velocity S-wave (km/s) = 2.96599 3.46059 3.22279
# Velocity P-wave (km/s) = 4.12370 5.04740 4.60875
#
# Compressibility (1/GPa) = 0.09678454
#
# Stress axis : x y z
#
# Youngs Moduli (GPa) = 65.29408 21.52830 85.31896
#
# Poissons Ratio (x) = -0.18309 0.10708
# Poissons Ratio (y) = -0.55531 -0.37534
# Poissons Ratio (z) = 0.08194 -0.09471
#
# Static dielectric constant tensor:
#      x y z
#    x 1.683800 0.000000 0.009130 
#    y 0.000000 1.670420 0.000000 
#    z 0.009130 0.000000 1.682530 
# 
# From -- ./inp_files/375108.got.cif
#   From: 2010.05.17/outbox.cif.g08.bks.cpg/sg12_188_cif.got.tgz:375108.got - 2010.06.03 13:09:07.
