data_PCOD9197754
_publ_section_title
;
Structure prediction by ZEFSAII (Michael W. Deem and Ramdas Pophale) SiO2 
 PCOD9197754
Probable space group: C 2/M
;
_chemical_formula_sum "Si O2"
_cell_formula_units_Z 40
_cell_length_a 16.435063
_cell_length_b 14.487439
_cell_length_c 9.481888
_cell_angle_alpha 90.000000
_cell_angle_beta 48.380615
_cell_angle_gamma 90.000000
_cell_volume 1687.763795
_symmetry_space_group_name_H-M "C 2/M"
_symmetry_group_IT_number 12
_symmetry_cell_setting 'monoclinic'
loop_
_space_group_symop_operation_xyz
x,y,z
-x,y,-z
-x,-y,-z
x,-y,z
1/2+x,1/2+y,z
1/2-x,1/2+y,-z
1/2-x,1/2-y,-z
1/2+x,1/2-y,z
loop_
_atom_site_type_symbol
_atom_site_label
_atom_site_fract_x
_atom_site_fract_y
_atom_site_fract_z
Si Si1 0.696791 0.606288 0.067406
Si Si2 0.540233 0.398733 0.773167
Si Si3 0.190565 0.174693 0.376390
Si Si4 0.392501 0.795519 0.296067
Si Si5 0.560158 0.890184 0.287664
O O1 0.703288 0.500000 0.112254
O O2 0.588472 0.610912 0.099441
O O3 0.683587 0.670632 0.218526
O O4 0.810740 0.625187 0.860573
O O5 0.568249 0.500000 0.798262
O O6 0.598306 0.389570 0.552945
O O7 0.585086 0.306152 0.793258
O O8 0.311309 0.148022 0.291268
O O9 0.169033 0.270424 0.485182
O O10 0.503188 0.842282 0.219072
O O11 0.500000 0.858787 0.500000
O O12 0.541607 0.000000 0.297629
#
# Coordination Sequence:
#
# PCOD9197754 Si02
#       5
#     8   8   8   8   8
#     4  10  20  35  63  93 113 152 201 253 303 339
#     4   9  18  34  58  91 123 149 191 249 299 349
#     4   9  19  36  54  90 122 145 193 237 293 361
#     4   9  21  37  54  86 124 160 190 230 301 356
#     4  10  23  41  58  82 119 160 203 243 292 356
#
# _framework density 23.699999999999999
#
# number of rings (size 3 to 8) (size 9 to 14) (size 15 to 20)
#    1.200    1.400    0.000    1.200    2.800    4.800 
#    0.000    2.000    0.000    1.200    0.000    8.400 
#    0.000    0.000    0.000    0.000    0.000    0.000 
#
# Total GULP energy -111583.440717 kJ/mol
# GULP energy per Si atom -5579.172036 kJ/mol
# Density = 2.364606 g / cm^3
# Si number density = 23.700000 Si / 1000 Ang^3
#
#
#
# Elastic Constant Matrix: (Units=GPa)
#
#
# Indices 1 2 3 4 5 6 
#
# 1 55.1914 36.3022 26.7621 0.0000 -24.5858 0.0000
# 2 36.3022 76.6773 21.3348 0.0000 -5.6589 0.0000
# 3 26.7621 21.3348 117.0664 0.0000 -15.0506 0.0000
# 4 0.0000 0.0000 0.0000 -5.1826 0.0000 -32.1487
# 5 -24.5858 -5.6589 -15.0506 0.0000 50.4997 0.0000
# 6 0.0000 0.0000 0.0000 -32.1487 0.0000 -19.4923
#
#
#
# Elastic Compliance Matrix: (Units=1/GPa)
#
#
# Indices 1 2 3 4 5 6 
#
# 1 0.036571 -0.015187 -0.003663 0.000000 0.015011 0.000000
# 2 -0.015187 0.020078 -0.000882 0.000000 -0.005407 0.000000
# 3 -0.003663 -0.000882 0.009669 0.000000 0.001000 0.000000
# 4 0.000000 0.000000 0.000000 0.020903 0.000000 -0.034475
# 5 0.015011 -0.005407 0.001000 0.000000 0.026802 0.000000
# 6 0.000000 0.000000 0.000000 -0.034475 0.000000 0.005558
#
#
# Mechanical properties :
#
#
# Convention : Reuss Voigt Hill
#
# Bulk Modulus (GPa) = 37.23894 46.41481 41.82688
# Shear Modulus (GPa) = 29.76232 16.13402 22.94817
#
# Velocity S-wave (km/s) = 3.54756 2.61197 3.11509
# Velocity P-wave (km/s) = 5.70325 5.35942 5.53400
#
# Compressibility (1/GPa) = 0.02685361
#
# Stress axis : x y z
#
# Youngs Moduli (GPa) = 27.34381 49.80457 103.42545
#
# Poissons Ratio (x) = 0.75640 0.37881
# Poissons Ratio (y) = 0.41528 0.09127
# Poissons Ratio (z) = 0.10015 0.04395
#
# Static dielectric constant tensor:
#      x y z
#    x 1.892250 0.000000 0.009320 
#    y 0.000000 1.924890 0.000000 
#    z 0.009320 0.000000 1.942770 
# 
# From -- ./inp_files/168657.got.cif
#   From: 2010.05.17/outbox.cif.g08.bks.cpg/sg12_85_cif.got.tgz:168657.got - 2010.06.03 13:09:07.
