data_PCOD9197386
_publ_section_title
;
Structure prediction by ZEFSAII (Michael W. Deem and Ramdas Pophale) SiO2 
 PCOD9197386
Probable space group: C 2/M
;
_chemical_formula_sum "Si O2"
_cell_formula_units_Z 40
_cell_length_a 20.003232
_cell_length_b 8.943822
_cell_length_c 15.107696
_cell_angle_alpha 90.000000
_cell_angle_beta 49.377235
_cell_angle_gamma 90.000000
_cell_volume 2051.495588
_symmetry_space_group_name_H-M "C 2/M"
_symmetry_group_IT_number 12
_symmetry_cell_setting 'monoclinic'
loop_
_space_group_symop_operation_xyz
x,y,z
-x,y,-z
-x,-y,-z
x,-y,z
1/2+x,1/2+y,z
1/2-x,1/2+y,-z
1/2-x,1/2-y,-z
1/2+x,1/2-y,z
loop_
_atom_site_type_symbol
_atom_site_label
_atom_site_fract_x
_atom_site_fract_y
_atom_site_fract_z
Si Si1 0.220285 0.822323 0.258795
Si Si2 0.917074 0.327791 0.135839
Si Si3 0.484456 0.323628 0.247307
Si Si4 0.177584 0.179834 0.496998
Si Si5 0.331042 0.177379 0.876876
O O1 0.325760 0.800575 0.164473
O O2 0.191965 0.777881 0.382428
O O3 0.176251 0.731176 0.218325
O O4 0.202133 0.000000 0.262894
O O5 0.913002 0.500000 0.172728
O O6 0.930487 0.217746 0.205794
O O7 0.000000 0.314668 0.000000
O O8 0.502826 0.500000 0.235404
O O9 0.419756 0.282212 0.383837
O O10 0.575456 0.234797 0.167897
O O11 0.250000 0.250000 0.500000
O O12 0.187208 0.000000 0.493765
O O13 0.325427 0.000000 0.889311
O O14 0.250000 0.250000 0.000000
#
# Coordination Sequence:
#
# PCOD9197386 Si02
#       5
#     8   8   8   8   8
#     4  10  21  39  62  90 127 167 207 254 311 367
#     4  10  20  35  59  89 120 160 209 257 309 365
#     4  11  23  39  62  92 125 163 208 255 307 366
#     4  10  21  38  63  93 127 166 206 256 308 363
#     4  12  26  44  65  90 124 164 207 258 314 373
#
# _framework density 19.497969000000001
#
# number of rings (size 3 to 8) (size 9 to 14) (size 15 to 20)
#    0.000    1.400    2.000    3.600    0.000    5.200 
#    0.000    4.000    0.000    0.000    0.000    0.000 
#    0.000    0.000    0.000    0.000    0.000    0.000 
#
# Total GULP energy -111810.030307 kJ/mol
# GULP energy per Si atom -5590.501515 kJ/mol
# Density = 1.945359 g / cm^3
# Si number density = 19.497969 Si / 1000 Ang^3
#
#
#
# Elastic Constant Matrix: (Units=GPa)
#
#
# Indices 1 2 3 4 5 6 
#
# 1 42.7238 24.1108 -6.4997 0.0000 -0.7675 0.0000
# 2 24.1108 67.4300 18.6330 0.0000 -3.7659 0.0001
# 3 -6.4997 18.6330 54.9657 0.0000 -5.3861 -0.0001
# 4 0.0000 0.0000 0.0000 24.2434 0.0000 5.4901
# 5 -0.7675 -3.7659 -5.3861 0.0000 31.5775 0.0000
# 6 0.0000 0.0001 -0.0001 5.4901 0.0000 37.7482
#
#
#
# Elastic Compliance Matrix: (Units=1/GPa)
#
#
# Indices 1 2 3 4 5 6 
#
# 1 0.032664 -0.014046 0.008683 0.000000 0.000600 0.000000
# 2 -0.014046 0.022435 -0.009191 0.000000 0.000767 0.000000
# 3 0.008683 -0.009191 0.022627 0.000000 0.002974 0.000000
# 4 0.000000 0.000000 0.000000 0.042653 0.000000 -0.006203
# 5 0.000600 0.000767 0.002974 0.000000 0.032281 0.000000
# 6 0.000000 0.000000 0.000000 -0.006203 0.000000 0.027394
#
#
# Mechanical properties :
#
#
# Convention : Reuss Voigt Hill
#
# Bulk Modulus (GPa) = 20.56829 26.40086 23.48458
# Shear Modulus (GPa) = 22.18585 27.30550 24.74568
#
# Velocity S-wave (km/s) = 3.37687 3.74629 3.56637
# Velocity P-wave (km/s) = 5.07702 5.68178 5.38789
#
# Compressibility (1/GPa) = 0.04861853
#
# Stress axis : x y z
#
# Youngs Moduli (GPa) = 30.61439 44.57311 44.19487
#
# Poissons Ratio (x) = 0.62605 -0.38373
# Poissons Ratio (y) = 0.43000 0.40620
# Poissons Ratio (z) = -0.26581 0.40968
#
# Static dielectric constant tensor:
#      x y z
#    x 1.650540 0.000000 -0.003300 
#    y 0.000000 1.661760 0.000000 
#    z -0.003300 0.000000 1.693910 
# 
# From -- ./inp_files/229637.got.cif
#   From: 2010.05.17/outbox.cif.g08.bks.cpg/sg12_115_cif.got.tgz:229637.got - 2010.06.03 13:09:07.
