data_PCOD9197078
_publ_section_title
;
Structure prediction by ZEFSAII (Michael W. Deem and Ramdas Pophale) SiO2 
 PCOD9197078
Probable space group: C 2/M
;
_chemical_formula_sum "Si O2"
_cell_formula_units_Z 56
_cell_length_a 18.224302
_cell_length_b 8.913530
_cell_length_c 19.079317
_cell_angle_alpha 90.000000
_cell_angle_beta 75.369113
_cell_angle_gamma 90.000000
_cell_volume 2998.798353
_symmetry_space_group_name_H-M "C 2/M"
_symmetry_group_IT_number 12
_symmetry_cell_setting 'monoclinic'
loop_
_space_group_symop_operation_xyz
x,y,z
-x,y,-z
-x,-y,-z
x,-y,z
1/2+x,1/2+y,z
1/2-x,1/2+y,-z
1/2-x,1/2-y,-z
1/2+x,1/2-y,z
loop_
_atom_site_type_symbol
_atom_site_label
_atom_site_fract_x
_atom_site_fract_y
_atom_site_fract_z
Si Si1 0.123385 0.821747 0.158440
Si Si2 0.699149 0.178875 0.848812
Si Si3 0.830492 0.179632 0.003051
Si Si4 0.348859 0.678855 0.286590
Si Si5 0.436662 0.677895 0.575064
Si Si6 0.778933 0.678914 0.565210
Si Si7 0.507594 0.178581 0.293571
O O1 0.210854 0.792120 0.159819
O O2 0.116601 0.789060 0.076873
O O3 0.066559 0.728421 0.219387
O O4 0.110014 0.000000 0.171864
O O5 0.674104 0.251318 0.782222
O O6 0.688990 0.000000 0.850216
O O7 0.653553 0.249141 0.925410
O O8 0.823504 0.000000 0.010711
O O9 0.750000 0.250000 0.000000
O O10 0.358602 0.500000 0.277405
O O11 0.282657 0.706764 0.359066
O O12 0.426208 0.751804 0.295089
O O13 0.500000 0.699212 0.500000
O O14 0.427371 0.500000 0.589063
O O15 0.358169 0.748268 0.568207
O O16 0.463269 0.755154 0.640079
O O17 0.787419 0.500000 0.555040
O O18 0.750000 0.750000 0.500000
O O19 0.502789 0.000000 0.298727
#
# Coordination Sequence:
#
# PCOD9197078 Si02
#       7
#     8   8   8   8   8   8   8
#     4   9  19  36  58  84 116 153 191 234 287 345
#     4  10  20  35  58  87 116 149 191 239 290 342
#     4   9  17  31  54  83 114 150 190 235 287 341
#     4  11  24  41  59  82 116 155 194 236 286 344
#     4  11  24  42  64  89 119 155 192 233 283 339
#     4  11  24  41  64  92 119 152 192 236 286 338
#     4  12  25  39  59  86 116 152 194 241 289 338
#
# _framework density 18.674147000000001
#
# number of rings (size 3 to 8) (size 9 to 14) (size 15 to 20)
#    0.000    1.571    0.000    6.000    0.000   12.571 
#    0.000    0.714    0.000    4.286    0.000    0.000 
#    0.000    0.000    0.000    0.000    0.000    0.000 
#
# Total GULP energy -156495.618119 kJ/mol
# GULP energy per Si atom -5589.129219 kJ/mol
# Density = 1.863164 g / cm^3
# Si number density = 18.674147 Si / 1000 Ang^3
#
#
#
# Elastic Constant Matrix: (Units=GPa)
#
#
# Indices 1 2 3 4 5 6 
#
# 1 133.2958 91.7486 93.6340 0.0000 12.2644 0.0000
# 2 91.7486 132.7345 119.6124 0.0000 1.2894 0.0000
# 3 93.6340 119.6124 175.5293 0.0000 20.8396 0.0000
# 4 0.0000 0.0000 0.0000 35.3933 0.0000 5.8234
# 5 12.2644 1.2894 20.8396 0.0000 27.6325 0.0000
# 6 0.0000 0.0000 0.0000 5.8234 0.0000 32.3776
#
#
#
# Elastic Compliance Matrix: (Units=1/GPa)
#
#
# Indices 1 2 3 4 5 6 
#
# 1 0.015374 -0.009836 -0.000816 0.000000 -0.005749 0.000000
# 2 -0.009836 0.028714 -0.016123 0.000000 0.015185 0.000000
# 3 -0.000816 -0.016123 0.018658 0.000000 -0.012956 0.000000
# 4 0.000000 0.000000 0.000000 0.029116 0.000000 -0.005237
# 5 -0.005749 0.015185 -0.012956 0.000000 0.047804 0.000000
# 6 0.000000 0.000000 0.000000 -0.005237 0.000000 0.031827
#
#
# Mechanical properties :
#
#
# Convention : Reuss Voigt Hill
#
# Bulk Modulus (GPa) = 108.74157 116.83883 112.79020
# Shear Modulus (GPa) = 21.91950 28.18501 25.05226
#
# Velocity S-wave (km/s) = 3.42978 3.88919 3.66669
# Velocity P-wave (km/s) = 8.60477 9.10334 8.85756
#
# Compressibility (1/GPa) = 0.00919611
#
# Stress axis : x y z
#
# Youngs Moduli (GPa) = 65.04277 34.82642 53.59766
#
# Poissons Ratio (x) = 0.34254 0.04376
# Poissons Ratio (y) = 0.63973 0.86415
# Poissons Ratio (z) = 0.05310 0.56150
#
# Static dielectric constant tensor:
#      x y z
#    x 1.950070 0.000000 0.184170 
#    y 0.000000 1.618450 0.000000 
#    z 0.184170 0.000000 1.748260 
# 
# From -- ./inp_files/275291.got.cif
#   From: 2010.05.17/outbox.cif.g08.bks.cpg/sg12_138_cif.got.tgz:275291.got - 2010.06.03 13:09:07.
