data_PCOD9197088
_publ_section_title
;
Structure prediction by ZEFSAII (Michael W. Deem and Ramdas Pophale) SiO2 
 PCOD9197088
Probable space group: C 2/M
;
_chemical_formula_sum "Si O2"
_cell_formula_units_Z 56
_cell_length_a 27.547647
_cell_length_b 14.500377
_cell_length_c 11.951065
_cell_angle_alpha 90.000000
_cell_angle_beta 141.143644
_cell_angle_gamma 90.000000
_cell_volume 2994.981904
_symmetry_space_group_name_H-M "C 2/M"
_symmetry_group_IT_number 12
_symmetry_cell_setting 'monoclinic'
loop_
_space_group_symop_operation_xyz
x,y,z
-x,y,-z
-x,-y,-z
x,-y,z
1/2+x,1/2+y,z
1/2-x,1/2+y,-z
1/2-x,1/2-y,-z
1/2+x,1/2-y,z
loop_
_atom_site_type_symbol
_atom_site_label
_atom_site_fract_x
_atom_site_fract_y
_atom_site_fract_z
Si Si1 0.697522 0.724071 0.511510
Si Si2 0.104522 0.890035 0.929175
Si Si3 0.837810 0.395688 0.177203
Si Si4 0.955585 0.892168 0.802497
Si Si5 0.410476 0.703851 0.329210
Si Si6 0.219034 0.890462 0.760139
Si Si7 0.732617 0.895629 0.703394
O O1 0.750000 0.750000 0.500000
O O2 0.619086 0.671885 0.337358
O O3 0.738190 0.658002 0.677069
O O4 0.683492 0.820385 0.550394
O O5 0.118302 0.838042 0.839092
O O6 0.021047 0.866595 0.829331
O O7 0.106322 0.000000 0.912173
O O8 0.176193 0.871541 0.140931
O O9 0.869109 0.500000 0.222252
O O10 0.897983 0.313379 0.300208
O O11 0.787742 0.393926 0.201511
O O12 0.783713 0.376706 0.972401
O O13 0.933595 0.000000 0.746195
O O14 0.000000 0.886314 0.000000
O O15 0.500000 0.679737 0.500000
O O16 0.358547 0.658555 0.332874
O O17 0.207342 0.000000 0.726870
O O18 0.720806 0.000000 0.641674
#
# Coordination Sequence:
#
# PCOD9197088 Si02
#       7
#     8   8   8   8   8   8   8
#     4  12  24  37  59  89 118 157 200 245 294 357
#     4  10  20  35  58  87 117 152 191 238 304 364
#     4  10  21  39  60  83 118 164 203 240 289 349
#     4  10  22  41  61  86 123 158 195 245 304 364
#     4  12  22  33  56  88 123 157 192 238 298 356
#     4  11  22  39  62  90 123 152 194 253 306 354
#     4  10  20  38  62  85 114 156 204 245 289 350
#
# _framework density 18.697944
#
# number of rings (size 3 to 8) (size 9 to 14) (size 15 to 20)
#    0.000    1.286    2.857    3.857    0.000    4.857 
#    0.000    0.000    0.000    0.429    0.000    0.000 
#    0.000    0.000    0.000    0.000    0.000    0.000 
#
# Total GULP energy -156387.000222 kJ/mol
# GULP energy per Si atom -5585.250008 kJ/mol
# Density = 1.865539 g / cm^3
# Si number density = 18.697944 Si / 1000 Ang^3
#
#
#
# Elastic Constant Matrix: (Units=GPa)
#
#
# Indices 1 2 3 4 5 6 
#
# 1 87.9522 38.3757 19.4602 0.0000 -11.4822 0.0000
# 2 38.3757 82.8378 40.2050 0.0000 -0.4827 0.0000
# 3 19.4602 40.2050 51.5559 0.0000 -5.3629 0.0000
# 4 0.0000 0.0000 0.0000 32.1464 0.0000 1.8746
# 5 -11.4822 -0.4827 -5.3629 0.0000 24.7384 0.0000
# 6 0.0000 0.0000 0.0000 1.8746 0.0000 25.0541
#
#
#
# Elastic Compliance Matrix: (Units=1/GPa)
#
#
# Indices 1 2 3 4 5 6 
#
# 1 0.015390 -0.007449 0.000745 0.000000 0.007159 0.000000
# 2 -0.007449 0.023245 -0.015988 0.000000 -0.006470 0.000000
# 3 0.000745 -0.015988 0.032316 0.000000 0.007039 0.000000
# 4 0.000000 0.000000 0.000000 0.031244 0.000000 -0.002338
# 5 0.007159 -0.006470 0.007039 0.000000 0.045146 0.000000
# 6 0.000000 0.000000 0.000000 -0.002338 0.000000 0.040088
#
#
# Mechanical properties :
#
#
# Convention : Reuss Voigt Hill
#
# Bulk Modulus (GPa) = 39.11602 46.49197 42.80400
# Shear Modulus (GPa) = 20.71797 24.67480 22.69638
#
# Velocity S-wave (km/s) = 3.33233 3.63664 3.48781
# Velocity P-wave (km/s) = 5.98091 6.52321 6.25794
#
# Compressibility (1/GPa) = 0.02556497
#
# Stress axis : x y z
#
# Youngs Moduli (GPa) = 64.97719 43.01986 30.94467
#
# Poissons Ratio (x) = 0.32048 -0.02305
# Poissons Ratio (y) = 0.48405 0.49476
# Poissons Ratio (z) = -0.04841 0.68782
#
# Static dielectric constant tensor:
#      x y z
#    x 1.662820 0.000000 -0.019290 
#    y 0.000000 1.647110 0.000000 
#    z -0.019290 0.000000 1.652580 
# 
# From -- ./inp_files/183532.got.cif
#   From: 2010.05.17/outbox.cif.g08.bks.cpg/sg12_92_cif.got.tgz:183532.got - 2010.06.03 13:09:07.
