data_PCOD9197207
_publ_section_title
;
Structure prediction by ZEFSAII (Michael W. Deem and Ramdas Pophale) SiO2 
 PCOD9197207
Probable space group: C 2/M
;
_chemical_formula_sum "Si O2"
_cell_formula_units_Z 58
_cell_length_a 20.527799
_cell_length_b 8.038830
_cell_length_c 21.032633
_cell_angle_alpha 90.000000
_cell_angle_beta 132.786351
_cell_angle_gamma 90.000000
_cell_volume 2547.187127
_symmetry_space_group_name_H-M "C 2/M"
_symmetry_group_IT_number 12
_symmetry_cell_setting 'monoclinic'
loop_
_space_group_symop_operation_xyz
x,y,z
-x,y,-z
-x,-y,-z
x,-y,z
1/2+x,1/2+y,z
1/2-x,1/2+y,-z
1/2-x,1/2-y,-z
1/2+x,1/2-y,z
loop_
_atom_site_type_symbol
_atom_site_label
_atom_site_fract_x
_atom_site_fract_y
_atom_site_fract_z
Si Si1 0.030459 0.807636 0.183441
Si Si2 0.801482 0.804493 0.218312
Si Si3 0.000000 0.500000 0.000000
Si Si4 0.609122 0.684365 0.095529
Si Si5 0.374093 0.685929 0.534920
Si Si6 0.697141 0.306930 0.368494
Si Si7 0.540655 0.811511 0.591406
Si Si8 0.337925 0.700241 0.097194
O O1 0.056591 0.811053 0.127293
O O2 0.116361 0.730018 0.274938
O O3 0.932696 0.737010 0.132372
O O4 0.027930 0.000000 0.205165
O O5 0.712837 0.706927 0.177486
O O6 0.879020 0.775816 0.320191
O O7 0.829860 0.750555 0.165885
O O8 0.781634 0.000000 0.202729
O O9 0.925245 0.350130 0.961801
O O10 0.596802 0.500000 0.057306
O O11 0.408861 0.500000 0.548380
O O12 0.336107 0.695172 0.580769
O O13 0.292844 0.721004 0.433179
O O14 0.455448 0.808811 0.580784
O O15 0.710821 0.500000 0.358275
O O16 0.500000 0.735667 0.500000
O O17 0.568715 0.000000 0.595373
O O18 0.340724 0.500000 0.096169
O O19 0.250000 0.750000 0.000000
#
# Coordination Sequence:
#
# PCOD9197207 Si02
#       8
#     8   8   2   8   8   8   8   8
#     4   9  20  40  64  92 123 169 217 269 328 400
#     4  11  24  45  69 100 139 179 225 286 342 410
#     4  12  26  48  68 102 138 176 226 286 334 418
#     4  11  25  44  73 101 136 179 225 279 346 407
#     4  10  20  35  58  91 121 161 206 263 324 385
#     4   9  18  36  61  85 122 161 206 259 323 389
#     4  11  25  42  63  89 127 176 227 274 333 403
#     4  10  23  42  67  96 131 172 219 273 337 405
#
# _framework density 22.770216000000001
#
# number of rings (size 3 to 8) (size 9 to 14) (size 15 to 20)
#    0.000    1.793    0.690    2.276    3.862    4.966 
#    1.241    0.000    0.000    0.000    0.000    0.000 
#    0.000    0.000    0.000    0.000    0.000    0.000 
#
# Total GULP energy -161702.338462 kJ/mol
# GULP energy per Si atom -5575.942706 kJ/mol
# Density = 2.271839 g / cm^3
# Si number density = 22.770216 Si / 1000 Ang^3
#
#
#
# Elastic Constant Matrix: (Units=GPa)
#
#
# Indices 1 2 3 4 5 6 
#
# 1 72.8904 22.8030 40.9885 0.0000 22.0921 0.0000
# 2 22.8030 85.5030 35.3282 0.0000 1.7236 0.0000
# 3 40.9885 35.3282 132.4311 0.0000 19.7805 0.0000
# 4 0.0000 0.0000 0.0000 33.0782 0.0000 8.3212
# 5 22.0921 1.7236 19.7805 0.0000 37.2488 0.0000
# 6 0.0000 0.0000 0.0000 8.3212 0.0000 18.0710
#
#
#
# Elastic Compliance Matrix: (Units=1/GPa)
#
#
# Indices 1 2 3 4 5 6 
#
# 1 0.019860 -0.003547 -0.003764 0.000000 -0.009616 0.000000
# 2 -0.003547 0.013842 -0.003056 0.000000 0.003086 0.000000
# 3 -0.003764 -0.003056 0.009967 0.000000 -0.002919 0.000000
# 4 0.000000 0.000000 0.000000 0.034192 0.000000 -0.015745
# 5 -0.009616 0.003086 -0.002919 0.000000 0.033957 0.000000
# 6 0.000000 0.000000 0.000000 -0.015745 0.000000 0.062587
#
#
# Mechanical properties :
#
#
# Convention : Reuss Voigt Hill
#
# Bulk Modulus (GPa) = 43.60169 54.34042 48.97105
# Shear Modulus (GPa) = 24.65664 30.45992 27.55828
#
# Velocity S-wave (km/s) = 3.29423 3.66144 3.48268
# Velocity P-wave (km/s) = 5.80167 6.46462 6.14210
#
# Compressibility (1/GPa) = 0.02293489
#
# Stress axis : x y z
#
# Youngs Moduli (GPa) = 50.35190 72.24474 100.32814
#
# Poissons Ratio (x) = 0.25628 0.37767
# Poissons Ratio (y) = 0.17862 0.30656
# Poissons Ratio (z) = 0.18954 0.22075
#
# Static dielectric constant tensor:
#      x y z
#    x 1.861850 0.000000 -0.004090 
#    y 0.000000 1.858910 0.000000 
#    z -0.004090 0.000000 1.859000 
# 
# From -- ./inp_files/346565.got.cif
#   From: 2010.05.17/outbox.cif.g08.bks.cpg/sg12_174_cif.got.tgz:346565.got - 2010.06.03 13:09:07.
