data_PCOD9197297
_publ_section_title
;
Structure prediction by ZEFSAII (Michael W. Deem and Ramdas Pophale) SiO2 
 PCOD9197297
Probable space group: C 2/M
;
_chemical_formula_sum "Si O2"
_cell_formula_units_Z 64
_cell_length_a 31.200727
_cell_length_b 14.503543
_cell_length_c 7.720577
_cell_angle_alpha 90.000000
_cell_angle_beta 58.655247
_cell_angle_gamma 90.000000
_cell_volume 2983.824597
_symmetry_space_group_name_H-M "C 2/M"
_symmetry_group_IT_number 12
_symmetry_cell_setting 'monoclinic'
loop_
_space_group_symop_operation_xyz
x,y,z
-x,y,-z
-x,-y,-z
x,-y,z
1/2+x,1/2+y,z
1/2-x,1/2+y,-z
1/2-x,1/2-y,-z
1/2+x,1/2-y,z
loop_
_atom_site_type_symbol
_atom_site_label
_atom_site_fract_x
_atom_site_fract_y
_atom_site_fract_z
Si Si1 0.943607 0.222053 0.075192
Si Si2 0.792155 0.728909 0.551184
Si Si3 0.147438 0.107657 0.129283
Si Si4 0.866613 0.602508 0.862593
Si Si5 0.882263 0.395458 0.243048
Si Si6 0.240825 0.389529 0.062251
Si Si7 0.940582 0.759043 0.669083
Si Si8 0.648069 0.606865 0.714028
O O1 0.923442 0.317597 0.200335
O O2 0.909260 0.135709 0.195699
O O3 0.939854 0.235407 0.878083
O O4 0.000000 0.204747 0.000000
O O5 0.750000 0.750000 0.500000
O O6 0.830338 0.647269 0.417766
O O7 0.768205 0.687136 0.772608
O O8 0.822656 0.823986 0.472503
O O9 0.098738 0.160897 0.302108
O O10 0.136174 0.000000 0.160434
O O11 0.200868 0.123721 0.110239
O O12 0.156722 0.128646 0.902444
O O13 0.873599 0.500000 0.777916
O O14 0.807559 0.625363 0.959747
O O15 0.907824 0.668718 0.689689
O O16 0.877123 0.602052 0.045308
O O17 0.891655 0.500000 0.283075
O O18 0.238467 0.500000 0.119566
O O19 0.000000 0.761538 0.500000
O O20 0.659334 0.500000 0.662102
#
# Coordination Sequence:
#
# PCOD9197297 Si02
#       8
#     8   8   8   8   8   8   8   8
#     4   9  19  35  56  78 105 142 189 228 278 335
#     4  11  20  31  53  85 112 142 182 224 264 318
#     4   9  18  35  56  79 109 148 185 220 274 336
#     4   9  20  38  58  82 113 151 184 219 277 341
#     4   9  19  36  55  80 115 144 178 227 276 325
#     4  10  20  35  59  86 115 148 184 222 273 340
#     4  10  21  36  56  80 107 142 187 239 281 316
#     4   9  18  33  52  76 112 150 181 218 272 331
#
# _framework density 21.448982000000001
#
# number of rings (size 3 to 8) (size 9 to 14) (size 15 to 20)
#    0.000    2.500    1.250    1.125    0.000    4.000 
#    0.000    0.000    0.000    2.250    0.000    0.000 
#    0.000    0.000    0.000    0.000    0.000    0.000 
#
# Total GULP energy -178384.440848 kJ/mol
# GULP energy per Si atom -5574.513776 kJ/mol
# Density = 2.140016 g / cm^3
# Si number density = 21.448982 Si / 1000 Ang^3
#
#
#
# Elastic Constant Matrix: (Units=GPa)
#
#
# Indices 1 2 3 4 5 6 
#
# 1 103.5735 21.9600 22.5335 0.0000 -39.6448 0.0000
# 2 21.9600 89.1415 41.6304 0.0000 -20.2778 0.0000
# 3 22.5335 41.6304 58.6810 0.0000 -26.1925 0.0000
# 4 0.0000 0.0000 0.0000 9.4560 0.0000 -5.2336
# 5 -39.6448 -20.2778 -26.1925 0.0000 38.5604 0.0000
# 6 0.0000 0.0000 0.0000 -5.2336 0.0000 17.2970
#
#
#
# Elastic Compliance Matrix: (Units=1/GPa)
#
#
# Indices 1 2 3 4 5 6 
#
# 1 0.016114 -0.001112 0.002490 0.000000 0.017674 0.000000
# 2 -0.001112 0.016883 -0.011622 0.000000 -0.000159 0.000000
# 3 0.002490 -0.011622 0.032641 0.000000 0.018620 0.000000
# 4 0.000000 0.000000 0.000000 0.127025 0.000000 0.038435
# 5 0.017674 -0.000159 0.018620 0.000000 0.056668 0.000000
# 6 0.000000 0.000000 0.000000 0.038435 0.000000 0.069443
#
#
# Mechanical properties :
#
#
# Convention : Reuss Voigt Hill
#
# Bulk Modulus (GPa) = 22.14801 47.07154 34.60977
# Shear Modulus (GPa) = 14.11185 24.08084 19.09634
#
# Velocity S-wave (km/s) = 2.56779 3.35431 2.98705
# Velocity P-wave (km/s) = 4.37490 6.08238 5.29788
#
# Compressibility (1/GPa) = 0.04515079
#
# Stress axis : x y z
#
# Youngs Moduli (GPa) = 62.05804 59.22981 30.63621
#
# Poissons Ratio (x) = 0.06587 -0.07628
# Poissons Ratio (y) = 0.06902 0.35604
# Poissons Ratio (z) = -0.15452 0.68834
#
# Static dielectric constant tensor:
#      x y z
#    x 1.813040 0.000000 0.037470 
#    y 0.000000 1.791320 0.000000 
#    z 0.037470 0.000000 1.881770 
# 
# From -- ./inp_files/111601.got.cif
#   From: 2010.05.17/outbox.cif.g08.bks.cpg/sg12_56_cif.got.tgz:111601.got - 2010.06.03 13:09:07.
