data_PCOD9197994
_publ_section_title
;
Structure prediction by ZEFSAII (Michael W. Deem and Ramdas Pophale) SiO2 
 PCOD9197994
Probable space group: C 2/M
;
_chemical_formula_sum "Si O2"
_cell_formula_units_Z 64
_cell_length_a 29.145125
_cell_length_b 8.740554
_cell_length_c 14.416255
_cell_angle_alpha 90.000000
_cell_angle_beta 106.137271
_cell_angle_gamma 90.000000
_cell_volume 3527.761922
_symmetry_space_group_name_H-M "C 2/M"
_symmetry_group_IT_number 12
_symmetry_cell_setting 'monoclinic'
loop_
_space_group_symop_operation_xyz
x,y,z
-x,y,-z
-x,-y,-z
x,-y,z
1/2+x,1/2+y,z
1/2-x,1/2+y,-z
1/2-x,1/2-y,-z
1/2+x,1/2-y,z
loop_
_atom_site_type_symbol
_atom_site_label
_atom_site_fract_x
_atom_site_fract_y
_atom_site_fract_z
Si Si1 0.858634 0.183532 0.128348
Si Si2 0.676558 0.816223 0.085360
Si Si3 0.763537 0.684225 0.607087
Si Si4 0.859538 0.183750 0.749347
Si Si5 0.442122 0.674295 0.459703
Si Si6 0.053592 0.815443 0.333794
Si Si7 0.279196 0.314832 0.226508
Si Si8 0.447997 0.180300 0.269610
O O1 0.824834 0.237672 0.194413
O O2 0.911945 0.238915 0.179065
O O3 0.857181 0.000000 0.123650
O O4 0.838273 0.250531 0.021721
O O5 0.826021 0.500000 0.916512
O O6 0.643750 0.749918 0.149070
O O7 0.730765 0.771755 0.144369
O O8 0.764103 0.500000 0.604209
O O9 0.750000 0.750000 0.500000
O O10 0.815142 0.744766 0.668434
O O11 0.727607 0.732986 0.670431
O O12 0.908393 0.221998 0.723731
O O13 0.854654 0.000000 0.748489
O O14 0.500000 0.669226 0.500000
O O15 0.425145 0.500000 0.433662
O O16 0.426493 0.728403 0.552694
O O17 0.431356 0.775075 0.364578
O O18 0.002071 0.740763 0.290145
O O19 0.047236 0.000000 0.333982
O O20 0.280727 0.500000 0.228516
O O21 0.446753 0.000000 0.256554
#
# Coordination Sequence:
#
# PCOD9197994 Si02
#       8
#     8   8   8   8   8   8   8   8
#     4  11  21  36  57  78 103 140 181 219 265 317
#     4  10  20  37  57  81 110 135 169 220 273 321
#     4  10  20  36  55  81 116 148 180 220 265 311
#     4  10  20  36  58  82 106 140 184 221 261 317
#     4   8  15  31  52  72  98 135 173 210 255 306
#     4   9  19  36  57  78 104 142 184 220 257 313
#     4   8  18  35  56  79 105 140 178 216 259 314
#     4  11  22  34  50  78 112 140 173 222 272 314
#
# _framework density 18.141815000000001
#
# number of rings (size 3 to 8) (size 9 to 14) (size 15 to 20)
#    0.000    2.375    0.000    4.500    0.000    4.250 
#    0.000   12.500    0.000    3.750    0.000    0.000 
#    0.000    0.000    0.000    0.000    0.000    0.000 
#
# Total GULP energy -178551.235696 kJ/mol
# GULP energy per Si atom -5579.726116 kJ/mol
# Density = 1.810052 g / cm^3
# Si number density = 18.141815 Si / 1000 Ang^3
#
#
#
# Elastic Constant Matrix: (Units=GPa)
#
#
# Indices 1 2 3 4 5 6 
#
# 1 93.5349 35.5548 53.3987 0.0000 -23.4053 0.0000
# 2 35.5548 64.1919 39.5721 0.0000 -6.5434 0.0000
# 3 53.3987 39.5721 124.8064 0.0000 -11.9891 0.0000
# 4 0.0000 0.0000 0.0000 33.7245 0.0000 1.6823
# 5 -23.4053 -6.5434 -11.9891 0.0000 17.7452 0.0000
# 6 0.0000 0.0000 0.0000 1.6823 0.0000 16.7031
#
#
#
# Elastic Compliance Matrix: (Units=1/GPa)
#
#
# Indices 1 2 3 4 5 6 
#
# 1 0.021832 -0.006655 -0.005027 0.000000 0.022946 0.000000
# 2 -0.006655 0.021563 -0.004351 0.000000 -0.003766 0.000000
# 3 -0.005027 -0.004351 0.011498 0.000000 -0.000466 0.000000
# 4 0.000000 0.000000 0.000000 0.029802 0.000000 -0.003002
# 5 0.022946 -0.003766 -0.000466 0.000000 0.084914 0.000000
# 6 0.000000 0.000000 0.000000 -0.003002 0.000000 0.060172
#
#
# Mechanical properties :
#
#
# Convention : Reuss Voigt Hill
#
# Bulk Modulus (GPa) = 43.80713 59.95385 51.88049
# Shear Modulus (GPa) = 18.55592 23.90173 21.22882
#
# Velocity S-wave (km/s) = 3.20163 3.63367 3.42447
# Velocity P-wave (km/s) = 6.15360 7.12206 6.65547
#
# Compressibility (1/GPa) = 0.02282733
#
# Stress axis : x y z
#
# Youngs Moduli (GPa) = 45.80354 46.37612 86.97139
#
# Poissons Ratio (x) = 0.30862 0.43719
# Poissons Ratio (y) = 0.30481 0.37845
# Poissons Ratio (z) = 0.23025 0.20180
#
# Static dielectric constant tensor:
#      x y z
#    x 1.625070 0.000000 -0.016490 
#    y 0.000000 1.610220 0.000000 
#    z -0.016490 0.000000 1.615240 
# 
# From -- ./inp_files/244224.got.cif
#   From: 2010.05.17/outbox.cif.g08.bks.cpg/sg12_123_cif.got.tgz:244224.got - 2010.06.03 13:09:07.
