data_PCOD9197986
_publ_section_title
;
Structure prediction by ZEFSAII (Michael W. Deem and Ramdas Pophale) SiO2 
 PCOD9197986
Probable space group: C 2/M
;
_chemical_formula_sum "Si O2"
_cell_formula_units_Z 44
_cell_length_a 14.531600
_cell_length_b 7.721428
_cell_length_c 17.332088
_cell_angle_alpha 90.000000
_cell_angle_beta 120.353717
_cell_angle_gamma 90.000000
_cell_volume 1678.160779
_symmetry_space_group_name_H-M "C 2/M"
_symmetry_group_IT_number 12
_symmetry_cell_setting 'monoclinic'
loop_
_space_group_symop_operation_xyz
x,y,z
-x,y,-z
-x,-y,-z
x,-y,z
1/2+x,1/2+y,z
1/2-x,1/2+y,-z
1/2-x,1/2-y,-z
1/2+x,1/2-y,z
loop_
_atom_site_type_symbol
_atom_site_label
_atom_site_fract_x
_atom_site_fract_y
_atom_site_fract_z
Si Si1 0.810195 0.804994 0.323004
Si Si2 0.522370 0.198436 0.712614
Si Si3 0.814461 0.186828 0.925691
Si Si4 0.365395 0.793772 0.515830
Si Si5 0.069758 0.703969 0.176258
Si Si6 0.830992 0.000000 0.080087
O O1 0.864520 0.772599 0.428269
O O2 0.683522 0.783935 0.271360
O O3 0.863428 0.694971 0.278799
O O4 0.831579 0.000000 0.308175
O O5 0.448583 0.276710 0.613718
O O6 0.507714 0.284396 0.790087
O O7 0.486470 0.000000 0.708856
O O8 0.896201 0.212245 0.890236
O O9 0.737901 0.349306 0.902259
O O10 0.755751 0.000000 0.893623
O O11 0.869360 0.151904 0.031807
O O12 0.250000 0.750000 0.500000
O O13 0.381446 0.000000 0.517375
O O14 0.044253 0.500000 0.149634
#
# Coordination Sequence:
#
# PCOD9197986 Si02
#       6
#     8   8   8   8   8   4
#     4  11  23  38  55  81 113 147 189 237 283 331
#     4  10  22  39  55  77 112 151 188 234 286 332
#     4   9  16  29  53  83 115 147 186 226 276 337
#     4  11  21  37  58  77 105 148 194 237 285 335
#     4  10  20  36  55  80 116 150 183 234 287 331
#     4   8  16  30  50  86 116 140 188 230 266 338
#
# _framework density 26.219182
#
# number of rings (size 3 to 8) (size 9 to 14) (size 15 to 20)
#    0.545    1.455    2.727    1.636    0.000    5.818 
#    0.000    0.000    0.000    0.000    0.000    7.636 
#    0.000    0.000    0.000    0.000    0.000    0.000 
#
# Total GULP energy -122489.105538 kJ/mol
# GULP energy per Si atom -5567.686615 kJ/mol
# Density = 2.615951 g / cm^3
# Si number density = 26.219182 Si / 1000 Ang^3
#
#
#
# Elastic Constant Matrix: (Units=GPa)
#
#
# Indices 1 2 3 4 5 6 
#
# 1 109.8318 1.1275 24.0758 0.0000 -46.0927 0.0000
# 2 1.1275 76.7548 8.1673 0.0000 -24.8837 0.0000
# 3 24.0758 8.1673 172.6984 0.0000 -40.5820 0.0000
# 4 0.0000 0.0000 0.0000 28.7005 0.0000 -28.6330
# 5 -46.0927 -24.8837 -40.5820 0.0000 57.3798 0.0000
# 6 0.0000 0.0000 0.0000 -28.6330 0.0000 10.2108
#
#
#
# Elastic Compliance Matrix: (Units=1/GPa)
#
#
# Indices 1 2 3 4 5 6 
#
# 1 0.015031 0.004467 0.001182 0.000000 0.014847 0.000000
# 2 0.004467 0.016631 0.001354 0.000000 0.011758 0.000000
# 3 0.001182 0.001354 0.007103 0.000000 0.006561 0.000000
# 4 0.000000 0.000000 0.000000 -0.019383 0.000000 -0.054353
# 5 0.014847 0.011758 0.006561 0.000000 0.039093 0.000000
# 6 0.000000 0.000000 0.000000 -0.054353 0.000000 -0.054481
#
#
# Mechanical properties :
#
#
# Convention : Reuss Voigt Hill
#
# Bulk Modulus (GPa) = 18.95005 47.33623 33.14314
# Shear Modulus (GPa) = 659.77507 40.98585 350.38046
#
# Velocity S-wave (km/s) = 15.88032 3.95802 11.57261
# Velocity P-wave (km/s) = 18.53347 6.24349 13.82878
#
# Compressibility (1/GPa) = 0.05277032
#
# Stress axis : x y z
#
# Youngs Moduli (GPa) = 66.53031 60.12987 140.78062
#
# Poissons Ratio (x) = -0.26859 -0.16644
# Poissons Ratio (y) = -0.29718 -0.19057
# Poissons Ratio (z) = -0.07866 -0.08140
#
# Static dielectric constant tensor:
#      x y z
#    x 2.075920 0.000000 0.084630 
#    y 0.000000 2.683270 0.000000 
#    z 0.084630 0.000000 2.180980 
# 
# From -- ./inp_files/267144.got.cif
#   From: 2010.05.17/outbox.cif.g08.bks.cpg/sg12_134_cif.got.tgz:267144.got - 2010.06.03 13:09:07.
