data_PCOD9197924
_publ_section_title
;
Structure prediction by ZEFSAII (Michael W. Deem and Ramdas Pophale) SiO2 
 PCOD9197924
Probable space group: C 2/M
;
_chemical_formula_sum "Si O2"
_cell_formula_units_Z 64
_cell_length_a 19.752969
_cell_length_b 7.457048
_cell_length_c 19.407341
_cell_angle_alpha 90.000000
_cell_angle_beta 99.885029
_cell_angle_gamma 90.000000
_cell_volume 2816.239451
_symmetry_space_group_name_H-M "C 2/M"
_symmetry_group_IT_number 12
_symmetry_cell_setting 'monoclinic'
loop_
_space_group_symop_operation_xyz
x,y,z
-x,y,-z
-x,-y,-z
x,-y,z
1/2+x,1/2+y,z
1/2-x,1/2+y,-z
1/2-x,1/2-y,-z
1/2+x,1/2-y,z
loop_
_atom_site_type_symbol
_atom_site_label
_atom_site_fract_x
_atom_site_fract_y
_atom_site_fract_z
Si Si1 0.090550 0.220624 0.176502
Si Si2 0.078638 0.719238 0.514014
Si Si3 0.307626 0.213018 0.567569
Si Si4 0.945238 0.214662 0.210300
Si Si5 0.163928 0.789953 0.056920
Si Si6 0.369172 0.785956 0.329787
Si Si7 0.681301 0.282688 0.904291
Si Si8 0.278082 0.295785 0.717553
O O1 0.109026 0.279538 0.102188
O O2 0.154846 0.281933 0.234297
O O3 0.017562 0.281264 0.193376
O O4 0.089247 0.000000 0.177276
O O5 0.079803 0.500000 0.514692
O O6 0.121517 0.775482 0.454847
O O7 0.114714 0.780871 0.590877
O O8 0.000000 0.776060 0.500000
O O9 0.250000 0.250000 0.500000
O O10 0.290660 0.297562 0.637707
O O11 0.310873 0.000000 0.579482
O O12 0.930618 0.254266 0.287476
O O13 0.879050 0.281377 0.156105
O O14 0.945991 0.000000 0.202754
O O15 0.241078 0.771683 0.100579
O O16 0.149050 0.000000 0.046550
O O17 0.166870 0.716442 0.979893
O O18 0.297418 0.711526 0.287237
O O19 0.360009 0.000000 0.334481
O O20 0.681194 0.500000 0.904565
O O21 0.273634 0.500000 0.742792
#
# Coordination Sequence:
#
# PCOD9197924 Si02
#       8
#     8   8   8   8   8   8   8   8
#     4   9  19  34  53  76 106 140 174 214 258 308
#     4   9  19  35  54  76 103 134 170 213 257 304
#     4  11  21  36  58  81 104 134 172 217 263 309
#     4  10  21  35  50  76 111 139 167 214 267 306
#     4   9  17  33  57  79 100 138 182 211 250 308
#     4  10  20  36  56  75 100 139 179 212 252 310
#     4   9  18  32  53  80 108 135 170 218 260 301
#     4  10  20  36  55  76 103 136 175 218 257 303
#
# _framework density 22.725339999999999
#
# number of rings (size 3 to 8) (size 9 to 14) (size 15 to 20)
#    0.000    2.375    1.250    1.125    1.750    2.500 
#    0.000    3.750    0.000    1.875    0.000    4.375 
#    0.000    0.000    0.000    0.000    0.000    0.000 
#
# Total GULP energy -178792.889008 kJ/mol
# GULP energy per Si atom -5587.277782 kJ/mol
# Density = 2.267362 g / cm^3
# Si number density = 22.725340 Si / 1000 Ang^3
#
#
#
# Elastic Constant Matrix: (Units=GPa)
#
#
# Indices 1 2 3 4 5 6 
#
# 1 112.7924 -4.3855 23.9072 0.0000 -33.1285 0.0000
# 2 -4.3855 72.5633 -5.3297 0.0000 0.4668 0.0000
# 3 23.9072 -5.3297 68.1436 0.0000 -22.4385 0.0000
# 4 0.0000 0.0000 0.0000 9.2677 0.0000 -4.7890
# 5 -33.1285 0.4668 -22.4385 0.0000 42.4762 0.0000
# 6 0.0000 0.0000 0.0000 -4.7890 0.0000 9.6491
#
#
#
# Elastic Compliance Matrix: (Units=1/GPa)
#
#
# Indices 1 2 3 4 5 6 
#
# 1 0.011620 0.000555 -0.001272 0.000000 0.008384 0.000000
# 2 0.000555 0.013896 0.001192 0.000000 0.000910 0.000000
# 3 -0.001272 0.001192 0.018017 0.000000 0.008512 0.000000
# 4 0.000000 0.000000 0.000000 0.145120 0.000000 0.072025
# 5 0.008384 0.000910 0.008512 0.000000 0.034569 0.000000
# 6 0.000000 0.000000 0.000000 0.072025 0.000000 0.139383
#
#
# Mechanical properties :
#
#
# Convention : Reuss Voigt Hill
#
# Bulk Modulus (GPa) = 22.48111 31.32038 26.90074
# Shear Modulus (GPa) = 13.28078 28.23241 20.75659
#
# Velocity S-wave (km/s) = 2.42007 3.52850 3.02548
# Velocity P-wave (km/s) = 4.20987 5.51475 4.90588
#
# Compressibility (1/GPa) = 0.04448178
#
# Stress axis : x y z
#
# Youngs Moduli (GPa) = 86.06087 71.96165 55.50160
#
# Poissons Ratio (x) = -0.03993 0.07062
# Poissons Ratio (y) = -0.04775 -0.06614
# Poissons Ratio (z) = 0.10950 -0.08576
#
# Static dielectric constant tensor:
#      x y z
#    x 1.826990 0.000000 0.003200 
#    y 0.000000 1.856110 0.000000 
#    z 0.003200 0.000000 1.822090 
# 
# From -- ./inp_files/314145.got.cif
#   From: 2010.05.17/outbox.cif.g08.bks.cpg/sg12_158_cif.got.tgz:314145.got - 2010.06.03 13:09:07.
