data_PCOD9197818
_publ_section_title
;
Structure prediction by ZEFSAII (Michael W. Deem and Ramdas Pophale) SiO2 
 PCOD9197818
Probable space group: C 2/M
;
_chemical_formula_sum "Si O2"
_cell_formula_units_Z 58
_cell_length_a 30.535393
_cell_length_b 12.753416
_cell_length_c 17.145102
_cell_angle_alpha 90.000000
_cell_angle_beta 154.675696
_cell_angle_gamma 90.000000
_cell_volume 2855.954746
_symmetry_space_group_name_H-M "C 2/M"
_symmetry_group_IT_number 12
_symmetry_cell_setting 'monoclinic'
loop_
_space_group_symop_operation_xyz
x,y,z
-x,y,-z
-x,-y,-z
x,-y,z
1/2+x,1/2+y,z
1/2-x,1/2+y,-z
1/2-x,1/2-y,-z
1/2+x,1/2-y,z
loop_
_atom_site_type_symbol
_atom_site_label
_atom_site_fract_x
_atom_site_fract_y
_atom_site_fract_z
Si Si1 0.353098 0.117800 0.545281
Si Si2 0.024265 0.317205 0.707761
Si Si3 0.000000 0.000000 0.500000
Si Si4 0.809299 0.616287 0.130860
Si Si5 0.883934 0.885768 0.085357
Si Si6 0.290202 0.263145 0.798297
Si Si7 0.485053 0.123654 0.068218
Si Si8 0.878426 0.795030 0.357716
O O1 0.444842 0.115563 0.628893
O O2 0.266767 0.192119 0.369559
O O3 0.411641 0.152123 0.718026
O O4 0.312811 0.000000 0.491095
O O5 0.132300 0.368583 0.857106
O O6 0.966937 0.276758 0.538666
O O7 0.042737 0.211520 0.785975
O O8 0.079423 0.906311 0.599725
O O9 0.844737 0.500000 0.217246
O O10 0.687819 0.611862 0.952466
O O11 0.836136 0.720656 0.221667
O O12 0.817874 0.859331 0.902041
O O13 0.932564 0.000000 0.157728
O O14 0.209015 0.196059 0.717410
O O15 0.390550 0.195870 0.941976
O O16 0.465284 0.000000 0.053889
O O17 0.500000 0.134130 0.000000
#
# Coordination Sequence:
#
# PCOD9197818 Si02
#       8
#     8   8   2   8   8   8   8   8
#     4  10  21  38  64  92 120 161 201 249 307 367
#     4  11  19  34  51  83 112 156 205 248 299 359
#     4  12  20  40  46  80 122 172 204 258 300 372
#     4  10  20  36  52  77 111 156 209 258 297 349
#     4  10  21  34  54  80 119 157 197 254 303 352
#     4  10  21  41  62  90 120 160 211 250 304 368
#     4  10  22  42  67  95 125 156 196 253 318 380
#     4  10  23  33  54  79 117 163 206 250 307 356
#
# _framework density 20.308446
#
# number of rings (size 3 to 8) (size 9 to 14) (size 15 to 20)
#    0.000    1.793    2.759    1.241    1.931    4.966 
#    0.000    0.000    0.000    1.655    0.000    0.000 
#    0.000    0.000    0.000    0.000    0.000    0.000 
#
# Total GULP energy -161465.588992 kJ/mol
# GULP energy per Si atom -5567.778931 kJ/mol
# Density = 2.026222 g / cm^3
# Si number density = 20.308446 Si / 1000 Ang^3
#
#
#
# Elastic Constant Matrix: (Units=GPa)
#
#
# Indices 1 2 3 4 5 6 
#
# 1 38.6326 13.5971 9.1967 0.0000 -8.6723 0.0000
# 2 13.5971 112.2506 14.9708 0.0000 -4.2286 0.0000
# 3 9.1967 14.9708 54.2384 0.0000 -15.3255 0.0000
# 4 0.0000 0.0000 0.0000 8.3296 0.0000 -8.0466
# 5 -8.6723 -4.2286 -15.3255 0.0000 29.4976 0.0000
# 6 0.0000 0.0000 0.0000 -8.0466 0.0000 2.9823
#
#
#
# Elastic Compliance Matrix: (Units=1/GPa)
#
#
# Indices 1 2 3 4 5 6 
#
# 1 0.029006 -0.002967 -0.002121 0.000000 0.007000 0.000000
# 2 -0.002967 0.009553 -0.002336 0.000000 -0.000717 0.000000
# 3 -0.002121 -0.002336 0.022469 0.000000 0.010715 0.000000
# 4 0.000000 0.000000 0.000000 -0.074734 0.000000 -0.201639
# 5 0.007000 -0.000717 0.010715 0.000000 0.041424 0.000000
# 6 0.000000 0.000000 0.000000 -0.201639 0.000000 -0.208732
#
#
# Mechanical properties :
#
#
# Convention : Reuss Voigt Hill
#
# Bulk Modulus (GPa) = 21.65496 31.18343 26.41919
# Shear Modulus (GPa) = -33.16234 19.31903 -6.92165
#
# Velocity S-wave (km/s) = -4.04534 3.08763 -1.84815
# Velocity P-wave (km/s) = 3.33669 5.30090 2.91256
#
# Compressibility (1/GPa) = 0.04617881
#
# Stress axis : x y z
#
# Youngs Moduli (GPa) = 34.47618 104.68366 44.50511
#
# Poissons Ratio (x) = 0.31058 0.09441
# Poissons Ratio (y) = 0.10229 0.10397
# Poissons Ratio (z) = 0.07314 0.24455
#
# Static dielectric constant tensor:
#      x y z
#    x 1.746090 0.000000 -0.048750 
#    y 0.000000 1.704440 0.000000 
#    z -0.048750 0.000000 1.809230 
# 
# From -- ./inp_files/296290.got.cif
#   From: 2010.05.17/outbox.cif.g08.bks.cpg/sg12_149_cif.got.tgz:296290.got - 2010.06.03 13:09:07.
