data_PCOD9197992
_publ_section_title
;
Structure prediction by ZEFSAII (Michael W. Deem and Ramdas Pophale) SiO2 
 PCOD9197992
Probable space group: C 2/M
;
_chemical_formula_sum "Si O2"
_cell_formula_units_Z 56
_cell_length_a 25.098380
_cell_length_b 8.732344
_cell_length_c 13.793846
_cell_angle_alpha 90.000000
_cell_angle_beta 85.419655
_cell_angle_gamma 90.000000
_cell_volume 3013.510349
_symmetry_space_group_name_H-M "C 2/M"
_symmetry_group_IT_number 12
_symmetry_cell_setting 'monoclinic'
loop_
_space_group_symop_operation_xyz
x,y,z
-x,y,-z
-x,-y,-z
x,-y,z
1/2+x,1/2+y,z
1/2-x,1/2+y,-z
1/2-x,1/2-y,-z
1/2+x,1/2-y,z
loop_
_atom_site_type_symbol
_atom_site_label
_atom_site_fract_x
_atom_site_fract_y
_atom_site_fract_z
Si Si1 0.166790 0.684141 0.339646
Si Si2 0.056866 0.817194 0.043158
Si Si3 0.443805 0.316345 0.310416
Si Si4 0.056426 0.316136 0.258602
Si Si5 0.780702 0.184681 0.261062
Si Si6 0.656671 0.317296 0.551141
Si Si7 0.121663 0.682540 0.861656
O O1 0.167088 0.500000 0.338108
O O2 0.110632 0.736473 0.303387
O O3 0.219033 0.733248 0.271744
O O4 0.171359 0.737020 0.449642
O O5 0.057923 0.738933 0.147408
O O6 0.061540 0.000000 0.053172
O O7 0.102215 0.753243 0.965380
O O8 0.000000 0.784708 0.000000
O O9 0.444675 0.500000 0.299496
O O10 0.503105 0.253168 0.313622
O O11 0.403086 0.277728 0.403240
O O12 0.417659 0.246857 0.216727
O O13 0.053575 0.500000 0.262506
O O14 0.804938 0.221013 0.364062
O O15 0.819295 0.263901 0.178262
O O16 0.784677 0.000000 0.248533
O O17 0.659266 0.500000 0.536941
O O18 0.118061 0.500000 0.864766
#
# Coordination Sequence:
#
# PCOD9197992 Si02
#       7
#     8   8   8   8   8   8   8
#     4  10  22  38  56  80 114 152 187 230 280 327
#     4  11  22  37  60  85 111 146 184 222 275 337
#     4  10  20  36  55  81 114 149 186 226 278 334
#     4  11  23  37  55  83 115 147 186 231 279 328
#     4   9  19  38  59  81 113 150 188 229 274 328
#     4   9  19  34  57  83 108 144 192 236 273 324
#     4  11  21  34  58  89 114 139 180 235 280 322
#
# _framework density 18.582979000000002
#
# number of rings (size 3 to 8) (size 9 to 14) (size 15 to 20)
#    0.000    1.857    1.429    3.857    0.000    5.714 
#    0.000    3.571    0.000    0.000    0.000    0.000 
#    0.000    0.000    0.000    0.000    0.000    0.000 
#
# Total GULP energy -156403.591335 kJ/mol
# GULP energy per Si atom -5585.842548 kJ/mol
# Density = 1.854068 g / cm^3
# Si number density = 18.582979 Si / 1000 Ang^3
#
#
#
# Elastic Constant Matrix: (Units=GPa)
#
#
# Indices 1 2 3 4 5 6 
#
# 1 118.6072 21.9386 3.8401 0.0000 -22.2790 0.0000
# 2 21.9386 31.7916 2.1218 0.0000 -4.7440 0.0000
# 3 3.8401 2.1218 18.0556 0.0000 -16.0707 0.0000
# 4 0.0000 0.0000 0.0000 24.4848 0.0000 -6.3520
# 5 -22.2790 -4.7440 -16.0707 0.0000 22.1942 0.0000
# 6 0.0000 0.0000 0.0000 -6.3520 0.0000 24.8423
#
#
#
# Elastic Compliance Matrix: (Units=1/GPa)
#
#
# Indices 1 2 3 4 5 6 
#
# 1 0.015230 -0.007319 0.027668 0.000000 0.033758 0.000000
# 2 -0.007319 0.036295 -0.006590 0.000000 -0.004361 0.000000
# 3 0.027668 -0.006590 0.207424 0.000000 0.176559 0.000000
# 4 0.000000 0.000000 0.000000 0.043743 0.000000 0.011185
# 5 0.033758 -0.004361 0.176559 0.000000 0.205857 0.000000
# 6 0.000000 0.000000 0.000000 0.011185 0.000000 0.043114
#
#
# Mechanical properties :
#
#
# Convention : Reuss Voigt Hill
#
# Bulk Modulus (GPa) = 3.49081 24.91728 14.20405
# Shear Modulus (GPa) = 8.06927 23.67452 15.87189
#
# Velocity S-wave (km/s) = 2.08608 3.57317 2.92569
# Velocity P-wave (km/s) = 2.77216 5.51916 4.36727
#
# Compressibility (1/GPa) = 0.28646656
#
# Stress axis : x y z
#
# Youngs Moduli (GPa) = 65.65863 27.55228 4.82105
#
# Poissons Ratio (x) = 0.20166 -0.13339
# Poissons Ratio (y) = 0.48056 0.03177
# Poissons Ratio (z) = -1.81663 0.18157
#
# Static dielectric constant tensor:
#      x y z
#    x 1.663100 0.000000 -0.008340 
#    y 0.000000 1.619920 0.000000 
#    z -0.008340 0.000000 1.605200 
# 
# From -- ./inp_files/231004.got.cif
#   From: 2010.05.17/outbox.cif.g08.bks.cpg/sg12_116_cif.got.tgz:231004.got - 2010.06.03 13:09:07.
