data_PCOD9197803
_publ_section_title
;
Structure prediction by ZEFSAII (Michael W. Deem and Ramdas Pophale) SiO2 
 PCOD9197803
Probable space group: C 2/M
;
_chemical_formula_sum "Si O2"
_cell_formula_units_Z 36
_cell_length_a 16.652117
_cell_length_b 10.098567
_cell_length_c 13.070049
_cell_angle_alpha 90.000000
_cell_angle_beta 108.708438
_cell_angle_gamma 90.000000
_cell_volume 2081.762438
_symmetry_space_group_name_H-M "C 2/M"
_symmetry_group_IT_number 12
_symmetry_cell_setting 'monoclinic'
loop_
_space_group_symop_operation_xyz
x,y,z
-x,y,-z
-x,-y,-z
x,-y,z
1/2+x,1/2+y,z
1/2-x,1/2+y,-z
1/2-x,1/2-y,-z
1/2+x,1/2-y,z
loop_
_atom_site_type_symbol
_atom_site_label
_atom_site_fract_x
_atom_site_fract_y
_atom_site_fract_z
Si Si1 0.379824 0.000000 0.661967
Si Si2 0.398701 0.500000 0.846558
Si Si3 0.418577 0.000000 0.230086
Si Si4 0.098275 0.000000 0.920439
Si Si5 0.811900 0.248838 0.123120
Si Si6 0.173453 0.500000 0.589474
Si Si7 0.707060 0.732146 0.287531
O O1 0.374834 0.000000 0.536982
O O2 0.331217 0.866377 0.680400
O O3 0.479240 0.000000 0.735641
O O4 0.498514 0.500000 0.890811
O O5 0.366455 0.631127 0.777283
O O6 0.363611 0.500000 0.948643
O O7 0.372358 0.124682 0.159236
O O8 0.387763 0.000000 0.336375
O O9 0.128218 0.874359 0.871046
O O10 0.758430 0.234444 0.205091
O O11 0.750000 0.250000 0.000000
O O12 0.231398 0.633794 0.621785
#
# Coordination Sequence:
#
# PCOD9197803 Si02
#       7
#     4   4   4   4   8   4   8
#     4  12  21  37  58  89 110 136 190 254 272 306
#     4  10  20  36  49  77 107 148 177 218 266 332
#     4  10  23  37  57  84 115 144 185 232 283 330
#     4  11  20  32  55  73 108 147 182 212 270 318
#     4  11  20  37  55  78 109 153 181 218 271 337
#     4   9  21  40  61  76 111 155 183 219 293 344
#     4  10  21  37  57  82 110 143 189 225 273 335
#
# _framework density 17.293039
#
# number of rings (size 3 to 8) (size 9 to 14) (size 15 to 20)
#    0.000    1.556    2.222    4.333    0.000    0.000 
#    0.000    1.111    0.000    0.000    0.000   18.667 
#    0.000    0.000    0.000    0.000    0.000    0.000 
#
# Total GULP energy -100378.187750 kJ/mol
# GULP energy per Si atom -5576.565986 kJ/mol
# Density = 1.725368 g / cm^3
# Si number density = 17.293039 Si / 1000 Ang^3
#
#
#
# Elastic Constant Matrix: (Units=GPa)
#
#
# Indices 1 2 3 4 5 6 
#
# 1 96.3277 60.1913 32.8028 0.0000 7.0168 0.0000
# 2 60.1913 165.9865 49.7352 0.0000 -8.1377 0.0000
# 3 32.8028 49.7352 91.2984 0.0000 6.8324 0.0000
# 4 0.0000 0.0000 0.0000 19.5109 0.0000 -10.2362
# 5 7.0168 -8.1377 6.8324 0.0000 18.0668 0.0000
# 6 0.0000 0.0000 0.0000 -10.2362 0.0000 29.4945
#
#
#
# Elastic Compliance Matrix: (Units=1/GPa)
#
#
# Indices 1 2 3 4 5 6 
#
# 1 0.014792 -0.005131 -0.001972 0.000000 -0.007310 0.000000
# 2 -0.005131 0.009421 -0.003864 0.000000 0.007698 0.000000
# 3 -0.001972 -0.003864 0.014243 0.000000 -0.006361 0.000000
# 4 0.000000 0.000000 0.000000 0.062663 0.000000 0.021747
# 5 -0.007310 0.007698 -0.006361 0.000000 0.064062 0.000000
# 6 0.000000 0.000000 0.000000 0.021747 0.000000 0.041452
#
#
# Mechanical properties :
#
#
# Convention : Reuss Voigt Hill
#
# Bulk Modulus (GPa) = 60.53462 71.00790 65.77126
# Shear Modulus (GPa) = 21.36070 27.47330 24.41700
#
# Velocity S-wave (km/s) = 3.51838 3.99016 3.76168
# Velocity P-wave (km/s) = 7.18238 7.89805 7.54870
#
# Compressibility (1/GPa) = 0.01651947
#
# Stress axis : x y z
#
# Youngs Moduli (GPa) = 67.60550 106.15005 70.21098
#
# Poissons Ratio (x) = 0.54469 0.13847
# Poissons Ratio (y) = 0.34691 0.27132
# Poissons Ratio (z) = 0.13333 0.41020
#
# Static dielectric constant tensor:
#      x y z
#    x 1.289150 0.000000 0.048460 
#    y 0.000000 1.587750 0.000000 
#    z 0.048460 0.000000 1.578440 
# 
# From -- ./inp_files/151599.got.cif
#   From: 2010.05.17/outbox.cif.g08.bks.cpg/sg12_76_cif.got.tgz:151599.got - 2010.06.03 13:09:07.
