data_PCOD9197771
_publ_section_title
;
Structure prediction by ZEFSAII (Michael W. Deem and Ramdas Pophale) SiO2 
 PCOD9197771
Probable space group: C 2/M
;
_chemical_formula_sum "Si O2"
_cell_formula_units_Z 60
_cell_length_a 20.464002
_cell_length_b 16.065623
_cell_length_c 14.641714
_cell_angle_alpha 90.000000
_cell_angle_beta 141.205636
_cell_angle_gamma 90.000000
_cell_volume 3015.920951
_symmetry_space_group_name_H-M "C 2/M"
_symmetry_group_IT_number 12
_symmetry_cell_setting 'monoclinic'
loop_
_space_group_symop_operation_xyz
x,y,z
-x,y,-z
-x,-y,-z
x,-y,z
1/2+x,1/2+y,z
1/2-x,1/2+y,-z
1/2-x,1/2-y,-z
1/2+x,1/2-y,z
loop_
_atom_site_type_symbol
_atom_site_label
_atom_site_fract_x
_atom_site_fract_y
_atom_site_fract_z
Si Si1 0.353295 0.671762 0.538661
Si Si2 0.811039 0.822504 0.948399
Si Si3 0.876185 0.092795 0.377556
Si Si4 0.533310 0.000000 0.834870
Si Si5 0.135879 0.358111 0.403685
Si Si6 0.265936 0.597173 0.718968
Si Si7 0.468913 0.595976 0.821571
Si Si8 0.725125 0.869453 0.047043
O O1 0.349666 0.658168 0.427254
O O2 0.237029 0.655110 0.449552
O O3 0.397692 0.762598 0.614215
O O4 0.425933 0.607099 0.672019
O O5 0.748639 0.848560 0.789826
O O6 0.804594 0.725527 0.962811
O O7 0.768803 0.870854 0.991336
O O8 0.928871 0.849844 0.056724
O O9 0.814867 0.106864 0.216999
O O10 0.000000 0.096015 0.500000
O O11 0.847699 0.000000 0.380236
O O12 0.444724 0.074856 0.722761
O O13 0.625451 0.071782 0.946960
O O14 0.178061 0.391089 0.546902
O O15 0.272668 0.500000 0.751706
O O16 0.374203 0.620639 0.785581
O O17 0.494075 0.500000 0.867205
#
# Coordination Sequence:
#
# PCOD9197771 Si02
#       8
#     8   8   8   4   8   8   8   8
#     4  10  21  39  67  94 124 168 217 263 324 378
#     4  11  23  41  63  88 132 171 209 265 323 384
#     4  11  23  41  68  96 124 163 214 269 312 377
#     4  12  24  44  65  88 139 170 214 268 323 384
#     4  10  22  41  64  92 128 170 212 267 320 384
#     4  10  20  37  65  98 123 157 211 269 323 381
#     4  10  20  35  64 100 123 154 208 270 328 376
#     4  11  26  43  60  91 129 176 218 257 316 389
#
# _framework density 19.894421999999999
#
# number of rings (size 3 to 8) (size 9 to 14) (size 15 to 20)
#    0.000    1.467    1.333    3.600    3.733    3.200 
#    0.000    4.000    0.000    0.000    0.000    0.000 
#    0.000    0.000    0.000    0.000    0.000    0.000 
#
# Total GULP energy -167039.235562 kJ/mol
# GULP energy per Si atom -5567.974519 kJ/mol
# Density = 1.984914 g / cm^3
# Si number density = 19.894422 Si / 1000 Ang^3
#
#
#
# Elastic Constant Matrix: (Units=GPa)
#
#
# Indices 1 2 3 4 5 6 
#
# 1 40.7236 26.4979 36.1528 0.0000 -18.0345 0.0000
# 2 26.4979 94.3361 36.2932 0.0000 4.4904 0.0000
# 3 36.1528 36.2932 94.2384 0.0000 9.9674 0.0000
# 4 0.0000 0.0000 0.0000 213.8063 0.0000 44.4974
# 5 -18.0345 4.4904 9.9674 0.0000 24.6401 0.0000
# 6 0.0000 0.0000 0.0000 44.4974 0.0000 24.7581
#
#
#
# Elastic Compliance Matrix: (Units=1/GPa)
#
#
# Indices 1 2 3 4 5 6 
#
# 1 0.225466 -0.036984 -0.094461 0.000000 0.209974 0.000000
# 2 -0.036984 0.018514 0.010738 0.000000 -0.034787 0.000000
# 3 -0.094461 0.010738 0.052479 0.000000 -0.092323 0.000000
# 4 0.000000 0.000000 0.000000 0.007472 0.000000 -0.013429
# 5 0.209974 -0.034787 -0.092323 0.000000 0.237953 0.000000
# 6 0.000000 0.000000 0.000000 -0.013429 0.000000 0.064528
#
#
# Mechanical properties :
#
#
# Convention : Reuss Voigt Hill
#
# Bulk Modulus (GPa) = 18.16732 47.46509 32.81621
# Shear Modulus (GPa) = 5.77251 61.33119 33.55185
#
# Velocity S-wave (km/s) = 1.70525 5.55835 4.11115
# Velocity P-wave (km/s) = 3.60955 8.06870 6.25031
#
# Compressibility (1/GPa) = 0.05504390
#
# Stress axis : x y z
#
# Youngs Moduli (GPa) = 4.43526 54.01412 19.05525
#
# Poissons Ratio (x) = 1.99767 1.79997
# Poissons Ratio (y) = 0.16403 -0.20461
# Poissons Ratio (z) = 0.41896 -0.57999
#
# Static dielectric constant tensor:
#      x y z
#    x 1.688230 0.000000 -0.017210 
#    y 0.000000 1.720600 0.000000 
#    z -0.017210 0.000000 1.707040 
# 
# From -- ./inp_files/233900.got.cif
#   From: 2010.05.17/outbox.cif.g08.bks.cpg/sg12_117_cif.got.tgz:233900.got - 2010.06.03 13:09:07.
