data_PCOD9197208
_publ_section_title
;
Structure prediction by ZEFSAII (Michael W. Deem and Ramdas Pophale) SiO2 
 PCOD9197208
Probable space group: C 2/M
;
_chemical_formula_sum "Si O2"
_cell_formula_units_Z 48
_cell_length_a 27.286362
_cell_length_b 13.807259
_cell_length_c 12.351713
_cell_angle_alpha 90.000000
_cell_angle_beta 153.889151
_cell_angle_gamma 90.000000
_cell_volume 2048.050925
_symmetry_space_group_name_H-M "C 2/M"
_symmetry_group_IT_number 12
_symmetry_cell_setting 'monoclinic'
loop_
_space_group_symop_operation_xyz
x,y,z
-x,y,-z
-x,-y,-z
x,-y,z
1/2+x,1/2+y,z
1/2-x,1/2+y,-z
1/2-x,1/2-y,-z
1/2+x,1/2-y,z
loop_
_atom_site_type_symbol
_atom_site_label
_atom_site_fract_x
_atom_site_fract_y
_atom_site_fract_z
Si Si1 0.904284 0.390443 0.402721
Si Si2 0.746654 0.389140 0.778175
Si Si3 0.209274 0.389773 0.374132
Si Si4 0.950697 0.757620 0.213423
Si Si5 0.344854 0.387662 0.181023
Si Si6 0.595594 0.688631 0.110568
O O1 0.903874 0.500000 0.445676
O O2 0.000000 0.386427 0.500000
O O3 0.941367 0.310355 0.561936
O O4 0.783304 0.371538 0.111923
O O5 0.784470 0.500000 0.873299
O O6 0.719911 0.382188 0.598129
O O7 0.656030 0.371481 0.691461
O O8 0.848222 0.317727 0.999292
O O9 0.165800 0.500000 0.293278
O O10 0.290290 0.366256 0.634485
O O11 0.121453 0.302377 0.188899
O O12 0.920597 0.820636 0.258029
O O13 0.943472 0.819150 0.089965
O O14 0.371396 0.500000 0.213743
O O15 0.500000 0.652928 0.000000
#
# Coordination Sequence:
#
# PCOD9197208 Si02
#       6
#     8   8   8   8   8   8
#     4  10  20  35  58  91 122 153 196 235 281 354
#     4   9  17  33  58  87 116 149 191 238 290 351
#     4   9  20  40  64  85 113 155 198 243 298 351
#     4  11  21  35  59  87 120 159 194 239 297 349
#     4  10  21  37  58  89 125 156 191 238 292 354
#     4  10  23  41  58  87 118 152 203 253 291 346
#
# _framework density 23.436916
#
# number of rings (size 3 to 8) (size 9 to 14) (size 15 to 20)
#    0.000    2.167    1.667    1.000    0.000    6.000 
#    0.000    1.667    0.000    2.500    0.000    0.000 
#    0.000    0.000    0.000    0.000    0.000    0.000 
#
# Total GULP energy -134263.332172 kJ/mol
# GULP energy per Si atom -5594.305507 kJ/mol
# Density = 2.338357 g / cm^3
# Si number density = 23.436916 Si / 1000 Ang^3
#
#
#
# Elastic Constant Matrix: (Units=GPa)
#
#
# Indices 1 2 3 4 5 6 
#
# 1 76.5774 5.5784 27.6854 0.0000 -14.6015 0.0000
# 2 5.5784 81.2377 12.8847 0.0000 -5.7471 0.0000
# 3 27.6854 12.8847 81.0089 0.0000 -9.2160 0.0000
# 4 0.0000 0.0000 0.0000 -30.5970 0.0000 -1.1813
# 5 -14.6015 -5.7471 -9.2160 0.0000 42.6623 0.0000
# 6 0.0000 0.0000 0.0000 -1.1813 0.0000 27.6521
#
#
#
# Elastic Compliance Matrix: (Units=1/GPa)
#
#
# Indices 1 2 3 4 5 6 
#
# 1 0.015634 0.000001 -0.004854 0.000000 0.004302 0.000000
# 2 0.000001 0.012699 -0.001871 0.000000 0.001307 0.000000
# 3 -0.004854 -0.001871 0.014438 0.000000 0.001206 0.000000
# 4 0.000000 0.000000 0.000000 -0.032629 0.000000 -0.001394
# 5 0.004302 0.001307 0.001206 0.000000 0.025349 0.000000
# 6 0.000000 0.000000 0.000000 -0.001394 0.000000 0.036104
#
#
# Mechanical properties :
#
#
# Convention : Reuss Voigt Hill
#
# Bulk Modulus (GPa) = 34.10432 36.79120 35.44776
# Shear Modulus (GPa) = 52.73335 20.78852 36.76093
#
# Velocity S-wave (km/s) = 4.74858 2.98148 3.96473
# Velocity P-wave (km/s) = 6.68195 5.25208 6.00969
#
# Compressibility (1/GPa) = 0.02932180
#
# Stress axis : x y z
#
# Youngs Moduli (GPa) = 63.96426 78.74786 69.26234
#
# Poissons Ratio (x) = -0.00005 0.33617
# Poissons Ratio (y) = -0.00004 0.12961
# Poissons Ratio (z) = 0.31046 0.14736
#
# Static dielectric constant tensor:
#      x y z
#    x 1.872580 0.000000 -0.017560 
#    y 0.000000 1.881070 0.000000 
#    z -0.017560 0.000000 1.914810 
# 
# From -- ./inp_files/183872.got.cif
#   From: 2010.05.17/outbox.cif.g08.bks.cpg/sg12_92_cif.got.tgz:183872.got - 2010.06.03 13:09:07.
