data_PCOD9197981
_publ_section_title
;
Structure prediction by ZEFSAII (Michael W. Deem and Ramdas Pophale) SiO2 
 PCOD9197981
Probable space group: C 2/M
;
_chemical_formula_sum "Si O2"
_cell_formula_units_Z 64
_cell_length_a 28.450211
_cell_length_b 14.551041
_cell_length_c 17.670947
_cell_angle_alpha 90.000000
_cell_angle_beta 22.073959
_cell_angle_gamma 90.000000
_cell_volume 2749.158359
_symmetry_space_group_name_H-M "C 2/M"
_symmetry_group_IT_number 12
_symmetry_cell_setting 'monoclinic'
loop_
_space_group_symop_operation_xyz
x,y,z
-x,y,-z
-x,-y,-z
x,-y,z
1/2+x,1/2+y,z
1/2-x,1/2+y,-z
1/2-x,1/2-y,-z
1/2+x,1/2-y,z
loop_
_atom_site_type_symbol
_atom_site_label
_atom_site_fract_x
_atom_site_fract_y
_atom_site_fract_z
Si Si1 0.152788 0.895078 0.060714
Si Si2 0.883184 0.610750 0.618893
Si Si3 0.375800 0.387799 0.728101
Si Si4 0.373397 0.359199 0.227502
Si Si5 0.608556 0.152074 0.565602
Si Si6 0.611437 0.638898 0.617172
Si Si7 0.138164 0.395274 0.981283
Si Si8 0.129707 0.347785 0.829212
O O1 0.138608 0.851815 0.164932
O O2 0.017347 0.897866 0.224470
O O3 0.196690 0.000000 0.008351
O O4 0.257414 0.855853 0.848684
O O5 0.874687 0.500000 0.617779
O O6 0.899906 0.655579 0.512129
O O7 0.000000 0.626008 0.500000
O O8 0.500000 0.354853 0.500000
O O9 0.386256 0.500000 0.716986
O O10 0.253693 0.367801 0.861260
O O11 0.241830 0.391711 0.389370
O O12 0.379429 0.376379 0.307356
O O13 0.372493 0.249161 0.212198
O O14 0.500000 0.394492 0.000000
O O15 0.606565 0.253180 0.604720
O O16 0.487839 0.105313 0.781978
O O17 0.740098 0.605550 0.387222
O O18 0.160405 0.500000 0.921231
O O19 0.127969 0.333551 0.921862
O O20 0.000000 0.395324 0.000000
#
# Coordination Sequence:
#
# PCOD9197981 Si02
#       8
#     8   8   8   8   8   8   8   8
#     4  10  21  39  62  87 115 149 191 237 286 340
#     4  10  21  39  61  83 113 155 198 238 281 332
#     4   9  18  35  58  83 114 152 189 228 281 341
#     4  10  20  38  61  82 111 151 192 233 283 340
#     4  11  21  37  59  85 115 151 194 235 284 340
#     4  11  22  38  61  87 115 150 189 236 288 340
#     4  11  22  36  58  87 118 151 189 235 284 339
#     4  10  20  36  55  80 112 150 190 227 275 336
#
# _framework density 23.279854
#
# number of rings (size 3 to 8) (size 9 to 14) (size 15 to 20)
#    0.000    1.750    0.000    6.375    0.000    4.750 
#    0.000    8.125    0.000    3.375    0.000    0.000 
#    0.000    0.000    0.000    0.000    0.000    0.000 
#
# Total GULP energy -179026.832056 kJ/mol
# GULP energy per Si atom -5594.588502 kJ/mol
# Density = 2.322687 g / cm^3
# Si number density = 23.279854 Si / 1000 Ang^3
#
#
#
# Elastic Constant Matrix: (Units=GPa)
#
#
# Indices 1 2 3 4 5 6 
#
# 1 182.6145 -13.3143 93.1593 0.0000 12.6698 0.0000
# 2 -13.3143 60.6869 -1.3736 0.0000 -0.9439 0.0000
# 3 93.1593 -1.3736 220.2338 0.0000 0.8475 0.0000
# 4 0.0000 0.0000 0.0000 2.5480 0.0000 -11.8653
# 5 12.6698 -0.9439 0.8475 0.0000 52.9007 0.0000
# 6 0.0000 0.0000 0.0000 -11.8653 0.0000 8.5979
#
#
#
# Elastic Compliance Matrix: (Units=1/GPa)
#
#
# Indices 1 2 3 4 5 6 
#
# 1 0.007259 0.001498 -0.003055 0.000000 -0.001663 0.000000
# 2 0.001498 0.016794 -0.000529 0.000000 -0.000051 0.000000
# 3 -0.003055 -0.000529 0.005827 0.000000 0.000629 0.000000
# 4 0.000000 0.000000 0.000000 -0.072326 0.000000 -0.099811
# 5 -0.001663 -0.000051 0.000629 0.000000 0.019291 0.000000
# 6 0.000000 0.000000 0.000000 -0.099811 0.000000 -0.021434
#
#
# Mechanical properties :
#
#
# Convention : Reuss Voigt Hill
#
# Bulk Modulus (GPa) = 38.89793 68.94201 53.91997
# Shear Modulus (GPa) = -156.99543 38.48024 -59.25760
#
# Velocity S-wave (km/s) = -8.22099 4.07005 -5.05071
# Velocity P-wave (km/s) = 8.56550 7.19485 3.28649
#
# Compressibility (1/GPa) = 0.02570831
#
# Stress axis : x y z
#
# Youngs Moduli (GPa) = 137.76077 59.54570 171.61180
#
# Poissons Ratio (x) = -0.08917 0.52424
# Poissons Ratio (y) = -0.20630 0.09070
# Poissons Ratio (z) = 0.42083 0.03147
#
# Static dielectric constant tensor:
#      x y z
#    x 1.796140 0.000000 -0.016050 
#    y 0.000000 1.968540 0.000000 
#    z -0.016050 0.000000 1.866190 
# 
# From -- ./inp_files/241459.got.cif
#   From: 2010.05.17/outbox.cif.g08.bks.cpg/sg12_121_cif.got.tgz:241459.got - 2010.06.03 13:09:07.
