data_PCOD9197928
_publ_section_title
;
Structure prediction by ZEFSAII (Michael W. Deem and Ramdas Pophale) SiO2 
 PCOD9197928
Probable space group: C 2/M
;
_chemical_formula_sum "Si O2"
_cell_formula_units_Z 48
_cell_length_a 26.050695
_cell_length_b 7.454261
_cell_length_c 9.631223
_cell_angle_alpha 90.000000
_cell_angle_beta 99.439304
_cell_angle_gamma 90.000000
_cell_volume 1844.950758
_symmetry_space_group_name_H-M "C 2/M"
_symmetry_group_IT_number 12
_symmetry_cell_setting 'monoclinic'
loop_
_space_group_symop_operation_xyz
x,y,z
-x,y,-z
-x,-y,-z
x,-y,z
1/2+x,1/2+y,z
1/2-x,1/2+y,-z
1/2-x,1/2-y,-z
1/2+x,1/2-y,z
loop_
_atom_site_type_symbol
_atom_site_label
_atom_site_fract_x
_atom_site_fract_y
_atom_site_fract_z
Si Si1 0.266393 0.203851 0.233536
Si Si2 0.673408 0.281885 0.996158
Si Si3 0.997774 0.216651 0.159060
Si Si4 0.053155 0.709842 0.590156
Si Si5 0.389223 0.714643 0.782628
Si Si6 0.160966 0.713372 0.514939
O O1 0.221037 0.281638 0.117204
O O2 0.288565 0.288105 0.383736
O O3 0.249074 0.000000 0.252790
O O4 0.315899 0.205273 0.150185
O O5 0.674261 0.500000 0.983555
O O6 0.624106 0.228725 0.066725
O O7 0.054342 0.278331 0.240738
O O8 0.954143 0.275840 0.247415
O O9 0.994941 0.000000 0.156312
O O10 0.000000 0.274508 0.000000
O O11 0.054184 0.500000 0.553845
O O12 0.107221 0.787042 0.557258
O O13 0.000000 0.788393 0.500000
O O14 0.391547 0.500000 0.787922
O O15 0.345330 0.761815 0.651695
O O16 0.162903 0.500000 0.542072
#
# Coordination Sequence:
#
# PCOD9197928 Si02
#       6
#     8   8   8   8   8   8
#     4   9  19  36  56  79 105 136 173 213 260 310
#     4   9  19  36  56  78 107 137 170 215 260 307
#     4  10  22  37  53  77 107 138 174 215 259 307
#     4  10  20  36  55  76 105 139 174 213 256 305
#     4  10  21  36  53  77 107 138 173 214 260 308
#     4  10  21  36  54  78 107 138 174 215 258 306
#
# _framework density 26.016954999999999
#
# number of rings (size 3 to 8) (size 9 to 14) (size 15 to 20)
#    0.000    2.333    1.667    0.000    2.333    3.333 
#    0.000    0.000    0.000    0.000    0.000    0.000 
#    0.000    0.000    0.000    0.000    0.000    0.000 
#
# Total GULP energy -134144.327698 kJ/mol
# GULP energy per Si atom -5589.346987 kJ/mol
# Density = 2.595774 g / cm^3
# Si number density = 26.016955 Si / 1000 Ang^3
#
#
#
# Elastic Constant Matrix: (Units=GPa)
#
#
# Indices 1 2 3 4 5 6 
#
# 1 40.9515 -1.1525 6.6386 0.0000 -9.4293 0.0000
# 2 -1.1525 87.5454 -12.2035 0.0000 2.6303 0.0000
# 3 6.6386 -12.2035 117.5329 0.0000 -1.3416 0.0000
# 4 0.0000 0.0000 0.0000 26.3326 0.0000 -8.3091
# 5 -9.4293 2.6303 -1.3416 0.0000 47.1516 0.0000
# 6 0.0000 0.0000 0.0000 -8.3091 0.0000 7.8676
#
#
#
# Elastic Compliance Matrix: (Units=1/GPa)
#
#
# Indices 1 2 3 4 5 6 
#
# 1 0.025826 -0.000009 -0.001401 0.000000 0.005125 0.000000
# 2 -0.000009 0.011608 0.001199 0.000000 -0.000615 0.000000
# 3 -0.001401 0.001199 0.008711 0.000000 -0.000099 0.000000
# 4 0.000000 0.000000 0.000000 0.056957 0.000000 0.060153
# 5 0.005125 -0.000615 -0.000099 0.000000 0.022265 0.000000
# 6 0.000000 0.000000 0.000000 0.060153 0.000000 0.190632
#
#
# Mechanical properties :
#
#
# Convention : Reuss Voigt Hill
#
# Bulk Modulus (GPa) = 21.87156 25.84390 23.85773
# Shear Modulus (GPa) = 15.07559 33.12017 24.09788
#
# Velocity S-wave (km/s) = 2.40979 3.57182 3.04672
# Velocity P-wave (km/s) = 4.02091 5.19283 4.64399
#
# Compressibility (1/GPa) = 0.04572147
#
# Stress axis : x y z
#
# Youngs Moduli (GPa) = 38.72045 86.14659 114.80083
#
# Poissons Ratio (x) = 0.00080 0.16086
# Poissons Ratio (y) = 0.00036 -0.13762
# Poissons Ratio (z) = 0.05426 -0.10327
#
# Static dielectric constant tensor:
#      x y z
#    x 2.106150 0.000000 0.038290 
#    y 0.000000 2.013680 0.000000 
#    z 0.038290 0.000000 2.027350 
# 
# From -- ./inp_files/108636.got.cif
#   From: 2010.05.17/outbox.cif.g08.bks.cpg/sg12_55_cif.got.tgz:108636.got - 2010.06.03 13:09:07.
