data_PCOD9197364
_publ_section_title
;
Structure prediction by ZEFSAII (Michael W. Deem and Ramdas Pophale) SiO2 
 PCOD9197364
Probable space group: C 2/M
;
_chemical_formula_sum "Si O2"
_cell_formula_units_Z 42
_cell_length_a 6.974471
_cell_length_b 15.483520
_cell_length_c 18.065189
_cell_angle_alpha 90.000000
_cell_angle_beta 74.032064
_cell_angle_gamma 90.000000
_cell_volume 1875.576299
_symmetry_space_group_name_H-M "C 2/M"
_symmetry_group_IT_number 12
_symmetry_cell_setting 'monoclinic'
loop_
_space_group_symop_operation_xyz
x,y,z
-x,y,-z
-x,-y,-z
x,-y,z
1/2+x,1/2+y,z
1/2-x,1/2+y,-z
1/2-x,1/2-y,-z
1/2+x,1/2-y,z
loop_
_atom_site_type_symbol
_atom_site_label
_atom_site_fract_x
_atom_site_fract_y
_atom_site_fract_z
Si Si1 0.514744 0.653710 0.768418
Si Si2 0.500000 0.000000 0.500000
Si Si3 0.292012 0.000000 0.371477
Si Si4 0.180626 0.896366 0.068013
Si Si5 0.912639 0.653139 0.258266
Si Si6 0.882139 0.397635 0.903455
Si Si7 0.353579 0.500000 0.340896
O O1 0.477649 0.649031 0.860968
O O2 0.292153 0.635118 0.762964
O O3 0.582212 0.745171 0.728572
O O4 0.643202 0.580917 0.715311
O O5 0.320502 0.000000 0.455805
O O6 0.667448 0.000000 0.415180
O O7 0.397324 0.914505 0.325971
O O8 0.062013 0.000000 0.366244
O O9 0.401159 0.886810 0.080810
O O10 0.137245 0.000000 0.072554
O O11 0.218116 0.865976 0.979714
O O12 0.091908 0.639466 0.181069
O O13 0.850509 0.500000 0.899023
#
# Coordination Sequence:
#
# PCOD9197364 Si02
#       7
#     8   2   4   8   8   8   4
#     4  10  20  35  59  88 123 163 205 253 305 362
#     4  12  26  44  80  94 118 158 202 252 336 370
#     4  10  23  45  68  94 127 158 204 250 312 388
#     4   8  13  25  48  79 115 162 212 251 294 352
#     4  10  20  35  59  88 123 163 205 253 305 362
#     4   8  13  25  48  79 115 162 212 251 294 352
#     4  10  23  45  68  94 127 158 204 250 312 388
#
# _framework density 22.39312
#
# number of rings (size 3 to 8) (size 9 to 14) (size 15 to 20)
#    0.000    2.667    1.905    1.429    2.667    0.762 
#    0.000    0.952    0.000    0.000    0.000    4.000 
#    0.000    0.000    0.000    0.000    0.000    0.762 
#
# Total GULP energy -117014.817766 kJ/mol
# GULP energy per Si atom -5572.134179 kJ/mol
# Density = 2.234215 g / cm^3
# Si number density = 22.393120 Si / 1000 Ang^3
#
#
#
# Elastic Constant Matrix: (Units=GPa)
#
#
# Indices 1 2 3 4 5 6 
#
# 1 100.8406 -6.1584 26.6731 0.0000 -23.4557 0.0000
# 2 -6.1584 111.1572 72.8570 0.0000 -13.4427 0.0000
# 3 26.6731 72.8570 165.3088 0.0000 -12.2051 0.0000
# 4 0.0000 0.0000 0.0000 -3.2713 0.0000 0.2244
# 5 -23.4557 -13.4427 -12.2051 0.0000 51.7619 0.0000
# 6 0.0000 0.0000 0.0000 0.2244 0.0000 -2.1538
#
#
#
# Elastic Compliance Matrix: (Units=1/GPa)
#
#
# Indices 1 2 3 4 5 6 
#
# 1 0.012253 0.003359 -0.003036 0.000000 0.005709 0.000000
# 2 0.003359 0.013780 -0.006349 0.000000 0.003604 0.000000
# 3 -0.003036 -0.006349 0.009276 0.000000 -0.000838 0.000000
# 4 0.000000 0.000000 0.000000 -0.307884 0.000000 -0.032074
# 5 0.005709 0.003604 -0.000838 0.000000 0.022645 0.000000
# 6 0.000000 0.000000 0.000000 -0.032074 0.000000 -0.467635
#
#
# Mechanical properties :
#
#
# Convention : Reuss Voigt Hill
#
# Bulk Modulus (GPa) = 42.99964 62.67222 52.83593
# Shear Modulus (GPa) = -7.16576 28.19634 10.51529
#
# Velocity S-wave (km/s) = -1.79079 3.55230 2.16932
# Velocity P-wave (km/s) = 3.86884 6.69874 5.46997
#
# Compressibility (1/GPa) = 0.02325601
#
# Stress axis : x y z
#
# Youngs Moduli (GPa) = 81.61474 72.57091 107.81021
#
# Poissons Ratio (x) = -0.24378 0.32731
# Poissons Ratio (y) = -0.27415 0.68449
# Poissons Ratio (z) = 0.24778 0.46076
#
# Static dielectric constant tensor:
#      x y z
#    x 1.922010 0.000000 0.024240 
#    y 0.000000 1.782460 0.000000 
#    z 0.024240 0.000000 1.789860 
# 
# From -- ./inp_files/255326.got.cif
#   From: 2010.05.17/outbox.cif.g08.bks.cpg/sg12_128_cif.got.tgz:255326.got - 2010.06.03 13:09:07.
