data_PCOD9197975
_publ_section_title
;
Structure prediction by ZEFSAII (Michael W. Deem and Ramdas Pophale) SiO2 
 PCOD9197975
Probable space group: C 2/M
;
_chemical_formula_sum "Si O2"
_cell_formula_units_Z 56
_cell_length_a 20.210377
_cell_length_b 8.139089
_cell_length_c 16.482344
_cell_angle_alpha 90.000000
_cell_angle_beta 77.779470
_cell_angle_gamma 90.000000
_cell_volume 2649.811064
_symmetry_space_group_name_H-M "C 2/M"
_symmetry_group_IT_number 12
_symmetry_cell_setting 'monoclinic'
loop_
_space_group_symop_operation_xyz
x,y,z
-x,y,-z
-x,-y,-z
x,-y,z
1/2+x,1/2+y,z
1/2-x,1/2+y,-z
1/2-x,1/2-y,-z
1/2+x,1/2-y,z
loop_
_atom_site_type_symbol
_atom_site_label
_atom_site_fract_x
_atom_site_fract_y
_atom_site_fract_z
Si Si1 0.358010 0.189900 0.604863
Si Si2 0.491374 0.299639 0.254502
Si Si3 0.211199 0.306167 0.618495
Si Si4 0.076513 0.808128 0.566297
Si Si5 0.854830 0.799212 0.202100
Si Si6 0.266356 0.689611 0.085110
Si Si7 0.360236 0.691131 0.783898
O O1 0.285101 0.232762 0.584346
O O2 0.415328 0.226405 0.523315
O O3 0.361826 0.293724 0.685979
O O4 0.359029 0.000000 0.627315
O O5 0.491926 0.500000 0.258539
O O6 0.473380 0.241598 0.350759
O O7 0.430396 0.253353 0.210541
O O8 0.565664 0.247471 0.208600
O O9 0.209336 0.500000 0.599898
O O10 0.150116 0.213906 0.589543
O O11 0.194723 0.277088 0.717636
O O12 0.062498 0.000000 0.557374
O O13 0.829190 0.740752 0.121114
O O14 0.849739 0.000000 0.208722
O O15 0.281969 0.500000 0.071730
O O16 0.200889 0.713690 0.159109
O O17 0.250000 0.750000 0.000000
O O18 0.352208 0.500000 0.808127
#
# Coordination Sequence:
#
# PCOD9197975 Si02
#       7
#     8   8   8   8   8   8   8
#     4  12  23  35  51  78 117 157 199 244 293 345
#     4   8  18  37  61  85 114 155 199 240 284 344
#     4  11  20  32  53  82 114 151 196 245 296 343
#     4  10  20  36  55  79 113 156 203 246 288 338
#     4   9  18  37  62  86 115 154 195 235 285 344
#     4  11  23  40  65  93 121 150 188 237 292 350
#     4  11  22  39  62  88 117 151 194 241 295 351
#
# _framework density 21.133581
#
# number of rings (size 3 to 8) (size 9 to 14) (size 15 to 20)
#    0.000    1.714    1.429    5.143    0.000    1.143 
#    0.000   10.714    0.000    4.286    0.000    0.000 
#    0.000    0.000    0.000    0.000    0.000    0.000 
#
# Total GULP energy -156429.887286 kJ/mol
# GULP energy per Si atom -5586.781689 kJ/mol
# Density = 2.108548 g / cm^3
# Si number density = 21.133581 Si / 1000 Ang^3
#
#
#
# Elastic Constant Matrix: (Units=GPa)
#
#
# Indices 1 2 3 4 5 6 
#
# 1 72.8425 -14.7783 12.7288 0.0000 9.2228 0.0000
# 2 -14.7783 33.2231 -13.7785 0.0000 2.7661 0.0000
# 3 12.7288 -13.7785 82.7370 0.0000 27.8450 0.0000
# 4 0.0000 0.0000 0.0000 32.1477 0.0000 0.1927
# 5 9.2228 2.7661 27.8450 0.0000 19.6373 0.0000
# 6 0.0000 0.0000 0.0000 0.1927 0.0000 14.6191
#
#
#
# Elastic Compliance Matrix: (Units=1/GPa)
#
#
# Indices 1 2 3 4 5 6 
#
# 1 0.017174 0.010886 0.004593 0.000000 -0.016112 0.000000
# 2 0.010886 0.045978 0.018903 0.000000 -0.038393 0.000000
# 3 0.004593 0.018903 0.030892 0.000000 -0.048624 0.000000
# 4 0.000000 0.000000 0.000000 0.031109 0.000000 -0.000410
# 5 -0.016112 -0.038393 -0.048624 0.000000 0.132846 0.000000
# 6 0.000000 0.000000 0.000000 -0.000410 0.000000 0.068409
#
#
# Mechanical properties :
#
#
# Convention : Reuss Voigt Hill
#
# Bulk Modulus (GPa) = 6.14215 17.46072 11.80144
# Shear Modulus (GPa) = 16.03012 26.92287 21.47650
#
# Velocity S-wave (km/s) = 2.75710 3.57310 3.19129
# Velocity P-wave (km/s) = 3.61222 5.03018 4.37898
#
# Compressibility (1/GPa) = 0.16280935
#
# Stress axis : x y z
#
# Youngs Moduli (GPa) = 58.22697 21.74950 32.37068
#
# Poissons Ratio (x) = -0.23676 -0.14869
# Poissons Ratio (y) = -0.63385 -0.61191
# Poissons Ratio (z) = -0.26745 -0.41114
#
# Static dielectric constant tensor:
#      x y z
#    x 1.806210 0.000000 0.037730 
#    y 0.000000 1.733150 0.000000 
#    z 0.037730 0.000000 1.781350 
# 
# From -- ./inp_files/280172.got.cif
#   From: 2010.05.17/outbox.cif.g08.bks.cpg/sg12_141_cif.got.tgz:280172.got - 2010.06.03 13:09:07.
