data_PCOD9197063
_publ_section_title
;
Structure prediction by ZEFSAII (Michael W. Deem and Ramdas Pophale) SiO2 
 PCOD9197063
Probable space group: C 2/M
;
_chemical_formula_sum "Si O2"
_cell_formula_units_Z 38
_cell_length_a 20.475225
_cell_length_b 10.757572
_cell_length_c 9.678810
_cell_angle_alpha 90.000000
_cell_angle_beta 44.512408
_cell_angle_gamma 90.000000
_cell_volume 1494.591113
_symmetry_space_group_name_H-M "C 2/M"
_symmetry_group_IT_number 12
_symmetry_cell_setting 'monoclinic'
loop_
_space_group_symop_operation_xyz
x,y,z
-x,y,-z
-x,-y,-z
x,-y,z
1/2+x,1/2+y,z
1/2-x,1/2+y,-z
1/2-x,1/2-y,-z
1/2+x,1/2-y,z
loop_
_atom_site_type_symbol
_atom_site_label
_atom_site_fract_x
_atom_site_fract_y
_atom_site_fract_z
Si Si1 0.779489 0.000000 0.261295
Si Si2 0.000000 0.500000 0.500000
Si Si3 0.926445 0.000000 0.793228
Si Si4 0.344069 0.767722 0.489759
Si Si5 0.109846 0.645578 0.873541
Si Si6 0.437570 0.773330 0.760262
Si Si7 0.143700 0.000000 0.545278
O O1 0.712729 0.119693 0.360813
O O2 0.833254 0.000000 0.326825
O O3 0.853738 0.000000 0.027858
O O4 0.068216 0.390115 0.331207
O O5 0.916223 0.865205 0.736168
O O6 0.032123 0.000000 0.692607
O O7 0.157743 0.716104 0.674362
O O8 0.453330 0.779737 0.361056
O O9 0.317957 0.628543 0.572274
O O10 0.134179 0.500000 0.833956
O O11 0.000000 0.650767 0.000000
O O12 0.117882 0.703219 0.013387
#
# Coordination Sequence:
#
# PCOD9197063 Si02
#       7
#     4   2   4   8   8   8   4
#     4  12  20  33  58  91 123 159 194 230 279 355
#     4  12  22  36  66  90 106 140 218 258 280 342
#     4  10  23  40  56  80 126 159 187 232 303 355
#     4  10  20  35  58  86 124 158 195 235 285 345
#     4   9  15  28  51  81 116 149 182 225 283 339
#     4  10  21  38  59  87 115 156 196 247 294 345
#     4  10  21  35  51  83 124 164 190 226 283 349
#
# _framework density 25.425014000000001
#
# number of rings (size 3 to 8) (size 9 to 14) (size 15 to 20)
#    0.000    1.895    2.105    2.842    0.000    3.789 
#    0.000    1.053    0.000    5.053    0.000    0.000 
#    0.000    0.000    0.000    0.000    0.000    0.000 
#
# Total GULP energy -106125.367689 kJ/mol
# GULP energy per Si atom -5585.545668 kJ/mol
# Density = 2.536715 g / cm^3
# Si number density = 25.425014 Si / 1000 Ang^3
#
#
#
# Elastic Constant Matrix: (Units=GPa)
#
#
# Indices 1 2 3 4 5 6 
#
# 1 51.3865 38.2503 24.6615 0.0000 13.2697 0.0000
# 2 38.2503 298.1940 84.4032 0.0000 5.7984 0.0000
# 3 24.6615 84.4032 112.7683 0.0000 7.0511 0.0000
# 4 0.0000 0.0000 0.0000 41.8906 0.0000 -10.0876
# 5 13.2697 5.7984 7.0511 0.0000 39.0941 0.0000
# 6 0.0000 0.0000 0.0000 -10.0876 0.0000 0.8008
#
#
#
# Elastic Compliance Matrix: (Units=1/GPa)
#
#
# Indices 1 2 3 4 5 6 
#
# 1 0.024513 -0.002048 -0.003365 0.000000 -0.007410 0.000000
# 2 -0.002048 0.004426 -0.002900 0.000000 0.000562 0.000000
# 3 -0.003365 -0.002900 0.011809 0.000000 -0.000558 0.000000
# 4 0.000000 0.000000 0.000000 -0.011740 0.000000 -0.147885
# 5 -0.007410 0.000562 -0.000558 0.000000 0.028112 0.000000
# 6 0.000000 0.000000 0.000000 -0.147885 0.000000 -0.614121
#
#
# Mechanical properties :
#
#
# Convention : Reuss Voigt Hill
#
# Bulk Modulus (GPa) = 41.45443 84.10875 62.78159
# Shear Modulus (GPa) = -9.39258 37.35935 13.98339
#
# Velocity S-wave (km/s) = -1.92412 3.83743 2.34772
# Velocity P-wave (km/s) = 3.37693 7.26549 5.66529
#
# Compressibility (1/GPa) = 0.02412288
#
# Stress axis : x y z
#
# Youngs Moduli (GPa) = 40.79464 225.92970 84.68086
#
# Poissons Ratio (x) = 0.46269 0.28492
# Poissons Ratio (y) = 0.08354 0.24558
# Poissons Ratio (z) = 0.13726 0.65522
#
# Static dielectric constant tensor:
#      x y z
#    x 2.062520 0.000000 -0.052540 
#    y 0.000000 1.994930 0.000000 
#    z -0.052540 0.000000 1.973100 
# 
# From -- ./inp_files/182763.got.cif
#   From: 2010.05.17/outbox.cif.g08.bks.cpg/sg12_92_cif.got.tgz:182763.got - 2010.06.03 13:09:07.
