data_PCOD9197048
_publ_section_title
;
Structure prediction by ZEFSAII (Michael W. Deem and Ramdas Pophale) SiO2 
 PCOD9197048
Probable space group: C 2/M
;
_chemical_formula_sum "Si O2"
_cell_formula_units_Z 64
_cell_length_a 24.808350
_cell_length_b 8.810706
_cell_length_c 16.480580
_cell_angle_alpha 90.000000
_cell_angle_beta 88.930045
_cell_angle_gamma 90.000000
_cell_volume 3601.681891
_symmetry_space_group_name_H-M "C 2/M"
_symmetry_group_IT_number 12
_symmetry_cell_setting 'monoclinic'
loop_
_space_group_symop_operation_xyz
x,y,z
-x,y,-z
-x,-y,-z
x,-y,z
1/2+x,1/2+y,z
1/2-x,1/2+y,-z
1/2-x,1/2-y,-z
1/2+x,1/2-y,z
loop_
_atom_site_type_symbol
_atom_site_label
_atom_site_fract_x
_atom_site_fract_y
_atom_site_fract_z
Si Si1 0.212288 0.179926 0.263322
Si Si2 0.819562 0.179553 0.203495
Si Si3 0.306908 0.180820 0.027297
Si Si4 0.113373 0.817913 0.376145
Si Si5 0.371082 0.318900 0.881454
Si Si6 0.958852 0.318549 0.765628
Si Si7 0.060434 0.681323 0.531075
Si Si8 0.068398 0.181228 0.709898
O O1 0.267134 0.271904 0.256007
O O2 0.172732 0.216489 0.339219
O O3 0.176415 0.208888 0.183546
O O4 0.224078 0.000000 0.264675
O O5 0.817226 0.268385 0.118855
O O6 0.874452 0.212847 0.249728
O O7 0.817350 0.000000 0.186703
O O8 0.304339 0.000000 0.021495
O O9 0.250000 0.250000 0.000000
O O10 0.352179 0.246213 0.965777
O O11 0.071352 0.743619 0.314125
O O12 0.101037 0.753369 0.464782
O O13 0.106405 0.000000 0.374070
O O14 0.377334 0.500000 0.888485
O O15 0.424491 0.245980 0.841665
O O16 0.958001 0.500000 0.764985
O O17 0.019320 0.256504 0.760240
O O18 0.067129 0.500000 0.534619
O O19 0.067158 0.752475 0.619284
O O20 0.000000 0.712708 0.500000
O O21 0.060350 0.000000 0.707176
#
# Coordination Sequence:
#
# PCOD9197048 Si02
#       8
#     8   8   8   8   8   8   8   8
#     4   9  19  35  57  85 116 152 192 235 289 346
#     4  11  24  40  60  86 118 156 198 241 292 351
#     4  12  23  37  60  89 120 154 196 244 291 343
#     4  10  20  35  58  86 117 152 192 240 291 346
#     4  10  20  36  59  88 119 152 192 242 292 343
#     4  11  21  35  57  87 119 153 193 240 292 347
#     4  11  22  36  58  90 118 147 195 247 292 343
#     4  11  24  41  60  84 117 159 198 238 293 354
#
# _framework density 17.769476999999998
#
# number of rings (size 3 to 8) (size 9 to 14) (size 15 to 20)
#    0.000    1.375    2.500    4.875    0.000    5.000 
#    0.000    1.250    0.000    3.750    0.000    0.000 
#    0.000    0.000    0.000    0.000    0.000    0.000 
#
# Total GULP energy -178851.185276 kJ/mol
# GULP energy per Si atom -5589.099540 kJ/mol
# Density = 1.772903 g / cm^3
# Si number density = 17.769477 Si / 1000 Ang^3
#
#
#
# Elastic Constant Matrix: (Units=GPa)
#
#
# Indices 1 2 3 4 5 6 
#
# 1 132.0258 86.6319 64.9658 0.0000 -20.4311 0.0000
# 2 86.6319 119.1417 63.5452 0.0000 -4.4497 0.0000
# 3 64.9658 63.5452 97.5933 0.0000 -17.9619 0.0000
# 4 0.0000 0.0000 0.0000 30.7997 0.0000 -6.0976
# 5 -20.4311 -4.4497 -17.9619 0.0000 28.3913 0.0000
# 6 0.0000 0.0000 0.0000 -6.0976 0.0000 30.3840
#
#
#
# Elastic Compliance Matrix: (Units=1/GPa)
#
#
# Indices 1 2 3 4 5 6 
#
# 1 0.017544 -0.010845 -0.002950 0.000000 0.009059 0.000000
# 2 -0.010845 0.019919 -0.007483 0.000000 -0.009417 0.000000
# 3 -0.002950 -0.007483 0.018648 0.000000 0.008502 0.000000
# 4 0.000000 0.000000 0.000000 0.033811 0.000000 0.006785
# 5 0.009059 -0.009417 0.008502 0.000000 0.045644 0.000000
# 6 0.000000 0.000000 0.000000 0.006785 0.000000 0.034274
#
#
# Mechanical properties :
#
#
# Convention : Reuss Voigt Hill
#
# Bulk Modulus (GPa) = 73.78070 86.56075 80.17072
# Shear Modulus (GPa) = 23.05057 26.82286 24.93672
#
# Velocity S-wave (km/s) = 3.60557 3.88943 3.75019
# Velocity P-wave (km/s) = 7.67755 8.30597 7.99793
#
# Compressibility (1/GPa) = 0.01355368
#
# Stress axis : x y z
#
# Youngs Moduli (GPa) = 56.99937 50.20346 53.62612
#
# Poissons Ratio (x) = 0.54447 0.15819
# Poissons Ratio (y) = 0.61817 0.40131
# Poissons Ratio (z) = 0.16814 0.37569
#
# Static dielectric constant tensor:
#      x y z
#    x 1.596080 0.000000 -0.017060 
#    y 0.000000 1.589870 0.000000 
#    z -0.017060 0.000000 1.588910 
# 
# From -- ./inp_files/238787.got.cif
#   From: 2010.05.17/outbox.cif.g08.bks.cpg/sg12_120_cif.got.tgz:238787.got - 2010.06.03 13:09:07.
