data_PCOD9197823
_publ_section_title
;
Structure prediction by ZEFSAII (Michael W. Deem and Ramdas Pophale) SiO2 
 PCOD9197823
Probable space group: C 2/M
;
_chemical_formula_sum "Si O2"
_cell_formula_units_Z 56
_cell_length_a 7.933784
_cell_length_b 31.053195
_cell_length_c 19.396838
_cell_angle_alpha 90.000000
_cell_angle_beta 147.011725
_cell_angle_gamma 90.000000
_cell_volume 2601.893293
_symmetry_space_group_name_H-M "C 2/M"
_symmetry_group_IT_number 12
_symmetry_cell_setting 'monoclinic'
loop_
_space_group_symop_operation_xyz
x,y,z
-x,y,-z
-x,-y,-z
x,-y,z
1/2+x,1/2+y,z
1/2-x,1/2+y,-z
1/2-x,1/2-y,-z
1/2+x,1/2-y,z
loop_
_atom_site_type_symbol
_atom_site_label
_atom_site_fract_x
_atom_site_fract_y
_atom_site_fract_z
Si Si1 0.473082 0.684255 0.263955
Si Si2 0.475597 0.237770 0.352391
Si Si3 0.948665 0.650457 0.680778
Si Si4 0.111088 0.879000 0.427497
Si Si5 0.230166 0.549155 0.964220
Si Si6 0.994019 0.951044 0.295265
Si Si7 0.078819 0.112821 0.854114
O O1 0.331243 0.721238 0.263686
O O2 0.719222 0.711066 0.304810
O O3 0.651456 0.653022 0.377654
O O4 0.293863 0.652100 0.150589
O O5 0.595859 0.201985 0.338798
O O6 0.750000 0.250000 0.500000
O O7 0.741764 0.629866 0.669151
O O8 0.814178 0.633048 0.562218
O O9 0.300258 0.635110 0.801101
O O10 0.152512 0.926637 0.413115
O O11 0.282060 0.500000 0.009068
O O12 0.877135 0.549695 0.816584
O O13 0.500000 0.556674 0.000000
O O14 0.240197 0.584819 0.027560
O O15 0.037413 0.922542 0.241468
O O16 0.090751 0.000000 0.319099
#
# Coordination Sequence:
#
# PCOD9197823 Si02
#       7
#     8   8   8   8   8   8   8
#     4  10  21  31  50  80 112 147 185 233 281 330
#     4  11  19  29  51  77 111 145 189 231 274 322
#     4  10  21  34  53  79 118 150 188 231 283 346
#     4  10  20  36  52  80 115 152 188 234 285 340
#     4  10  20  37  63  90 112 141 190 245 289 337
#     4  10  21  37  59  83 112 146 191 238 281 338
#     4  10  21  35  54  84 118 146 186 234 291 343
#
# _framework density 21.522789
#
# number of rings (size 3 to 8) (size 9 to 14) (size 15 to 20)
#    0.000    1.857    1.429    3.000    4.000    2.857 
#    0.000    4.286    0.000    0.000    0.000   90.000 
#    0.000    0.000    0.000    0.000    0.000    0.000 
#
# Total GULP energy -156276.227028 kJ/mol
# GULP energy per Si atom -5581.293822 kJ/mol
# Density = 2.147380 g / cm^3
# Si number density = 21.522789 Si / 1000 Ang^3
#
#
#
# Elastic Constant Matrix: (Units=GPa)
#
#
# Indices 1 2 3 4 5 6 
#
# 1 84.6364 30.7701 5.9196 0.0002 -10.4250 0.0001
# 2 30.7701 176.2703 45.8480 -0.0001 -21.4904 0.0000
# 3 5.9196 45.8480 51.6336 0.0013 -12.6097 0.0004
# 4 0.0002 -0.0001 0.0013 33.0327 0.0004 -4.8915
# 5 -10.4250 -21.4904 -12.6097 0.0004 22.3699 0.0001
# 6 0.0001 0.0000 0.0004 -4.8915 0.0001 36.0537
#
#
#
# Elastic Compliance Matrix: (Units=1/GPa)
#
#
# Indices 1 2 3 4 5 6 
#
# 1 0.013076 -0.002083 0.001566 0.000000 0.004975 0.000000
# 2 -0.002083 0.008020 -0.006074 0.000000 0.003310 0.000000
# 3 0.001566 -0.006074 0.027060 -0.000001 0.010147 0.000000
# 4 0.000000 0.000000 -0.000001 0.030894 -0.000001 0.004191
# 5 0.004975 0.003310 0.010147 -0.000001 0.055921 0.000000
# 6 0.000000 0.000000 0.000000 0.004191 0.000000 0.028305
#
#
# Mechanical properties :
#
#
# Convention : Reuss Voigt Hill
#
# Bulk Modulus (GPa) = 28.59444 53.06841 40.83142
# Shear Modulus (GPa) = 26.57923 33.62478 30.10201
#
# Velocity S-wave (km/s) = 3.51798 3.95687 3.74386
# Velocity P-wave (km/s) = 5.46041 6.75175 6.14012
#
# Compressibility (1/GPa) = 0.03497183
#
# Stress axis : x y z
#
# Youngs Moduli (GPa) = 76.47647 124.68429 36.95549
#
# Poissons Ratio (x) = 0.25975 -0.05786
# Poissons Ratio (y) = 0.15932 0.22448
# Poissons Ratio (z) = -0.11974 0.75738
#
# Static dielectric constant tensor:
#      x y z
#    x 1.863100 0.000000 0.029150 
#    y 0.000000 1.798900 0.000000 
#    z 0.029150 0.000000 1.776500 
# 
# From -- ./inp_files/260161.got.cif
#   From: 2010.05.17/outbox.cif.g08.bks.cpg/sg12_131_cif.got.tgz:260161.got - 2010.06.03 13:09:07.
