data_PCOD9197498
_publ_section_title
;
Structure prediction by ZEFSAII (Michael W. Deem and Ramdas Pophale) SiO2 
 PCOD9197498
Probable space group: C 2/M
;
_chemical_formula_sum "Si O2"
_cell_formula_units_Z 48
_cell_length_a 17.990212
_cell_length_b 11.868478
_cell_length_c 10.635081
_cell_angle_alpha 90.000000
_cell_angle_beta 97.590665
_cell_angle_gamma 90.000000
_cell_volume 2250.866045
_symmetry_space_group_name_H-M "C 2/M"
_symmetry_group_IT_number 12
_symmetry_cell_setting 'monoclinic'
loop_
_space_group_symop_operation_xyz
x,y,z
-x,y,-z
-x,-y,-z
x,-y,z
1/2+x,1/2+y,z
1/2-x,1/2+y,-z
1/2-x,1/2-y,-z
1/2+x,1/2-y,z
loop_
_atom_site_type_symbol
_atom_site_label
_atom_site_fract_x
_atom_site_fract_y
_atom_site_fract_z
Si Si1 0.569206 0.253764 0.609586
Si Si2 0.003146 0.631441 0.181563
Si Si3 0.034458 0.000000 0.649469
Si Si4 0.154514 0.631134 0.955006
Si Si5 0.788707 0.633199 0.321049
Si Si6 0.435990 0.500000 0.880237
Si Si7 0.649906 0.724001 0.178386
O O1 0.500000 0.264732 0.500000
O O2 0.538453 0.159956 0.698303
O O3 0.577754 0.380053 0.669599
O O4 0.649321 0.203313 0.588159
O O5 0.019713 0.500000 0.171761
O O6 0.078076 0.703685 0.202704
O O7 0.935028 0.659875 0.070514
O O8 0.000000 0.000000 0.500000
O O9 0.973702 0.000000 0.749157
O O10 0.161262 0.500000 0.989115
O O11 0.187464 0.642432 0.822244
O O12 0.186957 0.706022 0.073340
O O13 0.786561 0.500000 0.352055
O O14 0.707261 0.690496 0.300820
O O15 0.383803 0.608233 0.881603
O O16 0.500000 0.500000 0.000000
#
# Coordination Sequence:
#
# PCOD9197498 Si02
#       7
#     8   8   4   8   8   4   8
#     4  10  21  41  67  84 109 154 208 251 299 373
#     4  10  20  35  60  86 115 151 204 254 298 358
#     4  10  22  44  68  90 124 166 207 249 310 378
#     4   9  19  36  56  81 117 167 204 238 305 379
#     4  10  22  39  56  85 121 159 201 255 320 366
#     4  12  24  36  64 100 123 164 213 257 308 369
#     4  12  21  36  55  85 131 157 195 258 314 367
#
# _framework density 21.325126000000001
#
# number of rings (size 3 to 8) (size 9 to 14) (size 15 to 20)
#    0.000    1.667    2.500    4.000    2.333    2.667 
#    3.000    0.833    0.000    0.000    0.000    0.000 
#    0.000    0.000    0.000    0.000    0.000    0.000 
#
# Total GULP energy -133856.714708 kJ/mol
# GULP energy per Si atom -5577.363113 kJ/mol
# Density = 2.127659 g / cm^3
# Si number density = 21.325126 Si / 1000 Ang^3
#
#
#
# Elastic Constant Matrix: (Units=GPa)
#
#
# Indices 1 2 3 4 5 6 
#
# 1 65.5524 35.3417 11.2254 0.0000 30.4868 0.0000
# 2 35.3417 91.6911 16.5090 0.0000 31.0686 0.0000
# 3 11.2254 16.5090 47.0342 0.0000 14.6083 0.0000
# 4 0.0000 0.0000 0.0000 12.8634 0.0000 21.2652
# 5 30.4868 31.0686 14.6083 0.0000 38.7495 0.0000
# 6 0.0000 0.0000 0.0000 21.2652 0.0000 -20.5503
#
#
#
# Elastic Compliance Matrix: (Units=1/GPa)
#
#
# Indices 1 2 3 4 5 6 
#
# 1 0.025150 -0.004150 0.000642 0.000000 -0.016701 0.000000
# 2 -0.004150 0.015784 -0.001850 0.000000 -0.008693 0.000000
# 3 0.000642 -0.001850 0.024299 0.000000 -0.008182 0.000000
# 4 0.000000 0.000000 0.000000 0.028679 0.000000 0.029677
# 5 -0.016701 -0.008693 -0.008182 0.000000 0.049001 0.000000
# 6 0.000000 0.000000 0.000000 0.029677 0.000000 -0.017952
#
#
# Mechanical properties :
#
#
# Convention : Reuss Voigt Hill
#
# Bulk Modulus (GPa) = 18.34329 36.71447 27.52888
# Shear Modulus (GPa) = 32.49895 15.62597 24.06246
#
# Velocity S-wave (km/s) = 3.90805 2.70987 3.36275
# Velocity P-wave (km/s) = 5.38369 5.20049 5.29289
#
# Compressibility (1/GPa) = 0.05451585
#
# Stress axis : x y z
#
# Youngs Moduli (GPa) = 39.76125 63.35329 41.15474
#
# Poissons Ratio (x) = 0.26294 -0.02640
# Poissons Ratio (y) = 0.16502 0.07613
# Poissons Ratio (z) = -0.02551 0.11720
#
# Static dielectric constant tensor:
#      x y z
#    x 1.869670 0.000000 0.029280 
#    y 0.000000 1.747980 0.000000 
#    z 0.029280 0.000000 1.903690 
# 
# From -- ./inp_files/154223.got.cif
#   From: 2010.05.17/outbox.cif.g08.bks.cpg/sg12_78_cif.got.tgz:154223.got - 2010.06.03 13:09:07.
