data_PCOD9197501
_publ_section_title
;
Structure prediction by ZEFSAII (Michael W. Deem and Ramdas Pophale) SiO2 
 PCOD9197501
Probable space group: C 2/M
;
_chemical_formula_sum "Si O2"
_cell_formula_units_Z 56
_cell_length_a 14.565652
_cell_length_b 29.390361
_cell_length_c 9.260331
_cell_angle_alpha 90.000000
_cell_angle_beta 136.739649
_cell_angle_gamma 90.000000
_cell_volume 2716.760305
_symmetry_space_group_name_H-M "C 2/M"
_symmetry_group_IT_number 12
_symmetry_cell_setting 'monoclinic'
loop_
_space_group_symop_operation_xyz
x,y,z
-x,y,-z
-x,-y,-z
x,-y,z
1/2+x,1/2+y,z
1/2-x,1/2+y,-z
1/2-x,1/2-y,-z
1/2+x,1/2-y,z
loop_
_atom_site_type_symbol
_atom_site_label
_atom_site_fract_x
_atom_site_fract_y
_atom_site_fract_z
Si Si1 0.593758 0.916128 0.903953
Si Si2 0.245736 0.792173 0.603811
Si Si3 0.755040 0.376954 0.408888
Si Si4 0.500000 0.331222 0.000000
Si Si5 0.952931 0.218745 0.243594
Si Si6 0.303046 0.946441 0.689419
Si Si7 0.000000 0.588605 0.500000
Si Si8 0.656128 0.190421 0.980423
O O1 0.452147 0.932157 0.807636
O O2 0.583949 0.934519 0.727862
O O3 0.702186 0.932327 0.147478
O O4 0.608540 0.861375 0.914555
O O5 0.250000 0.750000 0.500000
O O6 0.280462 0.836161 0.550055
O O7 0.341459 0.792358 0.851161
O O8 0.091475 0.792590 0.483212
O O9 0.718419 0.418809 0.473769
O O10 0.883955 0.385429 0.456162
O O11 0.630924 0.361938 0.169628
O O12 0.512554 0.299677 0.875822
O O13 0.811964 0.194752 0.114889
O O14 0.925123 0.272890 0.206893
O O15 0.284945 0.000000 0.657014
#
# Coordination Sequence:
#
# PCOD9197501 Si02
#       8
#     8   8   8   4   8   8   4   8
#     4  10  20  35  60  86 121 156 197 253 315 375
#     4  11  23  37  57  84 121 165 210 249 304 372
#     4  10  21  40  61  89 123 166 204 258 316 369
#     4  10  20  40  59  84 120 170 207 248 308 372
#     4  10  23  36  55  84 126 160 207 254 295 367
#     4  10  21  39  62  93 123 159 207 261 321 382
#     4  10  22  36  59  94 120 156 200 258 313 362
#     4  11  21  38  56  88 118 165 206 251 307 363
#
# _framework density 20.612787000000001
#
# number of rings (size 3 to 8) (size 9 to 14) (size 15 to 20)
#    0.000    1.714    1.429    3.857    4.000    2.286 
#    0.000    9.286    0.000    0.000    0.000   17.000 
#    0.000    0.000    0.000    0.000    0.000    0.000 
#
# Total GULP energy -156143.281975 kJ/mol
# GULP energy per Si atom -5576.545785 kJ/mol
# Density = 2.056587 g / cm^3
# Si number density = 20.612787 Si / 1000 Ang^3
#
#
#
# Elastic Constant Matrix: (Units=GPa)
#
#
# Indices 1 2 3 4 5 6 
#
# 1 81.6086 11.1184 16.3697 0.0000 -0.6098 0.0000
# 2 11.1184 112.6941 10.1305 0.0000 -6.1532 0.0000
# 3 16.3697 10.1305 71.5818 0.0000 -6.5673 0.0000
# 4 0.0000 0.0000 0.0000 6.0059 0.0000 -0.9933
# 5 -0.6098 -6.1532 -6.5673 0.0000 31.8887 0.0000
# 6 0.0000 0.0000 0.0000 -0.9933 0.0000 14.7059
#
#
#
# Elastic Compliance Matrix: (Units=1/GPa)
#
#
# Indices 1 2 3 4 5 6 
#
# 1 0.012968 -0.001051 -0.002867 0.000000 -0.000545 0.000000
# 2 -0.001051 0.009144 -0.000911 0.000000 0.001557 0.000000
# 3 -0.002867 -0.000911 0.015017 0.000000 0.002862 0.000000
# 4 0.000000 0.000000 0.000000 0.168385 0.000000 0.011374
# 5 -0.000545 0.001557 0.002862 0.000000 0.032238 0.000000
# 6 0.000000 0.000000 0.000000 0.011374 0.000000 0.068768
#
#
# Mechanical properties :
#
#
# Convention : Reuss Voigt Hill
#
# Bulk Modulus (GPa) = 36.40206 37.90241 37.15224
# Shear Modulus (GPa) = 15.36875 25.73783 20.55329
#
# Velocity S-wave (km/s) = 2.73352 3.53744 3.16114
# Velocity P-wave (km/s) = 5.25938 5.92557 5.60238
#
# Compressibility (1/GPa) = 0.02747097
#
# Stress axis : x y z
#
# Youngs Moduli (GPa) = 77.11396 109.35901 66.59068
#
# Poissons Ratio (x) = 0.11499 0.19090
# Poissons Ratio (y) = 0.08108 0.06065
# Poissons Ratio (z) = 0.22107 0.09961
#
# Static dielectric constant tensor:
#      x y z
#    x 1.769050 0.000000 -0.034570 
#    y 0.000000 1.712580 0.000000 
#    z -0.034570 0.000000 1.837590 
# 
# From -- ./inp_files/68348.got.cif
#   From: 2010.05.17/outbox.cif.g08.bks.cpg/sg12_35_cif.got.tgz:68348.got - 2010.06.03 13:09:07.
