data_PCOD9197053
_publ_section_title
;
Structure prediction by ZEFSAII (Michael W. Deem and Ramdas Pophale) SiO2 
 PCOD9197053
Probable space group: C 2/M
;
_chemical_formula_sum "Si O2"
_cell_formula_units_Z 56
_cell_length_a 31.584956
_cell_length_b 8.806178
_cell_length_c 20.049889
_cell_angle_alpha 90.000000
_cell_angle_beta 149.117710
_cell_angle_gamma 90.000000
_cell_volume 2862.402270
_symmetry_space_group_name_H-M "C 2/M"
_symmetry_group_IT_number 12
_symmetry_cell_setting 'monoclinic'
loop_
_space_group_symop_operation_xyz
x,y,z
-x,y,-z
-x,-y,-z
x,-y,z
1/2+x,1/2+y,z
1/2-x,1/2+y,-z
1/2-x,1/2-y,-z
1/2+x,1/2-y,z
loop_
_atom_site_type_symbol
_atom_site_label
_atom_site_fract_x
_atom_site_fract_y
_atom_site_fract_z
Si Si1 0.739644 0.318563 0.412024
Si Si2 0.103420 0.819426 0.446076
Si Si3 0.473730 0.180720 0.165086
Si Si4 0.451076 0.681138 0.866052
Si Si5 0.352424 0.670024 0.192902
Si Si6 0.802032 0.827864 0.969906
Si Si7 0.985263 0.677972 0.555879
O O1 0.751696 0.500000 0.431388
O O2 0.750000 0.250000 0.500000
O O3 0.809357 0.245608 0.460014
O O4 0.646718 0.288639 0.261420
O O5 0.080773 0.768326 0.490072
O O6 0.033256 0.750844 0.302293
O O7 0.101771 0.000000 0.437652
O O8 0.512643 0.226941 0.146953
O O9 0.470469 0.000000 0.168928
O O10 0.382517 0.251661 0.047345
O O11 0.460614 0.500000 0.865267
O O12 0.500000 0.715574 0.000000
O O13 0.381173 0.500000 0.249740
O O14 0.280548 0.727902 0.144599
O O15 0.426204 0.789292 0.291714
O O16 0.319889 0.661611 0.073346
O O17 0.789674 0.000000 0.928147
O O18 0.965056 0.500000 0.529294
O O19 0.000000 0.728091 0.500000
#
# Coordination Sequence:
#
# PCOD9197053 Si02
#       7
#     8   8   8   8   8   8   8
#     4  11  22  39  67  99 131 167 214 266 318 384
#     4  12  24  40  64  93 125 165 214 266 318 378
#     4  12  23  37  63  93 124 161 206 260 314 376
#     4  10  23  44  67  92 127 170 209 256 320 386
#     4  10  20  35  58  86 118 155 197 247 304 362
#     4  10  20  35  58  87 119 155 197 249 302 359
#     4  11  24  42  63  88 122 165 211 261 322 382
#
# _framework density 19.563987000000001
#
# number of rings (size 3 to 8) (size 9 to 14) (size 15 to 20)
#    0.000    1.143    2.857    4.286    0.000    3.143 
#    2.571    0.000    0.000    0.000    0.000    0.000 
#    0.000    0.000    0.000    0.000    0.000    0.000 
#
# Total GULP energy -156482.288802 kJ/mol
# GULP energy per Si atom -5588.653172 kJ/mol
# Density = 1.951946 g / cm^3
# Si number density = 19.563987 Si / 1000 Ang^3
#
#
#
# Elastic Constant Matrix: (Units=GPa)
#
#
# Indices 1 2 3 4 5 6 
#
# 1 135.0777 68.8657 44.4690 0.0000 28.2509 0.0000
# 2 68.8657 102.0432 25.6605 0.0000 10.3698 0.0000
# 3 44.4690 25.6605 60.1233 0.0000 15.0219 0.0000
# 4 0.0000 0.0000 0.0000 15.6586 0.0000 -3.5767
# 5 28.2509 10.3698 15.0219 0.0000 39.4824 0.0000
# 6 0.0000 0.0000 0.0000 -3.5767 0.0000 25.2332
#
#
#
# Elastic Compliance Matrix: (Units=1/GPa)
#
#
# Indices 1 2 3 4 5 6 
#
# 1 0.014585 -0.007721 -0.005958 0.000000 -0.006142 0.000000
# 2 -0.007721 0.015118 -0.001249 0.000000 0.002029 0.000000
# 3 -0.005958 -0.001249 0.022571 0.000000 -0.003996 0.000000
# 4 0.000000 0.000000 0.000000 0.066000 0.000000 0.009355
# 5 -0.006142 0.002029 -0.003996 0.000000 0.030710 0.000000
# 6 0.000000 0.000000 0.000000 0.009355 0.000000 0.040956
#
#
# Mechanical properties :
#
#
# Convention : Reuss Voigt Hill
#
# Bulk Modulus (GPa) = 44.60519 63.91495 54.26007
# Shear Modulus (GPa) = 22.00045 26.62478 24.31262
#
# Velocity S-wave (km/s) = 3.35705 3.69305 3.52905
# Velocity P-wave (km/s) = 6.15431 7.13621 6.66337
#
# Compressibility (1/GPa) = 0.02241892
#
# Stress axis : x y z
#
# Youngs Moduli (GPa) = 68.56219 66.14576 44.30526
#
# Poissons Ratio (x) = 0.51070 0.26397
# Poissons Ratio (y) = 0.52935 0.05533
# Poissons Ratio (z) = 0.40849 0.08260
#
# Static dielectric constant tensor:
#      x y z
#    x 1.677060 0.000000 -0.013260 
#    y 0.000000 1.670350 0.000000 
#    z -0.013260 0.000000 1.696500 
# 
# From -- ./inp_files/329617.got.cif
#   From: 2010.05.17/outbox.cif.g08.bks.cpg/sg12_165_cif.got.tgz:329617.got - 2010.06.03 13:09:07.
