data_PCOD9197204
_publ_section_title
;
Structure prediction by ZEFSAII (Michael W. Deem and Ramdas Pophale) SiO2 
 PCOD9197204
Probable space group: C 2/M
;
_chemical_formula_sum "Si O2"
_cell_formula_units_Z 56
_cell_length_a 9.132693
_cell_length_b 19.706584
_cell_length_c 26.531629
_cell_angle_alpha 90.000000
_cell_angle_beta 139.890708
_cell_angle_gamma 90.000000
_cell_volume 3076.287935
_symmetry_space_group_name_H-M "C 2/M"
_symmetry_group_IT_number 12
_symmetry_cell_setting 'monoclinic'
loop_
_space_group_symop_operation_xyz
x,y,z
-x,y,-z
-x,-y,-z
x,-y,z
1/2+x,1/2+y,z
1/2-x,1/2+y,-z
1/2-x,1/2-y,-z
1/2+x,1/2-y,z
loop_
_atom_site_type_symbol
_atom_site_label
_atom_site_fract_x
_atom_site_fract_y
_atom_site_fract_z
Si Si1 0.281820 0.182433 0.475734
Si Si2 0.972716 0.316681 0.130010
Si Si3 0.859811 0.580934 0.015178
Si Si4 0.588640 0.329030 0.113174
Si Si5 0.953499 0.660163 0.293415
Si Si6 0.759035 0.579535 0.556167
Si Si7 0.813079 0.792316 0.308223
O O1 0.500000 0.193730 0.500000
O O2 0.250000 0.250000 0.500000
O O3 0.324462 0.120074 0.523804
O O4 0.052414 0.173069 0.383212
O O5 0.978198 0.378183 0.091991
O O6 0.744011 0.319711 0.104078
O O7 0.995073 0.244728 0.106561
O O8 0.181022 0.319556 0.224359
O O9 0.839455 0.500000 0.019058
O O10 0.616198 0.618433 0.947248
O O11 0.000000 0.590096 0.000000
O O12 0.755106 0.355355 0.201490
O O13 0.858984 0.713546 0.308979
O O14 0.075219 0.599788 0.354637
O O15 0.147526 0.697805 0.311878
O O16 0.500000 0.601248 0.500000
O O17 0.760993 0.500000 0.548458
#
# Coordination Sequence:
#
# PCOD9197204 Si02
#       7
#     8   8   8   8   8   8   8
#     4  12  22  36  62  89 117 155 202 247 290 344
#     4  10  21  38  61  90 120 152 191 246 297 346
#     4  11  24  42  61  84 118 158 198 239 293 355
#     4  10  21  37  63  90 119 150 193 244 292 353
#     4  10  20  36  59  89 116 148 195 246 295 346
#     4  11  23  39  57  81 121 162 198 241 295 348
#     4  10  20  35  58  91 116 147 195 243 295 341
#
# _framework density 18.203757
#
# number of rings (size 3 to 8) (size 9 to 14) (size 15 to 20)
#    0.000    1.429    2.857    3.000    0.000    3.143 
#    0.000    2.857    0.000    0.000    0.000    0.000 
#    0.000    0.000    0.000    0.000    0.000    0.000 
#
# Total GULP energy -156376.748576 kJ/mol
# GULP energy per Si atom -5584.883878 kJ/mol
# Density = 1.816232 g / cm^3
# Si number density = 18.203757 Si / 1000 Ang^3
#
#
#
# Elastic Constant Matrix: (Units=GPa)
#
#
# Indices 1 2 3 4 5 6 
#
# 1 113.4421 54.8760 38.3359 0.0000 2.5614 0.0000
# 2 54.8760 95.0865 49.5049 0.0000 -7.1670 0.0001
# 3 38.3359 49.5049 102.1361 -0.0001 7.6047 0.0001
# 4 0.0000 0.0000 -0.0001 18.9718 0.0000 1.6634
# 5 2.5614 -7.1670 7.6047 0.0000 25.6332 0.0001
# 6 0.0000 0.0001 0.0001 1.6634 0.0001 23.4411
#
#
#
# Elastic Compliance Matrix: (Units=1/GPa)
#
#
# Indices 1 2 3 4 5 6 
#
# 1 0.012603 -0.006866 -0.001192 0.000000 -0.002825 0.000000
# 2 -0.006866 0.018802 -0.007136 0.000000 0.008060 0.000000
# 3 -0.001192 -0.007136 0.014150 0.000000 -0.006074 0.000000
# 4 0.000000 0.000000 0.000000 0.053040 0.000000 -0.003764
# 5 -0.002825 0.008060 -0.006074 0.000000 0.043350 0.000000
# 6 0.000000 0.000000 0.000000 -0.003764 0.000000 0.042927
#
#
# Mechanical properties :
#
#
# Convention : Reuss Voigt Hill
#
# Bulk Modulus (GPa) = 65.93753 66.23313 66.08533
# Shear Modulus (GPa) = 22.69475 24.80572 23.75024
#
# Velocity S-wave (km/s) = 3.53470 3.69544 3.61597
# Velocity P-wave (km/s) = 7.27732 7.39403 7.33591
#
# Compressibility (1/GPa) = 0.01516587
#
# Stress axis : x y z
#
# Youngs Moduli (GPa) = 79.34689 53.18613 70.67322
#
# Poissons Ratio (x) = 0.36515 0.08427
# Poissons Ratio (y) = 0.54476 0.50435
# Poissons Ratio (z) = 0.09461 0.37956
#
# Static dielectric constant tensor:
#      x y z
#    x 1.616430 0.000000 -0.002940 
#    y 0.000000 1.583840 0.000000 
#    z -0.002940 0.000000 1.659620 
# 
# From -- ./inp_files/356662.got.cif
#   From: 2010.05.17/outbox.cif.g08.bks.cpg/sg12_179_cif.got.tgz:356662.got - 2010.06.03 13:09:07.
