data_PCOD9197717
_publ_section_title
;
Structure prediction by ZEFSAII (Michael W. Deem and Ramdas Pophale) SiO2 
 PCOD9197717
Probable space group: C 2/M
;
_chemical_formula_sum "Si O2"
_cell_formula_units_Z 48
_cell_length_a 19.665043
_cell_length_b 13.747830
_cell_length_c 8.897426
_cell_angle_alpha 90.000000
_cell_angle_beta 73.522263
_cell_angle_gamma 90.000000
_cell_volume 2306.642837
_symmetry_space_group_name_H-M "C 2/M"
_symmetry_group_IT_number 12
_symmetry_cell_setting 'monoclinic'
loop_
_space_group_symop_operation_xyz
x,y,z
-x,y,-z
-x,-y,-z
x,-y,z
1/2+x,1/2+y,z
1/2-x,1/2+y,-z
1/2-x,1/2-y,-z
1/2+x,1/2-y,z
loop_
_atom_site_type_symbol
_atom_site_label
_atom_site_fract_x
_atom_site_fract_y
_atom_site_fract_z
Si Si1 0.444580 0.612202 0.900192
Si Si2 0.813532 0.610047 0.838599
Si Si3 0.328722 0.680106 0.193140
Si Si4 0.693610 0.331393 0.475993
Si Si5 0.932059 0.739264 0.639665
Si Si6 0.316051 0.895277 0.194807
O O1 0.449487 0.500000 0.849355
O O2 0.453390 0.684397 0.755886
O O3 0.500000 0.629712 0.000000
O O4 0.370280 0.632671 0.029904
O O5 0.803373 0.500000 0.788591
O O6 0.753172 0.678307 0.806545
O O7 0.889787 0.651239 0.744623
O O8 0.804949 0.608902 0.023036
O O9 0.333455 0.624875 0.348872
O O10 0.353713 0.791864 0.204048
O O11 0.750000 0.250000 0.500000
O O12 0.626284 0.289302 0.431747
O O13 0.742297 0.392539 0.332667
O O14 0.000000 0.710283 0.500000
O O15 0.351246 0.000000 0.207633
#
# Coordination Sequence:
#
# PCOD9197717 Si02
#       6
#     8   8   8   8   8   8
#     4  11  25  44  68  96 128 172 217 262 325 394
#     4  11  22  39  64  94 125 168 219 264 320 387
#     4  11  20  41  64  95 131 168 208 268 321 377
#     4  10  21  38  62  94 132 166 210 261 322 379
#     4  12  24  43  65  91 132 175 211 272 331 380
#     4  10  20  35  62  93 125 162 208 265 321 379
#
# _framework density 20.809463000000001
#
# number of rings (size 3 to 8) (size 9 to 14) (size 15 to 20)
#    0.000    1.167    5.000    3.000    0.000    4.000 
#    0.000    0.000    0.000    4.000    0.000    0.000 
#    0.000    0.000    0.000    0.000    0.000    0.000 
#
# Total GULP energy -133922.405716 kJ/mol
# GULP energy per Si atom -5580.100238 kJ/mol
# Density = 2.076210 g / cm^3
# Si number density = 20.809463 Si / 1000 Ang^3
#
#
#
# Elastic Constant Matrix: (Units=GPa)
#
#
# Indices 1 2 3 4 5 6 
#
# 1 58.8833 21.9469 17.1458 0.0000 -11.1743 0.0000
# 2 21.9469 98.1953 28.6752 0.0000 1.0042 0.0000
# 3 17.1458 28.6752 131.7387 0.0000 -10.5980 0.0000
# 4 0.0000 0.0000 0.0000 -28.6856 0.0000 -4.0148
# 5 -11.1743 1.0042 -10.5980 0.0000 23.2015 0.0000
# 6 0.0000 0.0000 0.0000 -4.0148 0.0000 15.2702
#
#
#
# Elastic Compliance Matrix: (Units=1/GPa)
#
#
# Indices 1 2 3 4 5 6 
#
# 1 0.020777 -0.004467 -0.000946 0.000000 0.009768 0.000000
# 2 -0.004467 0.011894 -0.002307 0.000000 -0.003720 0.000000
# 3 -0.000946 -0.002307 0.008500 0.000000 0.003527 0.000000
# 4 0.000000 0.000000 0.000000 -0.033623 0.000000 -0.008840
# 5 0.009768 -0.003720 0.003527 0.000000 0.049577 0.000000
# 6 0.000000 0.000000 0.000000 -0.008840 0.000000 0.063163
#
#
# Mechanical properties :
#
#
# Convention : Reuss Voigt Hill
#
# Bulk Modulus (GPa) = 38.86443 47.15033 43.00738
# Shear Modulus (GPa) = 34.64908 16.69384 25.67146
#
# Velocity S-wave (km/s) = 4.08495 2.83543 3.51614
# Velocity P-wave (km/s) = 6.40046 5.78160 6.09888
#
# Compressibility (1/GPa) = 0.02573047
#
# Stress axis : x y z
#
# Youngs Moduli (GPa) = 48.13038 84.07651 117.65090
#
# Poissons Ratio (x) = 0.37560 0.11129
# Poissons Ratio (y) = 0.21502 0.27139
# Poissons Ratio (z) = 0.04553 0.19394
#
# Static dielectric constant tensor:
#      x y z
#    x 1.747890 0.000000 -0.035740 
#    y 0.000000 1.777260 0.000000 
#    z -0.035740 0.000000 1.790540 
# 
# From -- ./inp_files/85712.got.cif
#   From: 2010.05.17/outbox.cif.g08.bks.cpg/sg12_43_cif.got.tgz:85712.got - 2010.06.03 13:09:07.
