data_PCOD9197330
_publ_section_title
;
Structure prediction by ZEFSAII (Michael W. Deem and Ramdas Pophale) SiO2 
 PCOD9197330
Probable space group: C 2/M
;
_chemical_formula_sum "Si O2"
_cell_formula_units_Z 64
_cell_length_a 15.131109
_cell_length_b 18.510567
_cell_length_c 19.358915
_cell_angle_alpha 90.000000
_cell_angle_beta 37.741788
_cell_angle_gamma 90.000000
_cell_volume 3318.919163
_symmetry_space_group_name_H-M "C 2/M"
_symmetry_group_IT_number 12
_symmetry_cell_setting 'monoclinic'
loop_
_space_group_symop_operation_xyz
x,y,z
-x,y,-z
-x,-y,-z
x,-y,z
1/2+x,1/2+y,z
1/2-x,1/2+y,-z
1/2-x,1/2-y,-z
1/2+x,1/2-y,z
loop_
_atom_site_type_symbol
_atom_site_label
_atom_site_fract_x
_atom_site_fract_y
_atom_site_fract_z
Si Si1 0.845002 0.918656 0.888627
Si Si2 0.260306 0.293292 0.174334
Si Si3 0.769707 0.915395 0.677090
Si Si4 0.278319 0.585472 0.506239
Si Si5 0.450579 0.129093 0.869594
Si Si6 0.048783 0.789310 0.082689
Si Si7 0.067303 0.847194 0.303113
Si Si8 0.449921 0.915541 0.709523
O O1 0.927217 0.858140 0.883198
O O2 0.865543 0.899576 0.796063
O O3 0.893306 0.000000 0.874135
O O4 0.676914 0.910007 0.011156
O O5 0.388222 0.283126 0.150350
O O6 0.140504 0.230278 0.246451
O O7 0.173753 0.365931 0.245007
O O8 0.341811 0.295826 0.049918
O O9 0.780656 0.905529 0.587994
O O10 0.609548 0.890555 0.798157
O O11 0.885133 0.872685 0.650426
O O12 0.787932 0.000000 0.679513
O O13 0.312122 0.500000 0.471520
O O14 0.396141 0.639904 0.402866
O O15 0.114029 0.599598 0.584340
O O16 0.424468 0.214609 0.893582
O O17 0.446141 0.102876 0.793489
O O18 0.422527 0.000000 0.716993
#
# Coordination Sequence:
#
# PCOD9197330 Si02
#       8
#     8   8   8   8   8   8   8   8
#     4  12  24  36  59  89 119 156 199 242 291 355
#     4  11  23  39  61  86 116 159 199 239 295 349
#     4  10  20  35  59  87 121 156 193 239 289 351
#     4   9  20  38  61  88 119 156 193 242 296 340
#     4  11  19  37  57  85 116 153 191 239 299 349
#     4  11  23  41  57  83 126 162 188 237 303 355
#     4  12  22  37  58  88 124 155 193 236 294 361
#     4  10  21  39  64  87 111 151 204 251 287 337
#
# _framework density 19.283386
#
# number of rings (size 3 to 8) (size 9 to 14) (size 15 to 20)
#    0.000    1.250    3.750    4.500    0.000    2.500 
#    0.000    2.500    0.000    0.000    0.000    2.625 
#    0.000    0.000    0.000    0.000    0.000    0.000 
#
# Total GULP energy -178739.496943 kJ/mol
# GULP energy per Si atom -5585.609279 kJ/mol
# Density = 1.923950 g / cm^3
# Si number density = 19.283386 Si / 1000 Ang^3
#
#
#
# Elastic Constant Matrix: (Units=GPa)
#
#
# Indices 1 2 3 4 5 6 
#
# 1 33.5844 13.1315 18.1233 0.0000 -12.0675 0.0001
# 2 13.1315 105.0362 24.0823 0.0003 -14.0435 -0.0001
# 3 18.1233 24.0823 65.8089 0.0004 -32.9232 -0.0007
# 4 0.0000 0.0003 0.0004 15.0005 -0.0001 6.0387
# 5 -12.0675 -14.0435 -32.9232 -0.0001 24.4536 0.0001
# 6 0.0001 -0.0001 -0.0007 6.0387 0.0001 66.4415
#
#
#
# Elastic Compliance Matrix: (Units=1/GPa)
#
#
# Indices 1 2 3 4 5 6 
#
# 1 0.036873 -0.002215 -0.002687 0.000000 0.013307 0.000000
# 2 -0.002215 0.010580 -0.002355 0.000000 0.001812 0.000000
# 3 -0.002687 -0.002355 0.047351 -0.000001 0.061072 0.000000
# 4 0.000000 0.000000 -0.000001 0.069196 -0.000001 -0.006289
# 5 0.013307 0.001812 0.061072 -0.000001 0.130726 0.000000
# 6 0.000000 0.000000 0.000000 -0.006289 0.000000 0.015622
#
#
# Mechanical properties :
#
#
# Convention : Reuss Voigt Hill
#
# Bulk Modulus (GPa) = 12.45477 35.01153 23.73315
# Shear Modulus (GPa) = 14.21971 31.11862 22.66916
#
# Velocity S-wave (km/s) = 2.71847 4.02151 3.43239
# Velocity P-wave (km/s) = 4.04058 6.30549 5.29554
#
# Compressibility (1/GPa) = 0.08029054
#
# Stress axis : x y z
#
# Youngs Moduli (GPa) = 27.12004 94.52113 21.11896
#
# Poissons Ratio (x) = 0.20933 0.05674
# Poissons Ratio (y) = 0.06006 0.04974
# Poissons Ratio (z) = 0.07287 0.22260
#
# Static dielectric constant tensor:
#      x y z
#    x 1.674720 0.000000 -0.023050 
#    y 0.000000 1.665660 0.000000 
#    z -0.023050 0.000000 1.676700 
# 
# From -- ./inp_files/271722.got.cif
#   From: 2010.05.17/outbox.cif.g08.bks.cpg/sg12_136_cif.got.tgz:271722.got - 2010.06.03 13:09:07.
