data_PCOD9197079
_publ_section_title
;
Structure prediction by ZEFSAII (Michael W. Deem and Ramdas Pophale) SiO2 
 PCOD9197079
Probable space group: C 2/M
;
_chemical_formula_sum "Si O2"
_cell_formula_units_Z 36
_cell_length_a 9.123834
_cell_length_b 20.513233
_cell_length_c 15.432961
_cell_angle_alpha 90.000000
_cell_angle_beta 40.996951
_cell_angle_gamma 90.000000
_cell_volume 1894.859773
_symmetry_space_group_name_H-M "C 2/M"
_symmetry_group_IT_number 12
_symmetry_cell_setting 'monoclinic'
loop_
_space_group_symop_operation_xyz
x,y,z
-x,y,-z
-x,-y,-z
x,-y,z
1/2+x,1/2+y,z
1/2-x,1/2+y,-z
1/2-x,1/2-y,-z
1/2+x,1/2-y,z
loop_
_atom_site_type_symbol
_atom_site_label
_atom_site_fract_x
_atom_site_fract_y
_atom_site_fract_z
Si Si1 0.744131 0.289593 0.590635
Si Si2 0.048640 0.693158 0.169136
Si Si3 0.765518 0.927643 0.361379
Si Si4 0.266037 0.424562 0.155136
Si Si5 0.000000 0.274777 0.000000
O O1 0.750000 0.250000 0.500000
O O2 0.628966 0.243353 0.712356
O O3 0.642153 0.362604 0.633363
O O4 0.000000 0.299794 0.500000
O O5 0.078946 0.624765 0.203980
O O6 0.996115 0.685256 0.091047
O O7 0.284405 0.729157 0.082854
O O8 0.500000 0.931818 0.500000
O O9 0.796575 0.915596 0.244597
O O10 0.858406 0.000000 0.340970
O O11 0.204164 0.500000 0.168736
O O12 0.500000 0.413134 0.000000
#
# Coordination Sequence:
#
# PCOD9197079 Si02
#       5
#     8   8   8   8   4
#     4  11  22  36  58  86 116 148 189 244 290 340
#     4  11  20  37  55  83 115 150 193 239 288 347
#     4   9  18  34  56  83 111 148 193 237 284 339
#     4  10  20  35  58  87 116 149 195 247 290 342
#     4  10  22  32  56  80 110 152 190 232 288 344
#
# _framework density 18.998768999999999
#
# number of rings (size 3 to 8) (size 9 to 14) (size 15 to 20)
#    0.000    1.778    1.111    5.333    3.111    0.000 
#    0.000    0.556    0.000    6.667    0.000    0.000 
#    0.000    0.000    0.000    0.000    0.000    0.000 
#
# Total GULP energy -100352.575225 kJ/mol
# GULP energy per Si atom -5575.143068 kJ/mol
# Density = 1.895553 g / cm^3
# Si number density = 18.998769 Si / 1000 Ang^3
#
#
#
# Elastic Constant Matrix: (Units=GPa)
#
#
# Indices 1 2 3 4 5 6 
#
# 1 59.5158 37.3230 8.7058 0.0001 14.4415 -0.0002
# 2 37.3230 180.4425 23.8122 0.0001 19.8282 -0.0001
# 3 8.7058 23.8122 86.3406 0.0010 12.3793 -0.0008
# 4 0.0001 0.0001 0.0010 31.5379 -0.0005 1.6189
# 5 14.4415 19.8282 12.3793 -0.0005 29.7557 0.0005
# 6 -0.0002 -0.0001 -0.0008 1.6189 0.0005 24.0509
#
#
#
# Elastic Compliance Matrix: (Units=1/GPa)
#
#
# Indices 1 2 3 4 5 6 
#
# 1 0.020869 -0.003454 -0.000031 0.000000 -0.007814 0.000000
# 2 -0.003454 0.006660 -0.001162 0.000000 -0.002278 0.000000
# 3 -0.000031 -0.001162 0.012540 -0.000001 -0.004428 0.000001
# 4 0.000000 0.000000 -0.000001 0.031818 0.000001 -0.002142
# 5 -0.007814 -0.002278 -0.004428 0.000001 0.040760 -0.000001
# 6 0.000000 0.000000 0.000001 -0.002142 -0.000001 0.041723
#
#
# Mechanical properties :
#
#
# Convention : Reuss Voigt Hill
#
# Bulk Modulus (GPa) = 32.49360 51.77565 42.13462
# Shear Modulus (GPa) = 28.74856 34.16610 31.45733
#
# Velocity S-wave (km/s) = 3.89418 4.24528 4.07351
# Velocity P-wave (km/s) = 6.11226 7.16527 6.65961
#
# Compressibility (1/GPa) = 0.03077529
#
# Stress axis : x y z
#
# Youngs Moduli (GPa) = 47.91851 150.15002 79.74177
#
# Poissons Ratio (x) = 0.51858 0.00250
# Poissons Ratio (y) = 0.16550 0.09265
# Poissons Ratio (z) = 0.00150 0.17446
#
# Static dielectric constant tensor:
#      x y z
#    x 1.714180 0.000000 0.202380 
#    y 0.000000 1.748920 0.000000 
#    z 0.202380 0.000000 2.150940 
# 
# From -- ./inp_files/119697.got.cif
#   From: 2010.05.17/outbox.cif.g08.bks.cpg/sg12_60_cif.got.tgz:119697.got - 2010.06.03 13:09:07.
