data_PCOD9197907
_publ_section_title
;
Structure prediction by ZEFSAII (Michael W. Deem and Ramdas Pophale) SiO2 
 PCOD9197907
Probable space group: C 2/M
;
_chemical_formula_sum "Si O2"
_cell_formula_units_Z 64
_cell_length_a 25.561535
_cell_length_b 7.481237
_cell_length_c 14.449468
_cell_angle_alpha 90.000000
_cell_angle_beta 98.060349
_cell_angle_gamma 90.000000
_cell_volume 2735.901401
_symmetry_space_group_name_H-M "C 2/M"
_symmetry_group_IT_number 12
_symmetry_cell_setting 'monoclinic'
loop_
_space_group_symop_operation_xyz
x,y,z
-x,y,-z
-x,-y,-z
x,-y,z
1/2+x,1/2+y,z
1/2-x,1/2+y,-z
1/2-x,1/2-y,-z
1/2+x,1/2-y,z
loop_
_atom_site_type_symbol
_atom_site_label
_atom_site_fract_x
_atom_site_fract_y
_atom_site_fract_z
Si Si1 0.455143 0.287255 0.257320
Si Si2 0.329857 0.781302 0.884539
Si Si3 0.721096 0.715341 0.631001
Si Si4 0.891718 0.300303 0.066866
Si Si5 0.107261 0.780563 0.582830
Si Si6 0.553654 0.293878 0.393816
Si Si7 0.336274 0.783277 0.670868
Si Si8 0.787007 0.214944 0.150939
O O1 0.456468 0.500000 0.264536
O O2 0.437470 0.256025 0.148256
O O3 0.410587 0.225705 0.319252
O O4 0.510465 0.217223 0.312446
O O5 0.338020 0.733032 0.779891
O O6 0.270581 0.725721 0.899000
O O7 0.329051 0.000000 0.886937
O O8 0.373971 0.711564 0.966157
O O9 0.722294 0.500000 0.621274
O O10 0.666493 0.781483 0.573762
O O11 0.779340 0.779920 0.617707
O O12 0.714512 0.751278 0.739397
O O13 0.906118 0.500000 0.044574
O O14 0.837305 0.295154 0.112558
O O15 0.064082 0.716909 0.498259
O O16 0.108281 0.000000 0.581082
O O17 0.538068 0.500000 0.405595
O O18 0.611727 0.288692 0.364095
O O19 0.337541 0.000000 0.666090
O O20 0.791877 0.000000 0.142694
#
# Coordination Sequence:
#
# PCOD9197907 Si02
#       8
#     8   8   8   8   8   8   8   8
#     4  10  20  36  55  74 100 137 174 207 253 311
#     4   8  17  32  51  74 102 139 176 202 239 306
#     4   8  14  27  52  79 100 131 170 199 236 305
#     4  11  20  30  48  78 108 131 165 215 259 295
#     4   9  16  31  56  80 100 127 169 213 252 304
#     4  10  21  35  54  78 100 128 173 223 258 290
#     4   9  18  35  55  73 101 140 174 201 242 307
#     4   9  15  29  51  74 103 138 170 200 244 307
#
# _framework density 23.392657
#
# number of rings (size 3 to 8) (size 9 to 14) (size 15 to 20)
#    0.000    2.750    1.250    2.625    0.000    2.500 
#    0.000    5.625    0.000    5.250    0.000    0.000 
#    0.000    0.000    0.000    0.000    0.000    0.000 
#
# Total GULP energy -178584.880197 kJ/mol
# GULP energy per Si atom -5580.777506 kJ/mol
# Density = 2.333941 g / cm^3
# Si number density = 23.392657 Si / 1000 Ang^3
#
#
#
# Elastic Constant Matrix: (Units=GPa)
#
#
# Indices 1 2 3 4 5 6 
#
# 1 79.3600 -2.3889 29.8737 0.0000 37.8895 0.0000
# 2 -2.3889 61.7427 5.5527 0.0000 7.8223 0.0000
# 3 29.8737 5.5527 97.3424 0.0000 48.3800 0.0000
# 4 0.0000 0.0000 0.0000 26.4259 0.0000 23.1773
# 5 37.8895 7.8223 48.3800 0.0000 48.3800 0.0000
# 6 0.0000 0.0000 0.0000 23.1773 0.0000 36.9540
#
#
#
# Elastic Compliance Matrix: (Units=1/GPa)
#
#
# Indices 1 2 3 4 5 6 
#
# 1 0.021247 0.003127 0.003623 0.000000 -0.020769 0.000000
# 2 0.003127 0.017024 0.001301 0.000000 -0.006503 0.000000
# 3 0.003623 0.001301 0.021077 0.000000 -0.024125 0.000000
# 4 0.000000 0.000000 0.000000 0.084109 0.000000 -0.052753
# 5 -0.020769 -0.006503 -0.024125 0.000000 0.062112 0.000000
# 6 0.000000 0.000000 0.000000 -0.052753 0.000000 0.060147
#
#
# Mechanical properties :
#
#
# Convention : Reuss Voigt Hill
#
# Bulk Modulus (GPa) = 13.25346 33.83558 23.54452
# Shear Modulus (GPa) = 18.19750 36.04581 27.12166
#
# Velocity S-wave (km/s) = 2.79214 3.92969 3.40870
# Velocity P-wave (km/s) = 4.00907 5.92331 5.05758
#
# Compressibility (1/GPa) = 0.07545202
#
# Stress axis : x y z
#
# Youngs Moduli (GPa) = 47.06598 58.74020 47.44428
#
# Poissons Ratio (x) = -0.18371 -0.17191
# Poissons Ratio (y) = -0.14720 -0.06173
# Poissons Ratio (z) = -0.17054 -0.07643
#
# Static dielectric constant tensor:
#      x y z
#    x 1.874410 0.000000 0.044790 
#    y 0.000000 1.886200 0.000000 
#    z 0.044790 0.000000 1.936340 
# 
# From -- ./inp_files/244261.got.cif
#   From: 2010.05.17/outbox.cif.g08.bks.cpg/sg12_123_cif.got.tgz:244261.got - 2010.06.03 13:09:07.
