data_PCOD9197017
_publ_section_title
;
Structure prediction by ZEFSAII (Michael W. Deem and Ramdas Pophale) SiO2 
 PCOD9197017
Probable space group: C 2/M
;
_chemical_formula_sum "Si O2"
_cell_formula_units_Z 40
_cell_length_a 12.719890
_cell_length_b 14.033423
_cell_length_c 16.543557
_cell_angle_alpha 90.000000
_cell_angle_beta 134.522575
_cell_angle_gamma 90.000000
_cell_volume 2105.473097
_symmetry_space_group_name_H-M "C 2/M"
_symmetry_group_IT_number 12
_symmetry_cell_setting 'monoclinic'
loop_
_space_group_symop_operation_xyz
x,y,z
-x,y,-z
-x,-y,-z
x,-y,z
1/2+x,1/2+y,z
1/2-x,1/2+y,-z
1/2-x,1/2-y,-z
1/2+x,1/2-y,z
loop_
_atom_site_type_symbol
_atom_site_label
_atom_site_fract_x
_atom_site_fract_y
_atom_site_fract_z
Si Si1 0.379288 0.772859 0.314839
Si Si2 0.123999 0.237716 0.866859
Si Si3 0.857073 0.889290 0.712128
Si Si4 0.076919 0.611545 0.310626
Si Si5 0.897398 0.889231 0.542587
O O1 0.315108 0.739410 0.192715
O O2 0.261621 0.823203 0.307770
O O3 0.500622 0.851291 0.352140
O O4 0.469877 0.683792 0.397924
O O5 0.021321 0.145697 0.824109
O O6 0.006956 0.325587 0.801347
O O7 0.250000 0.250000 0.000000
O O8 0.851295 0.877049 0.612085
O O9 0.833280 0.000000 0.718807
O O10 0.052682 0.500000 0.286667
O O11 0.250423 0.629339 0.412097
O O12 0.940895 0.000000 0.555858
#
# Coordination Sequence:
#
# PCOD9197017 Si02
#       5
#     8   8   8   8   8
#     4   9  19  33  56  81 113 143 182 225 275 323
#     4   9  21  37  52  75 110 146 182 228 276 316
#     4  10  20  35  58  86 111 143 183 225 277 330
#     4   9  18  34  55  80 111 147 183 223 273 327
#     4   9  18  35  56  81 116 149 176 217 276 334
#
# _framework density 18.998104999999999
#
# number of rings (size 3 to 8) (size 9 to 14) (size 15 to 20)
#    1.200    1.600    0.000    1.200    0.000    2.400 
#    0.000    5.000    0.000    2.400    0.000    7.000 
#    0.000    0.000    0.000    0.000    0.000    0.000 
#
# Total GULP energy -111491.562707 kJ/mol
# GULP energy per Si atom -5574.578135 kJ/mol
# Density = 1.895486 g / cm^3
# Si number density = 18.998105 Si / 1000 Ang^3
#
#
#
# Elastic Constant Matrix: (Units=GPa)
#
#
# Indices 1 2 3 4 5 6 
#
# 1 113.4080 60.4786 43.1677 0.0000 11.1874 0.0000
# 2 60.4786 132.0493 76.2070 0.0000 8.8612 0.0000
# 3 43.1677 76.2070 153.2781 0.0000 -13.0092 0.0000
# 4 0.0000 0.0000 0.0000 18.0079 0.0000 -11.2431
# 5 11.1874 8.8612 -13.0092 0.0000 21.9983 0.0000
# 6 0.0000 0.0000 0.0000 -11.2431 0.0000 -18.3726
#
#
#
# Elastic Compliance Matrix: (Units=1/GPa)
#
#
# Indices 1 2 3 4 5 6 
#
# 1 0.012322 -0.004179 -0.001876 0.000000 -0.005692 0.000000
# 2 -0.004179 0.013478 -0.006111 0.000000 -0.006918 0.000000
# 3 -0.001876 -0.006111 0.010929 0.000000 0.009879 0.000000
# 4 0.000000 0.000000 0.000000 0.040180 0.000000 -0.024588
# 5 -0.005692 -0.006918 0.009879 0.000000 0.056981 0.000000
# 6 0.000000 0.000000 0.000000 -0.024588 0.000000 -0.039382
#
#
# Mechanical properties :
#
#
# Convention : Reuss Voigt Hill
#
# Bulk Modulus (GPa) = 80.66264 84.27134 82.46699
# Shear Modulus (GPa) = 40.65986 18.91888 29.78937
#
# Velocity S-wave (km/s) = 4.63125 3.15910 3.96412
# Velocity P-wave (km/s) = 8.43495 7.60004 8.02836
#
# Compressibility (1/GPa) = 0.01239731
#
# Stress axis : x y z
#
# Youngs Moduli (GPa) = 81.15752 74.19534 91.49880
#
# Poissons Ratio (x) = 0.31006 0.17161
# Poissons Ratio (y) = 0.33915 0.55917
# Poissons Ratio (z) = 0.15222 0.45342
#
# Static dielectric constant tensor:
#      x y z
#    x 1.708810 0.000000 -0.006500 
#    y 0.000000 1.672630 0.000000 
#    z -0.006500 0.000000 1.626100 
# 
# From -- ./inp_files/339804.got.cif
#   From: 2010.05.17/outbox.cif.g08.bks.cpg/sg12_170_cif.got.tgz:339804.got - 2010.06.03 13:09:07.
