data_PCOD9197575
_publ_section_title
;
Structure prediction by ZEFSAII (Michael W. Deem and Ramdas Pophale) SiO2 
 PCOD9197575
Probable space group: C 2/M
;
_chemical_formula_sum "Si O2"
_cell_formula_units_Z 48
_cell_length_a 19.616597
_cell_length_b 8.725084
_cell_length_c 15.048753
_cell_angle_alpha 90.000000
_cell_angle_beta 114.083049
_cell_angle_gamma 90.000000
_cell_volume 2351.490047
_symmetry_space_group_name_H-M "C 2/M"
_symmetry_group_IT_number 12
_symmetry_cell_setting 'monoclinic'
loop_
_space_group_symop_operation_xyz
x,y,z
-x,y,-z
-x,-y,-z
x,-y,z
1/2+x,1/2+y,z
1/2-x,1/2+y,-z
1/2-x,1/2-y,-z
1/2+x,1/2-y,z
loop_
_atom_site_type_symbol
_atom_site_label
_atom_site_fract_x
_atom_site_fract_y
_atom_site_fract_z
Si Si1 0.649960 0.818232 0.366349
Si Si2 0.813134 0.682438 0.414099
Si Si3 0.055452 0.179076 0.164422
Si Si4 0.845393 0.818447 0.247531
Si Si5 0.309073 0.319390 0.901061
Si Si6 0.098723 0.680191 0.896932
O O1 0.732028 0.761688 0.379710
O O2 0.646248 0.791708 0.470163
O O3 0.589685 0.727627 0.277171
O O4 0.643169 0.000000 0.345903
O O5 0.801896 0.500000 0.396990
O O6 0.854178 0.750117 0.350563
O O7 0.121537 0.203509 0.128959
O O8 0.981877 0.276494 0.107095
O O9 0.034932 0.000000 0.151734
O O10 0.761600 0.773526 0.171827
O O11 0.897654 0.741217 0.201642
O O12 0.854869 0.000000 0.252832
O O13 0.290333 0.500000 0.892413
O O14 0.338151 0.264487 0.011805
O O15 0.111495 0.500000 0.906493
#
# Coordination Sequence:
#
# PCOD9197575 Si02
#       6
#     8   8   8   8   8   8
#     4  10  20  35  60  91 122 156 199 246 295 353
#     4  10  20  36  59  90 123 156 197 248 299 349
#     4  11  23  40  63  90 124 160 200 249 300 355
#     4  12  24  40  63  90 122 159 204 250 300 359
#     4  11  23  41  64  90 121 158 203 250 299 354
#     4  12  26  42  61  86 123 162 202 250 303 361
#
# _framework density 20.412589000000001
#
# number of rings (size 3 to 8) (size 9 to 14) (size 15 to 20)
#    0.000    1.000    1.667    6.000    0.000    6.000 
#    0.000    0.833    0.000    5.000    0.000    0.000 
#    0.000    0.000    0.000    0.000    0.000    0.000 
#
# Total GULP energy -134330.276523 kJ/mol
# GULP energy per Si atom -5597.094855 kJ/mol
# Density = 2.036613 g / cm^3
# Si number density = 20.412589 Si / 1000 Ang^3
#
#
#
# Elastic Constant Matrix: (Units=GPa)
#
#
# Indices 1 2 3 4 5 6 
#
# 1 39.2122 15.0857 2.6060 0.0000 -9.3065 0.0000
# 2 15.0857 46.9757 12.7210 0.0000 -17.0496 0.0000
# 3 2.6060 12.7210 70.7280 0.0000 -18.4792 0.0000
# 4 0.0000 0.0000 0.0000 34.1056 0.0000 -1.3280
# 5 -9.3065 -17.0496 -18.4792 0.0000 25.8860 0.0000
# 6 0.0000 0.0000 0.0000 -1.3280 0.0000 31.1396
#
#
#
# Elastic Compliance Matrix: (Units=1/GPa)
#
#
# Indices 1 2 3 4 5 6 
#
# 1 0.030013 -0.007553 0.002178 0.000000 0.007370 0.000000
# 2 -0.007553 0.029880 -0.000816 0.000000 0.016382 0.000000
# 3 0.002178 -0.000816 0.017541 0.000000 0.012768 0.000000
# 4 0.000000 0.000000 0.000000 0.029369 0.000000 0.001253
# 5 0.007370 0.016382 0.012768 0.000000 0.061185 0.000000
# 6 0.000000 0.000000 0.000000 0.001253 0.000000 0.032167
#
#
# Mechanical properties :
#
#
# Convention : Reuss Voigt Hill
#
# Bulk Modulus (GPa) = 15.37210 24.19348 19.78279
# Shear Modulus (GPa) = 21.34743 26.65979 24.00361
#
# Velocity S-wave (km/s) = 3.23739 3.61785 3.43289
# Velocity P-wave (km/s) = 4.63910 5.41569 5.04237
#
# Compressibility (1/GPa) = 0.06505291
#
# Stress axis : x y z
#
# Youngs Moduli (GPa) = 33.31938 33.46726 57.00925
#
# Poissons Ratio (x) = 0.25278 -0.12419
# Poissons Ratio (y) = 0.25166 0.04650
# Poissons Ratio (z) = -0.07258 0.02730
#
# Static dielectric constant tensor:
#      x y z
#    x 1.728480 0.000000 -0.022540 
#    y 0.000000 1.675070 0.000000 
#    z -0.022540 0.000000 1.727640 
# 
# From -- ./inp_files/230407.got.cif
#   From: 2010.05.17/outbox.cif.g08.bks.cpg/sg12_116_cif.got.tgz:230407.got - 2010.06.03 13:09:07.
