data_PCOD9197481
_publ_section_title
;
Structure prediction by ZEFSAII (Michael W. Deem and Ramdas Pophale) SiO2 
 PCOD9197481
Probable space group: C 2/M
;
_chemical_formula_sum "Si O2"
_cell_formula_units_Z 36
_cell_length_a 12.402650
_cell_length_b 18.682650
_cell_length_c 7.397120
_cell_angle_alpha 90.000000
_cell_angle_beta 96.148624
_cell_angle_gamma 90.000000
_cell_volume 1704.158937
_symmetry_space_group_name_H-M "C 2/M"
_symmetry_group_IT_number 12
_symmetry_cell_setting 'monoclinic'
loop_
_space_group_symop_operation_xyz
x,y,z
-x,y,-z
-x,-y,-z
x,-y,z
1/2+x,1/2+y,z
1/2-x,1/2+y,-z
1/2-x,1/2-y,-z
1/2+x,1/2-y,z
loop_
_atom_site_type_symbol
_atom_site_label
_atom_site_fract_x
_atom_site_fract_y
_atom_site_fract_z
Si Si1 0.190423 0.350770 0.417137
Si Si2 0.411611 0.000000 0.710462
Si Si3 0.141798 0.794030 0.835586
Si Si4 0.500000 0.256759 0.500000
Si Si5 0.151931 0.500000 0.878808
Si Si6 0.261758 0.649908 0.817954
O O1 0.137977 0.428663 0.385682
O O2 0.255748 0.329077 0.250634
O O3 0.271155 0.346334 0.603545
O O4 0.095457 0.294767 0.444069
O O5 0.542164 0.000000 0.739325
O O6 0.379200 0.000000 0.916034
O O7 0.043965 0.800853 0.678479
O O8 0.169972 0.709446 0.852414
O O9 0.139914 0.827906 0.033562
O O10 0.219248 0.571270 0.852617
#
# Coordination Sequence:
#
# PCOD9197481 Si02
#       6
#     8   4   8   4   4   8
#     4  11  21  38  57  85 118 149 182 231 281 341
#     4  11  21  33  57  86 118 147 181 226 292 337
#     4  10  21  38  55  84 114 150 188 233 274 332
#     4  10  20  35  60  81 112 152 190 228 280 327
#     4  11  21  35  55  88 116 147 183 230 284 347
#     4  10  20  36  56  79 115 149 183 224 282 331
#
# _framework density 21.124789
#
# number of rings (size 3 to 8) (size 9 to 14) (size 15 to 20)
#    0.000    1.556    2.222    6.000    0.000    1.333 
#    0.000    7.778    0.000    2.667    0.000   10.889 
#    0.000    0.000    0.000    0.000    0.000    0.000 
#
# Total GULP energy -100625.479057 kJ/mol
# GULP energy per Si atom -5590.304392 kJ/mol
# Density = 2.107671 g / cm^3
# Si number density = 21.124789 Si / 1000 Ang^3
#
#
#
# Elastic Constant Matrix: (Units=GPa)
#
#
# Indices 1 2 3 4 5 6 
#
# 1 46.7887 21.0398 34.6484 0.0000 6.7553 0.0000
# 2 21.0398 134.4596 37.3825 0.0000 11.9082 0.0000
# 3 34.6484 37.3825 173.4867 0.0000 27.6708 0.0000
# 4 0.0000 0.0000 0.0000 41.5562 0.0000 4.1577
# 5 6.7553 11.9082 27.6708 0.0000 42.3698 0.0000
# 6 0.0000 0.0000 0.0000 4.1577 0.0000 7.6340
#
#
#
# Elastic Compliance Matrix: (Units=1/GPa)
#
#
# Indices 1 2 3 4 5 6 
#
# 1 0.026040 -0.002777 -0.004537 0.000000 -0.000408 0.000000
# 2 -0.002777 0.008266 -0.001034 0.000000 -0.001205 0.000000
# 3 -0.004537 -0.001034 0.007514 0.000000 -0.003893 0.000000
# 4 0.000000 0.000000 0.000000 0.025451 0.000000 -0.013861
# 5 -0.000408 -0.001205 -0.003893 0.000000 0.026548 0.000000
# 6 0.000000 0.000000 0.000000 -0.013861 0.000000 0.138542
#
#
# Mechanical properties :
#
#
# Convention : Reuss Voigt Hill
#
# Bulk Modulus (GPa) = 39.80388 60.09737 49.95063
# Shear Modulus (GPa) = 19.42255 35.75628 27.58942
#
# Velocity S-wave (km/s) = 3.03548 4.11861 3.61781
# Velocity P-wave (km/s) = 5.58289 7.15037 6.41469
#
# Compressibility (1/GPa) = 0.02512318
#
# Stress axis : x y z
#
# Youngs Moduli (GPa) = 38.40190 120.97749 133.08252
#
# Poissons Ratio (x) = 0.33597 0.60383
# Poissons Ratio (y) = 0.10665 0.13765
# Poissons Ratio (z) = 0.17424 0.12513
#
# Static dielectric constant tensor:
#      x y z
#    x 1.763290 0.000000 0.022190 
#    y 0.000000 1.715200 0.000000 
#    z 0.022190 0.000000 1.820960 
# 
# From -- ./inp_files/47267.got.cif
#   From: 2010.05.17/outbox.cif.g08.bks.cpg/sg12_24_cif.got.tgz:47267.got - 2010.06.03 13:09:07.
