data_PCOD9197783
_publ_section_title
;
Structure prediction by ZEFSAII (Michael W. Deem and Ramdas Pophale) SiO2 
 PCOD9197783
Probable space group: C 2/M
;
_chemical_formula_sum "Si O2"
_cell_formula_units_Z 40
_cell_length_a 9.342407
_cell_length_b 26.292430
_cell_length_c 14.374506
_cell_angle_alpha 90.000000
_cell_angle_beta 31.137643
_cell_angle_gamma 90.000000
_cell_volume 1825.800962
_symmetry_space_group_name_H-M "C 2/M"
_symmetry_group_IT_number 12
_symmetry_cell_setting 'monoclinic'
loop_
_space_group_symop_operation_xyz
x,y,z
-x,y,-z
-x,-y,-z
x,-y,z
1/2+x,1/2+y,z
1/2-x,1/2+y,-z
1/2-x,1/2-y,-z
1/2+x,1/2-y,z
loop_
_atom_site_type_symbol
_atom_site_label
_atom_site_fract_x
_atom_site_fract_y
_atom_site_fract_z
Si Si1 0.171962 0.594112 0.188329
Si Si2 0.817189 0.000000 0.199012
Si Si3 0.511982 0.813221 0.596103
Si Si4 0.228048 0.905892 0.290809
Si Si5 0.602687 0.294506 0.336433
Si Si6 0.668909 0.500000 0.192781
O O1 0.136593 0.550278 0.285164
O O2 0.037900 0.645801 0.297579
O O3 0.018276 0.578826 0.178534
O O4 0.500000 0.603102 0.000000
O O5 0.000000 0.000000 0.189929
O O6 0.000000 0.000000 0.000000
O O7 0.500000 0.835749 0.500000
O O8 0.308235 0.764518 0.723217
O O9 0.831114 0.797221 0.424731
O O10 0.260161 0.847908 0.234753
O O11 0.000000 0.904984 0.500000
O O12 0.122119 0.947823 0.276906
O O13 0.500000 0.295302 0.500000
O O14 0.000000 0.500000 0.000000
#
# Coordination Sequence:
#
# PCOD9197783 Si02
#       6
#     8   4   8   8   8   4
#     4  11  22  41  62  88 127 165 198 260 323 359
#     4  10  24  42  59  85 128 164 195 251 323 368
#     4  10  20  35  64  92 123 162 212 252 307 364
#     4  11  22  43  66  91 124 172 213 250 305 377
#     4   9  18  38  62  88 122 165 208 252 300 365
#     4  12  25  42  66  95 125 166 210 259 318 374
#
# _framework density 21.908193000000001
#
# number of rings (size 3 to 8) (size 9 to 14) (size 15 to 20)
#    0.000    1.600    4.000    3.300    2.800    0.000 
#    0.000    3.500    0.000    0.000    0.000    0.000 
#    0.000    0.000    0.000    0.000    0.000    0.000 
#
# Total GULP energy -111411.789631 kJ/mol
# GULP energy per Si atom -5570.589482 kJ/mol
# Density = 2.185833 g / cm^3
# Si number density = 21.908193 Si / 1000 Ang^3
#
#
#
# Elastic Constant Matrix: (Units=GPa)
#
#
# Indices 1 2 3 4 5 6 
#
# 1 153.1333 38.6255 -1.6419 0.0000 -13.9324 0.0000
# 2 38.6255 158.3391 -0.7833 0.0000 9.3784 0.0000
# 3 -1.6419 -0.7833 25.5459 0.0000 -9.1093 0.0000
# 4 0.0000 0.0000 0.0000 13.3356 0.0000 -1.7658
# 5 -13.9324 9.3784 -9.1093 0.0000 27.1728 0.0000
# 6 0.0000 0.0000 0.0000 -1.7658 0.0000 43.8744
#
#
#
# Elastic Compliance Matrix: (Units=1/GPa)
#
#
# Indices 1 2 3 4 5 6 
#
# 1 0.007595 -0.002163 0.002359 0.000000 0.005432 0.000000
# 2 -0.002163 0.007074 -0.001349 0.000000 -0.004003 0.000000
# 3 0.002359 -0.001349 0.045264 0.000000 0.016849 0.000000
# 4 0.000000 0.000000 0.000000 0.075389 0.000000 0.003034
# 5 0.005432 -0.004003 0.016849 0.000000 0.046616 0.000000
# 6 0.000000 0.000000 0.000000 0.003034 0.000000 0.022914
#
#
# Mechanical properties :
#
#
# Convention : Reuss Voigt Hill
#
# Bulk Modulus (GPa) = 17.35354 45.49101 31.42227
# Shear Modulus (GPa) = 22.08794 36.93109 29.50952
#
# Velocity S-wave (km/s) = 3.17867 4.11021 3.67408
# Velocity P-wave (km/s) = 4.62711 6.58290 5.68967
#
# Compressibility (1/GPa) = 0.05762514
#
# Stress axis : x y z
#
# Youngs Moduli (GPa) = 131.66105 141.37129 22.09282
#
# Poissons Ratio (x) = 0.30576 -0.05211
# Poissons Ratio (y) = 0.28476 0.02981
# Poissons Ratio (z) = -0.31054 0.19077
#
# Static dielectric constant tensor:
#      x y z
#    x 1.928630 0.000000 0.064300 
#    y 0.000000 1.972240 0.000000 
#    z 0.064300 0.000000 1.893980 
# 
# From -- ./inp_files/201137.got.cif
#   From: 2010.05.17/outbox.cif.g08.bks.cpg/sg12_101_cif.got.tgz:201137.got - 2010.06.03 13:09:07.
