data_PCOD9197814
_publ_section_title
;
Structure prediction by ZEFSAII (Michael W. Deem and Ramdas Pophale) SiO2 
 PCOD9197814
Probable space group: C 2/M
;
_chemical_formula_sum "Si O2"
_cell_formula_units_Z 36
_cell_length_a 13.696056
_cell_length_b 28.445847
_cell_length_c 14.519541
_cell_angle_alpha 90.000000
_cell_angle_beta 20.058615
_cell_angle_gamma 90.000000
_cell_volume 1940.160746
_symmetry_space_group_name_H-M "C 2/M"
_symmetry_group_IT_number 12
_symmetry_cell_setting 'monoclinic'
loop_
_space_group_symop_operation_xyz
x,y,z
-x,y,-z
-x,-y,-z
x,-y,z
1/2+x,1/2+y,z
1/2-x,1/2+y,-z
1/2-x,1/2-y,-z
1/2+x,1/2-y,z
loop_
_atom_site_type_symbol
_atom_site_label
_atom_site_fract_x
_atom_site_fract_y
_atom_site_fract_z
Si Si1 0.341210 0.654324 0.839648
Si Si2 0.242650 0.102837 0.365812
Si Si3 0.103718 0.246143 0.531436
Si Si4 0.067927 0.193045 0.034649
Si Si5 0.678864 0.000000 0.749327
O O1 0.562925 0.613969 0.616004
O O2 0.440920 0.696283 0.681216
O O3 0.397502 0.669281 0.895821
O O4 0.014536 0.637743 0.115015
O O5 0.364027 0.049934 0.261211
O O6 0.000000 0.106269 0.500000
O O7 0.250000 0.250000 0.500000
O O8 0.345477 0.263005 0.245986
O O9 0.871010 0.286017 0.741816
O O10 0.000000 0.165464 0.000000
O O11 0.000000 0.000000 0.500000
O O12 0.500000 0.000000 0.000000
#
# Coordination Sequence:
#
# PCOD9197814 Si02
#       5
#     8   8   8   8   4
#     4  11  21  36  55  82 108 138 187 228 257 316
#     4  11  22  36  57  82 110 141 172 218 276 329
#     4  10  20  36  52  71 106 142 179 225 263 299
#     4  11  22  37  55  75 107 151 185 218 266 309
#     4  10  20  38  56  78 111 142 171 210 272 346
#
# _framework density 18.555163
#
# number of rings (size 3 to 8) (size 9 to 14) (size 15 to 20)
#    0.000    1.333    0.000   10.667    0.000    3.556 
#    0.000    3.333    0.000    0.000    0.000    4.667 
#    0.000    0.000    0.000    0.000    0.000    0.000 
#
# Total GULP energy -100235.903150 kJ/mol
# GULP energy per Si atom -5568.661286 kJ/mol
# Density = 1.851293 g / cm^3
# Si number density = 18.555163 Si / 1000 Ang^3
#
#
#
# Elastic Constant Matrix: (Units=GPa)
#
#
# Indices 1 2 3 4 5 6 
#
# 1 43.1669 -50.5806 -138.1404 -0.0154 -95.0628 -0.0626
# 2 -50.5806 -78.9644 -262.9531 -0.0831 -179.9768 -0.0263
# 3 -138.1404 -262.9531 -402.5188 -0.2027 -336.3694 -0.0495
# 4 -0.0154 -0.0831 -0.2027 32.6508 -0.0490 1.8154
# 5 -95.0628 -179.9768 -336.3694 -0.0490 -168.6941 -0.0602
# 6 -0.0626 -0.0263 -0.0495 1.8154 -0.0602 16.7492
#
#
#
# Elastic Compliance Matrix: (Units=1/GPa)
#
#
# Indices 1 2 3 4 5 6 
#
# 1 0.013604 -0.005607 -0.000603 -0.000015 -0.000483 0.000040
# 2 -0.005607 0.015009 -0.004293 0.000004 -0.004294 -0.000026
# 3 -0.000603 -0.004293 0.005380 0.000014 -0.005807 -0.000016
# 4 -0.000015 0.000004 0.000014 0.030813 -0.000032 -0.003340
# 5 -0.000483 -0.004294 -0.005807 -0.000032 0.010504 0.000016
# 6 0.000040 -0.000026 -0.000016 -0.003340 0.000016 0.060066
#
#
# Mechanical properties :
#
#
# Convention : Reuss Voigt Hill
#
# Bulk Modulus (GPa) = 76.99264 -149.07383 -36.04059
# Shear Modulus (GPa) = 31.11183 -22.96829 4.07177
#
# Velocity S-wave (km/s) = 4.09922 -3.52211 1.48296
# Velocity P-wave (km/s) = 7.99930 9.85168 4.06613
#
# Compressibility (1/GPa) = 0.01298825
#
# Stress axis : x y z
#
# Youngs Moduli (GPa) = 73.50631 66.62482 185.88606
#
# Poissons Ratio (x) = 0.37354 0.11205
# Poissons Ratio (y) = 0.41212 0.79803
# Poissons Ratio (z) = 0.04431 0.28603
#
# Static dielectric constant tensor:
#      x y z
#    x 2.022940 0.000060 -0.007150 
#    y 0.000060 1.708660 -0.000020 
#    z -0.007150 -0.000020 1.653610 
# 
# From -- ./inp_files/219321.got.cif
#   From: 2010.05.17/outbox.cif.g08.bks.cpg/sg12_110_cif.got.tgz:219321.got - 2010.06.03 13:09:07.
