data_PCOD9197844
_publ_section_title
;
Structure prediction by ZEFSAII (Michael W. Deem and Ramdas Pophale) SiO2 
 PCOD9197844
Probable space group: C 2/M
;
_chemical_formula_sum "Si O2"
_cell_formula_units_Z 50
_cell_length_a 17.061753
_cell_length_b 15.211140
_cell_length_c 10.716947
_cell_angle_alpha 90.000000
_cell_angle_beta 109.037475
_cell_angle_gamma 90.000000
_cell_volume 2629.230431
_symmetry_space_group_name_H-M "C 2/M"
_symmetry_group_IT_number 12
_symmetry_cell_setting 'monoclinic'
loop_
_space_group_symop_operation_xyz
x,y,z
-x,y,-z
-x,-y,-z
x,-y,z
1/2+x,1/2+y,z
1/2-x,1/2+y,-z
1/2-x,1/2-y,-z
1/2+x,1/2-y,z
loop_
_atom_site_type_symbol
_atom_site_label
_atom_site_fract_x
_atom_site_fract_y
_atom_site_fract_z
Si Si1 0.876406 0.334378 0.452301
Si Si2 0.214190 0.898336 0.493249
Si Si3 0.115375 0.759205 0.810590
Si Si4 0.539042 0.669410 0.387959
Si Si5 0.908872 0.400369 0.011346
Si Si6 0.737360 0.398373 0.796113
Si Si7 0.000000 0.500000 0.500000
O O1 0.783993 0.345859 0.456023
O O2 0.874372 0.292020 0.314711
O O3 0.925682 0.266495 0.565294
O O4 0.928181 0.423337 0.476236
O O5 0.120729 0.884627 0.397506
O O6 0.216262 0.876033 0.641811
O O7 0.236985 0.000000 0.495955
O O8 0.105156 0.682323 0.905733
O O9 0.190970 0.827997 0.859367
O O10 0.033056 0.818905 0.749925
O O11 0.500000 0.636990 0.500000
O O12 0.902456 0.500000 0.066166
O O13 0.835664 0.395590 0.871375
O O14 0.000000 0.394726 0.000000
O O15 0.710909 0.500000 0.804893
#
# Coordination Sequence:
#
# PCOD9197844 Si02
#       7
#     8   8   8   8   8   8   2
#     4  11  22  35  55  88 118 156 195 233 302 352
#     4  11  22  35  58  86 124 157 192 240 287 354
#     4  11  22  38  63  82 120 158 194 246 296 352
#     4  10  20  36  53  86 116 153 193 231 288 349
#     4  10  24  41  61  88 114 150 201 249 300 354
#     4  10  22  40  59  86 115 157 200 240 291 346
#     4  12  20  36  52  80 122 148 198 232 294 356
#
# _framework density 19.016971999999999
#
# number of rings (size 3 to 8) (size 9 to 14) (size 15 to 20)
#    0.000    1.440    6.400    0.960    3.360    0.960 
#    2.880    0.000    0.000    0.480    0.000    0.000 
#    0.000    0.000    0.000    0.000    0.000    0.000 
#
# Total GULP energy -139231.596501 kJ/mol
# GULP energy per Si atom -5569.263860 kJ/mol
# Density = 1.897369 g / cm^3
# Si number density = 19.016972 Si / 1000 Ang^3
#
#
#
# Elastic Constant Matrix: (Units=GPa)
#
#
# Indices 1 2 3 4 5 6 
#
# 1 125.1298 30.5182 16.4174 0.0000 15.1065 0.0000
# 2 30.5182 72.1733 15.6415 0.0000 -7.2386 0.0000
# 3 16.4174 15.6415 36.3226 0.0000 9.4527 0.0000
# 4 0.0000 0.0000 0.0000 9.3009 0.0000 11.4045
# 5 15.1065 -7.2386 9.4527 0.0000 19.8112 0.0000
# 6 0.0000 0.0000 0.0000 11.4045 0.0000 39.7189
#
#
#
# Elastic Compliance Matrix: (Units=1/GPa)
#
#
# Indices 1 2 3 4 5 6 
#
# 1 0.010536 -0.005536 0.000273 0.000000 -0.010187 0.000000
# 2 -0.005536 0.020130 -0.010481 0.000000 0.016577 0.000000
# 3 0.000273 -0.010481 0.037646 0.000000 -0.022000 0.000000
# 4 0.000000 0.000000 0.000000 0.165939 0.000000 -0.047646
# 5 -0.010187 0.016577 -0.022000 0.000000 0.074798 0.000000
# 6 0.000000 0.000000 0.000000 -0.047646 0.000000 0.038858
#
#
# Mechanical properties :
#
#
# Convention : Reuss Voigt Hill
#
# Bulk Modulus (GPa) = 27.15528 39.86442 33.50985
# Shear Modulus (GPa) = 12.76586 25.16946 18.96766
#
# Velocity S-wave (km/s) = 2.59373 3.64198 3.16160
# Velocity P-wave (km/s) = 4.82498 6.22040 5.56659
#
# Compressibility (1/GPa) = 0.03682525
#
# Stress axis : x y z
#
# Youngs Moduli (GPa) = 94.91390 49.67623 26.56300
#
# Poissons Ratio (x) = 0.27500 -0.00725
# Poissons Ratio (y) = 0.52543 0.27840
# Poissons Ratio (z) = -0.02590 0.52064
#
# Static dielectric constant tensor:
#      x y z
#    x 1.677630 0.000000 0.013730 
#    y 0.000000 1.669320 0.000000 
#    z 0.013730 0.000000 1.664470 
# 
# From -- ./inp_files/143793.got.cif
#   From: 2010.05.17/outbox.cif.g08.bks.cpg/sg12_72_cif.got.tgz:143793.got - 2010.06.03 13:09:07.
