data_PCOD9197892
_publ_section_title
;
Structure prediction by ZEFSAII (Michael W. Deem and Ramdas Pophale) SiO2 
 PCOD9197892
Probable space group: C 2/M
;
_chemical_formula_sum "Si O2"
_cell_formula_units_Z 48
_cell_length_a 8.704652
_cell_length_b 19.943109
_cell_length_c 27.221116
_cell_angle_alpha 90.000000
_cell_angle_beta 32.934873
_cell_angle_gamma 90.000000
_cell_volume 2569.199681
_symmetry_space_group_name_H-M "C 2/M"
_symmetry_group_IT_number 12
_symmetry_cell_setting 'monoclinic'
loop_
_space_group_symop_operation_xyz
x,y,z
-x,y,-z
-x,-y,-z
x,-y,z
1/2+x,1/2+y,z
1/2-x,1/2+y,-z
1/2-x,1/2-y,-z
1/2+x,1/2-y,z
loop_
_atom_site_type_symbol
_atom_site_label
_atom_site_fract_x
_atom_site_fract_y
_atom_site_fract_z
Si Si1 0.793435 0.347391 0.908524
Si Si2 0.767665 0.718354 0.142316
Si Si3 0.706141 0.806677 0.552003
Si Si4 0.611863 0.080747 0.734372
Si Si5 0.197525 0.684200 0.251418
Si Si6 0.256473 0.574879 0.469125
O O1 0.693833 0.280339 0.905573
O O2 0.966575 0.324939 0.910580
O O3 0.993406 0.388343 0.817223
O O4 0.500000 0.383899 0.000000
O O5 0.519213 0.675973 0.183417
O O6 0.677433 0.756357 0.216773
O O7 0.750000 0.750000 0.500000
O O8 0.471596 0.792981 0.655236
O O9 0.656249 0.875839 0.538050
O O10 0.000000 0.813669 0.500000
O O11 0.439776 0.119203 0.737413
O O12 0.944949 0.096131 0.635597
O O13 0.577434 0.000000 0.742817
O O14 0.304018 0.500000 0.475643
O O15 0.000000 0.573746 0.500000
#
# Coordination Sequence:
#
# PCOD9197892 Si02
#       6
#     8   8   8   8   8   8
#     4  10  20  36  61  87 113 145 183 232 284 338
#     4   9  20  35  59  83 116 144 183 223 288 343
#     4  12  23  33  55  85 115 146 188 235 280 327
#     4  10  22  40  58  79 113 152 189 231 277 330
#     4  10  20  36  54  82 113 149 181 231 278 333
#     4  10  23  41  57  78 113 155 193 228 275 338
#
# _framework density 18.682860999999999
#
# number of rings (size 3 to 8) (size 9 to 14) (size 15 to 20)
#    0.000    1.833    1.667    2.000    7.000    1.333 
#    0.000    0.833    0.000    1.000    0.000    0.000 
#    0.000    0.000    0.000    0.000    0.000    0.000 
#
# Total GULP energy -133862.507494 kJ/mol
# GULP energy per Si atom -5577.604479 kJ/mol
# Density = 1.864034 g / cm^3
# Si number density = 18.682861 Si / 1000 Ang^3
#
#
#
# Elastic Constant Matrix: (Units=GPa)
#
#
# Indices 1 2 3 4 5 6 
#
# 1 98.5081 26.1888 19.3782 -0.0280 -19.6653 0.1806
# 2 26.1888 47.3435 7.2435 0.0933 -8.2204 0.3396
# 3 19.3782 7.2435 74.3626 -0.1123 -8.1456 -0.1360
# 4 -0.0280 0.0933 -0.1123 10.4920 0.0543 -17.4095
# 5 -19.6653 -8.2204 -8.1456 0.0543 30.8922 0.0483
# 6 0.1806 0.3396 -0.1360 -17.4095 0.0483 -10.4328
#
#
#
# Elastic Compliance Matrix: (Units=1/GPa)
#
#
# Indices 1 2 3 4 5 6 
#
# 1 0.013457 -0.005996 -0.002223 0.000051 0.006385 0.000011
# 2 -0.005996 0.024990 -0.000577 0.000253 0.002680 0.000308
# 3 -0.002223 -0.000577 0.014325 -0.000066 0.002208 -0.000125
# 4 0.000051 0.000253 -0.000066 0.025292 0.000104 -0.042195
# 5 0.006385 0.002680 0.002208 0.000104 0.037730 0.000170
# 6 0.000011 0.000308 -0.000125 -0.042195 0.000170 -0.025426
#
#
# Mechanical properties :
#
#
# Convention : Reuss Voigt Hill
#
# Bulk Modulus (GPa) = 28.42564 36.20391 32.31477
# Shear Modulus (GPa) = 41.77574 17.35053 29.56313
#
# Velocity S-wave (km/s) = 4.73381 3.05074 3.98221
# Velocity P-wave (km/s) = 6.71763 5.64177 6.20307
#
# Compressibility (1/GPa) = 0.03517951
#
# Stress axis : x y z
#
# Youngs Moduli (GPa) = 74.30866 40.01648 69.80892
#
# Poissons Ratio (x) = 0.23992 0.15521
# Poissons Ratio (y) = 0.44552 0.04030
# Poissons Ratio (z) = 0.16522 0.02310
#
# Static dielectric constant tensor:
#      x y z
#    x 1.630650 -0.000010 -0.017070 
#    y -0.000010 1.624120 -0.000010 
#    z -0.017070 -0.000010 1.669950 
# 
# From -- ./inp_files/196509.got.cif
#   From: 2010.05.17/outbox.cif.g08.bks.cpg/sg12_99_cif.got.tgz:196509.got - 2010.06.03 13:09:07.
