data_PCOD9197441
_publ_section_title
;
Structure prediction by ZEFSAII (Michael W. Deem and Ramdas Pophale) SiO2 
 PCOD9197441
Probable space group: C 2/M
;
_chemical_formula_sum "Si O2"
_cell_formula_units_Z 48
_cell_length_a 28.576866
_cell_length_b 8.788154
_cell_length_c 17.656971
_cell_angle_alpha 90.000000
_cell_angle_beta 36.002111
_cell_angle_gamma 90.000000
_cell_volume 2606.568658
_symmetry_space_group_name_H-M "C 2/M"
_symmetry_group_IT_number 12
_symmetry_cell_setting 'monoclinic'
loop_
_space_group_symop_operation_xyz
x,y,z
-x,y,-z
-x,-y,-z
x,-y,z
1/2+x,1/2+y,z
1/2-x,1/2+y,-z
1/2-x,1/2-y,-z
1/2+x,1/2-y,z
loop_
_atom_site_type_symbol
_atom_site_label
_atom_site_fract_x
_atom_site_fract_y
_atom_site_fract_z
Si Si1 0.695708 0.681572 0.504459
Si Si2 0.479336 0.180136 0.251711
Si Si3 0.238798 0.818493 0.736601
Si Si4 0.447904 0.680217 0.993550
Si Si5 0.232209 0.181683 0.143072
Si Si6 0.624145 0.681421 0.142936
O O1 0.698391 0.500000 0.504733
O O2 0.750000 0.750000 0.500000
O O3 0.605672 0.739214 0.632004
O O4 0.728326 0.739762 0.381373
O O5 0.519582 0.224292 0.119096
O O6 0.540365 0.241429 0.235081
O O7 0.469614 0.000000 0.270637
O O8 0.278586 0.754080 0.760670
O O9 0.249738 0.000000 0.717017
O O10 0.144330 0.787927 0.868746
O O11 0.454869 0.500000 0.965541
O O12 0.500000 0.708756 0.000000
O O13 0.160240 0.211431 0.178803
O O14 0.242869 0.000000 0.134991
O O15 0.310559 0.253679 0.001457
O O16 0.618222 0.500000 0.139974
#
# Coordination Sequence:
#
# PCOD9197441 Si02
#       6
#     8   8   8   8   8   8
#     4  12  26  45  66  88 123 164 208 253 306 369
#     4  12  24  39  62  91 123 159 206 254 305 366
#     4  11  22  38  62  91 125 162 204 252 308 367
#     4  10  21  37  59  87 120 156 198 251 307 362
#     4  10  20  35  59  91 125 161 203 252 306 364
#     4  10  20  36  59  89 125 163 203 251 308 362
#
# _framework density 18.415013999999999
#
# number of rings (size 3 to 8) (size 9 to 14) (size 15 to 20)
#    0.000    1.167    1.667    5.500    0.000    4.333 
#    0.000    0.833    0.000    5.000    0.000    0.000 
#    0.000    0.000    0.000    0.000    0.000    0.000 
#
# Total GULP energy -134232.708041 kJ/mol
# GULP energy per Si atom -5593.029502 kJ/mol
# Density = 1.837310 g / cm^3
# Si number density = 18.415014 Si / 1000 Ang^3
#
#
#
# Elastic Constant Matrix: (Units=GPa)
#
#
# Indices 1 2 3 4 5 6 
#
# 1 143.2465 77.7179 69.1264 0.0027 -2.6090 -0.0007
# 2 77.7179 139.8964 77.5820 0.0029 0.4160 -0.0018
# 3 69.1264 77.5820 102.8454 0.0039 -2.4524 -0.0015
# 4 0.0027 0.0029 0.0039 32.8807 -0.0016 2.0071
# 5 -2.6090 0.4160 -2.4524 -0.0016 26.4334 0.0006
# 6 -0.0007 -0.0018 -0.0015 2.0071 0.0006 35.3335
#
#
#
# Elastic Compliance Matrix: (Units=1/GPa)
#
#
# Indices 1 2 3 4 5 6 
#
# 1 0.011281 -0.003565 -0.004876 0.000000 0.000717 0.000000
# 2 -0.003565 0.013445 -0.007777 0.000000 -0.001285 0.000000
# 3 -0.004876 -0.007777 0.018901 -0.000001 0.001395 0.000000
# 4 0.000000 0.000000 -0.000001 0.030519 0.000002 -0.001734
# 5 0.000717 -0.001285 0.001395 0.000002 0.038051 -0.000001
# 6 0.000000 0.000000 0.000000 -0.001734 -0.000001 0.028400
#
#
# Mechanical properties :
#
#
# Convention : Reuss Voigt Hill
#
# Bulk Modulus (GPa) = 89.35878 92.76010 91.05944
# Shear Modulus (GPa) = 28.28620 29.70033 28.99327
#
# Velocity S-wave (km/s) = 3.92349 4.02037 3.97222
# Velocity P-wave (km/s) = 8.31597 8.48719 8.40202
#
# Compressibility (1/GPa) = 0.01119084
#
# Stress axis : x y z
#
# Youngs Moduli (GPa) = 88.64129 74.37460 52.90842
#
# Poissons Ratio (x) = 0.26517 0.25799
# Poissons Ratio (y) = 0.31603 0.41147
# Poissons Ratio (z) = 0.43222 0.57841
#
# Static dielectric constant tensor:
#      x y z
#    x 1.634850 0.000000 -0.004100 
#    y 0.000000 1.614390 0.000000 
#    z -0.004100 0.000000 1.595540 
# 
# From -- ./inp_files/295336.got.cif
#   From: 2010.05.17/outbox.cif.g08.bks.cpg/sg12_148_cif.got.tgz:295336.got - 2010.06.03 13:09:07.
