data_PCOD9197289
_publ_section_title
;
Structure prediction by ZEFSAII (Michael W. Deem and Ramdas Pophale) SiO2 
 PCOD9197289
Probable space group: C 2/M
;
_chemical_formula_sum "Si O2"
_cell_formula_units_Z 64
_cell_length_a 15.846483
_cell_length_b 9.232489
_cell_length_c 26.630438
_cell_angle_alpha 90.000000
_cell_angle_beta 126.668366
_cell_angle_gamma 90.000000
_cell_volume 3125.082462
_symmetry_space_group_name_H-M "C 2/M"
_symmetry_group_IT_number 12
_symmetry_cell_setting 'monoclinic'
loop_
_space_group_symop_operation_xyz
x,y,z
-x,y,-z
-x,-y,-z
x,-y,z
1/2+x,1/2+y,z
1/2-x,1/2+y,-z
1/2-x,1/2-y,-z
1/2+x,1/2-y,z
loop_
_atom_site_type_symbol
_atom_site_label
_atom_site_fract_x
_atom_site_fract_y
_atom_site_fract_z
Si Si1 0.802566 0.827112 0.711449
Si Si2 0.643102 0.169072 0.111308
Si Si3 0.165471 0.832393 0.745493
Si Si4 0.266190 0.324656 0.059125
Si Si5 0.497688 0.163799 0.645183
Si Si6 0.509733 0.673842 0.149714
Si Si7 0.759425 0.333520 0.593074
Si Si8 0.942910 0.164581 0.533000
O O1 0.721600 0.759901 0.722314
O O2 0.915803 0.787442 0.776478
O O3 0.774175 0.759360 0.648145
O O4 0.796479 0.000000 0.707138
O O5 0.756076 0.174420 0.179880
O O6 0.676236 0.221192 0.067418
O O7 0.560368 0.252673 0.117600
O O8 0.610465 0.000000 0.097110
O O9 0.052527 0.757746 0.708127
O O10 0.154384 0.000000 0.727533
O O11 0.259362 0.500000 0.053426
O O12 0.387801 0.289352 0.116364
O O13 0.250000 0.250000 0.000000
O O14 0.373470 0.161662 0.609257
O O15 0.507888 0.241021 0.595188
O O16 0.537686 0.000000 0.659734
O O17 0.516369 0.500000 0.145346
O O18 0.728254 0.500000 0.595216
O O19 0.672569 0.278761 0.523015
O O20 0.000000 0.161005 0.500000
O O21 0.933968 0.000000 0.549836
#
# Coordination Sequence:
#
# PCOD9197289 Si02
#       8
#     8   8   8   8   8   8   8   8
#     4  10  20  35  59  86 112 145 187 233 284 343
#     4   9  20  38  61  86 117 155 199 244 289 347
#     4  10  20  36  59  82 110 148 188 232 286 344
#     4  10  22  40  60  87 121 158 198 241 287 346
#     4  11  23  36  53  81 114 145 184 236 283 332
#     4   9  20  38  60  86 121 156 194 244 295 346
#     4  10  22  37  53  80 116 147 182 232 284 337
#     4  10  21  38  58  76 101 145 192 232 282 341
#
# _framework density 20.479461000000001
#
# number of rings (size 3 to 8) (size 9 to 14) (size 15 to 20)
#    0.000    2.125    0.000    2.250    1.750    5.250 
#    0.000    2.500    0.000    0.000    0.000    0.000 
#    0.000    0.000    0.000    0.000    0.000    0.000 
#
# Total GULP energy -178556.559153 kJ/mol
# GULP energy per Si atom -5579.892474 kJ/mol
# Density = 2.043285 g / cm^3
# Si number density = 20.479461 Si / 1000 Ang^3
#
#
#
# Elastic Constant Matrix: (Units=GPa)
#
#
# Indices 1 2 3 4 5 6 
#
# 1 50.5681 5.4972 -8.2091 0.0000 -8.6705 0.0000
# 2 5.4972 44.4352 12.7685 0.0000 -10.0635 0.0000
# 3 -8.2091 12.7685 25.7112 0.0000 -2.3965 0.0000
# 4 0.0000 0.0000 0.0000 31.5275 0.0000 1.2301
# 5 -8.6705 -10.0635 -2.3965 0.0000 37.5407 0.0000
# 6 0.0000 0.0000 0.0000 1.2301 0.0000 25.3472
#
#
#
# Elastic Compliance Matrix: (Units=1/GPa)
#
#
# Indices 1 2 3 4 5 6 
#
# 1 0.022692 -0.004623 0.009973 0.000000 0.004638 0.000000
# 2 -0.004623 0.028732 -0.015217 0.000000 0.005663 0.000000
# 3 0.009973 -0.015217 0.049765 0.000000 0.001401 0.000000
# 4 0.000000 0.000000 0.000000 0.031779 0.000000 -0.001542
# 5 0.004638 0.005663 0.001401 0.000000 0.029317 0.000000
# 6 0.000000 0.000000 0.000000 -0.001542 0.000000 0.039527
#
#
# Mechanical properties :
#
#
# Convention : Reuss Voigt Hill
#
# Bulk Modulus (GPa) = 12.27642 15.64752 13.96197
# Shear Modulus (GPa) = 20.10492 26.26025 23.18259
#
# Velocity S-wave (km/s) = 3.13663 3.58477 3.36816
# Velocity P-wave (km/s) = 4.37326 4.97908 4.68597
#
# Compressibility (1/GPa) = 0.08145698
#
# Stress axis : x y z
#
# Youngs Moduli (GPa) = 44.06804 34.80490 20.09439
#
# Poissons Ratio (x) = 0.16089 -0.20041
# Poissons Ratio (y) = 0.20371 0.30577
# Poissons Ratio (z) = -0.43950 0.52961
#
# Static dielectric constant tensor:
#      x y z
#    x 1.769200 0.000000 0.052600 
#    y 0.000000 1.713010 0.000000 
#    z 0.052600 0.000000 1.762790 
# 
# From -- ./inp_files/375530.got.cif
#   From: 2010.05.17/outbox.cif.g08.bks.cpg/sg12_188_cif.got.tgz:375530.got - 2010.06.03 13:09:07.
