data_PCOD9197257
_publ_section_title
;
Structure prediction by ZEFSAII (Michael W. Deem and Ramdas Pophale) SiO2 
 PCOD9197257
Probable space group: C 2/M
;
_chemical_formula_sum "Si O2"
_cell_formula_units_Z 34
_cell_length_a 15.534029
_cell_length_b 24.479223
_cell_length_c 7.192477
_cell_angle_alpha 90.000000
_cell_angle_beta 153.292851
_cell_angle_gamma 90.000000
_cell_volume 1229.200503
_symmetry_space_group_name_H-M "C 2/M"
_symmetry_group_IT_number 12
_symmetry_cell_setting 'monoclinic'
loop_
_space_group_symop_operation_xyz
x,y,z
-x,y,-z
-x,-y,-z
x,-y,z
1/2+x,1/2+y,z
1/2-x,1/2+y,-z
1/2-x,1/2-y,-z
1/2+x,1/2-y,z
loop_
_atom_site_type_symbol
_atom_site_label
_atom_site_fract_x
_atom_site_fract_y
_atom_site_fract_z
Si Si1 0.648926 0.205599 0.618152
Si Si2 0.410384 0.910314 0.529493
Si Si3 0.500000 0.000000 0.000000
Si Si4 0.472949 0.439695 0.724145
Si Si5 0.058988 0.821936 0.331980
O O1 0.500000 0.208793 0.500000
O O2 0.583853 0.151855 0.380384
O O3 0.865798 0.187744 0.079937
O O4 0.671250 0.265397 0.572468
O O5 0.500000 0.910186 0.500000
O O6 0.190107 0.929962 0.078400
O O7 0.502732 0.952571 0.846018
O O8 0.404259 0.500000 0.532195
O O9 0.365231 0.382623 0.474862
O O10 0.500000 0.442975 0.000000
O O11 0.000000 0.824131 0.000000
#
# Coordination Sequence:
#
# PCOD9197257 Si02
#       5
#     8   8   2   8   8
#     4  10  21  38  58  85 117 153 193 243 298 348
#     4  10  22  39  62  88 119 155 195 247 299 345
#     4  12  22  36  62  92 118 150 202 246 288 358
#     4   9  18  36  61  79 116 161 191 230 306 352
#     4  10  20  35  59  84 113 153 198 241 291 354
#
# _framework density 27.660256
#
# number of rings (size 3 to 8) (size 9 to 14) (size 15 to 20)
#    0.000    2.118    1.176    1.765    1.647    0.000 
#    0.000    0.000    0.000    2.118    0.000    0.000 
#    0.000    0.000    0.000    0.000    0.000    0.000 
#
# Total GULP energy -94906.356782 kJ/mol
# GULP energy per Si atom -5582.726870 kJ/mol
# Density = 2.759730 g / cm^3
# Si number density = 27.660256 Si / 1000 Ang^3
#
#
#
# Elastic Constant Matrix: (Units=GPa)
#
#
# Indices 1 2 3 4 5 6 
#
# 1 -163.7101 124.5056 158.3775 0.0000 -198.8335 0.0000
# 2 124.5056 398.9815 29.7655 0.0000 32.0532 0.0000
# 3 158.3775 29.7655 8.2975 0.0000 95.0660 0.0000
# 4 0.0000 0.0000 0.0000 41.1900 0.0000 -11.0090
# 5 -198.8335 32.0532 95.0660 0.0000 -103.4339 0.0000
# 6 0.0000 0.0000 0.0000 -11.0090 0.0000 34.2321
#
#
#
# Elastic Compliance Matrix: (Units=1/GPa)
#
#
# Indices 1 2 3 4 5 6 
#
# 1 0.005103 -0.001069 0.001961 0.000000 -0.008338 0.000000
# 2 -0.001069 0.002910 -0.002074 0.000000 0.001051 0.000000
# 3 0.001961 -0.002074 0.012236 0.000000 0.006833 0.000000
# 4 0.000000 0.000000 0.000000 0.026561 0.000000 0.008542
# 5 -0.008338 0.001051 0.006833 0.000000 0.012965 0.000000
# 6 0.000000 0.000000 0.000000 0.008542 0.000000 0.031959
#
#
# Mechanical properties :
#
#
# Convention : Reuss Voigt Hill
#
# Bulk Modulus (GPa) = 55.90859 96.54067 76.22463
# Shear Modulus (GPa) = 49.97074 -10.20766 19.88154
#
# Velocity S-wave (km/s) = 4.25501 -1.92312 2.68391
# Velocity P-wave (km/s) = 6.66308 5.48151 6.10097
#
# Compressibility (1/GPa) = 0.01788634
#
# Stress axis : x y z
#
# Youngs Moduli (GPa) = 195.97140 343.61245 81.72770
#
# Poissons Ratio (x) = 0.36728 -0.16031
# Poissons Ratio (y) = 0.20947 0.16949
# Poissons Ratio (z) = -0.38440 0.71260
#
# Static dielectric constant tensor:
#      x y z
#    x 2.054690 0.000000 0.019190 
#    y 0.000000 2.143490 0.000000 
#    z 0.019190 0.000000 2.239220 
# 
# From -- ./inp_files/64991.got.cif
#   From: 2010.05.17/outbox.cif.g08.bks.cpg/sg12_33_cif.got.tgz:64991.got - 2010.06.03 13:09:07.
