data_PCOD9197948
_publ_section_title
;
Structure prediction by ZEFSAII (Michael W. Deem and Ramdas Pophale) SiO2 
 PCOD9197948
Probable space group: C 2/M
;
_chemical_formula_sum "Si O2"
_cell_formula_units_Z 64
_cell_length_a 27.541691
_cell_length_b 7.588697
_cell_length_c 23.501708
_cell_angle_alpha 90.000000
_cell_angle_beta 145.425324
_cell_angle_gamma 90.000000
_cell_volume 2787.453965
_symmetry_space_group_name_H-M "C 2/M"
_symmetry_group_IT_number 12
_symmetry_cell_setting 'monoclinic'
loop_
_space_group_symop_operation_xyz
x,y,z
-x,y,-z
-x,-y,-z
x,-y,z
1/2+x,1/2+y,z
1/2-x,1/2+y,-z
1/2-x,1/2-y,-z
1/2+x,1/2-y,z
loop_
_atom_site_type_symbol
_atom_site_label
_atom_site_fract_x
_atom_site_fract_y
_atom_site_fract_z
Si Si1 0.620838 0.287734 0.460883
Si Si2 0.549595 0.790334 0.770092
Si Si3 0.910786 0.213355 0.440361
Si Si4 0.728335 0.788617 0.913253
Si Si5 0.360567 0.289697 0.946141
Si Si6 0.196685 0.701093 0.350530
Si Si7 0.724001 0.705964 0.248280
Si Si8 0.493173 0.787131 0.834095
O O1 0.627222 0.500000 0.468299
O O2 0.543370 0.240831 0.345487
O O3 0.596262 0.228759 0.500786
O O4 0.716393 0.219265 0.539563
O O5 0.630337 0.722790 0.812156
O O6 0.548052 0.721787 0.833172
O O7 0.561258 0.000000 0.784918
O O8 0.823625 0.276727 0.326713
O O9 0.000000 0.273837 0.500000
O O10 0.909918 0.000000 0.438051
O O11 0.795627 0.718162 0.932023
O O12 0.729896 0.000000 0.908187
O O13 0.750000 0.750000 0.000000
O O14 0.348254 0.500000 0.930940
O O15 0.334860 0.222797 0.859134
O O16 0.456549 0.258986 0.060320
O O17 0.190452 0.500000 0.365471
O O18 0.213222 0.700012 0.298369
O O19 0.103064 0.782547 0.266493
O O20 0.705305 0.500000 0.240565
O O21 0.488917 0.000000 0.828354
#
# Coordination Sequence:
#
# PCOD9197948 Si02
#       8
#     8   8   8   8   8   8   8   8
#     4   9  19  35  54  78 108 142 179 220 269 321
#     4  10  21  35  54  82 112 141 179 223 267 321
#     4   9  19  36  55  78 109 145 185 226 267 317
#     4  10  20  36  55  77 110 146 178 219 269 318
#     4  10  22  37  54  81 115 146 177 221 274 326
#     4   9  20  40  60  78 108 143 181 231 276 317
#     4  10  21  36  55  81 111 143 181 223 273 326
#     4  10  21  38  59  81 105 142 188 229 269 319
#
# _framework density 22.96002
#
# number of rings (size 3 to 8) (size 9 to 14) (size 15 to 20)
#    0.000    2.375    1.250    1.125    1.750    5.750 
#    0.000    2.500    0.000    0.000    0.000    0.000 
#    0.000    0.000    0.000    0.000    0.000    0.000 
#
# Total GULP energy -178661.472459 kJ/mol
# GULP energy per Si atom -5583.171014 kJ/mol
# Density = 2.290776 g / cm^3
# Si number density = 22.960020 Si / 1000 Ang^3
#
#
#
# Elastic Constant Matrix: (Units=GPa)
#
#
# Indices 1 2 3 4 5 6 
#
# 1 34.9658 -3.3269 0.8610 0.0000 20.5668 0.0000
# 2 -3.3269 55.2924 -12.9575 0.0001 1.0861 0.0001
# 3 0.8610 -12.9575 106.4715 0.0000 12.0826 0.0000
# 4 0.0000 0.0001 0.0000 24.5367 0.0000 -1.8140
# 5 20.5668 1.0861 12.0826 0.0000 36.1563 0.0000
# 6 0.0000 0.0001 0.0000 -1.8140 0.0000 4.8163
#
#
#
# Elastic Compliance Matrix: (Units=1/GPa)
#
#
# Indices 1 2 3 4 5 6 
#
# 1 0.044451 0.003925 0.003119 0.000000 -0.026446 0.000000
# 2 0.003925 0.019029 0.002705 0.000000 -0.003708 0.000000
# 3 0.003119 0.002705 0.010297 0.000000 -0.005297 0.000000
# 4 0.000000 0.000000 0.000000 0.041923 0.000000 0.015790
# 5 -0.026446 -0.003708 -0.005297 0.000000 0.044582 0.000000
# 6 0.000000 0.000000 0.000000 0.015790 0.000000 0.213576
#
#
# Mechanical properties :
#
#
# Convention : Reuss Voigt Hill
#
# Bulk Modulus (GPa) = 10.72096 18.43144 14.57620
# Shear Modulus (GPa) = 12.97181 27.24539 20.10860
#
# Velocity S-wave (km/s) = 2.37950 3.44851 2.96262
# Velocity P-wave (km/s) = 3.49698 4.88890 4.25031
#
# Compressibility (1/GPa) = 0.09327520
#
# Stress axis : x y z
#
# Youngs Moduli (GPa) = 22.49659 52.55268 97.11359
#
# Poissons Ratio (x) = -0.20627 -0.30293
# Poissons Ratio (y) = -0.08830 -0.26268
# Poissons Ratio (z) = -0.07017 -0.14215
#
# Static dielectric constant tensor:
#      x y z
#    x 1.873720 0.000000 0.031870 
#    y 0.000000 1.848540 0.000000 
#    z 0.031870 0.000000 1.878590 
# 
# From -- ./inp_files/353554.got.cif
#   From: 2010.05.17/outbox.cif.g08.bks.cpg/sg12_177_cif.got.tgz:353554.got - 2010.06.03 13:09:07.
