data_PCOD9197036
_publ_section_title
;
Structure prediction by ZEFSAII (Michael W. Deem and Ramdas Pophale) SiO2 
 PCOD9197036
Probable space group: C 2/M
;
_chemical_formula_sum "Si O2"
_cell_formula_units_Z 48
_cell_length_a 25.570518
_cell_length_b 13.988773
_cell_length_c 9.456764
_cell_angle_alpha 90.000000
_cell_angle_beta 42.492915
_cell_angle_gamma 90.000000
_cell_volume 2285.001195
_symmetry_space_group_name_H-M "C 2/M"
_symmetry_group_IT_number 12
_symmetry_cell_setting 'monoclinic'
loop_
_space_group_symop_operation_xyz
x,y,z
-x,y,-z
-x,-y,-z
x,-y,z
1/2+x,1/2+y,z
1/2-x,1/2+y,-z
1/2-x,1/2-y,-z
1/2+x,1/2-y,z
loop_
_atom_site_type_symbol
_atom_site_label
_atom_site_fract_x
_atom_site_fract_y
_atom_site_fract_z
Si Si1 0.856154 0.307215 0.944121
Si Si2 0.352406 0.893419 0.635130
Si Si3 0.952357 0.143959 0.227132
Si Si4 0.786414 0.777797 0.579354
Si Si5 0.499807 0.864245 0.837814
Si Si6 0.940966 0.891736 0.734860
O O1 0.854503 0.348295 0.788263
O O2 0.918594 0.361036 0.918599
O O3 0.880030 0.193425 0.888108
O O4 0.776255 0.319329 0.187124
O O5 0.312238 0.819608 0.607395
O O6 0.437521 0.902978 0.396969
O O7 0.317362 0.000000 0.709575
O O8 0.859436 0.150436 0.411506
O O9 0.975035 0.254856 0.194373
O O10 0.996443 0.097321 0.267165
O O11 0.000000 0.106572 0.000000
O O12 0.750000 0.750000 0.500000
O O13 0.500000 0.901075 0.000000
O O14 0.000000 0.852275 0.500000
O O15 0.911043 0.000000 0.760905
#
# Coordination Sequence:
#
# PCOD9197036 Si02
#       6
#     8   8   8   8   8   8
#     4  11  21  38  63  89 124 163 202 258 319 371
#     4  11  24  40  61  91 126 166 210 253 308 379
#     4   9  18  36  58  83 114 151 195 241 298 365
#     4  11  22  40  64  87 120 165 207 258 320 373
#     4   9  18  36  61  87 119 162 208 251 301 365
#     4  10  20  35  58  86 115 153 201 247 294 356
#
# _framework density 21.006553
#
# number of rings (size 3 to 8) (size 9 to 14) (size 15 to 20)
#    0.000    1.833    0.000    8.000    0.000    2.667 
#    0.000    5.833    0.000    1.000    0.000    0.000 
#    0.000    0.000    0.000    0.000    0.000    0.000 
#
# Total GULP energy -133654.986910 kJ/mol
# GULP energy per Si atom -5568.957788 kJ/mol
# Density = 2.095874 g / cm^3
# Si number density = 21.006553 Si / 1000 Ang^3
#
#
#
# Elastic Constant Matrix: (Units=GPa)
#
#
# Indices 1 2 3 4 5 6 
#
# 1 108.6561 32.5471 69.3080 0.0000 18.0666 0.0000
# 2 32.5471 84.3581 32.5952 0.0000 6.2598 0.0000
# 3 69.3080 32.5952 172.6818 0.0000 7.0687 0.0000
# 4 0.0000 0.0000 0.0000 -327.4995 0.0000 -261.4804
# 5 18.0666 6.2598 7.0687 0.0000 38.2463 0.0000
# 6 0.0000 0.0000 0.0000 -261.4804 0.0000 -203.6233
#
#
#
# Elastic Compliance Matrix: (Units=1/GPa)
#
#
# Indices 1 2 3 4 5 6 
#
# 1 0.014127 -0.003185 -0.004854 0.000000 -0.005255 0.000000
# 2 -0.003185 0.013610 -0.001271 0.000000 -0.000488 0.000000
# 3 -0.004854 -0.001271 0.007937 0.000000 0.001034 0.000000
# 4 0.000000 0.000000 0.000000 0.120809 0.000000 -0.155135
# 5 -0.005255 -0.000488 0.001034 0.000000 0.028517 0.000000
# 6 0.000000 0.000000 0.000000 -0.155135 0.000000 0.194304
#
#
# Mechanical properties :
#
#
# Convention : Reuss Voigt Hill
#
# Bulk Modulus (GPa) = 58.63407 70.51073 64.57240
# Shear Modulus (GPa) = 12.38825 -83.15891 -35.38533
#
# Velocity S-wave (km/s) = 2.43108 -6.29866 -4.10871
# Velocity P-wave (km/s) = 5.98774 4.38845 2.88050
#
# Compressibility (1/GPa) = 0.01705493
#
# Stress axis : x y z
#
# Youngs Moduli (GPa) = 70.78498 73.47359 125.99746
#
# Poissons Ratio (x) = 0.23403 0.61157
# Poissons Ratio (y) = 0.22546 0.16010
# Poissons Ratio (z) = 0.34358 0.09336
#
# Static dielectric constant tensor:
#      x y z
#    x 1.692150 0.000000 -0.083160 
#    y 0.000000 1.795020 0.000000 
#    z -0.083160 0.000000 1.720360 
# 
# From -- ./inp_files/104952.got.cif
#   From: 2010.05.17/outbox.cif.g08.bks.cpg/sg12_53_cif.got.tgz:104952.got - 2010.06.03 13:09:07.
