data_PCOD9197359
_publ_section_title
;
Structure prediction by ZEFSAII (Michael W. Deem and Ramdas Pophale) SiO2 
 PCOD9197359
Probable space group: C 2/M
;
_chemical_formula_sum "Si O2"
_cell_formula_units_Z 48
_cell_length_a 13.559801
_cell_length_b 14.348274
_cell_length_c 13.235390
_cell_angle_alpha 90.000000
_cell_angle_beta 78.186653
_cell_angle_gamma 90.000000
_cell_volume 2520.533263
_symmetry_space_group_name_H-M "C 2/M"
_symmetry_group_IT_number 12
_symmetry_cell_setting 'monoclinic'
loop_
_space_group_symop_operation_xyz
x,y,z
-x,y,-z
-x,-y,-z
x,-y,z
1/2+x,1/2+y,z
1/2-x,1/2+y,-z
1/2-x,1/2-y,-z
1/2+x,1/2-y,z
loop_
_atom_site_type_symbol
_atom_site_label
_atom_site_fract_x
_atom_site_fract_y
_atom_site_fract_z
Si Si1 0.392962 0.500000 0.132541
Si Si2 0.995826 0.308467 0.663445
Si Si3 0.973411 0.203222 0.149544
Si Si4 0.797511 0.500000 0.974785
Si Si5 0.172172 0.318570 0.464020
Si Si6 0.757817 0.500000 0.644133
Si Si7 0.348848 0.204105 0.021967
Si Si8 0.441787 0.000000 0.752952
O O1 0.458931 0.594633 0.123802
O O2 0.314931 0.500000 0.052732
O O3 0.323064 0.500000 0.248603
O O4 0.015726 0.222632 0.734293
O O5 0.082198 0.328307 0.563712
O O6 0.889839 0.294017 0.626078
O O7 0.996232 0.401461 0.732664
O O8 0.063984 0.256684 0.071789
O O9 0.875222 0.254767 0.125596
O O10 0.827439 0.594108 0.026786
O O11 0.872299 0.500000 0.864342
O O12 0.250000 0.250000 0.500000
O O13 0.238940 0.408607 0.423988
O O14 0.868022 0.500000 0.672320
O O15 0.250000 0.250000 0.000000
#
# Coordination Sequence:
#
# PCOD9197359 Si02
#       8
#     4   8   8   4   8   4   8   4
#     4  11  22  39  65  87 125 175 205 243 306 388
#     4  10  20  36  58  90 122 153 203 256 303 363
#     4  11  24  39  62  91 124 166 210 254 312 364
#     4  11  20  40  65  88 122 162 204 255 307 355
#     4  10  20  35  59  88 121 158 198 250 307 362
#     4   9  19  34  58  90 114 158 203 240 297 374
#     4  11  24  40  62  92 125 161 207 260 303 364
#     4   9  17  33  60  83 115 153 190 254 304 349
#
# _framework density 19.043589999999998
#
# number of rings (size 3 to 8) (size 9 to 14) (size 15 to 20)
#    0.000    1.667    3.333    1.500    0.000    7.333 
#    0.000    0.833    0.000    5.000    0.000    0.000 
#    0.000    0.000    0.000    0.000    0.000    0.000 
#
# Total GULP energy -133735.639955 kJ/mol
# GULP energy per Si atom -5572.318331 kJ/mol
# Density = 1.900025 g / cm^3
# Si number density = 19.043590 Si / 1000 Ang^3
#
#
#
# Elastic Constant Matrix: (Units=GPa)
#
#
# Indices 1 2 3 4 5 6 
#
# 1 79.1154 36.2477 14.2731 0.0000 11.6091 0.0000
# 2 36.2477 157.1225 25.1492 0.0000 21.0605 0.0000
# 3 14.2731 25.1492 57.3613 0.0000 17.6238 0.0000
# 4 0.0000 0.0000 0.0000 22.8897 0.0000 10.9028
# 5 11.6091 21.0605 17.6238 0.0000 27.2097 0.0000
# 6 0.0000 0.0000 0.0000 10.9028 0.0000 25.9839
#
#
#
# Elastic Compliance Matrix: (Units=1/GPa)
#
#
# Indices 1 2 3 4 5 6 
#
# 1 0.014614 -0.002709 -0.001470 0.000000 -0.003186 0.000000
# 2 -0.002709 0.007752 -0.001543 0.000000 -0.003844 0.000000
# 3 -0.001470 -0.001543 0.022367 0.000000 -0.012666 0.000000
# 4 0.000000 0.000000 0.000000 0.054600 0.000000 -0.022910
# 5 -0.003186 -0.003844 -0.012666 0.000000 0.049290 0.000000
# 6 0.000000 0.000000 0.000000 -0.022910 0.000000 0.048098
#
#
# Mechanical properties :
#
#
# Convention : Reuss Voigt Hill
#
# Bulk Modulus (GPa) = 30.04037 49.43767 39.73902
# Shear Modulus (GPa) = 22.80380 29.74528 26.27454
#
# Velocity S-wave (km/s) = 3.46418 3.95645 3.71847
# Velocity P-wave (km/s) = 5.63999 6.84748 6.27285
#
# Compressibility (1/GPa) = 0.03328854
#
# Stress axis : x y z
#
# Youngs Moduli (GPa) = 68.42946 129.00288 44.70844
#
# Poissons Ratio (x) = 0.34947 0.06570
# Poissons Ratio (y) = 0.18538 0.06900
# Poissons Ratio (z) = 0.10056 0.19910
#
# Static dielectric constant tensor:
#      x y z
#    x 1.741190 0.000000 -0.076980 
#    y 0.000000 1.762840 0.000000 
#    z -0.076980 0.000000 1.622980 
# 
# From -- ./inp_files/212728.got.cif
#   From: 2010.05.17/outbox.cif.g08.bks.cpg/sg12_107_cif.got.tgz:212728.got - 2010.06.03 13:09:07.
