data_PCOD9197406
_publ_section_title
;
Structure prediction by ZEFSAII (Michael W. Deem and Ramdas Pophale) SiO2 
 PCOD9197406
Probable space group: C 2/M
;
_chemical_formula_sum "Si O2"
_cell_formula_units_Z 64
_cell_length_a 17.917067
_cell_length_b 15.661768
_cell_length_c 14.308142
_cell_angle_alpha 90.000000
_cell_angle_beta 135.147704
_cell_angle_gamma 90.000000
_cell_volume 2831.740680
_symmetry_space_group_name_H-M "C 2/M"
_symmetry_group_IT_number 12
_symmetry_cell_setting 'monoclinic'
loop_
_space_group_symop_operation_xyz
x,y,z
-x,y,-z
-x,-y,-z
x,-y,z
1/2+x,1/2+y,z
1/2-x,1/2+y,-z
1/2-x,1/2-y,-z
1/2+x,1/2-y,z
loop_
_atom_site_type_symbol
_atom_site_label
_atom_site_fract_x
_atom_site_fract_y
_atom_site_fract_z
Si Si1 0.327096 0.603920 0.663437
Si Si2 0.004685 0.599656 0.893028
Si Si3 0.679413 0.234243 0.028596
Si Si4 0.854977 0.180291 0.326407
Si Si5 0.391195 0.897724 0.619167
Si Si6 0.925612 0.630600 0.355579
Si Si7 0.059526 0.102024 0.417370
Si Si8 0.819144 0.903905 0.870563
O O1 0.324697 0.500000 0.659884
O O2 0.213148 0.635415 0.524806
O O3 0.411418 0.632052 0.660895
O O4 0.343930 0.624547 0.786298
O O5 0.034444 0.500000 0.902418
O O6 0.899745 0.615824 0.738015
O O7 0.088053 0.667398 0.929768
O O8 0.000000 0.610793 0.000000
O O9 0.748369 0.190718 0.173043
O O10 0.642551 0.327841 0.029548
O O11 0.750000 0.250000 0.000000
O O12 0.897356 0.276284 0.368463
O O13 0.860458 0.140554 0.434289
O O14 0.942302 0.128398 0.344405
O O15 0.497858 0.864841 0.665146
O O16 0.391094 0.000000 0.604932
O O17 0.809654 0.592222 0.235214
O O18 0.000000 0.588786 0.500000
O O19 0.069130 0.000000 0.429657
O O20 0.860302 0.000000 0.924752
#
# Coordination Sequence:
#
# PCOD9197406 Si02
#       8
#     8   8   8   8   8   8   8   8
#     4   9  19  34  58  91 124 154 196 247 316 383
#     4  10  23  43  65  93 129 166 210 261 315 374
#     4  11  25  44  62  91 123 169 220 263 306 367
#     4  10  21  37  56  83 119 153 202 251 303 360
#     4  10  20  35  59  90 118 155 195 242 304 371
#     4  11  18  31  52  84 120 149 186 241 304 368
#     4  10  20  37  59  87 120 159 199 250 311 379
#     4  10  21  39  62  91 123 160 204 258 314 373
#
# _framework density 22.600939
#
# number of rings (size 3 to 8) (size 9 to 14) (size 15 to 20)
#    0.000    1.875    2.500    2.625    1.750    3.000 
#    4.500    3.125    0.000    0.375    0.000    0.000 
#    0.000    0.000    0.000    0.000    0.000    0.000 
#
# Total GULP energy -178752.500308 kJ/mol
# GULP energy per Si atom -5586.015635 kJ/mol
# Density = 2.254950 g / cm^3
# Si number density = 22.600939 Si / 1000 Ang^3
#
#
#
# Elastic Constant Matrix: (Units=GPa)
#
#
# Indices 1 2 3 4 5 6 
#
# 1 90.2958 28.5244 5.5039 0.0000 -29.7635 0.0000
# 2 28.5244 92.3909 26.3311 0.0000 -15.0129 0.0000
# 3 5.5039 26.3311 50.7876 0.0000 -17.7432 0.0000
# 4 0.0000 0.0000 0.0000 -38.2391 0.0000 -5.3166
# 5 -29.7635 -15.0129 -17.7432 0.0000 33.1193 0.0000
# 6 0.0000 0.0000 0.0000 -5.3166 0.0000 39.8506
#
#
#
# Elastic Compliance Matrix: (Units=1/GPa)
#
#
# Indices 1 2 3 4 5 6 
#
# 1 0.017883 -0.004537 0.006533 0.000000 0.017514 0.000000
# 2 -0.004537 0.014057 -0.007375 0.000000 -0.001656 0.000000
# 3 0.006533 -0.007375 0.029143 0.000000 0.018141 0.000000
# 4 0.000000 0.000000 0.000000 -0.025675 0.000000 -0.003425
# 5 0.017514 -0.001656 0.018141 0.000000 0.054902 0.000000
# 6 0.000000 0.000000 0.000000 -0.003425 0.000000 0.024637
#
#
# Mechanical properties :
#
#
# Convention : Reuss Voigt Hill
#
# Bulk Modulus (GPa) = 19.87072 39.35478 29.61275
# Shear Modulus (GPa) = 35.09284 18.48715 26.78999
#
# Velocity S-wave (km/s) = 3.94473 2.86314 3.44662
# Velocity P-wave (km/s) = 5.43681 5.32736 5.38236
#
# Compressibility (1/GPa) = 0.05032531
#
# Stress axis : x y z
#
# Youngs Moduli (GPa) = 55.91964 71.13890 34.31326
#
# Poissons Ratio (x) = 0.32276 -0.22417
# Poissons Ratio (y) = 0.25371 0.25306
# Poissons Ratio (z) = -0.36533 0.52464
#
# Static dielectric constant tensor:
#      x y z
#    x 1.877270 0.000000 -0.005410 
#    y 0.000000 1.843230 0.000000 
#    z -0.005410 0.000000 1.881260 
# 
# From -- ./inp_files/225737.got.cif
#   From: 2010.05.17/outbox.cif.g08.bks.cpg/sg12_113_cif.got.tgz:225737.got - 2010.06.03 13:09:07.
