data_PCOD9197059
_publ_section_title
;
Structure prediction by ZEFSAII (Michael W. Deem and Ramdas Pophale) SiO2 
 PCOD9197059
Probable space group: C 2/M
;
_chemical_formula_sum "Si O2"
_cell_formula_units_Z 64
_cell_length_a 19.114018
_cell_length_b 13.589224
_cell_length_c 26.039641
_cell_angle_alpha 90.000000
_cell_angle_beta 27.221591
_cell_angle_gamma 90.000000
_cell_volume 3093.920762
_symmetry_space_group_name_H-M "C 2/M"
_symmetry_group_IT_number 12
_symmetry_cell_setting 'monoclinic'
loop_
_space_group_symop_operation_xyz
x,y,z
-x,y,-z
-x,-y,-z
x,-y,z
1/2+x,1/2+y,z
1/2-x,1/2+y,-z
1/2-x,1/2-y,-z
1/2+x,1/2-y,z
loop_
_atom_site_type_symbol
_atom_site_label
_atom_site_fract_x
_atom_site_fract_y
_atom_site_fract_z
Si Si1 0.224743 0.721418 0.438690
Si Si2 0.563765 0.885753 0.331448
Si Si3 0.208612 0.111465 0.073094
Si Si4 0.510799 0.613916 0.570967
Si Si5 0.338454 0.383475 0.075432
Si Si6 0.447077 0.739851 0.908723
Si Si7 0.490423 0.611615 0.702997
Si Si8 0.701928 0.217283 0.334319
O O1 0.179515 0.836509 0.463859
O O2 0.385248 0.688287 0.356912
O O3 0.205856 0.687719 0.391581
O O4 0.094330 0.673177 0.559935
O O5 0.691204 0.854391 0.206150
O O6 0.639741 0.867317 0.337589
O O7 0.531867 0.000000 0.343690
O O8 0.098687 0.183277 0.113155
O O9 0.159176 0.117854 0.164401
O O10 0.187980 0.000000 0.069040
O O11 0.377419 0.151656 0.953879
O O12 0.511200 0.500000 0.555048
O O13 0.454578 0.620858 0.666603
O O14 0.403158 0.686605 0.608261
O O15 0.322047 0.500000 0.074245
O O16 0.500000 0.372889 0.000000
O O17 0.360642 0.319373 0.010172
O O18 0.627304 0.739643 0.795441
O O19 0.554390 0.500000 0.668922
#
# Coordination Sequence:
#
# PCOD9197059 Si02
#       8
#     8   8   8   8   8   8   8   8
#     4  11  22  39  63  90 121 163 213 251 305 365
#     4  10  21  35  55  90 125 155 198 257 311 365
#     4  10  23  40  61  89 120 161 208 252 308 371
#     4  10  23  41  61  89 126 165 203 251 309 365
#     4  10  20  35  58  86 119 159 200 245 309 369
#     4  11  22  39  63  86 124 161 203 256 307 364
#     4  10  21  40  64  90 124 163 204 256 312 368
#     4  11  23  38  61  92 121 163 205 255 307 366
#
# _framework density 20.685727
#
# number of rings (size 3 to 8) (size 9 to 14) (size 15 to 20)
#    0.000    1.625    2.500    2.625    3.500    3.500 
#    0.000    0.000    0.000    2.625    0.000    0.000 
#    0.000    0.000    0.000    0.000    0.000    0.000 
#
# Total GULP energy -178662.452734 kJ/mol
# GULP energy per Si atom -5583.201648 kJ/mol
# Density = 2.063865 g / cm^3
# Si number density = 20.685727 Si / 1000 Ang^3
#
#
#
# Elastic Constant Matrix: (Units=GPa)
#
#
# Indices 1 2 3 4 5 6 
#
# 1 55.3299 5.0652 9.2278 -0.0008 21.0676 0.0004
# 2 5.0652 62.6999 30.0785 -0.0010 2.7688 0.0006
# 3 9.2278 30.0785 100.0571 -0.0042 9.7531 0.0016
# 4 -0.0008 -0.0010 -0.0042 22.7282 0.0019 4.4351
# 5 21.0676 2.7688 9.7531 0.0019 36.4187 -0.0007
# 6 0.0004 0.0006 0.0016 4.4351 -0.0007 13.0246
#
#
#
# Elastic Compliance Matrix: (Units=1/GPa)
#
#
# Indices 1 2 3 4 5 6 
#
# 1 0.023307 -0.001036 -0.000546 0.000002 -0.013258 -0.000002
# 2 -0.001036 0.018683 -0.005587 0.000000 0.000675 0.000000
# 3 -0.000546 -0.005587 0.011964 0.000003 -0.002464 -0.000002
# 4 0.000002 0.000000 0.000003 0.047130 -0.000005 -0.016049
# 5 -0.013258 0.000675 -0.002464 -0.000005 0.035736 0.000004
# 6 -0.000002 0.000000 -0.000002 -0.016049 0.000004 0.082243
#
#
# Mechanical properties :
#
#
# Convention : Reuss Voigt Hill
#
# Bulk Modulus (GPa) = 25.24083 34.09222 29.66652
# Shear Modulus (GPa) = 20.27529 26.01532 23.14531
#
# Velocity S-wave (km/s) = 3.13414 3.55018 3.34863
# Velocity P-wave (km/s) = 5.03246 5.77251 5.41514
#
# Compressibility (1/GPa) = 0.03961835
#
# Stress axis : x y z
#
# Youngs Moduli (GPa) = 42.90485 53.52494 83.58276
#
# Poissons Ratio (x) = 0.05543 0.04563
# Poissons Ratio (y) = 0.04443 0.46694
# Poissons Ratio (z) = 0.02342 0.29902
#
# Static dielectric constant tensor:
#      x y z
#    x 1.743040 0.000000 0.025570 
#    y 0.000000 1.752710 0.000000 
#    z 0.025570 0.000000 1.738940 
# 
# From -- ./inp_files/344001.got.cif
#   From: 2010.05.17/outbox.cif.g08.bks.cpg/sg12_173_cif.got.tgz:344001.got - 2010.06.03 13:09:07.
