data_PCOD9197675
_publ_section_title
;
Structure prediction by ZEFSAII (Michael W. Deem and Ramdas Pophale) SiO2 
 PCOD9197675
Probable space group: C 2/M
;
_chemical_formula_sum "Si O2"
_cell_formula_units_Z 48
_cell_length_a 15.146101
_cell_length_b 22.397709
_cell_length_c 9.403258
_cell_angle_alpha 90.000000
_cell_angle_beta 48.164541
_cell_angle_gamma 90.000000
_cell_volume 2376.708956
_symmetry_space_group_name_H-M "C 2/M"
_symmetry_group_IT_number 12
_symmetry_cell_setting 'monoclinic'
loop_
_space_group_symop_operation_xyz
x,y,z
-x,y,-z
-x,-y,-z
x,-y,z
1/2+x,1/2+y,z
1/2-x,1/2+y,-z
1/2-x,1/2-y,-z
1/2+x,1/2-y,z
loop_
_atom_site_type_symbol
_atom_site_label
_atom_site_fract_x
_atom_site_fract_y
_atom_site_fract_z
Si Si1 0.990535 0.314996 0.855998
Si Si2 0.771030 0.611603 0.982542
Si Si3 0.387270 0.687207 0.057878
Si Si4 0.874796 0.435084 0.605381
Si Si5 0.747127 0.152573 0.472233
Si Si6 0.135847 0.071268 0.408769
O O1 0.889741 0.350386 0.881699
O O2 0.123943 0.317228 0.654165
O O3 0.937819 0.248973 0.940707
O O4 0.000000 0.345269 0.000000
O O5 0.678970 0.653769 0.997081
O O6 0.806764 0.563448 0.826793
O O7 0.718218 0.585510 0.183631
O O8 0.308370 0.694128 0.285658
O O9 0.500000 0.651714 0.000000
O O10 0.903558 0.500000 0.516729
O O11 0.795739 0.402421 0.577237
O O12 0.000000 0.403437 0.500000
O O13 0.825792 0.121121 0.512547
O O14 0.000000 0.079185 0.500000
O O15 0.148931 0.000000 0.436132
#
# Coordination Sequence:
#
# PCOD9197675 Si02
#       6
#     8   8   8   8   8   8
#     4  11  22  40  62  92 125 165 211 259 316 367
#     4  11  21  41  61  92 127 164 204 265 309 371
#     4  10  24  40  63  88 124 170 215 253 307 370
#     4  10  20  35  61  93 123 159 203 251 313 373
#     4  11  22  42  65  90 130 164 209 264 311 370
#     4  11  24  42  66  94 127 167 209 255 317 379
#
# _framework density 20.195995
#
# number of rings (size 3 to 8) (size 9 to 14) (size 15 to 20)
#    0.000    1.333    3.333    2.500    0.000    2.667 
#    3.000    0.833    0.000    8.000    0.000    0.000 
#    0.000    0.000    0.000    0.000    0.000    0.000 
#
# Total GULP energy -133639.047583 kJ/mol
# GULP energy per Si atom -5568.293649 kJ/mol
# Density = 2.015003 g / cm^3
# Si number density = 20.195995 Si / 1000 Ang^3
#
#
#
# Elastic Constant Matrix: (Units=GPa)
#
#
# Indices 1 2 3 4 5 6 
#
# 1 116.9369 40.2161 -1.9735 0.0000 -7.3370 0.0000
# 2 40.2161 86.6505 16.4489 0.0000 -4.9813 0.0000
# 3 -1.9735 16.4489 90.7038 0.0000 -6.0108 0.0000
# 4 0.0000 0.0000 0.0000 -8.1177 0.0000 -41.5029
# 5 -7.3370 -4.9813 -6.0108 0.0000 35.1296 0.0000
# 6 0.0000 0.0000 0.0000 -41.5029 0.0000 -31.7947
#
#
#
# Elastic Compliance Matrix: (Units=1/GPa)
#
#
# Indices 1 2 3 4 5 6 
#
# 1 0.010382 -0.004957 0.001236 0.000000 0.001677 0.000000
# 2 -0.004957 0.014381 -0.002680 0.000000 0.000545 0.000000
# 3 0.001236 -0.002680 0.011662 0.000000 0.001874 0.000000
# 4 0.000000 0.000000 0.000000 0.021712 0.000000 -0.028341
# 5 0.001677 0.000545 0.001874 0.000000 0.029214 0.000000
# 6 0.000000 0.000000 0.000000 -0.028341 0.000000 0.005543
#
#
# Mechanical properties :
#
#
# Convention : Reuss Voigt Hill
#
# Bulk Modulus (GPa) = 42.32931 44.85268 43.59100
# Shear Modulus (GPa) = 44.02524 15.01675 29.52100
#
# Velocity S-wave (km/s) = 4.67400 2.72977 3.82740
# Velocity P-wave (km/s) = 7.08048 5.67384 6.41583
#
# Compressibility (1/GPa) = 0.02362429
#
# Stress axis : x y z
#
# Youngs Moduli (GPa) = 96.31650 69.53506 85.74935
#
# Poissons Ratio (x) = 0.34468 -0.10598
# Poissons Ratio (y) = 0.47743 0.22978
# Poissons Ratio (z) = -0.11904 0.18633
#
# Static dielectric constant tensor:
#      x y z
#    x 1.764950 0.000000 -0.026490 
#    y 0.000000 1.749740 0.000000 
#    z -0.026490 0.000000 1.778510 
# 
# From -- ./inp_files/67281.got.cif
#   From: 2010.05.17/outbox.cif.g08.bks.cpg/sg12_34_cif.got.tgz:67281.got - 2010.06.03 13:09:07.
