data_PCOD9197516
_publ_section_title
;
Structure prediction by ZEFSAII (Michael W. Deem and Ramdas Pophale) SiO2 
 PCOD9197516
Probable space group: C 2/M
;
_chemical_formula_sum "Si O2"
_cell_formula_units_Z 48
_cell_length_a 25.167529
_cell_length_b 24.314301
_cell_length_c 11.194838
_cell_angle_alpha 90.000000
_cell_angle_beta 20.363746
_cell_angle_gamma 90.000000
_cell_volume 2383.818052
_symmetry_space_group_name_H-M "C 2/M"
_symmetry_group_IT_number 12
_symmetry_cell_setting 'monoclinic'
loop_
_space_group_symop_operation_xyz
x,y,z
-x,y,-z
-x,-y,-z
x,-y,z
1/2+x,1/2+y,z
1/2-x,1/2+y,-z
1/2-x,1/2-y,-z
1/2+x,1/2-y,z
loop_
_atom_site_type_symbol
_atom_site_label
_atom_site_fract_x
_atom_site_fract_y
_atom_site_fract_z
Si Si1 0.268084 0.717154 0.083958
Si Si2 0.715686 0.000000 0.659079
Si Si3 0.242613 0.384718 0.703728
Si Si4 0.945350 0.196475 0.371036
Si Si5 0.380668 0.878154 0.483975
Si Si6 0.651801 0.000000 0.522984
Si Si7 0.219511 0.811527 0.610933
O O1 0.190419 0.657523 0.258762
O O2 0.179590 0.755399 0.367307
O O3 0.250000 0.750000 0.000000
O O4 0.441434 0.709893 0.759350
O O5 0.778113 0.053632 0.591502
O O6 0.736377 0.000000 0.472799
O O7 0.531232 0.000000 0.065556
O O8 0.349946 0.359497 0.579087
O O9 0.275181 0.348520 0.517925
O O10 0.063366 0.379217 0.109722
O O11 0.059529 0.192138 0.018683
O O12 0.331685 0.844142 0.467329
O O13 0.321444 0.941057 0.596914
O O14 0.250000 0.750000 0.500000
#
# Coordination Sequence:
#
# PCOD9197516 Si02
#       7
#     8   4   8   8   8   4   8
#     4  11  23  42  62  83 111 149 201 262 318 357
#     4   9  18  32  56  86 125 172 199 233 279 346
#     4  11  20  35  56  87 126 161 197 233 288 357
#     4  11  24  37  55  85 114 153 198 244 309 364
#     4  10  20  35  60  87 118 160 205 248 292 347
#     4   9  16  34  57  89 120 162 214 241 279 343
#     4  11  21  33  52  84 124 162 196 238 290 361
#
# _framework density 20.135764999999999
#
# number of rings (size 3 to 8) (size 9 to 14) (size 15 to 20)
#    0.000    1.500    1.667    5.500    0.000    2.667 
#    0.000    5.000    0.000    1.000    0.000   11.667 
#    0.000    0.000    0.000    0.000    0.000    0.000 
#
# Total GULP energy -133962.214540 kJ/mol
# GULP energy per Si atom -5581.758939 kJ/mol
# Density = 2.008994 g / cm^3
# Si number density = 20.135765 Si / 1000 Ang^3
#
#
#
# Elastic Constant Matrix: (Units=GPa)
#
#
# Indices 1 2 3 4 5 6 
#
# 1 83.9651 53.7042 30.8829 -0.0050 -19.6318 0.0021
# 2 53.7042 205.0968 44.3863 -0.0056 -13.1385 0.0006
# 3 30.8829 44.3863 74.2085 -0.0170 -17.5543 0.0041
# 4 -0.0050 -0.0056 -0.0170 28.6267 0.0031 -0.9817
# 5 -19.6318 -13.1385 -17.5543 0.0031 29.8216 -0.0027
# 6 0.0021 0.0006 0.0041 -0.9817 -0.0027 28.0566
#
#
#
# Elastic Compliance Matrix: (Units=1/GPa)
#
#
# Indices 1 2 3 4 5 6 
#
# 1 0.017029 -0.003244 -0.003291 0.000000 0.007844 0.000000
# 2 -0.003244 0.006227 -0.002592 -0.000001 -0.000918 0.000000
# 3 -0.003291 -0.002592 0.018138 0.000009 0.007369 -0.000001
# 4 0.000000 -0.000001 0.000009 0.034974 0.000001 0.001224
# 5 0.007844 -0.000918 0.007369 0.000001 0.042630 0.000002
# 6 0.000000 0.000000 -0.000001 0.001224 0.000002 0.035685
#
#
# Mechanical properties :
#
#
# Convention : Reuss Voigt Hill
#
# Bulk Modulus (GPa) = 43.21323 69.02412 56.11868
# Shear Modulus (GPa) = 27.67757 32.92078 30.29917
#
# Velocity S-wave (km/s) = 3.71151 4.04783 3.88331
# Velocity P-wave (km/s) = 6.31463 7.49669 6.93091
#
# Compressibility (1/GPa) = 0.02314106
#
# Stress axis : x y z
#
# Youngs Moduli (GPa) = 58.72261 160.58143 55.13173
#
# Poissons Ratio (x) = 0.52099 0.18143
# Poissons Ratio (y) = 0.19052 0.14288
# Poissons Ratio (z) = 0.19325 0.41618
#
# Static dielectric constant tensor:
#      x y z
#    x 1.797590 0.000000 -0.015780 
#    y 0.000000 1.734500 0.000000 
#    z -0.015780 0.000000 1.734010 
# 
# From -- ./inp_files/185023.got.cif
#   From: 2010.05.17/outbox.cif.g08.bks.cpg/sg12_93_cif.got.tgz:185023.got - 2010.06.03 13:09:07.
