data_PCOD9197744
_publ_section_title
;
Structure prediction by ZEFSAII (Michael W. Deem and Ramdas Pophale) SiO2 
 PCOD9197744
Probable space group: C 2/M
;
_chemical_formula_sum "Si O2"
_cell_formula_units_Z 56
_cell_length_a 11.551674
_cell_length_b 17.230116
_cell_length_c 12.012014
_cell_angle_alpha 90.000000
_cell_angle_beta 72.983823
_cell_angle_gamma 90.000000
_cell_volume 2286.166009
_symmetry_space_group_name_H-M "C 2/M"
_symmetry_group_IT_number 12
_symmetry_cell_setting 'monoclinic'
loop_
_space_group_symop_operation_xyz
x,y,z
-x,y,-z
-x,-y,-z
x,-y,z
1/2+x,1/2+y,z
1/2-x,1/2+y,-z
1/2-x,1/2-y,-z
1/2+x,1/2-y,z
loop_
_atom_site_type_symbol
_atom_site_label
_atom_site_fract_x
_atom_site_fract_y
_atom_site_fract_z
Si Si1 0.805609 0.087262 0.517541
Si Si2 0.343640 0.594371 0.750833
Si Si3 0.536820 0.860347 0.615313
Si Si4 0.858803 0.407650 0.015266
Si Si5 0.683816 0.722750 0.633625
Si Si6 0.531433 0.589323 0.873126
Si Si7 0.702292 0.860529 0.205381
O O1 0.849291 0.122090 0.622560
O O2 0.658784 0.089249 0.570073
O O3 0.846420 0.136986 0.401697
O O4 0.848474 0.000000 0.490979
O O5 0.348643 0.500000 0.737774
O O6 0.449999 0.624495 0.799495
O O7 0.220326 0.610338 0.853154
O O8 0.500000 0.838498 0.500000
O O9 0.577026 0.784454 0.673501
O O10 0.419427 0.895993 0.706802
O O11 0.836541 0.500000 0.994441
O O12 0.821483 0.355966 0.919591
O O13 0.000000 0.398802 0.000000
O O14 0.750000 0.750000 0.500000
O O15 0.763330 0.712052 0.722814
O O16 0.490174 0.500000 0.890128
O O17 0.674394 0.591256 0.820158
O O18 0.500000 0.627428 0.000000
#
# Coordination Sequence:
#
# PCOD9197744 Si02
#       7
#     8   8   8   8   8   8   8
#     4  10  21  39  67 104 142 176 227 293 349 418
#     4   9  18  36  58  92 143 187 211 265 353 420
#     4  11  23  44  67  98 134 189 230 279 357 416
#     4  10  20  35  63 105 149 181 212 270 355 433
#     4  10  23  45  65  94 133 191 231 277 350 416
#     4  10  20  37  62  98 141 178 217 277 350 425
#     4  12  22  39  71  99 120 180 245 280 333 413
#
# _framework density 24.495158
#
# number of rings (size 3 to 8) (size 9 to 14) (size 15 to 20)
#    0.000    1.714    4.286    1.286    0.000    4.857 
#    0.000    0.000    0.000   15.857    0.000    0.000 
#    0.000    0.000    0.000    0.000    0.000    0.714 
#
# Total GULP energy -156427.024964 kJ/mol
# GULP energy per Si atom -5586.679463 kJ/mol
# Density = 2.443941 g / cm^3
# Si number density = 24.495158 Si / 1000 Ang^3
#
#
#
# Elastic Constant Matrix: (Units=GPa)
#
#
# Indices 1 2 3 4 5 6 
#
# 1 130.6153 6.3868 39.1931 0.0000 3.2387 0.0000
# 2 6.3868 64.6172 26.1951 0.0000 11.2563 0.0000
# 3 39.1931 26.1951 118.8036 0.0000 14.0559 0.0000
# 4 0.0000 0.0000 0.0000 24.7483 0.0000 4.6379
# 5 3.2387 11.2563 14.0559 0.0000 54.9901 0.0000
# 6 0.0000 0.0000 0.0000 4.6379 0.0000 18.2321
#
#
#
# Elastic Compliance Matrix: (Units=1/GPa)
#
#
# Indices 1 2 3 4 5 6 
#
# 1 0.008505 0.000301 -0.002893 0.000000 0.000177 0.000000
# 2 0.000301 0.017374 -0.003617 0.000000 -0.002650 0.000000
# 3 -0.002893 -0.003617 0.010375 0.000000 -0.001741 0.000000
# 4 0.000000 0.000000 0.000000 0.042429 0.000000 -0.010793
# 5 0.000177 -0.002650 -0.001741 0.000000 0.019162 0.000000
# 6 0.000000 0.000000 0.000000 -0.010793 0.000000 0.057594
#
#
# Mechanical properties :
#
#
# Convention : Reuss Voigt Hill
#
# Bulk Modulus (GPa) = 41.95159 50.84290 46.39724
# Shear Modulus (GPa) = 28.44108 35.74483 32.09296
#
# Velocity S-wave (km/s) = 3.41117 3.82417 3.62356
# Velocity P-wave (km/s) = 5.71651 6.34826 6.04065
#
# Compressibility (1/GPa) = 0.02383700
#
# Stress axis : x y z
#
# Youngs Moduli (GPa) = 117.57654 57.55822 96.38393
#
# Poissons Ratio (x) = -0.01735 0.27886
# Poissons Ratio (y) = -0.03544 0.34859
# Poissons Ratio (z) = 0.34017 0.20817
#
# Static dielectric constant tensor:
#      x y z
#    x 1.958350 0.000000 0.007670 
#    y 0.000000 2.028710 0.000000 
#    z 0.007670 0.000000 1.941530 
# 
# From -- ./inp_files/133130.got.cif
#   From: 2010.05.17/outbox.cif.g08.bks.cpg/sg12_67_cif.got.tgz:133130.got - 2010.06.03 13:09:07.
