data_PCOD9197830
_publ_section_title
;
Structure prediction by ZEFSAII (Michael W. Deem and Ramdas Pophale) SiO2 
 PCOD9197830
Probable space group: C 2/M
;
_chemical_formula_sum "Si O2"
_cell_formula_units_Z 56
_cell_length_a 12.733828
_cell_length_b 14.537743
_cell_length_c 18.174414
_cell_angle_alpha 90.000000
_cell_angle_beta 51.754871
_cell_angle_gamma 90.000000
_cell_volume 2642.350640
_symmetry_space_group_name_H-M "C 2/M"
_symmetry_group_IT_number 12
_symmetry_cell_setting 'monoclinic'
loop_
_space_group_symop_operation_xyz
x,y,z
-x,y,-z
-x,-y,-z
x,-y,z
1/2+x,1/2+y,z
1/2-x,1/2+y,-z
1/2-x,1/2-y,-z
1/2+x,1/2-y,z
loop_
_atom_site_type_symbol
_atom_site_label
_atom_site_fract_x
_atom_site_fract_y
_atom_site_fract_z
Si Si1 0.578206 0.887532 0.660265
Si Si2 0.802966 0.648989 0.964443
Si Si3 0.386977 0.112312 0.191323
Si Si4 0.617199 0.387144 0.739102
Si Si5 0.357425 0.887878 0.527568
Si Si6 0.273259 0.890847 0.809832
Si Si7 0.327479 0.396434 0.829887
O O1 0.638076 0.860347 0.713122
O O2 0.649178 0.857931 0.554531
O O3 0.422794 0.857124 0.726047
O O4 0.577563 0.000000 0.660409
O O5 0.751977 0.620742 0.905794
O O6 0.963027 0.641541 0.894450
O O7 0.750000 0.750000 0.000000
O O8 0.743173 0.597174 0.060390
O O9 0.275435 0.147132 0.183017
O O10 0.389690 0.000000 0.186803
O O11 0.608924 0.500000 0.743498
O O12 0.732861 0.360527 0.631883
O O13 0.662328 0.356304 0.800911
O O14 0.471841 0.351540 0.778924
O O15 0.500000 0.859027 0.500000
O O16 0.358299 0.000000 0.527974
O O17 0.279287 0.000000 0.794054
O O18 0.352265 0.500000 0.791200
#
# Coordination Sequence:
#
# PCOD9197830 Si02
#       7
#     8   8   8   8   8   8   8
#     4   8  13  23  45  75 102 129 165 208 249 292
#     4  11  22  35  51  76  99 126 173 224 268 302
#     4   9  18  35  57  74  98 140 181 209 243 306
#     4   9  17  28  46  75 108 137 164 201 253 308
#     4   9  13  21  42  74 109 135 157 198 253 303
#     4   9  16  30  50  74 103 135 170 208 256 307
#     4  10  20  36  53  71 101 142 179 208 247 305
#
# _framework density 21.193251
#
# number of rings (size 3 to 8) (size 9 to 14) (size 15 to 20)
#    0.000    2.714    1.429    2.571    0.000    1.714 
#    5.143    2.857    0.000    4.286    0.000    4.000 
#    8.571    0.000    0.000    0.000    0.000    0.000 
#
# Total GULP energy -156272.621231 kJ/mol
# GULP energy per Si atom -5581.165044 kJ/mol
# Density = 2.114501 g / cm^3
# Si number density = 21.193251 Si / 1000 Ang^3
#
#
#
# Elastic Constant Matrix: (Units=GPa)
#
#
# Indices 1 2 3 4 5 6 
#
# 1 215.9494 20.0789 119.3267 0.0000 5.1028 0.0000
# 2 20.0789 43.9875 -3.4505 0.0000 -1.7771 0.0000
# 3 119.3267 -3.4505 126.6750 0.0000 12.2084 0.0000
# 4 0.0000 0.0000 0.0000 -5.4590 0.0000 -2.7777
# 5 5.1028 -1.7771 12.2084 0.0000 21.3711 0.0000
# 6 0.0000 0.0000 0.0000 -2.7777 0.0000 0.4534
#
#
#
# Elastic Compliance Matrix: (Units=1/GPa)
#
#
# Indices 1 2 3 4 5 6 
#
# 1 0.011164 -0.005831 -0.010976 0.000000 0.003120 0.000000
# 2 -0.005831 0.025882 0.006197 0.000000 0.000004 0.000000
# 3 -0.010976 0.006197 0.019155 0.000000 -0.007806 0.000000
# 4 0.000000 0.000000 0.000000 -0.044489 0.000000 -0.272577
# 5 0.003120 0.000004 -0.007806 0.000000 0.050507 0.000000
# 6 0.000000 0.000000 0.000000 -0.272577 0.000000 0.535704
#
#
# Mechanical properties :
#
#
# Convention : Reuss Voigt Hill
#
# Bulk Modulus (GPa) = 28.58683 73.16914 50.87798
# Shear Modulus (GPa) = 7.92641 19.98353 13.95497
#
# Velocity S-wave (km/s) = 1.93602 3.07403 2.56884
# Velocity P-wave (km/s) = 4.30296 6.87017 5.73214
#
# Compressibility (1/GPa) = 0.03498115
#
# Stress axis : x y z
#
# Youngs Moduli (GPa) = 89.57226 38.63733 52.20659
#
# Poissons Ratio (x) = 0.22530 0.57302
# Poissons Ratio (y) = 0.52230 -0.32354
# Poissons Ratio (z) = 0.98315 -0.23945
#
# Static dielectric constant tensor:
#      x y z
#    x 1.728210 0.000000 -0.023430 
#    y 0.000000 1.910300 0.000000 
#    z -0.023430 0.000000 1.681070 
# 
# From -- ./inp_files/264784.got.cif
#   From: 2010.05.17/outbox.cif.g08.bks.cpg/sg12_133_cif.got.tgz:264784.got - 2010.06.03 13:09:07.
