data_PCOD9197318
_publ_section_title
;
Structure prediction by ZEFSAII (Michael W. Deem and Ramdas Pophale) SiO2 
 PCOD9197318
Probable space group: C 2/M
;
_chemical_formula_sum "Si O2"
_cell_formula_units_Z 64
_cell_length_a 27.054912
_cell_length_b 7.390341
_cell_length_c 13.673243
_cell_angle_alpha 90.000000
_cell_angle_beta 68.592556
_cell_angle_gamma 90.000000
_cell_volume 2545.281003
_symmetry_space_group_name_H-M "C 2/M"
_symmetry_group_IT_number 12
_symmetry_cell_setting 'monoclinic'
loop_
_space_group_symop_operation_xyz
x,y,z
-x,y,-z
-x,-y,-z
x,-y,z
1/2+x,1/2+y,z
1/2-x,1/2+y,-z
1/2-x,1/2-y,-z
1/2+x,1/2-y,z
loop_
_atom_site_type_symbol
_atom_site_label
_atom_site_fract_x
_atom_site_fract_y
_atom_site_fract_z
Si Si1 0.610340 0.792071 0.668520
Si Si2 0.636360 0.709478 0.005583
Si Si3 0.911914 0.780748 0.753800
Si Si4 0.174632 0.800018 0.321100
Si Si5 0.547777 0.291335 0.905097
Si Si6 0.522781 0.213163 0.586689
Si Si7 0.252992 0.287139 0.111229
Si Si8 0.228150 0.285185 0.622663
O O1 0.570924 0.789206 0.789470
O O2 0.576481 0.715043 0.600957
O O3 0.667294 0.713966 0.663440
O O4 0.622792 0.000000 0.632787
O O5 0.650664 0.500000 0.016979
O O6 0.614341 0.784302 0.124721
O O7 0.592326 0.708300 0.955451
O O8 0.687978 0.783620 0.911811
O O9 0.880137 0.716330 0.678885
O O10 0.973387 0.731468 0.697450
O O11 0.909210 0.000000 0.755179
O O12 0.205916 0.814366 0.196620
O O13 0.222436 0.711552 0.348401
O O14 0.163432 0.000000 0.371120
O O15 0.532782 0.500000 0.890903
O O16 0.500000 0.205129 0.000000
O O17 0.500000 0.288804 0.500000
O O18 0.532426 0.000000 0.564174
O O19 0.246781 0.500000 0.137362
O O20 0.250000 0.250000 0.000000
O O21 0.225580 0.500000 0.648895
O O22 0.250000 0.250000 0.500000
#
# Coordination Sequence:
#
# PCOD9197318 Si02
#       8
#     8   8   8   8   8   8   8   8
#     4  10  22  41  60  84 120 155 191 241 296 347
#     4   9  18  33  53  80 116 150 183 229 278 325
#     4  10  20  37  59  84 116 149 186 240 289 334
#     4  10  21  38  58  85 120 152 192 245 292 342
#     4  10  20  35  59  87 115 152 196 235 277 339
#     4  10  23  41  60  82 111 147 189 239 290 345
#     4  11  20  33  53  80 116 157 194 232 282 338
#     4  10  23  41  63  89 118 155 197 246 301 355
#
# _framework density 25.144570000000002
#
# number of rings (size 3 to 8) (size 9 to 14) (size 15 to 20)
#    0.000    2.000    1.250    1.875    1.750    3.500 
#    0.000    1.250    0.000    0.000    0.000    0.000 
#    0.000    0.000    0.000    0.000    0.000    0.000 
#
# Total GULP energy -178484.044560 kJ/mol
# GULP energy per Si atom -5577.626392 kJ/mol
# Density = 2.508734 g / cm^3
# Si number density = 25.144570 Si / 1000 Ang^3
#
#
#
# Elastic Constant Matrix: (Units=GPa)
#
#
# Indices 1 2 3 4 5 6 
#
# 1 124.3639 7.0008 14.1257 0.0000 13.1940 0.0000
# 2 7.0008 98.9658 -2.1095 0.0000 3.1196 0.0000
# 3 14.1257 -2.1095 64.3300 0.0000 12.3316 0.0000
# 4 0.0000 0.0000 0.0000 18.0848 0.0000 -6.3115
# 5 13.1940 3.1196 12.3316 0.0000 49.4422 0.0000
# 6 0.0000 0.0000 0.0000 -6.3115 0.0000 1.6599
#
#
#
# Elastic Compliance Matrix: (Units=1/GPa)
#
#
# Indices 1 2 3 4 5 6 
#
# 1 0.008441 -0.000572 -0.001520 0.000000 -0.001837 0.000000
# 2 -0.000572 0.010177 0.000581 0.000000 -0.000634 0.000000
# 3 -0.001520 0.000581 0.016622 0.000000 -0.003777 0.000000
# 4 0.000000 0.000000 0.000000 -0.169112 0.000000 -0.643008
# 5 -0.001837 -0.000634 -0.003777 0.000000 0.021698 0.000000
# 6 0.000000 0.000000 0.000000 -0.643008 0.000000 -1.842452
#
#
# Mechanical properties :
#
#
# Convention : Reuss Voigt Hill
#
# Bulk Modulus (GPa) = 31.03830 36.18818 33.61324
# Shear Modulus (GPa) = -2.57617 31.74691 14.58537
#
# Velocity S-wave (km/s) = -1.01330 3.55713 2.41106
# Velocity P-wave (km/s) = 3.31688 5.59412 4.59869
#
# Compressibility (1/GPa) = 0.03221825
#
# Stress axis : x y z
#
# Youngs Moduli (GPa) = 118.47419 98.25775 60.16266
#
# Poissons Ratio (x) = 0.05616 0.09144
# Poissons Ratio (y) = 0.06772 -0.03495
# Poissons Ratio (z) = 0.18008 -0.05708
#
# Static dielectric constant tensor:
#      x y z
#    x 1.256370 0.000000 0.429190 
#    y 0.000000 2.061490 0.000000 
#    z 0.429190 0.000000 1.805480 
# 
# From -- ./inp_files/243840.got.cif
#   From: 2010.05.17/outbox.cif.g08.bks.cpg/sg12_122_cif.got.tgz:243840.got - 2010.06.03 13:09:07.
