data_PCOD9197894
_publ_section_title
;
Structure prediction by ZEFSAII (Michael W. Deem and Ramdas Pophale) SiO2 
 PCOD9197894
Probable space group: C 2/M
;
_chemical_formula_sum "Si O2"
_cell_formula_units_Z 44
_cell_length_a 15.429919
_cell_length_b 31.074585
_cell_length_c 7.483942
_cell_angle_alpha 90.000000
_cell_angle_beta 145.483949
_cell_angle_gamma 90.000000
_cell_volume 2033.313731
_symmetry_space_group_name_H-M "C 2/M"
_symmetry_group_IT_number 12
_symmetry_cell_setting 'monoclinic'
loop_
_space_group_symop_operation_xyz
x,y,z
-x,y,-z
-x,-y,-z
x,-y,z
1/2+x,1/2+y,z
1/2-x,1/2+y,-z
1/2-x,1/2-y,-z
1/2+x,1/2-y,z
loop_
_atom_site_type_symbol
_atom_site_label
_atom_site_fract_x
_atom_site_fract_y
_atom_site_fract_z
Si Si1 0.832584 0.183772 0.707721
Si Si2 0.180021 0.647239 0.966281
Si Si3 0.376164 0.113655 0.528631
Si Si4 0.000000 0.893250 0.500000
Si Si5 0.883655 0.050332 0.967787
Si Si6 0.146909 0.729928 0.116957
O O1 0.707836 0.147067 0.486153
O O2 0.829775 0.218909 0.864456
O O3 0.796942 0.213248 0.476797
O O4 0.000000 0.164041 0.000000
O O5 0.158236 0.635625 0.722299
O O6 0.057721 0.615833 0.857773
O O7 0.354288 0.635592 0.307010
O O8 0.133301 0.696139 0.934012
O O9 0.282502 0.069586 0.367638
O O10 0.053571 0.922721 0.756902
O O11 0.872494 0.000000 0.993420
O O12 0.000000 0.055192 0.000000
O O13 0.000000 0.725031 0.000000
#
# Coordination Sequence:
#
# PCOD9197894 Si02
#       6
#     8   8   8   4   8   8
#     4  10  21  34  56  82 113 153 193 237 289 341
#     4  10  22  37  56  83 114 152 196 235 291 340
#     4  10  21  39  57  83 115 151 193 239 290 347
#     4  10  23  40  62  90 118 156 196 240 295 346
#     4  10  22  41  65  92 120 151 190 238 294 354
#     4  10  20  36  54  82 114 152 196 237 284 341
#
# _framework density 21.639552999999999
#
# number of rings (size 3 to 8) (size 9 to 14) (size 15 to 20)
#    0.000    2.000    1.818    0.818    7.636    0.727 
#    0.000   10.000    0.000    2.182    0.000    0.000 
#    0.000    0.000    0.000    0.000    0.000    0.000 
#
# Total GULP energy -122760.552330 kJ/mol
# GULP energy per Si atom -5580.025106 kJ/mol
# Density = 2.159030 g / cm^3
# Si number density = 21.639553 Si / 1000 Ang^3
#
#
#
# Elastic Constant Matrix: (Units=GPa)
#
#
# Indices 1 2 3 4 5 6 
#
# 1 62.9383 34.5078 26.4210 0.0000 17.0069 0.0000
# 2 34.5078 99.3758 18.0735 0.0000 7.3985 0.0000
# 3 26.4210 18.0735 101.2517 0.0000 35.9306 0.0000
# 4 0.0000 0.0000 0.0000 26.6031 0.0000 -4.5087
# 5 17.0069 7.3985 35.9306 0.0000 33.3384 0.0000
# 6 0.0000 0.0000 0.0000 -4.5087 0.0000 25.1155
#
#
#
# Elastic Compliance Matrix: (Units=1/GPa)
#
#
# Indices 1 2 3 4 5 6 
#
# 1 0.022622 -0.006927 -0.001809 0.000000 -0.008054 0.000000
# 2 -0.006927 0.012527 -0.001127 0.000000 0.001968 0.000000
# 3 -0.001809 -0.001127 0.016409 0.000000 -0.016512 0.000000
# 4 0.000000 0.000000 0.000000 0.038769 0.000000 0.006960
# 5 -0.008054 0.001968 -0.016512 0.000000 0.051463 0.000000
# 6 0.000000 0.000000 0.000000 0.006960 0.000000 0.041065
#
#
# Mechanical properties :
#
#
# Convention : Reuss Voigt Hill
#
# Bulk Modulus (GPa) = 31.41430 46.84117 39.12773
# Shear Modulus (GPa) = 23.45315 29.31563 26.38439
#
# Velocity S-wave (km/s) = 3.29570 3.68465 3.49559
# Velocity P-wave (km/s) = 5.38802 6.30835 5.86626
#
# Compressibility (1/GPa) = 0.03183264
#
# Stress axis : x y z
#
# Youngs Moduli (GPa) = 44.20498 79.83049 60.94176
#
# Poissons Ratio (x) = 0.55297 0.11022
# Poissons Ratio (y) = 0.30620 0.06868
# Poissons Ratio (z) = 0.07995 0.08996
#
# Static dielectric constant tensor:
#      x y z
#    x 1.879830 0.000000 -0.010550 
#    y 0.000000 1.797280 0.000000 
#    z -0.010550 0.000000 1.837790 
# 
# From -- ./inp_files/41601.got.cif
#   From: 2010.05.17/outbox.cif.g08.bks.cpg/sg12_21_cif.got.tgz:41601.got - 2010.06.03 13:09:07.
