data_PCOD9197162
_publ_section_title
;
Structure prediction by ZEFSAII (Michael W. Deem and Ramdas Pophale) SiO2 
 PCOD9197162
Probable space group: C 2/M
;
_chemical_formula_sum "Si O2"
_cell_formula_units_Z 44
_cell_length_a 8.953437
_cell_length_b 28.805747
_cell_length_c 11.278306
_cell_angle_alpha 90.000000
_cell_angle_beta 130.455658
_cell_angle_gamma 90.000000
_cell_volume 2213.324800
_symmetry_space_group_name_H-M "C 2/M"
_symmetry_group_IT_number 12
_symmetry_cell_setting 'monoclinic'
loop_
_space_group_symop_operation_xyz
x,y,z
-x,y,-z
-x,-y,-z
x,-y,z
1/2+x,1/2+y,z
1/2-x,1/2+y,-z
1/2-x,1/2-y,-z
1/2+x,1/2-y,z
loop_
_atom_site_type_symbol
_atom_site_label
_atom_site_fract_x
_atom_site_fract_y
_atom_site_fract_z
Si Si1 0.102670 0.853487 0.162144
Si Si2 0.000000 0.591250 0.000000
Si Si3 0.915298 0.948289 0.148275
Si Si4 0.827135 0.052028 0.488152
Si Si5 0.202388 0.700071 0.528951
Si Si6 0.472602 0.125819 0.724428
O O1 0.138590 0.823543 0.299870
O O2 0.316571 0.868084 0.226214
O O3 0.975171 0.900349 0.115163
O O4 0.000000 0.826734 0.000000
O O5 0.016884 0.621404 0.128612
O O6 0.197751 0.560816 0.088418
O O7 0.081175 0.950247 0.335130
O O8 0.913864 0.000000 0.089934
O O9 0.627165 0.079090 0.374774
O O10 0.000000 0.075192 0.500000
O O11 0.798135 0.000000 0.426129
O O12 0.250000 0.750000 0.500000
O O13 0.000000 0.702849 0.500000
O O14 0.162798 0.666288 0.397641
#
# Coordination Sequence:
#
# PCOD9197162 Si02
#       6
#     8   4   8   8   8   8
#     4  11  23  44  65  93 132 165 207 265 318 375
#     4  12  23  38  60  94 132 170 218 264 307 364
#     4  11  23  38  60  92 131 177 218 257 310 368
#     4  10  20  35  58  88 124 170 218 260 305 366
#     4  10  24  46  69  94 123 161 206 261 326 388
#     4  11  23  41  64  91 127 167 211 262 318 376
#
# _framework density 19.879594000000001
#
# number of rings (size 3 to 8) (size 9 to 14) (size 15 to 20)
#    0.000    1.273    5.455    0.273    0.000    4.000 
#    1.636    3.636    0.000    0.000    0.000    0.000 
#    0.000    0.000    0.000    0.000    0.000    0.000 
#
# Total GULP energy -122685.905875 kJ/mol
# GULP energy per Si atom -5576.632085 kJ/mol
# Density = 1.983435 g / cm^3
# Si number density = 19.879594 Si / 1000 Ang^3
#
#
#
# Elastic Constant Matrix: (Units=GPa)
#
#
# Indices 1 2 3 4 5 6 
#
# 1 57.1330 34.7745 39.0108 0.0000 -0.4248 0.0000
# 2 34.7745 116.1233 55.8037 0.0000 -8.6023 0.0000
# 3 39.0108 55.8037 130.3162 0.0000 -5.7655 0.0000
# 4 0.0000 0.0000 0.0000 1.9143 0.0000 1.7443
# 5 -0.4248 -8.6023 -5.7655 0.0000 32.5864 0.0000
# 6 0.0000 0.0000 0.0000 1.7443 0.0000 31.2542
#
#
#
# Elastic Compliance Matrix: (Units=1/GPa)
#
#
# Indices 1 2 3 4 5 6 
#
# 1 0.023970 -0.004821 -0.005194 0.000000 -0.001879 0.000000
# 2 -0.004821 0.011951 -0.003565 0.000000 0.002461 0.000000
# 3 -0.005194 -0.003565 0.010795 0.000000 0.000901 0.000000
# 4 0.000000 0.000000 0.000000 0.550370 0.000000 -0.030716
# 5 -0.001879 0.002461 0.000901 0.000000 0.031472 0.000000
# 6 0.000000 0.000000 0.000000 -0.030716 0.000000 0.033710
#
#
# Mechanical properties :
#
#
# Convention : Reuss Voigt Hill
#
# Bulk Modulus (GPa) = 51.13894 62.52783 56.83339
# Shear Modulus (GPa) = 7.18444 24.74988 15.96716
#
# Velocity S-wave (km/s) = 1.90311 3.53227 2.83714
# Velocity P-wave (km/s) = 5.53257 6.93956 6.27562
#
# Compressibility (1/GPa) = 0.01955457
#
# Stress axis : x y z
#
# Youngs Moduli (GPa) = 41.71847 83.67461 92.63364
#
# Poissons Ratio (x) = 0.40342 0.48116
# Poissons Ratio (y) = 0.20114 0.33028
# Poissons Ratio (z) = 0.21669 0.29834
#
# Static dielectric constant tensor:
#      x y z
#    x 1.775280 0.000000 -0.005750 
#    y 0.000000 1.708840 0.000000 
#    z -0.005750 0.000000 1.758880 
# 
# From -- ./inp_files/124466.got.cif
#   From: 2010.05.17/outbox.cif.g08.bks.cpg/sg12_63_cif.got.tgz:124466.got - 2010.06.03 13:09:07.
