data_PCOD9197627
_publ_section_title
;
Structure prediction by ZEFSAII (Michael W. Deem and Ramdas Pophale) SiO2 
 PCOD9197627
Probable space group: C 2/M
;
_chemical_formula_sum "Si O2"
_cell_formula_units_Z 40
_cell_length_a 8.225926
_cell_length_b 16.964776
_cell_length_c 24.233564
_cell_angle_alpha 90.000000
_cell_angle_beta 146.437048
_cell_angle_gamma 90.000000
_cell_volume 1869.647691
_symmetry_space_group_name_H-M "C 2/M"
_symmetry_group_IT_number 12
_symmetry_cell_setting 'monoclinic'
loop_
_space_group_symop_operation_xyz
x,y,z
-x,y,-z
-x,-y,-z
x,-y,z
1/2+x,1/2+y,z
1/2-x,1/2+y,-z
1/2-x,1/2-y,-z
1/2+x,1/2-y,z
loop_
_atom_site_type_symbol
_atom_site_label
_atom_site_fract_x
_atom_site_fract_y
_atom_site_fract_z
Si Si1 0.161657 0.744845 0.603730
Si Si2 0.344443 0.345504 0.298791
Si Si3 0.767600 0.915527 0.675506
Si Si4 0.675306 0.682067 0.103898
Si Si5 0.306483 0.639956 0.108032
O O1 0.391804 0.678492 0.375385
O O2 0.537029 0.587226 0.325497
O O3 0.000000 0.744299 0.500000
O O4 0.079132 0.664322 0.613915
O O5 0.489924 0.270377 0.307478
O O6 0.001274 0.353135 0.193520
O O7 0.000644 0.158466 0.109064
O O8 0.993397 0.903938 0.790250
O O9 0.616327 0.000000 0.637756
O O10 0.712855 0.776803 0.109570
O O11 0.500000 0.656811 0.000000
O O12 0.000000 0.602473 0.000000
#
# Coordination Sequence:
#
# PCOD9197627 Si02
#       5
#     8   8   8   8   8
#     4  10  21  37  63  86 110 149 197 238 279 334
#     4  10  20  35  61  86 114 147 191 237 280 333
#     4  10  23  38  56  84 120 150 187 234 290 341
#     4  11  19  33  57  89 115 144 192 240 280 328
#     4  11  20  32  57  84 116 152 188 234 282 338
#
# _framework density 21.394406
#
# number of rings (size 3 to 8) (size 9 to 14) (size 15 to 20)
#    1.200    0.400    2.000    6.600    0.000    0.800 
#    0.000    1.000    0.000    3.000    0.000    0.000 
#    0.000    0.000    0.000    0.000    0.000    0.000 
#
# Total GULP energy -111457.211381 kJ/mol
# GULP energy per Si atom -5572.860569 kJ/mol
# Density = 2.134571 g / cm^3
# Si number density = 21.394406 Si / 1000 Ang^3
#
#
#
# Elastic Constant Matrix: (Units=GPa)
#
#
# Indices 1 2 3 4 5 6 
#
# 1 99.2729 10.9876 22.8285 0.0015 -3.5239 0.0013
# 2 10.9876 51.2402 8.3344 0.0007 -18.6691 0.0012
# 3 22.8285 8.3344 100.7719 0.0003 -16.8064 0.0034
# 4 0.0015 0.0007 0.0003 -0.5846 0.0008 5.4981
# 5 -3.5239 -18.6691 -16.8064 0.0008 45.7759 0.0012
# 6 0.0013 0.0012 0.0034 5.4981 0.0012 5.4011
#
#
#
# Elastic Compliance Matrix: (Units=1/GPa)
#
#
# Indices 1 2 3 4 5 6 
#
# 1 0.010852 -0.002293 -0.002434 0.000002 -0.000994 -0.000002
# 2 -0.002293 0.023419 0.000156 -0.000003 0.009432 -0.000004
# 3 -0.002434 0.000156 0.011122 -0.000006 0.003960 -0.000001
# 4 0.000002 -0.000003 -0.000006 -0.161774 -0.000005 0.164680
# 5 -0.000994 0.009432 0.003960 -0.000005 0.027069 -0.000005
# 6 -0.000002 -0.000004 -0.000001 0.164680 -0.000005 0.017509
#
#
# Mechanical properties :
#
#
# Convention : Reuss Voigt Hill
#
# Bulk Modulus (GPa) = 27.58692 37.28734 32.43713
# Shear Modulus (GPa) = -98.86011 24.06079 -37.39966
#
# Velocity S-wave (km/s) = -6.80505 3.35719 -4.18557
# Velocity P-wave (km/s) = 6.98731 5.70035 2.85731
#
# Compressibility (1/GPa) = 0.03624906
#
# Stress axis : x y z
#
# Youngs Moduli (GPa) = 92.15272 42.70099 89.90898
#
# Poissons Ratio (x) = 0.09791 0.21887
# Poissons Ratio (y) = 0.21130 -0.01399
# Poissons Ratio (z) = 0.22433 -0.00664
#
# Static dielectric constant tensor:
#      x y z
#    x 1.800610 0.000000 0.010580 
#    y 0.000000 1.763630 0.000000 
#    z 0.010580 0.000000 1.810810 
# 
# From -- ./inp_files/333818.got.cif
#   From: 2010.05.17/outbox.cif.g08.bks.cpg/sg12_167_cif.got.tgz:333818.got - 2010.06.03 13:09:07.
