data_PCOD9197821
_publ_section_title
;
Structure prediction by ZEFSAII (Michael W. Deem and Ramdas Pophale) SiO2 
 PCOD9197821
Probable space group: C 2/M
;
_chemical_formula_sum "Si O2"
_cell_formula_units_Z 64
_cell_length_a 29.158423
_cell_length_b 14.843549
_cell_length_c 11.458577
_cell_angle_alpha 90.000000
_cell_angle_beta 138.558883
_cell_angle_gamma 90.000000
_cell_volume 3282.404050
_symmetry_space_group_name_H-M "C 2/M"
_symmetry_group_IT_number 12
_symmetry_cell_setting 'monoclinic'
loop_
_space_group_symop_operation_xyz
x,y,z
-x,y,-z
-x,-y,-z
x,-y,z
1/2+x,1/2+y,z
1/2-x,1/2+y,-z
1/2-x,1/2-y,-z
1/2+x,1/2-y,z
loop_
_atom_site_type_symbol
_atom_site_label
_atom_site_fract_x
_atom_site_fract_y
_atom_site_fract_z
Si Si1 0.652924 0.900851 0.018963
Si Si2 0.465047 0.606308 0.250661
Si Si3 0.753080 0.605090 0.286471
Si Si4 0.613566 0.723573 0.063746
Si Si5 0.895266 0.840650 0.349824
Si Si6 0.308858 0.401948 0.389097
Si Si7 0.825070 0.735981 0.582775
Si Si8 0.192736 0.324480 0.852099
O O1 0.611692 0.813959 0.982833
O O2 0.725846 0.896681 0.227855
O O3 0.622154 0.000000 0.978404
O O4 0.672920 0.886187 0.922668
O O5 0.469159 0.500000 0.239448
O O6 0.535482 0.640010 0.445072
O O7 0.407178 0.626082 0.240506
O O8 0.446648 0.659271 0.098269
O O9 0.739204 0.500000 0.281398
O O10 0.684132 0.665887 0.173542
O O11 0.812485 0.645090 0.485607
O O12 0.778579 0.622742 0.203854
O O13 0.619142 0.755679 0.208009
O O14 0.835996 0.892054 0.308876
O O15 0.873448 0.736725 0.306810
O O16 0.329926 0.500000 0.475513
O O17 0.336027 0.318317 0.514524
O O18 0.750000 0.750000 0.500000
O O19 0.250000 0.250000 0.000000
#
# Coordination Sequence:
#
# PCOD9197821 Si02
#       8
#     8   8   8   8   8   8   8   8
#     4  11  21  33  55  85 113 143 182 230 286 346
#     4  11  23  37  57  88 116 151 191 227 275 341
#     4  11  21  34  56  85 114 148 183 235 293 344
#     4  11  21  38  54  79 117 153 188 230 281 331
#     4  11  20  37  60  80 120 150 183 227 277 341
#     4  11  20  34  57  82 115 150 181 228 282 337
#     4  10  20  36  52  80 113 147 191 231 279 336
#     4  12  18  35  56  83 115 145 177 228 292 342
#
# _framework density 19.497903999999998
#
# number of rings (size 3 to 8) (size 9 to 14) (size 15 to 20)
#    0.000    1.000    7.500    2.250    0.000    3.000 
#    0.000    0.625    0.000    3.750    0.000    0.875 
#    0.000    0.000    0.000    0.000    0.000    0.000 
#
# Total GULP energy -178629.811569 kJ/mol
# GULP energy per Si atom -5582.181612 kJ/mol
# Density = 1.945353 g / cm^3
# Si number density = 19.497904 Si / 1000 Ang^3
#
#
#
# Elastic Constant Matrix: (Units=GPa)
#
#
# Indices 1 2 3 4 5 6 
#
# 1 19.4116 11.4423 -1.9954 0.0000 -11.2653 0.0000
# 2 11.4423 138.3975 28.5396 0.0000 -6.2901 0.0000
# 3 -1.9954 28.5396 70.7485 0.0000 -17.4857 0.0000
# 4 0.0000 0.0000 0.0000 10.5815 0.0000 1.0056
# 5 -11.2653 -6.2901 -17.4857 0.0000 25.4484 0.0000
# 6 0.0000 0.0000 0.0000 1.0056 0.0000 5.9016
#
#
#
# Elastic Compliance Matrix: (Units=1/GPa)
#
#
# Indices 1 2 3 4 5 6 
#
# 1 0.086618 -0.008653 0.017926 0.000000 0.048521 0.000000
# 2 -0.008653 0.008747 -0.005041 0.000000 -0.005132 0.000000
# 3 0.017926 -0.005041 0.022076 0.000000 0.021858 0.000000
# 4 0.000000 0.000000 0.000000 0.096060 0.000000 -0.016368
# 5 0.048521 -0.005132 0.021858 0.000000 0.074524 0.000000
# 6 0.000000 0.000000 0.000000 -0.016368 0.000000 0.172235
#
#
# Mechanical properties :
#
#
# Convention : Reuss Voigt Hill
#
# Bulk Modulus (GPa) = 7.94252 33.83672 20.88962
# Shear Modulus (GPa) = 10.12630 21.09105 15.60867
#
# Velocity S-wave (km/s) = 2.28140 3.29250 2.83243
# Velocity P-wave (km/s) = 3.31996 5.64321 4.62968
#
# Compressibility (1/GPa) = 0.12590466
#
# Stress axis : x y z
#
# Youngs Moduli (GPa) = 11.54501 114.32221 45.29845
#
# Poissons Ratio (x) = 0.98917 -0.81200
# Poissons Ratio (y) = 0.09989 0.22835
# Poissons Ratio (z) = -0.20695 0.57630
#
# Static dielectric constant tensor:
#      x y z
#    x 1.717000 0.000000 -0.003510 
#    y 0.000000 1.700670 0.000000 
#    z -0.003510 0.000000 1.721750 
# 
# From -- ./inp_files/189489.got.cif
#   From: 2010.05.17/outbox.cif.g08.bks.cpg/sg12_95_cif.got.tgz:189489.got - 2010.06.03 13:09:07.
