data_PCOD9197167
_publ_section_title
;
Structure prediction by ZEFSAII (Michael W. Deem and Ramdas Pophale) SiO2 
 PCOD9197167
Probable space group: C 2/M
;
_chemical_formula_sum "Si O2"
_cell_formula_units_Z 48
_cell_length_a 22.517634
_cell_length_b 11.313822
_cell_length_c 12.740756
_cell_angle_alpha 90.000000
_cell_angle_beta 130.493231
_cell_angle_gamma 90.000000
_cell_volume 2468.406194
_symmetry_space_group_name_H-M "C 2/M"
_symmetry_group_IT_number 12
_symmetry_cell_setting 'monoclinic'
loop_
_space_group_symop_operation_xyz
x,y,z
-x,y,-z
-x,-y,-z
x,-y,z
1/2+x,1/2+y,z
1/2-x,1/2+y,-z
1/2-x,1/2-y,-z
1/2+x,1/2-y,z
loop_
_atom_site_type_symbol
_atom_site_label
_atom_site_fract_x
_atom_site_fract_y
_atom_site_fract_z
Si Si1 0.262604 0.359593 0.095126
Si Si2 0.212257 0.130139 0.319248
Si Si3 0.083636 0.132754 0.600493
Si Si4 0.878929 0.704491 0.919014
Si Si5 0.644153 0.292615 0.455739
Si Si6 0.962701 0.363825 0.803570
O O1 0.266914 0.500000 0.064078
O O2 0.343864 0.326215 0.246416
O O3 0.190713 0.354709 0.095575
O O4 0.250000 0.250000 0.000000
O O5 0.154782 0.171338 0.160995
O O6 0.280445 0.225096 0.412387
O O7 0.167510 0.135539 0.379010
O O8 0.243802 0.000000 0.336939
O O9 0.111493 0.132142 0.512775
O O10 0.000000 0.197169 0.500000
O O11 0.069432 0.000000 0.624340
O O12 0.906046 0.641969 0.841236
O O13 0.957943 0.705445 0.077289
O O14 0.582712 0.195904 0.343666
O O15 0.982635 0.500000 0.807483
#
# Coordination Sequence:
#
# PCOD9197167 Si02
#       6
#     8   8   8   8   8   8
#     4  11  24  42  64  87 115 160 206 248 293 349
#     4  10  20  35  58  89 118 150 191 242 299 352
#     4  10  22  41  61  82 115 156 197 240 290 352
#     4  10  20  38  58  86 118 152 192 239 292 356
#     4  10  20  36  58  87 116 149 190 240 292 355
#     4  10  20  35  60  89 117 149 186 238 297 354
#
# _framework density 19.445747000000001
#
# number of rings (size 3 to 8) (size 9 to 14) (size 15 to 20)
#    0.000    1.833    1.667    3.000    2.333    0.667 
#    0.000    7.500    0.000    2.500    0.000    0.000 
#    0.000    0.000    0.000    0.000    0.000    0.000 
#
# Total GULP energy -133685.022223 kJ/mol
# GULP energy per Si atom -5570.209259 kJ/mol
# Density = 1.940149 g / cm^3
# Si number density = 19.445747 Si / 1000 Ang^3
#
#
#
# Elastic Constant Matrix: (Units=GPa)
#
#
# Indices 1 2 3 4 5 6 
#
# 1 70.5177 26.2671 46.1492 0.0000 20.5069 0.0000
# 2 26.2671 71.6774 28.7541 0.0000 -2.5988 0.0000
# 3 46.1492 28.7541 123.5700 0.0000 19.5639 0.0000
# 4 0.0000 0.0000 0.0000 12.4679 0.0000 1.6199
# 5 20.5069 -2.5988 19.5639 0.0000 24.9492 0.0000
# 6 0.0000 0.0000 0.0000 1.6199 0.0000 12.5802
#
#
#
# Elastic Compliance Matrix: (Units=1/GPa)
#
#
# Indices 1 2 3 4 5 6 
#
# 1 0.025628 -0.008120 -0.004810 0.000000 -0.018139 0.000000
# 2 -0.008120 0.018535 -0.003018 0.000000 0.010971 0.000000
# 3 -0.004810 -0.003018 0.011435 0.000000 -0.005327 0.000000
# 4 0.000000 0.000000 0.000000 0.081571 0.000000 -0.010503
# 5 -0.018139 0.010971 -0.005327 0.000000 0.060311 0.000000
# 6 0.000000 0.000000 0.000000 -0.010503 0.000000 0.080843
#
#
# Mechanical properties :
#
#
# Convention : Reuss Voigt Hill
#
# Bulk Modulus (GPa) = 42.18832 52.01175 47.10004
# Shear Modulus (GPa) = 15.71744 20.97244 18.34494
#
# Velocity S-wave (km/s) = 2.84610 3.28763 3.07480
# Velocity P-wave (km/s) = 5.70463 6.42001 6.07286
#
# Compressibility (1/GPa) = 0.02370324
#
# Stress axis : x y z
#
# Youngs Moduli (GPa) = 39.01957 53.95105 87.45460
#
# Poissons Ratio (x) = 0.43808 0.42065
# Poissons Ratio (y) = 0.31683 0.26390
# Poissons Ratio (z) = 0.18768 0.16280
#
# Static dielectric constant tensor:
#      x y z
#    x 1.698450 0.000000 0.021480 
#    y 0.000000 1.685390 0.000000 
#    z 0.021480 0.000000 1.681790 
# 
# From -- ./inp_files/165833.got.cif
#   From: 2010.05.17/outbox.cif.g08.bks.cpg/sg12_83_cif.got.tgz:165833.got - 2010.06.03 13:09:07.
