data_PCOD9197457
_publ_section_title
;
Structure prediction by ZEFSAII (Michael W. Deem and Ramdas Pophale) SiO2 
 PCOD9197457
Probable space group: C 2/M
;
_chemical_formula_sum "Si O2"
_cell_formula_units_Z 58
_cell_length_a 14.289177
_cell_length_b 17.776483
_cell_length_c 11.727048
_cell_angle_alpha 90.000000
_cell_angle_beta 105.714368
_cell_angle_gamma 90.000000
_cell_volume 2867.466690
_symmetry_space_group_name_H-M "C 2/M"
_symmetry_group_IT_number 12
_symmetry_cell_setting 'monoclinic'
loop_
_space_group_symop_operation_xyz
x,y,z
-x,y,-z
-x,-y,-z
x,-y,z
1/2+x,1/2+y,z
1/2-x,1/2+y,-z
1/2-x,1/2-y,-z
1/2+x,1/2-y,z
loop_
_atom_site_type_symbol
_atom_site_label
_atom_site_fract_x
_atom_site_fract_y
_atom_site_fract_z
Si Si1 0.381920 0.666184 0.761657
Si Si2 0.728292 0.087383 0.131403
Si Si3 0.726654 0.835994 0.528091
Si Si4 0.258184 0.823500 0.082762
Si Si5 0.432454 0.367174 0.302439
Si Si6 0.000000 0.000000 0.500000
Si Si7 0.920707 0.695055 0.328979
Si Si8 0.885310 0.654178 0.716782
O O1 0.313687 0.634591 0.636038
O O2 0.335228 0.656154 0.870425
O O3 0.488323 0.633872 0.774013
O O4 0.378367 0.756554 0.741673
O O5 0.824125 0.126363 0.216642
O O6 0.634615 0.112887 0.172429
O O7 0.743156 0.000000 0.148282
O O8 0.718340 0.110939 0.997473
O O9 0.750000 0.750000 0.500000
O O10 0.631844 0.835511 0.576493
O O11 0.698271 0.872754 0.399202
O O12 0.341869 0.808159 0.202077
O O13 0.250000 0.750000 0.000000
O O14 0.457379 0.433056 0.398896
O O15 0.444109 0.283029 0.358001
O O16 0.012658 0.649073 0.314044
#
# Coordination Sequence:
#
# PCOD9197457 Si02
#       8
#     8   8   8   8   8   2   8   8
#     4   9  20  35  61  89 118 163 214 272 309 375
#     4  12  25  43  61  90 131 175 216 270 338 402
#     4   9  17  31  58  92 123 151 194 267 329 367
#     4  11  20  42  64  88 123 166 228 281 317 381
#     4  11  23  39  58  95 130 174 208 256 332 405
#     4  12  28  36  60  94 156 176 202 254 348 444
#     4  10  21  37  65  94 123 157 222 279 315 373
#     4  10  20  35  59  93 117 160 211 266 325 369
#
# _framework density 20.226913
#
# number of rings (size 3 to 8) (size 9 to 14) (size 15 to 20)
#    0.000    1.655    3.448    2.069    7.724    1.103 
#    1.241    2.069    0.000    2.483    0.000    0.000 
#    0.000    0.000    0.000    0.000    0.000    0.000 
#
# Total GULP energy -161564.940627 kJ/mol
# GULP energy per Si atom -5571.204849 kJ/mol
# Density = 2.018088 g / cm^3
# Si number density = 20.226913 Si / 1000 Ang^3
#
#
#
# Elastic Constant Matrix: (Units=GPa)
#
#
# Indices 1 2 3 4 5 6 
#
# 1 90.1751 10.1930 25.4450 0.0000 -23.6534 0.0000
# 2 10.1930 24.7150 6.1335 0.0000 2.9625 0.0000
# 3 25.4450 6.1335 97.6476 0.0000 -19.0412 0.0000
# 4 0.0000 0.0000 0.0000 22.6263 0.0000 3.6871
# 5 -23.6534 2.9625 -19.0412 0.0000 20.9430 0.0000
# 6 0.0000 0.0000 0.0000 3.6871 0.0000 7.5380
#
#
#
# Elastic Compliance Matrix: (Units=1/GPa)
#
#
# Indices 1 2 3 4 5 6 
#
# 1 0.017888 -0.010051 0.000227 0.000000 0.021831 0.000000
# 2 -0.010051 0.048518 -0.004838 0.000000 -0.022613 0.000000
# 3 0.000227 -0.004838 0.012968 0.000000 0.012732 0.000000
# 4 0.000000 0.000000 0.000000 0.048024 0.000000 -0.023490
# 5 0.021831 -0.022613 0.012732 0.000000 0.087179 0.000000
# 6 0.000000 0.000000 0.000000 -0.023490 0.000000 0.144151
#
#
# Mechanical properties :
#
#
# Convention : Reuss Voigt Hill
#
# Bulk Modulus (GPa) = 19.97974 32.89785 26.43879
# Shear Modulus (GPa) = 12.35376 21.60587 16.97981
#
# Velocity S-wave (km/s) = 2.47403 3.27184 2.90050
# Velocity P-wave (km/s) = 4.24975 5.52928 4.93119
#
# Compressibility (1/GPa) = 0.05005070
#
# Stress axis : x y z
#
# Youngs Moduli (GPa) = 55.90355 20.61109 77.11142
#
# Poissons Ratio (x) = 0.20715 -0.01751
# Poissons Ratio (y) = 0.56186 0.37307
# Poissons Ratio (z) = -0.01270 0.09972
#
# Static dielectric constant tensor:
#      x y z
#    x 1.768170 0.000000 0.020360 
#    y 0.000000 1.682880 0.000000 
#    z 0.020360 0.000000 1.834520 
# 
# From -- ./inp_files/145628.got.cif
#   From: 2010.05.17/outbox.cif.g08.bks.cpg/sg12_73_cif.got.tgz:145628.got - 2010.06.03 13:09:07.
