data_PCOD9197969
_publ_section_title
;
Structure prediction by ZEFSAII (Michael W. Deem and Ramdas Pophale) SiO2 
 PCOD9197969
Probable space group: C 2/M
;
_chemical_formula_sum "Si O2"
_cell_formula_units_Z 44
_cell_length_a 10.045739
_cell_length_b 10.905647
_cell_length_c 17.933165
_cell_angle_alpha 90.000000
_cell_angle_beta 111.472618
_cell_angle_gamma 90.000000
_cell_volume 1828.310160
_symmetry_space_group_name_H-M "C 2/M"
_symmetry_group_IT_number 12
_symmetry_cell_setting 'monoclinic'
loop_
_space_group_symop_operation_xyz
x,y,z
-x,y,-z
-x,-y,-z
x,-y,z
1/2+x,1/2+y,z
1/2-x,1/2+y,-z
1/2-x,1/2-y,-z
1/2+x,1/2-y,z
loop_
_atom_site_type_symbol
_atom_site_label
_atom_site_fract_x
_atom_site_fract_y
_atom_site_fract_z
Si Si1 0.883891 0.730765 0.877023
Si Si2 0.757303 0.000000 0.324321
Si Si3 0.180144 0.000000 0.085474
Si Si4 0.956197 0.500000 0.247945
Si Si5 0.440563 0.752786 0.228098
Si Si6 0.022934 0.000000 0.758603
Si Si7 0.226187 0.500000 0.065790
Si Si8 0.168299 0.860256 0.523147
O O1 0.727698 0.723429 0.804510
O O2 0.014360 0.707931 0.846995
O O3 0.862127 0.622437 0.932048
O O4 0.895199 0.869690 0.911161
O O5 0.615321 0.000000 0.246311
O O6 0.890425 0.000000 0.299381
O O7 0.766849 0.115163 0.381440
O O8 0.317967 0.000000 0.168005
O O9 0.226501 0.000000 0.009633
O O10 0.956238 0.367729 0.286066
O O11 0.542567 0.634590 0.256934
O O12 0.130661 0.000000 0.852040
O O13 0.250000 0.750000 0.500000
O O14 0.000000 0.835211 0.500000
O O15 0.179505 0.000000 0.490567
#
# Coordination Sequence:
#
# PCOD9197969 Si02
#       8
#     8   4   4   4   8   4   4   8
#     4  10  20  36  55  79 108 151 209 265 324 378
#     4  10  21  41  67  93 136 174 205 265 324 387
#     4  10  21  36  56  83 117 155 218 272 309 379
#     4  10  20  36  56  87 122 157 209 254 314 370
#     4  10  20  37  58  80 116 159 202 265 317 383
#     4  10  21  37  58  83 121 165 211 256 329 378
#     4  10  20  38  56  78 115 167 203 263 329 376
#     4   9  21  43  73 106 143 178 220 265 328 396
#
# _framework density 24.065939
#
# number of rings (size 3 to 8) (size 9 to 14) (size 15 to 20)
#    0.545    1.636    0.000    3.818    0.000    1.818 
#    0.000   25.909    2.000    2.182    0.000    0.000 
#    0.000    0.000    0.000    0.000    0.000    0.000 
#
# Total GULP energy -122577.947441 kJ/mol
# GULP energy per Si atom -5571.724884 kJ/mol
# Density = 2.401116 g / cm^3
# Si number density = 24.065939 Si / 1000 Ang^3
#
#
#
# Elastic Constant Matrix: (Units=GPa)
#
#
# Indices 1 2 3 4 5 6 
#
# 1 92.5675 18.7827 21.0146 0.0000 4.6918 0.0000
# 2 18.7827 218.7850 11.5144 0.0000 -4.3883 0.0000
# 3 21.0146 11.5144 60.7545 0.0000 -0.6013 0.0000
# 4 0.0000 0.0000 0.0000 8.6990 0.0000 -60.2193
# 5 4.6918 -4.3883 -0.6013 0.0000 36.4915 0.0000
# 6 0.0000 0.0000 0.0000 -60.2193 0.0000 -126.9883
#
#
#
# Elastic Compliance Matrix: (Units=1/GPa)
#
#
# Indices 1 2 3 4 5 6 
#
# 1 0.011969 -0.000852 -0.003996 0.000000 -0.001707 0.000000
# 2 -0.000852 0.004688 -0.000587 0.000000 0.000664 0.000000
# 3 -0.003996 -0.000587 0.017960 0.000000 0.000739 0.000000
# 4 0.000000 0.000000 0.000000 0.026842 0.000000 -0.012729
# 5 -0.001707 0.000664 0.000739 0.000000 0.027715 0.000000
# 6 0.000000 0.000000 0.000000 -0.012729 0.000000 -0.001839
#
#
# Mechanical properties :
#
#
# Convention : Reuss Voigt Hill
#
# Bulk Modulus (GPa) = 42.10762 52.74780 47.42771
# Shear Modulus (GPa) = 47.11605 5.02680 26.07142
#
# Velocity S-wave (km/s) = 4.42949 1.44682 3.29497
# Velocity P-wave (km/s) = 6.61024 4.97561 5.85030
#
# Compressibility (1/GPa) = 0.02374867
#
# Stress axis : x y z
#
# Youngs Moduli (GPa) = 83.54696 213.30950 55.67808
#
# Poissons Ratio (x) = 0.18164 0.22247
# Poissons Ratio (y) = 0.07114 0.03270
# Poissons Ratio (z) = 0.33382 0.12529
#
# Static dielectric constant tensor:
#      x y z
#    x 1.896420 0.000000 0.049670 
#    y 0.000000 2.203250 0.000000 
#    z 0.049670 0.000000 1.939730 
# 
# From -- ./inp_files/299386.got.cif
#   From: 2010.05.17/outbox.cif.g08.bks.cpg/sg12_150_cif.got.tgz:299386.got - 2010.06.03 13:09:07.
