data_PCOD9197262
_publ_section_title
;
Structure prediction by ZEFSAII (Michael W. Deem and Ramdas Pophale) SiO2 
 PCOD9197262
Probable space group: C 2/M
;
_chemical_formula_sum "Si O2"
_cell_formula_units_Z 48
_cell_length_a 14.775310
_cell_length_b 21.937739
_cell_length_c 17.514791
_cell_angle_alpha 90.000000
_cell_angle_beta 153.320535
_cell_angle_gamma 90.000000
_cell_volume 2549.051380
_symmetry_space_group_name_H-M "C 2/M"
_symmetry_group_IT_number 12
_symmetry_cell_setting 'monoclinic'
loop_
_space_group_symop_operation_xyz
x,y,z
-x,y,-z
-x,-y,-z
x,-y,z
1/2+x,1/2+y,z
1/2-x,1/2+y,-z
1/2-x,1/2-y,-z
1/2+x,1/2-y,z
loop_
_atom_site_type_symbol
_atom_site_label
_atom_site_fract_x
_atom_site_fract_y
_atom_site_fract_z
Si Si1 0.118991 0.826058 0.518383
Si Si2 0.638870 0.257248 0.806997
Si Si3 0.551044 0.267935 0.173339
Si Si4 0.222011 0.621951 0.634617
Si Si5 0.835158 0.500000 0.208841
Si Si6 0.434426 0.872266 0.644180
Si Si7 0.403069 0.500000 0.810004
O O1 0.264822 0.775966 0.667181
O O2 0.270376 0.870636 0.587797
O O3 0.000000 0.854084 0.500000
O O4 0.974194 0.791762 0.347410
O O5 0.559433 0.281790 0.828892
O O6 0.584854 0.184907 0.768413
O O7 0.880613 0.260645 0.991258
O O8 0.652587 0.330106 0.220986
O O9 0.657098 0.439992 0.279811
O O10 0.184067 0.645988 0.521657
O O11 0.000000 0.611587 0.500000
O O12 0.739480 0.500000 0.221807
O O13 0.960002 0.437679 0.288755
O O14 0.636140 0.500000 0.006840
#
# Coordination Sequence:
#
# PCOD9197262 Si02
#       7
#     8   8   8   8   4   8   4
#     4  11  22  39  58  85 117 157 199 241 281 339
#     4  10  20  37  58  86 115 155 193 232 291 345
#     4  10  20  35  59  84 120 151 190 238 290 342
#     4  12  20  35  55  85 118 153 187 231 288 353
#     4  11  23  40  56  83 118 148 191 241 288 356
#     4  11  21  39  59  81 117 154 191 237 291 344
#     4  11  24  35  56  90 114 148 193 228 296 367
#
# _framework density 18.830534
#
# number of rings (size 3 to 8) (size 9 to 14) (size 15 to 20)
#    0.000    1.167    5.000    3.250    0.000    0.667 
#    0.000    0.417    0.000    0.000    0.000    1.167 
#    0.000    0.000    0.000    0.000    0.000    0.000 
#
# Total GULP energy -133952.299743 kJ/mol
# GULP energy per Si atom -5581.345823 kJ/mol
# Density = 1.878768 g / cm^3
# Si number density = 18.830534 Si / 1000 Ang^3
#
#
#
# Elastic Constant Matrix: (Units=GPa)
#
#
# Indices 1 2 3 4 5 6 
#
# 1 69.3660 -10.7945 12.6423 -0.0023 1.5175 0.0006
# 2 -10.7945 53.1763 27.3825 0.0006 5.9325 0.0004
# 3 12.6423 27.3825 124.2779 -0.0117 6.4222 0.0001
# 4 -0.0023 0.0006 -0.0117 23.5452 -0.0028 2.7373
# 5 1.5175 5.9325 6.4222 -0.0028 13.4087 0.0007
# 6 0.0006 0.0004 0.0001 2.7373 0.0007 15.7909
#
#
#
# Elastic Compliance Matrix: (Units=1/GPa)
#
#
# Indices 1 2 3 4 5 6 
#
# 1 0.015675 0.004773 -0.002507 0.000000 -0.002685 -0.000001
# 2 0.004773 0.023391 -0.005206 -0.000004 -0.008396 0.000000
# 3 -0.002507 -0.005206 0.009551 0.000004 -0.001988 -0.000001
# 4 0.000000 -0.000004 0.000004 0.043345 0.000009 -0.007514
# 5 -0.002685 -0.008396 -0.001988 0.000009 0.079549 -0.000005
# 6 -0.000001 0.000000 -0.000001 -0.007514 -0.000005 0.064630
#
#
# Mechanical properties :
#
#
# Convention : Reuss Voigt Hill
#
# Bulk Modulus (GPa) = 23.39916 33.92010 28.65963
# Shear Modulus (GPa) = 19.51084 25.05494 22.28289
#
# Velocity S-wave (km/s) = 3.22239 3.65163 3.44370
# Velocity P-wave (km/s) = 5.12818 5.98595 5.57359
#
# Compressibility (1/GPa) = 0.04273658
#
# Stress axis : x y z
#
# Youngs Moduli (GPa) = 63.79714 42.75084 104.69872
#
# Poissons Ratio (x) = -0.20403 0.26252
# Poissons Ratio (y) = -0.30447 0.54501
# Poissons Ratio (z) = 0.15996 0.22254
#
# Static dielectric constant tensor:
#      x y z
#    x 1.701630 0.000000 0.001560 
#    y 0.000000 1.621280 0.000000 
#    z 0.001560 0.000000 1.691570 
# 
# From -- ./inp_files/61779.got.cif
#   From: 2010.05.17/outbox.cif.g08.bks.cpg/sg12_31_cif.got.tgz:61779.got - 2010.06.03 13:09:07.
