data_PCOD9197967
_publ_section_title
;
Structure prediction by ZEFSAII (Michael W. Deem and Ramdas Pophale) SiO2 
 PCOD9197967
Probable space group: C 2/M
;
_chemical_formula_sum "Si O2"
_cell_formula_units_Z 58
_cell_length_a 8.888918
_cell_length_b 21.886245
_cell_length_c 17.285759
_cell_angle_alpha 90.000000
_cell_angle_beta 58.114625
_cell_angle_gamma 90.000000
_cell_volume 2855.425274
_symmetry_space_group_name_H-M "C 2/M"
_symmetry_group_IT_number 12
_symmetry_cell_setting 'monoclinic'
loop_
_space_group_symop_operation_xyz
x,y,z
-x,y,-z
-x,-y,-z
x,-y,z
1/2+x,1/2+y,z
1/2-x,1/2+y,-z
1/2-x,1/2-y,-z
1/2+x,1/2-y,z
loop_
_atom_site_type_symbol
_atom_site_label
_atom_site_fract_x
_atom_site_fract_y
_atom_site_fract_z
Si Si1 0.839046 0.684022 0.983388
Si Si2 0.191814 0.899089 0.551458
Si Si3 0.768983 0.929600 0.289607
Si Si4 0.057095 0.776628 0.569319
Si Si5 0.431977 0.665923 0.824051
Si Si6 0.116458 0.703053 0.791553
Si Si7 0.500000 0.500000 0.500000
Si Si8 0.540029 0.843933 0.648316
O O1 0.941084 0.670122 0.876112
O O2 0.750000 0.750000 0.000000
O O3 0.682051 0.647933 0.068143
O O4 0.000000 0.687917 0.000000
O O5 0.274075 0.926067 0.606801
O O6 0.084796 0.838521 0.607528
O O7 0.067607 0.946932 0.542616
O O8 0.335025 0.875914 0.449504
O O9 0.613154 0.891673 0.291054
O O10 0.949848 0.892281 0.228695
O O11 0.778682 0.000000 0.263473
O O12 0.250000 0.750000 0.500000
O O13 0.000000 0.794903 0.500000
O O14 0.959785 0.718843 0.633170
O O15 0.283891 0.687887 0.801039
O O16 0.558232 0.725376 0.804810
O O17 0.141633 0.678339 0.697642
#
# Coordination Sequence:
#
# PCOD9197967 Si02
#       8
#     8   8   8   8   8   8   2   8
#     4   8  16  33  58  91 122 152 183 235 304 370
#     4  11  24  39  61  81 118 156 203 246 303 358
#     4  12  26  42  59  82 118 168 212 248 301 361
#     4  10  20  36  55  79 107 144 188 240 293 335
#     4  10  21  38  62  92 126 154 195 246 304 369
#     4  10  20  36  65  96 123 151 192 248 314 365
#     4  12  24  40  58  88 116 158 208 244 300 376
#     4  11  24  39  59  85 118 156 205 256 300 350
#
# _framework density 20.312211999999999
#
# number of rings (size 3 to 8) (size 9 to 14) (size 15 to 20)
#    0.000    1.655    1.379    3.724    2.897    4.966 
#    0.000    0.690    0.000    5.379    0.000    0.000 
#    0.000    0.000    0.000    0.000    0.000    0.000 
#
# Total GULP energy -161509.696416 kJ/mol
# GULP energy per Si atom -5569.299876 kJ/mol
# Density = 2.026598 g / cm^3
# Si number density = 20.312212 Si / 1000 Ang^3
#
#
#
# Elastic Constant Matrix: (Units=GPa)
#
#
# Indices 1 2 3 4 5 6 
#
# 1 42.5413 33.0395 2.0458 0.0000 -13.1183 0.0000
# 2 33.0395 148.4544 23.2802 0.0000 -14.6051 0.0000
# 3 2.0458 23.2802 104.0877 0.0000 -22.9606 0.0000
# 4 0.0000 0.0000 0.0000 15.4216 0.0000 6.1600
# 5 -13.1183 -14.6051 -22.9606 0.0000 31.3447 0.0000
# 6 0.0000 0.0000 0.0000 6.1600 0.0000 11.6393
#
#
#
# Elastic Compliance Matrix: (Units=1/GPa)
#
#
# Indices 1 2 3 4 5 6 
#
# 1 0.032487 -0.006509 0.003754 0.000000 0.013313 0.000000
# 2 -0.006509 0.008455 -0.001783 0.000000 -0.000091 0.000000
# 3 0.003754 -0.001783 0.012041 0.000000 0.009561 0.000000
# 4 0.000000 0.000000 0.000000 0.082227 0.000000 -0.043518
# 5 0.013313 -0.000091 0.009561 0.000000 0.044436 0.000000
# 6 0.000000 0.000000 0.000000 -0.043518 0.000000 0.108947
#
#
# Mechanical properties :
#
#
# Convention : Reuss Voigt Hill
#
# Bulk Modulus (GPa) = 22.77539 45.75717 34.26628
# Shear Modulus (GPa) = 16.00994 27.46230 21.73612
#
# Velocity S-wave (km/s) = 2.81052 3.68096 3.27479
# Velocity P-wave (km/s) = 4.66573 6.37509 5.58618
#
# Compressibility (1/GPa) = 0.04390704
#
# Stress axis : x y z
#
# Youngs Moduli (GPa) = 30.78187 118.26709 83.04741
#
# Poissons Ratio (x) = 0.76981 -0.31176
# Poissons Ratio (y) = 0.20036 0.14809
# Poissons Ratio (z) = -0.11556 0.21089
#
# Static dielectric constant tensor:
#      x y z
#    x 1.729110 0.000000 -0.052050 
#    y 0.000000 1.699970 0.000000 
#    z -0.052050 0.000000 1.810290 
# 
# From -- ./inp_files/258495.got.cif
#   From: 2010.05.17/outbox.cif.g08.bks.cpg/sg12_130_cif.got.tgz:258495.got - 2010.06.03 13:09:07.
