data_PCOD9197567
_publ_section_title
;
Structure prediction by ZEFSAII (Michael W. Deem and Ramdas Pophale) SiO2 
 PCOD9197567
Probable space group: C 2/M
;
_chemical_formula_sum "Si O2"
_cell_formula_units_Z 48
_cell_length_a 22.835043
_cell_length_b 7.523084
_cell_length_c 12.351317
_cell_angle_alpha 90.000000
_cell_angle_beta 79.804544
_cell_angle_gamma 90.000000
_cell_volume 2088.327615
_symmetry_space_group_name_H-M "C 2/M"
_symmetry_group_IT_number 12
_symmetry_cell_setting 'monoclinic'
loop_
_space_group_symop_operation_xyz
x,y,z
-x,y,-z
-x,-y,-z
x,-y,z
1/2+x,1/2+y,z
1/2-x,1/2+y,-z
1/2-x,1/2-y,-z
1/2+x,1/2-y,z
loop_
_atom_site_type_symbol
_atom_site_label
_atom_site_fract_x
_atom_site_fract_y
_atom_site_fract_z
Si Si1 0.184756 0.296581 0.067358
Si Si2 0.490155 0.283831 0.626962
Si Si3 0.818766 0.211622 0.471941
Si Si4 0.432485 0.202918 0.008171
Si Si5 0.599332 0.715928 0.742919
Si Si6 0.141027 0.214943 0.307130
O O1 0.177707 0.500000 0.038538
O O2 0.183584 0.276672 0.197439
O O3 0.250000 0.250000 0.000000
O O4 0.121875 0.212506 0.044803
O O5 0.500000 0.223958 0.500000
O O6 0.490533 0.500000 0.622552
O O7 0.542075 0.232831 0.690613
O O8 0.426506 0.228240 0.692690
O O9 0.750000 0.250000 0.500000
O O10 0.846424 0.276100 0.350634
O O11 0.845585 0.279444 0.575881
O O12 0.830344 0.000000 0.468336
O O13 0.405380 0.205079 0.137416
O O14 0.442845 0.000000 0.965714
O O15 0.500000 0.282022 0.000000
O O16 0.600507 0.500000 0.754551
O O17 0.143830 0.000000 0.307121
#
# Coordination Sequence:
#
# PCOD9197567 Si02
#       6
#     8   8   8   8   8   8
#     4  11  25  43  63  87 118 157 202 249 298 352
#     4   9  15  30  57  87 117 147 182 230 286 342
#     4  10  22  37  55  84 119 154 192 236 288 345
#     4  10  23  43  63  85 119 160 198 243 300 355
#     4  10  20  35  60  91 117 147 192 240 287 345
#     4  10  20  37  62  88 117 151 191 239 294 350
#
# _framework density 22.984901000000001
#
# number of rings (size 3 to 8) (size 9 to 14) (size 15 to 20)
#    0.000    2.000    1.667    1.500    2.333    3.000 
#    0.000    0.000    0.000    1.000    0.000    0.000 
#    0.000    0.000    0.000    0.000    0.000    0.000 
#
# Total GULP energy -133971.581456 kJ/mol
# GULP energy per Si atom -5582.149227 kJ/mol
# Density = 2.293259 g / cm^3
# Si number density = 22.984901 Si / 1000 Ang^3
#
#
#
# Elastic Constant Matrix: (Units=GPa)
#
#
# Indices 1 2 3 4 5 6 
#
# 1 91.1576 5.4268 20.4683 0.0000 -25.0884 0.0000
# 2 5.4268 58.1447 -8.2153 0.0000 -0.5750 0.0000
# 3 20.4683 -8.2153 134.8923 0.0000 -23.7462 0.0000
# 4 0.0000 0.0000 0.0000 17.1625 0.0000 -5.7997
# 5 -25.0884 -0.5750 -23.7462 0.0000 44.7407 0.0000
# 6 0.0000 0.0000 0.0000 -5.7997 0.0000 11.1410
#
#
#
# Elastic Compliance Matrix: (Units=1/GPa)
#
#
# Indices 1 2 3 4 5 6 
#
# 1 0.013136 -0.001279 -0.000857 0.000000 0.006895 0.000000
# 2 -0.001279 0.017503 0.001294 0.000000 0.000195 0.000000
# 3 -0.000857 0.001294 0.008318 0.000000 0.003950 0.000000
# 4 0.000000 0.000000 0.000000 0.070705 0.000000 0.036807
# 5 0.006895 0.000195 0.003950 0.000000 0.028316 0.000000
# 6 0.000000 0.000000 0.000000 0.036807 0.000000 0.108920
#
#
# Mechanical properties :
#
#
# Convention : Reuss Voigt Hill
#
# Bulk Modulus (GPa) = 26.82961 35.50602 31.16782
# Shear Modulus (GPa) = 19.15663 32.37648 25.76655
#
# Velocity S-wave (km/s) = 2.89008 3.75720 3.35180
# Velocity P-wave (km/s) = 4.77857 5.85689 5.34499
#
# Compressibility (1/GPa) = 0.03727225
#
# Stress axis : x y z
#
# Youngs Moduli (GPa) = 76.12540 57.13420 120.22576
#
# Poissons Ratio (x) = 0.07308 0.10309
# Poissons Ratio (y) = 0.09737 -0.15561
# Poissons Ratio (z) = 0.06527 -0.07395
#
# Static dielectric constant tensor:
#      x y z
#    x 1.904350 0.000000 0.017120 
#    y 0.000000 1.912310 0.000000 
#    z 0.017120 0.000000 1.841050 
# 
# From -- ./inp_files/172958.got.cif
#   From: 2010.05.17/outbox.cif.g08.bks.cpg/sg12_87_cif.got.tgz:172958.got - 2010.06.03 13:09:07.
