data_PCOD9197269
_publ_section_title
;
Structure prediction by ZEFSAII (Michael W. Deem and Ramdas Pophale) SiO2 
 PCOD9197269
Probable space group: C 2/M
;
_chemical_formula_sum "Si O2"
_cell_formula_units_Z 56
_cell_length_a 16.495695
_cell_length_b 9.032630
_cell_length_c 28.746413
_cell_angle_alpha 90.000000
_cell_angle_beta 135.498686
_cell_angle_gamma 90.000000
_cell_volume 3002.205630
_symmetry_space_group_name_H-M "C 2/M"
_symmetry_group_IT_number 12
_symmetry_cell_setting 'monoclinic'
loop_
_space_group_symop_operation_xyz
x,y,z
-x,y,-z
-x,-y,-z
x,-y,z
1/2+x,1/2+y,z
1/2-x,1/2+y,-z
1/2-x,1/2-y,-z
1/2+x,1/2-y,z
loop_
_atom_site_type_symbol
_atom_site_label
_atom_site_fract_x
_atom_site_fract_y
_atom_site_fract_z
Si Si1 0.471520 0.675913 0.806989
Si Si2 0.380913 0.332672 0.930460
Si Si3 0.201343 0.675375 0.192759
Si Si4 0.897780 0.823033 0.345722
Si Si5 0.160740 0.179475 0.427476
Si Si6 0.804363 0.664477 0.065406
Si Si7 0.219232 0.178494 0.344918
O O1 0.485490 0.500000 0.813289
O O2 0.390057 0.732219 0.814892
O O3 0.592405 0.752634 0.866243
O O4 0.399305 0.716588 0.731196
O O5 0.404624 0.500000 0.921257
O O6 0.317246 0.232947 0.866570
O O7 0.297135 0.347841 0.939312
O O8 0.500000 0.270579 0.000000
O O9 0.179402 0.500000 0.186834
O O10 0.323653 0.703292 0.268231
O O11 0.826267 0.748441 0.359241
O O12 0.029852 0.776445 0.389246
O O13 0.897683 0.000000 0.354271
O O14 0.250000 0.250000 0.500000
O O15 0.199508 0.221827 0.390663
O O16 0.164458 0.000000 0.430803
O O17 0.843643 0.500000 0.067092
O O18 0.750000 0.750000 0.000000
O O19 0.233004 0.000000 0.348651
#
# Coordination Sequence:
#
# PCOD9197269 Si02
#       7
#     8   8   8   8   8   8   8
#     4  10  20  36  59  82 111 149 187 235 291 345
#     4  10  22  38  54  76 110 148 185 231 287 339
#     4  10  20  35  59  85 110 143 188 238 286 345
#     4   9  20  38  60  86 120 154 192 244 298 348
#     4  10  22  40  60  87 121 158 197 243 296 355
#     4  11  23  37  55  81 112 148 190 237 286 342
#     4   9  20  38  61  86 117 156 199 241 292 355
#
# _framework density 18.652953
#
# number of rings (size 3 to 8) (size 9 to 14) (size 15 to 20)
#    0.000    2.143    0.000    2.143    2.000    5.429 
#    0.000    2.857    0.000    0.000    0.000    0.000 
#    0.000    0.000    0.000    0.000    0.000    0.000 
#
# Total GULP energy -156116.448381 kJ/mol
# GULP energy per Si atom -5575.587442 kJ/mol
# Density = 1.861050 g / cm^3
# Si number density = 18.652953 Si / 1000 Ang^3
#
#
#
# Elastic Constant Matrix: (Units=GPa)
#
#
# Indices 1 2 3 4 5 6 
#
# 1 108.3109 36.1670 100.7799 0.0000 5.6368 0.0000
# 2 36.1670 52.9390 54.3143 0.0000 -1.4213 0.0000
# 3 100.7799 54.3143 142.6671 0.0000 -1.2900 0.0000
# 4 0.0000 0.0000 0.0000 41.6126 0.0000 -0.3825
# 5 5.6368 -1.4213 -1.2900 0.0000 40.5905 0.0000
# 6 0.0000 0.0000 0.0000 -0.3825 0.0000 29.3281
#
#
#
# Elastic Compliance Matrix: (Units=1/GPa)
#
#
# Indices 1 2 3 4 5 6 
#
# 1 0.027830 0.001770 -0.020373 0.000000 -0.004450 0.000000
# 2 0.001770 0.031130 -0.013098 0.000000 0.000428 0.000000
# 3 -0.020373 -0.013098 0.026416 0.000000 0.003210 0.000000
# 4 0.000000 0.000000 0.000000 0.024034 0.000000 0.000313
# 5 -0.004450 0.000428 0.003210 0.000000 0.025371 0.000000
# 6 0.000000 0.000000 0.000000 0.000313 0.000000 0.034101
#
#
# Mechanical properties :
#
#
# Convention : Reuss Voigt Hill
#
# Bulk Modulus (GPa) = 45.50767 76.27105 60.88936
# Shear Modulus (GPa) = 20.86734 29.81661 25.34197
#
# Velocity S-wave (km/s) = 3.34835 4.00245 3.68992
# Velocity P-wave (km/s) = 6.27683 7.89543 7.13219
#
# Compressibility (1/GPa) = 0.02197432
#
# Stress axis : x y z
#
# Youngs Moduli (GPa) = 35.93292 32.12326 37.85549
#
# Poissons Ratio (x) = -0.05686 0.77123
# Poissons Ratio (y) = -0.06360 0.49583
# Poissons Ratio (z) = 0.73206 0.42075
#
# Static dielectric constant tensor:
#      x y z
#    x 1.613390 0.000000 0.000150 
#    y 0.000000 1.679810 0.000000 
#    z 0.000150 0.000000 1.679340 
# 
# From -- ./inp_files/363147.got.cif
#   From: 2010.05.17/outbox.cif.g08.bks.cpg/sg12_182_cif.got.tgz:363147.got - 2010.06.03 13:09:07.
