data_PCOD9197628
_publ_section_title
;
Structure prediction by ZEFSAII (Michael W. Deem and Ramdas Pophale) SiO2 
 PCOD9197628
Probable space group: C 2/M
;
_chemical_formula_sum "Si O2"
_cell_formula_units_Z 64
_cell_length_a 17.456511
_cell_length_b 17.985171
_cell_length_c 14.607119
_cell_angle_alpha 90.000000
_cell_angle_beta 135.432912
_cell_angle_gamma 90.000000
_cell_volume 3218.216461
_symmetry_space_group_name_H-M "C 2/M"
_symmetry_group_IT_number 12
_symmetry_cell_setting 'monoclinic'
loop_
_space_group_symop_operation_xyz
x,y,z
-x,y,-z
-x,-y,-z
x,-y,z
1/2+x,1/2+y,z
1/2-x,1/2+y,-z
1/2-x,1/2-y,-z
1/2+x,1/2-y,z
loop_
_atom_site_type_symbol
_atom_site_label
_atom_site_fract_x
_atom_site_fract_y
_atom_site_fract_z
Si Si1 0.231639 0.583409 0.008777
Si Si2 0.565098 0.192615 0.809061
Si Si3 0.395055 0.728840 0.965255
Si Si4 0.763029 0.357506 0.789678
Si Si5 0.128128 0.911561 0.394622
Si Si6 0.546394 0.585465 0.898317
Si Si7 0.027931 0.188533 0.620568
Si Si8 0.857754 0.588294 0.676112
O O1 0.199213 0.500000 0.958917
O O2 0.197502 0.601721 0.083857
O O3 0.361272 0.589361 0.103032
O O4 0.170297 0.640129 0.890574
O O5 0.550586 0.247943 0.713366
O O6 0.460195 0.140502 0.738701
O O7 0.591633 0.242593 0.920162
O O8 0.295540 0.770792 0.832503
O O9 0.500000 0.757420 0.000000
O O10 0.407686 0.640504 0.985436
O O11 0.633245 0.361254 0.686648
O O12 0.813081 0.389627 0.739421
O O13 0.256945 0.899113 0.519481
O O14 0.068451 0.892285 0.247180
O O15 0.066194 0.863115 0.417753
O O16 0.108770 0.000000 0.391298
O O17 0.540024 0.500000 0.922890
O O18 0.000000 0.224536 0.500000
O O19 0.884486 0.500000 0.698222
#
# Coordination Sequence:
#
# PCOD9197628 Si02
#       8
#     8   8   8   8   8   8   8   8
#     4  10  20  35  61  86 115 154 192 243 296 348
#     4  11  23  40  58  87 122 160 197 243 292 360
#     4  11  21  37  57  85 120 156 193 241 297 350
#     4  11  21  35  57  94 121 151 193 247 300 360
#     4  10  21  37  59  87 117 152 195 243 299 353
#     4  10  20  37  59  85 114 154 200 242 293 349
#     4  12  23  39  61  89 118 157 203 245 299 352
#     4  11  23  39  60  88 125 160 193 243 304 362
#
# _framework density 19.886792
#
# number of rings (size 3 to 8) (size 9 to 14) (size 15 to 20)
#    0.000    1.250    5.000    1.500    0.000    3.500 
#    2.250    1.875    0.000    1.500    0.000    0.000 
#    0.000    0.000    0.000    0.000    0.000    0.000 
#
# Total GULP energy -178565.784434 kJ/mol
# GULP energy per Si atom -5580.180764 kJ/mol
# Density = 1.984153 g / cm^3
# Si number density = 19.886792 Si / 1000 Ang^3
#
#
#
# Elastic Constant Matrix: (Units=GPa)
#
#
# Indices 1 2 3 4 5 6 
#
# 1 38.0369 -7.1782 -6.5697 0.0000 4.8884 0.0000
# 2 -7.1782 68.2230 9.2079 0.0000 3.2455 0.0000
# 3 -6.5697 9.2079 44.7726 0.0000 7.0953 0.0000
# 4 0.0000 0.0000 0.0000 32.4042 0.0000 1.5675
# 5 4.8884 3.2455 7.0953 0.0000 29.2802 0.0000
# 6 0.0000 0.0000 0.0000 1.5675 0.0000 20.2369
#
#
#
# Elastic Compliance Matrix: (Units=1/GPa)
#
#
# Indices 1 2 3 4 5 6 
#
# 1 0.028374 0.002658 0.004591 0.000000 -0.006144 0.000000
# 2 0.002658 0.015351 -0.002524 0.000000 -0.001534 0.000000
# 3 0.004591 -0.002524 0.024548 0.000000 -0.006435 0.000000
# 4 0.000000 0.000000 0.000000 0.030976 0.000000 -0.002399
# 5 -0.006144 -0.001534 -0.006435 0.000000 0.036908 0.000000
# 6 0.000000 0.000000 0.000000 -0.002399 0.000000 0.049601
#
#
# Mechanical properties :
#
#
# Convention : Reuss Voigt Hill
#
# Bulk Modulus (GPa) = 12.86629 15.77249 14.31939
# Shear Modulus (GPa) = 24.72606 26.75576 25.74091
#
# Velocity S-wave (km/s) = 3.52993 3.67195 3.60164
# Velocity P-wave (km/s) = 4.80600 5.09176 4.95094
#
# Compressibility (1/GPa) = 0.07772248
#
# Stress axis : x y z
#
# Youngs Moduli (GPa) = 35.24307 65.14183 40.73727
#
# Poissons Ratio (x) = -0.17316 -0.18700
# Poissons Ratio (y) = -0.09368 0.10282
# Poissons Ratio (z) = -0.16178 0.16442
#
# Static dielectric constant tensor:
#      x y z
#    x 1.705570 0.000000 0.006640 
#    y 0.000000 1.714960 0.000000 
#    z 0.006640 0.000000 1.746560 
# 
# From -- ./inp_files/168766.got.cif
#   From: 2010.05.17/outbox.cif.g08.bks.cpg/sg12_85_cif.got.tgz:168766.got - 2010.06.03 13:09:07.
