data_PCOD9197901
_publ_section_title
;
Structure prediction by ZEFSAII (Michael W. Deem and Ramdas Pophale) SiO2 
 PCOD9197901
Probable space group: C 2/M
;
_chemical_formula_sum "Si O2"
_cell_formula_units_Z 60
_cell_length_a 11.370059
_cell_length_b 30.186934
_cell_length_c 9.722074
_cell_angle_alpha 90.000000
_cell_angle_beta 62.797313
_cell_angle_gamma 90.000000
_cell_volume 2967.804563
_symmetry_space_group_name_H-M "C 2/M"
_symmetry_group_IT_number 12
_symmetry_cell_setting 'monoclinic'
loop_
_space_group_symop_operation_xyz
x,y,z
-x,y,-z
-x,-y,-z
x,-y,z
1/2+x,1/2+y,z
1/2-x,1/2+y,-z
1/2-x,1/2-y,-z
1/2+x,1/2-y,z
loop_
_atom_site_type_symbol
_atom_site_label
_atom_site_fract_x
_atom_site_fract_y
_atom_site_fract_z
Si Si1 0.500000 0.759503 0.500000
Si Si2 0.196965 0.639303 0.125502
Si Si3 0.706533 0.641609 0.622110
Si Si4 0.707506 0.048927 0.468000
Si Si5 0.028741 0.721477 0.175570
Si Si6 0.242175 0.195809 0.338421
Si Si7 0.583315 0.323009 0.158112
Si Si8 0.932658 0.450418 0.757222
O O1 0.479386 0.782261 0.654915
O O2 0.633976 0.731246 0.446618
O O3 0.206187 0.644560 0.286288
O O4 0.116415 0.678904 0.094868
O O5 0.131444 0.591575 0.132617
O O6 0.345531 0.646425 0.991378
O O7 0.694193 0.589999 0.589226
O O8 0.768702 0.665223 0.455946
O O9 0.566422 0.663667 0.730613
O O10 0.639457 0.047876 0.353322
O O11 0.587033 0.057087 0.638840
O O12 0.763342 0.000000 0.464276
O O13 0.084094 0.770646 0.116250
O O14 0.877118 0.717129 0.210210
O O15 0.165868 0.172177 0.254982
O O16 0.917798 0.500000 0.826423
#
# Coordination Sequence:
#
# PCOD9197901 Si02
#       8
#     4   8   8   8   8   8   8   8
#     4  10  20  36  54  86 106 140 192 246 276 318
#     4  11  23  37  55  88 115 148 188 230 283 338
#     4  11  20  37  60  81 113 149 190 237 280 332
#     4   8  15  29  56  89 113 136 179 239 289 327
#     4  11  22  35  58  80 111 149 195 236 276 330
#     4  11  21  39  58  78 105 153 192 233 282 324
#     4  11  25  39  52  77 119 158 188 230 275 337
#     4   8  15  32  56  85 115 139 175 235 291 330
#
# _framework density 20.216964999999998
#
# number of rings (size 3 to 8) (size 9 to 14) (size 15 to 20)
#    0.000    1.867    2.667    3.600    3.733    2.667 
#    2.400    0.667    0.000    5.600    0.000    2.800 
#    0.000    0.000    0.000    0.000    0.000    0.000 
#
# Total GULP energy -167381.695158 kJ/mol
# GULP energy per Si atom -5579.389839 kJ/mol
# Density = 2.017095 g / cm^3
# Si number density = 20.216965 Si / 1000 Ang^3
#
#
#
# Elastic Constant Matrix: (Units=GPa)
#
#
# Indices 1 2 3 4 5 6 
#
# 1 31.2906 38.3252 4.6787 0.0000 -13.3130 0.0000
# 2 38.3252 148.8658 39.8551 0.0000 -14.4125 0.0000
# 3 4.6787 39.8551 43.6886 0.0000 8.4569 0.0000
# 4 0.0000 0.0000 0.0000 20.2693 0.0000 3.7835
# 5 -13.3130 -14.4125 8.4569 0.0000 19.5303 0.0000
# 6 0.0000 0.0000 0.0000 3.7835 0.0000 1.1901
#
#
#
# Elastic Compliance Matrix: (Units=1/GPa)
#
#
# Indices 1 2 3 4 5 6 
#
# 1 0.061336 -0.011867 -0.002337 0.000000 0.034065 0.000000
# 2 -0.011867 0.014041 -0.013074 0.000000 0.007933 0.000000
# 3 -0.002337 -0.013074 0.040649 0.000000 -0.028842 0.000000
# 4 0.000000 0.000000 0.000000 0.121343 0.000000 -0.385762
# 5 0.034065 0.007933 -0.028842 0.000000 0.092766 0.000000
# 6 0.000000 0.000000 0.000000 -0.385762 0.000000 2.066620
#
#
# Mechanical properties :
#
#
# Convention : Reuss Voigt Hill
#
# Bulk Modulus (GPa) = 16.26779 43.28476 29.77627
# Shear Modulus (GPa) = 2.02282 17.59701 9.80991
#
# Velocity S-wave (km/s) = 1.00136 2.95347 2.20519
# Velocity P-wave (km/s) = 3.06611 5.75215 4.60914
#
# Compressibility (1/GPa) = 0.06147117
#
# Stress axis : x y z
#
# Youngs Moduli (GPa) = 16.30353 71.22078 24.60088
#
# Poissons Ratio (x) = 0.84520 0.05748
# Poissons Ratio (y) = 0.19348 0.32162
# Poissons Ratio (z) = 0.03810 0.93111
#
# Static dielectric constant tensor:
#      x y z
#    x 1.739020 0.000000 0.040650 
#    y 0.000000 1.750840 0.000000 
#    z 0.040650 0.000000 1.843440 
# 
# From -- ./inp_files/136978.got.cif
#   From: 2010.05.17/outbox.cif.g08.bks.cpg/sg12_69_cif.got.tgz:136978.got - 2010.06.03 13:09:07.
