data_PCOD9197175
_publ_section_title
;
Structure prediction by ZEFSAII (Michael W. Deem and Ramdas Pophale) SiO2 
 PCOD9197175
Probable space group: C 2/M
;
_chemical_formula_sum "Si O2"
_cell_formula_units_Z 64
_cell_length_a 25.637071
_cell_length_b 9.027349
_cell_length_c 15.040980
_cell_angle_alpha 90.000000
_cell_angle_beta 69.574787
_cell_angle_gamma 90.000000
_cell_volume 3262.149971
_symmetry_space_group_name_H-M "C 2/M"
_symmetry_group_IT_number 12
_symmetry_cell_setting 'monoclinic'
loop_
_space_group_symop_operation_xyz
x,y,z
-x,y,-z
-x,-y,-z
x,-y,z
1/2+x,1/2+y,z
1/2-x,1/2+y,-z
1/2-x,1/2-y,-z
1/2+x,1/2-y,z
loop_
_atom_site_type_symbol
_atom_site_label
_atom_site_fract_x
_atom_site_fract_y
_atom_site_fract_z
Si Si1 0.605942 0.677247 0.089860
Si Si2 0.595300 0.176734 0.585674
Si Si3 0.995059 0.322591 0.106345
Si Si4 0.016938 0.832492 0.385650
Si Si5 0.129614 0.676811 0.754964
Si Si6 0.186089 0.176847 0.882820
Si Si7 0.801843 0.822938 0.818812
Si Si8 0.128637 0.676241 0.365342
O O1 0.599428 0.500000 0.095203
O O2 0.545703 0.750639 0.129934
O O3 0.649461 0.718080 0.140885
O O4 0.636235 0.719334 0.979397
O O5 0.536579 0.260829 0.628330
O O6 0.633077 0.210769 0.648267
O O7 0.622046 0.211338 0.474060
O O8 0.583759 0.000000 0.593750
O O9 0.001271 0.500000 0.106409
O O10 0.933842 0.286766 0.178640
O O11 0.000000 0.275944 0.000000
O O12 0.071885 0.733051 0.352360
O O13 0.000000 0.839940 0.500000
O O14 0.028660 0.000000 0.347514
O O15 0.137612 0.500000 0.763143
O O16 0.170417 0.764747 0.794771
O O17 0.243421 0.250808 0.879146
O O18 0.191619 0.000000 0.881180
O O19 0.821313 0.760094 0.712278
O O20 0.797021 0.000000 0.820020
O O21 0.134129 0.500000 0.352183
#
# Coordination Sequence:
#
# PCOD9197175 Si02
#       8
#     8   8   8   8   8   8   8   8
#     4  10  23  40  60  87 119 151 189 236 291 348
#     4   9  19  35  56  82 115 155 196 236 285 341
#     4  10  20  35  58  89 121 154 191 232 284 344
#     4   9  17  30  50  77 111 149 187 231 284 338
#     4  10  21  38  59  86 120 157 195 235 285 344
#     4  11  23  41  62  86 114 151 194 239 290 346
#     4  11  24  41  61  86 115 151 194 243 294 345
#     4  10  20  36  56  81 114 151 195 244 287 337
#
# _framework density 19.618963999999998
#
# number of rings (size 3 to 8) (size 9 to 14) (size 15 to 20)
#    0.000    2.000    1.250    1.875    1.750    4.750 
#    0.000    0.625    0.000    0.000    0.000    0.000 
#    0.000    0.000    0.000    0.000    0.000    0.000 
#
# Total GULP energy -178780.113892 kJ/mol
# GULP energy per Si atom -5586.878559 kJ/mol
# Density = 1.957431 g / cm^3
# Si number density = 19.618964 Si / 1000 Ang^3
#
#
#
# Elastic Constant Matrix: (Units=GPa)
#
#
# Indices 1 2 3 4 5 6 
#
# 1 78.3742 26.1058 9.4902 0.0000 9.6846 0.0000
# 2 26.1058 35.5963 16.9251 0.0000 6.8546 0.0000
# 3 9.4902 16.9251 54.0370 0.0000 15.6256 0.0000
# 4 0.0000 0.0000 0.0000 19.6908 0.0000 0.6143
# 5 9.6846 6.8546 15.6256 0.0000 28.9590 0.0000
# 6 0.0000 0.0000 0.0000 0.6143 0.0000 37.1067
#
#
#
# Elastic Compliance Matrix: (Units=1/GPa)
#
#
# Indices 1 2 3 4 5 6 
#
# 1 0.017294 -0.012955 0.002140 0.000000 -0.003872 0.000000
# 2 -0.012955 0.042885 -0.011226 0.000000 0.000239 0.000000
# 3 0.002140 -0.011226 0.024983 0.000000 -0.011539 0.000000
# 4 0.000000 0.000000 0.000000 0.050811 0.000000 -0.000841
# 5 -0.003872 0.000239 -0.011539 0.000000 0.041996 0.000000
# 6 0.000000 0.000000 0.000000 -0.000841 0.000000 0.026963
#
#
# Mechanical properties :
#
#
# Convention : Reuss Voigt Hill
#
# Bulk Modulus (GPa) = 24.34284 30.33885 27.34084
# Shear Modulus (GPa) = 19.03256 24.85039 21.94147
#
# Velocity S-wave (km/s) = 3.11804 3.56287 3.34785
# Velocity P-wave (km/s) = 5.03961 5.69412 5.37683
#
# Compressibility (1/GPa) = 0.04107985
#
# Stress axis : x y z
#
# Youngs Moduli (GPa) = 57.82437 23.31795 40.02768
#
# Poissons Ratio (x) = 0.30208 -0.08566
# Poissons Ratio (y) = 0.74911 0.44935
# Poissons Ratio (z) = -0.12374 0.26177
#
# Static dielectric constant tensor:
#      x y z
#    x 1.657260 0.000000 0.011230 
#    y 0.000000 1.656550 0.000000 
#    z 0.011230 0.000000 1.728800 
# 
# From -- ./inp_files/243904.got.cif
#   From: 2010.05.17/outbox.cif.g08.bks.cpg/sg12_122_cif.got.tgz:243904.got - 2010.06.03 13:09:07.
