data_PCOD9197423
_publ_section_title
;
Structure prediction by ZEFSAII (Michael W. Deem and Ramdas Pophale) SiO2 
 PCOD9197423
Probable space group: C 2/M
;
_chemical_formula_sum "Si O2"
_cell_formula_units_Z 56
_cell_length_a 16.353002
_cell_length_b 8.917547
_cell_length_c 20.183222
_cell_angle_alpha 90.000000
_cell_angle_beta 101.485903
_cell_angle_gamma 90.000000
_cell_volume 2884.349124
_symmetry_space_group_name_H-M "C 2/M"
_symmetry_group_IT_number 12
_symmetry_cell_setting 'monoclinic'
loop_
_space_group_symop_operation_xyz
x,y,z
-x,y,-z
-x,-y,-z
x,-y,z
1/2+x,1/2+y,z
1/2-x,1/2+y,-z
1/2-x,1/2-y,-z
1/2+x,1/2-y,z
loop_
_atom_site_type_symbol
_atom_site_label
_atom_site_fract_x
_atom_site_fract_y
_atom_site_fract_z
Si Si1 0.058008 0.677635 0.351104
Si Si2 0.768287 0.677473 0.203893
Si Si3 0.972087 0.675188 0.071326
Si Si4 0.200886 0.175967 0.931549
Si Si5 0.231587 0.180556 0.425600
Si Si6 0.374729 0.182470 0.344169
Si Si7 0.601046 0.825715 0.209722
O O1 0.068418 0.500000 0.367659
O O2 0.141378 0.761773 0.386886
O O3 0.051155 0.691514 0.270185
O O4 0.970556 0.731050 0.368532
O O5 0.776338 0.500000 0.195317
O O6 0.771336 0.758056 0.134173
O O7 0.839757 0.728080 0.266527
O O8 0.680203 0.717938 0.222753
O O9 0.946160 0.500000 0.075059
O O10 0.895485 0.781858 0.074738
O O11 0.045307 0.701898 0.135977
O O12 0.000000 0.695066 0.000000
O O13 0.215331 0.000000 0.934929
O O14 0.250000 0.250000 0.000000
O O15 0.250000 0.250000 0.500000
O O16 0.306221 0.227990 0.387512
O O17 0.231414 0.000000 0.428211
O O18 0.376256 0.000000 0.344595
O O19 0.629441 0.000000 0.211565
#
# Coordination Sequence:
#
# PCOD9197423 Si02
#       7
#     8   8   8   8   8   8   8
#     4  10  20  38  63  90 122 165 212 255 305 369
#     4  11  21  38  63  89 121 161 205 253 307 368
#     4  10  21  38  59  84 118 159 202 252 310 371
#     4  12  25  40  58  84 117 156 204 257 313 371
#     4  11  23  42  64  92 127 164 208 258 315 374
#     4   9  20  39  64  91 124 166 208 248 305 379
#     4  10  20  35  59  90 124 159 202 253 310 369
#
# _framework density 19.415126000000001
#
# number of rings (size 3 to 8) (size 9 to 14) (size 15 to 20)
#    0.000    1.571    1.429    3.857    0.000    4.857 
#    0.000    7.143    0.000    0.000    0.000    0.000 
#    0.000    0.000    0.000    0.000    0.000    0.000 
#
# Total GULP energy -156440.586148 kJ/mol
# GULP energy per Si atom -5587.163791 kJ/mol
# Density = 1.937094 g / cm^3
# Si number density = 19.415126 Si / 1000 Ang^3
#
#
#
# Elastic Constant Matrix: (Units=GPa)
#
#
# Indices 1 2 3 4 5 6 
#
# 1 126.8379 43.0490 54.2763 0.0000 -3.9513 0.0000
# 2 43.0490 63.7637 34.5578 0.0000 -2.1886 0.0000
# 3 54.2763 34.5578 113.2249 0.0000 4.1980 0.0000
# 4 0.0000 0.0000 0.0000 38.9859 0.0000 7.5549
# 5 -3.9513 -2.1886 4.1980 0.0000 23.9799 0.0000
# 6 0.0000 0.0000 0.0000 7.5549 0.0000 39.8210
#
#
#
# Elastic Compliance Matrix: (Units=1/GPa)
#
#
# Indices 1 2 3 4 5 6 
#
# 1 0.011510 -0.005593 -0.003887 0.000000 0.002067 0.000000
# 2 -0.005593 0.021689 -0.004004 0.000000 0.001759 0.000000
# 3 -0.003887 -0.004004 0.012033 0.000000 -0.003112 0.000000
# 4 0.000000 0.000000 0.000000 0.026629 0.000000 -0.005052
# 5 0.002067 0.001759 -0.003112 0.000000 0.042748 0.000000
# 6 0.000000 0.000000 0.000000 -0.005052 0.000000 0.026071
#
#
# Mechanical properties :
#
#
# Convention : Reuss Voigt Hill
#
# Bulk Modulus (GPa) = 54.75290 63.06585 58.90937
# Shear Modulus (GPa) = 28.77918 32.02026 30.39972
#
# Velocity S-wave (km/s) = 3.85425 4.06549 3.96128
# Velocity P-wave (km/s) = 6.93321 7.38857 7.16451
#
# Compressibility (1/GPa) = 0.01826387
#
# Stress axis : x y z
#
# Youngs Moduli (GPa) = 86.87952 46.10531 83.10649
#
# Poissons Ratio (x) = 0.25788 0.32304
# Poissons Ratio (y) = 0.48594 0.33275
# Poissons Ratio (z) = 0.33771 0.18460
#
# Static dielectric constant tensor:
#      x y z
#    x 1.683980 0.000000 -0.003450 
#    y 0.000000 1.656780 0.000000 
#    z -0.003450 0.000000 1.820730 
# 
# From -- ./inp_files/309023.got.cif
#   From: 2010.05.17/outbox.cif.g08.bks.cpg/sg12_155_cif.got.tgz:309023.got - 2010.06.03 13:09:07.
