data_PCOD9197677
_publ_section_title
;
Structure prediction by ZEFSAII (Michael W. Deem and Ramdas Pophale) SiO2 
 PCOD9197677
Probable space group: C 2/M
;
_chemical_formula_sum "Si O2"
_cell_formula_units_Z 56
_cell_length_a 18.994461
_cell_length_b 14.185973
_cell_length_c 19.111565
_cell_angle_alpha 90.000000
_cell_angle_beta 31.385178
_cell_angle_gamma 90.000000
_cell_volume 2681.908747
_symmetry_space_group_name_H-M "C 2/M"
_symmetry_group_IT_number 12
_symmetry_cell_setting 'monoclinic'
loop_
_space_group_symop_operation_xyz
x,y,z
-x,y,-z
-x,-y,-z
x,-y,z
1/2+x,1/2+y,z
1/2-x,1/2+y,-z
1/2-x,1/2-y,-z
1/2+x,1/2-y,z
loop_
_atom_site_type_symbol
_atom_site_label
_atom_site_fract_x
_atom_site_fract_y
_atom_site_fract_z
Si Si1 0.143203 0.892303 0.074692
Si Si2 0.228166 0.275197 0.625085
Si Si3 0.665401 0.893363 0.548422
Si Si4 0.854561 0.398025 0.779416
Si Si5 0.512596 0.397244 0.571841
Si Si6 0.778176 0.191814 0.847059
Si Si7 0.000742 0.765888 0.918325
O O1 0.159076 0.826571 0.129000
O O2 0.048679 0.845259 0.095467
O O3 0.103143 0.000000 0.126400
O O4 0.288738 0.897801 0.912689
O O5 0.240680 0.173138 0.578392
O O6 0.154107 0.343833 0.633293
O O7 0.378792 0.317747 0.501259
O O8 0.144913 0.269002 0.767385
O O9 0.515193 0.895508 0.644441
O O10 0.715141 0.000000 0.510583
O O11 0.811534 0.500000 0.784224
O O12 0.805255 0.297176 0.793861
O O13 0.500000 0.397739 0.500000
O O14 0.561206 0.500000 0.554834
O O15 0.364381 0.378129 0.727422
O O16 0.616609 0.186036 0.987192
O O17 0.000000 0.797112 0.000000
#
# Coordination Sequence:
#
# PCOD9197677 Si02
#       7
#     8   8   8   8   8   8   8
#     4  10  21  36  62  92 125 167 216 263 308 367
#     4  11  22  39  60  91 127 164 199 257 318 369
#     4  10  20  35  61  93 124 157 205 260 315 370
#     4   9  17  33  56  88 120 154 198 253 309 358
#     4  11  24  41  62  88 121 163 208 257 317 381
#     4  11  20  40  65  90 121 166 217 265 303 375
#     4  11  24  40  62  92 131 173 208 256 323 385
#
# _framework density 20.880652000000001
#
# number of rings (size 3 to 8) (size 9 to 14) (size 15 to 20)
#    0.000    1.571    1.429    5.143    2.000    0.857 
#    0.000    2.143    0.000    8.571    0.000    0.000 
#    0.000    0.000    0.000    0.000    0.000    0.000 
#
# Total GULP energy -156132.331845 kJ/mol
# GULP energy per Si atom -5576.154709 kJ/mol
# Density = 2.083313 g / cm^3
# Si number density = 20.880652 Si / 1000 Ang^3
#
#
#
# Elastic Constant Matrix: (Units=GPa)
#
#
# Indices 1 2 3 4 5 6 
#
# 1 49.8633 19.3947 9.8754 -0.0001 6.0638 0.0001
# 2 19.3947 120.3250 35.5984 -0.0001 1.2384 0.0001
# 3 9.8754 35.5984 86.0041 -0.0002 7.5526 0.0001
# 4 -0.0001 -0.0001 -0.0002 15.6465 0.0001 -4.9495
# 5 6.0638 1.2384 7.5526 0.0001 25.7777 -0.0001
# 6 0.0001 0.0001 0.0001 -4.9495 -0.0001 8.6777
#
#
#
# Elastic Compliance Matrix: (Units=1/GPa)
#
#
# Indices 1 2 3 4 5 6 
#
# 1 0.022067 -0.003285 -0.000751 0.000000 -0.004813 0.000000
# 2 -0.003285 0.009972 -0.003876 0.000000 0.001429 0.000000
# 3 -0.000751 -0.003876 0.013637 0.000000 -0.003633 0.000000
# 4 0.000000 0.000000 0.000000 0.077982 0.000000 0.044479
# 5 -0.004813 0.001429 -0.003633 0.000000 0.040921 0.000000
# 6 0.000000 0.000000 0.000000 0.044479 0.000000 0.140607
#
#
# Mechanical properties :
#
#
# Convention : Reuss Voigt Hill
#
# Bulk Modulus (GPa) = 33.49963 42.88103 38.19033
# Shear Modulus (GPa) = 15.10752 22.77531 18.94142
#
# Velocity S-wave (km/s) = 2.69275 3.30621 3.01512
# Velocity P-wave (km/s) = 5.07406 5.92921 5.51823
#
# Compressibility (1/GPa) = 0.02985108
#
# Stress axis : x y z
#
# Youngs Moduli (GPa) = 45.31723 100.27738 73.33008
#
# Poissons Ratio (x) = 0.32941 0.05510
# Poissons Ratio (y) = 0.14887 0.28423
# Poissons Ratio (z) = 0.03405 0.38868
#
# Static dielectric constant tensor:
#      x y z
#    x 1.771190 0.000000 -0.048800 
#    y 0.000000 1.784310 0.000000 
#    z -0.048800 0.000000 1.778450 
# 
# From -- ./inp_files/284534.got.cif
#   From: 2010.05.17/outbox.cif.g08.bks.cpg/sg12_143_cif.got.tgz:284534.got - 2010.06.03 13:09:07.
