data_PCOD9197760
_publ_section_title
;
Structure prediction by ZEFSAII (Michael W. Deem and Ramdas Pophale) SiO2 
 PCOD9197760
Probable space group: C 2/M
;
_chemical_formula_sum "Si O2"
_cell_formula_units_Z 64
_cell_length_a 16.611889
_cell_length_b 16.886140
_cell_length_c 15.209926
_cell_angle_alpha 90.000000
_cell_angle_beta 129.980132
_cell_angle_gamma 90.000000
_cell_volume 3269.315211
_symmetry_space_group_name_H-M "C 2/M"
_symmetry_group_IT_number 12
_symmetry_cell_setting 'monoclinic'
loop_
_space_group_symop_operation_xyz
x,y,z
-x,y,-z
-x,-y,-z
x,-y,z
1/2+x,1/2+y,z
1/2-x,1/2+y,-z
1/2-x,1/2-y,-z
1/2+x,1/2-y,z
loop_
_atom_site_type_symbol
_atom_site_label
_atom_site_fract_x
_atom_site_fract_y
_atom_site_fract_z
Si Si1 0.272854 0.907556 0.662878
Si Si2 0.645770 0.298433 0.908562
Si Si3 0.891848 0.135721 0.598906
Si Si4 0.624796 0.406579 0.725990
Si Si5 0.790437 0.907093 0.697178
Si Si6 0.053741 0.300677 0.292444
Si Si7 0.121589 0.090768 0.058981
Si Si8 0.926413 0.407398 0.533063
O O1 0.202855 0.896025 0.526190
O O2 0.196246 0.889967 0.691096
O O3 0.369588 0.847195 0.720102
O O4 0.305631 0.000000 0.691569
O O5 0.657913 0.352150 0.830441
O O6 0.546754 0.240079 0.822828
O O7 0.750000 0.250000 0.000000
O O8 0.629887 0.355488 0.980051
O O9 0.883596 0.100185 0.691610
O O10 0.888199 0.228959 0.615815
O O11 0.000817 0.112691 0.628613
O O12 0.634216 0.500000 0.752032
O O13 0.818185 0.875384 0.812768
O O14 0.686571 0.873933 0.577477
O O15 0.770279 0.000000 0.696831
O O16 0.026909 0.362186 0.351024
O O17 0.156862 0.000000 0.066296
O O18 0.000000 0.086829 0.000000
O O19 0.913471 0.500000 0.547524
O O20 0.000000 0.402034 0.500000
#
# Coordination Sequence:
#
# PCOD9197760 Si02
#       8
#     8   8   8   8   8   8   8   8
#     4  11  22  39  63  92 128 169 209 249 307 387
#     4  11  26  43  61  89 124 165 212 266 321 371
#     4  11  21  37  60  97 131 161 199 256 323 383
#     4  10  22  40  64  90 122 167 215 261 306 367
#     4  10  20  35  63  94 122 160 202 257 320 376
#     4  11  24  40  60  91 128 165 206 258 323 378
#     4  10  21  40  65  90 118 160 212 263 312 365
#     4  10  22  39  60  90 127 165 206 255 316 390
#
# _framework density 19.575966000000001
#
# number of rings (size 3 to 8) (size 9 to 14) (size 15 to 20)
#    0.000    1.500    1.250    4.125    1.750    6.000 
#    0.000    1.875    0.000    1.500    0.000    0.000 
#    0.000    0.000    0.000    0.000    0.000    0.000 
#
# Total GULP energy -178717.330082 kJ/mol
# GULP energy per Si atom -5584.916565 kJ/mol
# Density = 1.953141 g / cm^3
# Si number density = 19.575966 Si / 1000 Ang^3
#
#
#
# Elastic Constant Matrix: (Units=GPa)
#
#
# Indices 1 2 3 4 5 6 
#
# 1 111.4901 57.2274 61.1667 0.0000 -8.1058 0.0000
# 2 57.2274 98.3795 56.4282 0.0000 -1.0430 0.0000
# 3 61.1667 56.4282 107.9317 0.0000 -17.6889 0.0000
# 4 0.0000 0.0000 0.0000 66.2345 0.0000 -22.5097
# 5 -8.1058 -1.0430 -17.6889 0.0000 26.5438 0.0000
# 6 0.0000 0.0000 0.0000 -22.5097 0.0000 28.0207
#
#
#
# Elastic Compliance Matrix: (Units=1/GPa)
#
#
# Indices 1 2 3 4 5 6 
#
# 1 0.014811 -0.005514 -0.005394 0.000000 0.000711 0.000000
# 2 -0.005514 0.017197 -0.006771 0.000000 -0.005520 0.000000
# 3 -0.005394 -0.006771 0.017455 0.000000 0.009719 0.000000
# 4 0.000000 0.000000 0.000000 0.020768 0.000000 0.016683
# 5 0.000711 -0.005520 0.009719 0.000000 0.044150 0.000000
# 6 0.000000 0.000000 0.000000 0.016683 0.000000 0.049090
#
#
# Mechanical properties :
#
#
# Convention : Reuss Voigt Hill
#
# Bulk Modulus (GPa) = 70.89710 74.16065 72.52888
# Shear Modulus (GPa) = 24.56640 33.69173 29.12906
#
# Velocity S-wave (km/s) = 3.54634 4.15309 3.86165
# Velocity P-wave (km/s) = 7.28448 7.80790 7.55073
#
# Compressibility (1/GPa) = 0.01410495
#
# Stress axis : x y z
#
# Youngs Moduli (GPa) = 67.51827 58.14887 57.29111
#
# Poissons Ratio (x) = 0.32063 0.30904
# Poissons Ratio (y) = 0.37229 0.38791
# Poissons Ratio (z) = 0.36420 0.39371
#
# Static dielectric constant tensor:
#      x y z
#    x 0.978450 0.000000 0.407000 
#    y 0.000000 1.684210 0.000000 
#    z 0.407000 0.000000 1.476120 
# 
# From -- ./inp_files/216812.got.cif
#   From: 2010.05.17/outbox.cif.g08.bks.cpg/sg12_109_cif.got.tgz:216812.got - 2010.06.03 13:09:07.
