data_PCOD9197545
_publ_section_title
;
Structure prediction by ZEFSAII (Michael W. Deem and Ramdas Pophale) SiO2 
 PCOD9197545
Probable space group: C 2/M
;
_chemical_formula_sum "Si O2"
_cell_formula_units_Z 38
_cell_length_a 30.153364
_cell_length_b 10.125873
_cell_length_c 20.105649
_cell_angle_alpha 90.000000
_cell_angle_beta 161.712384
_cell_angle_gamma 90.000000
_cell_volume 1926.289777
_symmetry_space_group_name_H-M "C 2/M"
_symmetry_group_IT_number 12
_symmetry_cell_setting 'monoclinic'
loop_
_space_group_symop_operation_xyz
x,y,z
-x,y,-z
-x,-y,-z
x,-y,z
1/2+x,1/2+y,z
1/2-x,1/2+y,-z
1/2-x,1/2-y,-z
1/2+x,1/2-y,z
loop_
_atom_site_type_symbol
_atom_site_label
_atom_site_fract_x
_atom_site_fract_y
_atom_site_fract_z
Si Si1 0.000000 0.000000 0.500000
Si Si2 0.423501 0.753214 0.474222
Si Si3 0.265938 0.845957 0.085151
Si Si4 0.403718 0.500000 0.700044
Si Si5 0.319512 0.000000 0.499295
Si Si6 0.222600 0.000000 0.210067
Si Si7 0.032402 0.226805 0.305613
O O1 0.084982 0.881656 0.579535
O O2 0.572437 0.822619 0.666029
O O3 0.306206 0.868612 0.304693
O O4 0.436657 0.711070 0.571335
O O5 0.244836 0.000000 0.038822
O O6 0.250000 0.750000 0.000000
O O7 0.134093 0.800778 0.941471
O O8 0.290412 0.500000 0.597225
O O9 0.389380 0.625107 0.630923
O O10 0.561294 0.500000 0.956346
O O11 0.238611 0.000000 0.313035
O O12 0.419274 0.872805 0.642890
#
# Coordination Sequence:
#
# PCOD9197545 Si02
#       7
#     2   8   8   4   4   4   8
#     4  12  26  32  56  86 124 164 200 228 294 378
#     4  10  23  41  58  87 131 166 198 240 309 380
#     4  10  20  35  60  89 121 160 200 240 297 371
#     4  12  22  39  67  94 115 154 218 266 308 353
#     4  10  23  44  64  87 119 163 208 261 313 369
#     4  10  23  43  64  88 123 165 201 256 314 367
#     4  10  22  39  63  86 121 159 202 256 305 357
#
# _framework density 19.727042000000001
#
# number of rings (size 3 to 8) (size 9 to 14) (size 15 to 20)
#    0.000    1.684    2.105    1.579   11.789    0.421 
#    0.000    0.000    0.000    0.000    0.000   10.316 
#    0.000    0.000    0.000    0.000    0.000    0.000 
#
# Total GULP energy -105772.353239 kJ/mol
# GULP energy per Si atom -5566.965960 kJ/mol
# Density = 1.968214 g / cm^3
# Si number density = 19.727042 Si / 1000 Ang^3
#
#
#
# Elastic Constant Matrix: (Units=GPa)
#
#
# Indices 1 2 3 4 5 6 
#
# 1 131.7454 75.6654 28.5045 0.0000 14.6123 0.0000
# 2 75.6654 205.4639 42.3014 0.0000 5.7339 0.0000
# 3 28.5045 42.3014 54.5819 0.0000 -3.6798 0.0000
# 4 0.0000 0.0000 0.0000 30.8623 0.0000 22.8283
# 5 14.6123 5.7339 -3.6798 0.0000 31.0817 0.0000
# 6 0.0000 0.0000 0.0000 22.8283 0.0000 58.8671
#
#
#
# Elastic Compliance Matrix: (Units=1/GPa)
#
#
# Indices 1 2 3 4 5 6 
#
# 1 0.010648 -0.003062 -0.003515 0.000000 -0.004857 0.000000
# 2 -0.003062 0.006753 -0.003650 0.000000 -0.000238 0.000000
# 3 -0.003515 -0.003650 0.023329 0.000000 0.005088 0.000000
# 4 0.000000 0.000000 0.000000 0.045435 0.000000 -0.017619
# 5 -0.004857 -0.000238 0.005088 0.000000 0.035103 0.000000
# 6 0.000000 0.000000 0.000000 -0.017619 0.000000 0.023820
#
#
# Mechanical properties :
#
#
# Convention : Reuss Voigt Hill
#
# Bulk Modulus (GPa) = 49.32272 76.08152 62.70212
# Shear Modulus (GPa) = 29.01876 40.51687 34.76781
#
# Velocity S-wave (km/s) = 3.83954 4.53689 4.20270
# Velocity P-wave (km/s) = 6.68678 8.12990 7.44340
#
# Compressibility (1/GPa) = 0.02027463
#
# Stress axis : x y z
#
# Youngs Moduli (GPa) = 93.91088 148.08342 42.86500
#
# Poissons Ratio (x) = 0.45346 0.15068
# Poissons Ratio (y) = 0.28757 0.15648
# Poissons Ratio (z) = 0.33012 0.54058
#
# Static dielectric constant tensor:
#      x y z
#    x 1.674250 0.000000 -0.045060 
#    y 0.000000 1.703250 0.000000 
#    z -0.045060 0.000000 1.712890 
# 
# From -- ./inp_files/151816.got.cif
#   From: 2010.05.17/outbox.cif.g08.bks.cpg/sg12_76_cif.got.tgz:151816.got - 2010.06.03 13:09:07.
