data_PCOD9197119
_publ_section_title
;
Structure prediction by ZEFSAII (Michael W. Deem and Ramdas Pophale) SiO2 
 PCOD9197119
Probable space group: C 2/M
;
_chemical_formula_sum "Si O2"
_cell_formula_units_Z 56
_cell_length_a 19.817703
_cell_length_b 8.494706
_cell_length_c 20.376479
_cell_angle_alpha 90.000000
_cell_angle_beta 56.022912
_cell_angle_gamma 90.000000
_cell_volume 2844.605951
_symmetry_space_group_name_H-M "C 2/M"
_symmetry_group_IT_number 12
_symmetry_cell_setting 'monoclinic'
loop_
_space_group_symop_operation_xyz
x,y,z
-x,y,-z
-x,-y,-z
x,-y,z
1/2+x,1/2+y,z
1/2-x,1/2+y,-z
1/2-x,1/2-y,-z
1/2+x,1/2-y,z
loop_
_atom_site_type_symbol
_atom_site_label
_atom_site_fract_x
_atom_site_fract_y
_atom_site_fract_z
Si Si1 0.163428 0.311670 0.191762
Si Si2 0.626793 0.809799 0.740516
Si Si3 0.306900 0.689742 0.027907
Si Si4 0.800548 0.812175 0.690744
Si Si5 0.914388 0.309849 0.516865
Si Si6 0.949822 0.188532 0.864312
Si Si7 0.163208 0.310223 0.572677
O O1 0.157914 0.500000 0.191038
O O2 0.255005 0.260047 0.119454
O O3 0.153439 0.258396 0.271683
O O4 0.099081 0.244144 0.174315
O O5 0.706458 0.759037 0.737642
O O6 0.541042 0.750905 0.813666
O O7 0.639987 0.755063 0.657957
O O8 0.625362 0.000000 0.740746
O O9 0.308030 0.500000 0.027969
O O10 0.250000 0.750000 0.000000
O O11 0.396678 0.742024 0.956804
O O12 0.843584 0.759934 0.600369
O O13 0.802194 0.000000 0.694469
O O14 0.910343 0.500000 0.523098
O O15 0.901317 0.264812 0.448352
O O16 0.000000 0.257708 0.500000
O O17 0.951165 0.000000 0.863131
O O18 0.167028 0.500000 0.573103
O O19 0.250000 0.250000 0.500000
#
# Coordination Sequence:
#
# PCOD9197119 Si02
#       7
#     8   8   8   8   8   8   8
#     4  10  20  36  59  83 112 149 184 225 282 334
#     4  10  22  38  55  79 114 152 186 226 276 328
#     4   8  16  32  54  81 111 142 179 225 273 326
#     4  11  23  39  56  80 114 149 188 234 278 324
#     4  10  22  38  58  83 109 143 185 230 279 334
#     4  10  20  35  58  88 114 141 185 231 272 328
#     4  10  20  37  58  79 107 144 185 225 273 329
#
# _framework density 19.686381000000001
#
# number of rings (size 3 to 8) (size 9 to 14) (size 15 to 20)
#    0.000    2.143    1.429    1.286    2.000    3.143 
#    0.000    0.714    0.000    4.286    0.000    0.000 
#    0.000    0.000    0.000    0.000    0.000    0.000 
#
# Total GULP energy -156190.076552 kJ/mol
# GULP energy per Si atom -5578.217020 kJ/mol
# Density = 1.964157 g / cm^3
# Si number density = 19.686381 Si / 1000 Ang^3
#
#
#
# Elastic Constant Matrix: (Units=GPa)
#
#
# Indices 1 2 3 4 5 6 
#
# 1 70.2186 8.5548 -9.1407 -0.0001 -16.8875 -0.0002
# 2 8.5548 9.7136 -2.7418 0.0001 -3.5178 -0.0010
# 3 -9.1407 -2.7418 25.7440 0.0000 -14.1065 0.0000
# 4 -0.0001 0.0001 0.0000 22.1283 0.0000 -8.4499
# 5 -16.8875 -3.5178 -14.1065 0.0000 39.2992 0.0000
# 6 -0.0002 -0.0010 0.0000 -8.4499 0.0000 22.5163
#
#
#
# Elastic Compliance Matrix: (Units=1/GPa)
#
#
# Indices 1 2 3 4 5 6 
#
# 1 0.020065 -0.009539 0.012903 0.000000 0.012400 0.000000
# 2 -0.009539 0.120499 0.016321 0.000002 0.012546 0.000006
# 3 0.012903 0.016321 0.061000 0.000000 0.028902 0.000001
# 4 0.000000 0.000002 0.000000 0.052750 0.000000 0.019796
# 5 0.012400 0.012546 0.028902 0.000000 0.042272 0.000001
# 6 0.000000 0.000006 0.000001 0.019796 0.000001 0.051841
#
#
# Mechanical properties :
#
#
# Convention : Reuss Voigt Hill
#
# Bulk Modulus (GPa) = 4.15049 11.00231 7.57640
# Shear Modulus (GPa) = 12.84130 24.05571 18.44850
#
# Velocity S-wave (km/s) = 2.55677 3.49943 3.06456
# Velocity P-wave (km/s) = 3.29075 4.68283 4.04709
#
# Compressibility (1/GPa) = 0.24093562
#
# Stress axis : x y z
#
# Youngs Moduli (GPa) = 49.83740 8.29882 16.39334
#
# Poissons Ratio (x) = 0.07916 -0.21153
# Poissons Ratio (y) = 0.47538 -0.26756
# Poissons Ratio (z) = -0.64306 -0.13544
#
# Static dielectric constant tensor:
#      x y z
#    x 1.677410 0.000000 -0.019350 
#    y 0.000000 1.670930 0.000000 
#    z -0.019350 0.000000 1.704600 
# 
# From -- ./inp_files/280992.got.cif
#   From: 2010.05.17/outbox.cif.g08.bks.cpg/sg12_141_cif.got.tgz:280992.got - 2010.06.03 13:09:07.
