data_PCOD9197089
_publ_section_title
;
Structure prediction by ZEFSAII (Michael W. Deem and Ramdas Pophale) SiO2 
 PCOD9197089
Probable space group: C 2/M
;
_chemical_formula_sum "Si O2"
_cell_formula_units_Z 56
_cell_length_a 20.737467
_cell_length_b 7.817779
_cell_length_c 28.292198
_cell_angle_alpha 90.000000
_cell_angle_beta 144.811141
_cell_angle_gamma 90.000000
_cell_volume 2643.226440
_symmetry_space_group_name_H-M "C 2/M"
_symmetry_group_IT_number 12
_symmetry_cell_setting 'monoclinic'
loop_
_space_group_symop_operation_xyz
x,y,z
-x,y,-z
-x,-y,-z
x,-y,z
1/2+x,1/2+y,z
1/2-x,1/2+y,-z
1/2-x,1/2-y,-z
1/2+x,1/2-y,z
loop_
_atom_site_type_symbol
_atom_site_label
_atom_site_fract_x
_atom_site_fract_y
_atom_site_fract_z
Si Si1 0.481613 0.699476 0.245894
Si Si2 0.413862 0.796343 0.309601
Si Si3 0.470082 0.209277 0.035074
Si Si4 0.548389 0.200075 0.480104
Si Si5 0.782883 0.301057 0.651361
Si Si6 0.736882 0.294051 0.937573
Si Si7 0.815242 0.292955 0.778076
O O1 0.495985 0.500000 0.242732
O O2 0.446126 0.715987 0.279058
O O3 0.598967 0.785023 0.303871
O O4 0.379126 0.771800 0.153482
O O5 0.492099 0.728495 0.399172
O O6 0.286995 0.761043 0.249761
O O7 0.429493 0.000000 0.313770
O O8 0.566639 0.264557 0.129343
O O9 0.469411 0.000000 0.035260
O O10 0.500000 0.262577 0.000000
O O11 0.347182 0.268355 0.976442
O O12 0.500000 0.275633 0.500000
O O13 0.681532 0.214315 0.562840
O O14 0.516172 0.000000 0.460659
O O15 0.752609 0.500000 0.636857
O O16 0.794604 0.232030 0.712056
O O17 0.734575 0.500000 0.931005
O O18 0.750000 0.250000 0.000000
O O19 0.817668 0.500000 0.778267
#
# Coordination Sequence:
#
# PCOD9197089 Si02
#       7
#     8   8   8   8   8   8   8
#     4  11  24  41  61  87 122 162 201 244 299 358
#     4  11  23  39  62  88 119 157 196 247 302 354
#     4   9  17  32  55  81 111 148 191 235 281 338
#     4  10  21  40  63  88 119 155 196 245 301 358
#     4  11  23  38  61  90 120 155 199 249 295 353
#     4  10  21  38  61  86 116 157 199 243 294 348
#     4  10  20  35  58  87 117 152 195 243 293 352
#
# _framework density 21.186226999999999
#
# number of rings (size 3 to 8) (size 9 to 14) (size 15 to 20)
#    0.000    1.714    1.429    3.000    0.000    7.143 
#    0.000    0.714    0.000    1.714    0.000    0.000 
#    0.000    0.000    0.000    0.000    0.000    0.000 
#
# Total GULP energy -156524.336150 kJ/mol
# GULP energy per Si atom -5590.154863 kJ/mol
# Density = 2.113801 g / cm^3
# Si number density = 21.186227 Si / 1000 Ang^3
#
#
#
# Elastic Constant Matrix: (Units=GPa)
#
#
# Indices 1 2 3 4 5 6 
#
# 1 94.8771 -13.7760 20.3548 0.0000 14.5067 0.0005
# 2 -13.7760 26.7523 -6.4201 -0.0001 -3.2327 0.0017
# 3 20.3548 -6.4201 119.5644 0.0001 11.0365 0.0001
# 4 0.0000 -0.0001 0.0001 9.7866 -0.0001 4.0985
# 5 14.5067 -3.2327 11.0365 -0.0001 37.7056 0.0000
# 6 0.0005 0.0017 0.0001 4.0985 0.0000 25.2084
#
#
#
# Elastic Compliance Matrix: (Units=1/GPa)
#
#
# Indices 1 2 3 4 5 6 
#
# 1 0.012228 0.005492 -0.001435 0.000000 -0.003814 -0.000001
# 2 0.005492 0.040609 0.001150 0.000002 0.001032 -0.000003
# 3 -0.001435 0.001150 0.008849 0.000000 -0.001939 0.000000
# 4 0.000000 0.000002 0.000000 0.109647 0.000000 -0.017827
# 5 -0.003814 0.001032 -0.001939 0.000000 0.028645 0.000000
# 6 -0.000001 -0.000003 0.000000 -0.017827 0.000000 0.042568
#
#
# Mechanical properties :
#
#
# Convention : Reuss Voigt Hill
#
# Bulk Modulus (GPa) = 13.86958 26.83457 20.35207
# Shear Modulus (GPa) = 19.51874 30.60911 25.06392
#
# Velocity S-wave (km/s) = 3.03857 3.80513 3.44325
# Velocity P-wave (km/s) = 4.34411 5.65676 5.04332
#
# Compressibility (1/GPa) = 0.07210026
#
# Stress axis : x y z
#
# Youngs Moduli (GPa) = 81.77741 24.62525 113.01032
#
# Poissons Ratio (x) = -0.13524 0.16215
# Poissons Ratio (y) = -0.44910 -0.13000
# Poissons Ratio (z) = 0.11734 -0.02833
#
# Static dielectric constant tensor:
#      x y z
#    x 1.713790 0.000000 -0.006050 
#    y 0.000000 1.769090 0.000000 
#    z -0.006050 0.000000 1.750140 
# 
# From -- ./inp_files/363200.got.cif
#   From: 2010.05.17/outbox.cif.g08.bks.cpg/sg12_182_cif.got.tgz:363200.got - 2010.06.03 13:09:07.
