data_PCOD9197428
_publ_section_title
;
Structure prediction by ZEFSAII (Michael W. Deem and Ramdas Pophale) SiO2 
 PCOD9197428
Probable space group: C 2/M
;
_chemical_formula_sum "Si O2"
_cell_formula_units_Z 64
_cell_length_a 29.278428
_cell_length_b 8.330527
_cell_length_c 14.518104
_cell_angle_alpha 90.000000
_cell_angle_beta 119.887405
_cell_angle_gamma 90.000000
_cell_volume 3070.099081
_symmetry_space_group_name_H-M "C 2/M"
_symmetry_group_IT_number 12
_symmetry_cell_setting 'monoclinic'
loop_
_space_group_symop_operation_xyz
x,y,z
-x,y,-z
-x,-y,-z
x,-y,z
1/2+x,1/2+y,z
1/2-x,1/2+y,-z
1/2-x,1/2-y,-z
1/2+x,1/2-y,z
loop_
_atom_site_type_symbol
_atom_site_label
_atom_site_fract_x
_atom_site_fract_y
_atom_site_fract_z
Si Si1 0.558556 0.692595 0.523297
Si Si2 0.520774 0.188800 0.817525
Si Si3 0.193549 0.308627 0.978356
Si Si4 0.401930 0.309496 0.244622
Si Si5 0.297617 0.309249 0.610360
Si Si6 0.056127 0.186776 0.032818
Si Si7 0.408667 0.809252 0.644492
Si Si8 0.671183 0.695515 0.162850
O O1 0.500000 0.740067 0.500000
O O2 0.556667 0.500000 0.506684
O O3 0.598790 0.727443 0.647525
O O4 0.577541 0.769566 0.447475
O O5 0.548134 0.217037 0.747486
O O6 0.555409 0.293009 0.922229
O O7 0.460340 0.245569 0.753864
O O8 0.523452 0.000000 0.843423
O O9 0.189569 0.500000 0.969749
O O10 0.148828 0.237435 0.865962
O O11 0.250000 0.250000 0.000000
O O12 0.186800 0.256406 0.078011
O O13 0.411321 0.500000 0.245718
O O14 0.294938 0.500000 0.611058
O O15 0.250000 0.250000 0.500000
O O16 0.354011 0.263391 0.623607
O O17 0.295464 0.252154 0.714844
O O18 0.054200 0.000000 0.058142
O O19 0.111197 0.253233 0.122431
O O20 0.000000 0.265348 0.000000
O O21 0.405685 0.000000 0.652067
O O22 0.670479 0.500000 0.157784
#
# Coordination Sequence:
#
# PCOD9197428 Si02
#       8
#     8   8   8   8   8   8   8   8
#     4  10  21  38  62  92 126 171 220 265 318 381
#     4  11  22  35  56  90 128 166 205 255 317 374
#     4  12  26  44  68  96 129 168 213 263 318 380
#     4  11  22  39  63  90 125 166 210 261 315 376
#     4  11  25  46  71  95 126 168 216 268 321 378
#     4  10  20  35  59  90 124 166 210 254 309 374
#     4  11  24  40  62  94 133 172 215 267 321 381
#     4  10  22  42  67  95 127 166 212 261 316 377
#
# _framework density 20.846233999999999
#
# number of rings (size 3 to 8) (size 9 to 14) (size 15 to 20)
#    0.000    1.250    2.500    3.375    0.000    6.000 
#    0.000    0.000    0.000    0.000    0.000    0.000 
#    0.000    0.000    0.000    0.000    0.000    0.000 
#
# Total GULP energy -178772.756508 kJ/mol
# GULP energy per Si atom -5586.648641 kJ/mol
# Density = 2.079879 g / cm^3
# Si number density = 20.846234 Si / 1000 Ang^3
#
#
#
# Elastic Constant Matrix: (Units=GPa)
#
#
# Indices 1 2 3 4 5 6 
#
# 1 91.9542 7.7911 43.1542 0.0000 14.2898 0.0000
# 2 7.7911 43.2075 20.0610 0.0000 6.2646 0.0000
# 3 43.1542 20.0610 149.0700 0.0000 13.9100 0.0000
# 4 0.0000 0.0000 0.0000 22.9420 0.0000 -0.4668
# 5 14.2898 6.2646 13.9100 0.0000 32.8206 0.0000
# 6 0.0000 0.0000 0.0000 -0.4668 0.0000 30.4613
#
#
#
# Elastic Compliance Matrix: (Units=1/GPa)
#
#
# Indices 1 2 3 4 5 6 
#
# 1 0.013138 -0.000182 -0.003382 0.000000 -0.004252 0.000000
# 2 -0.000182 0.025068 -0.003000 0.000000 -0.003434 0.000000
# 3 -0.003382 -0.003000 0.008226 0.000000 -0.001441 0.000000
# 4 0.000000 0.000000 0.000000 0.043602 0.000000 0.000668
# 5 -0.004252 -0.003434 -0.001441 0.000000 0.033586 0.000000
# 6 0.000000 0.000000 0.000000 0.000668 0.000000 0.032839
#
#
# Mechanical properties :
#
#
# Convention : Reuss Voigt Hill
#
# Bulk Modulus (GPa) = 30.02782 47.36050 38.69416
# Shear Modulus (GPa) = 27.67186 31.45980 29.56583
#
# Velocity S-wave (km/s) = 3.64734 3.88897 3.77009
# Velocity P-wave (km/s) = 5.67214 6.55239 6.12809
#
# Compressibility (1/GPa) = 0.03330245
#
# Stress axis : x y z
#
# Youngs Moduli (GPa) = 76.11245 39.89166 121.57208
#
# Poissons Ratio (x) = 0.00727 0.41117
# Poissons Ratio (y) = 0.01387 0.36475
# Poissons Ratio (z) = 0.25742 0.11969
#
# Static dielectric constant tensor:
#      x y z
#    x 1.761420 0.000000 -0.014230 
#    y 0.000000 1.734380 0.000000 
#    z -0.014230 0.000000 1.820870 
# 
# From -- ./inp_files/249189.got.cif
#   From: 2010.05.17/outbox.cif.g08.bks.cpg/sg12_125_cif.got.tgz:249189.got - 2010.06.03 13:09:07.
