data_PCOD9197792
_publ_section_title
;
Structure prediction by ZEFSAII (Michael W. Deem and Ramdas Pophale) SiO2 
 PCOD9197792
Probable space group: C 2/M
;
_chemical_formula_sum "Si O2"
_cell_formula_units_Z 30
_cell_length_a 15.718341
_cell_length_b 18.246552
_cell_length_c 11.832127
_cell_angle_alpha 90.000000
_cell_angle_beta 24.691394
_cell_angle_gamma 90.000000
_cell_volume 1417.576929
_symmetry_space_group_name_H-M "C 2/M"
_symmetry_group_IT_number 12
_symmetry_cell_setting 'monoclinic'
loop_
_space_group_symop_operation_xyz
x,y,z
-x,y,-z
-x,-y,-z
x,-y,z
1/2+x,1/2+y,z
1/2-x,1/2+y,-z
1/2-x,1/2-y,-z
1/2+x,1/2-y,z
loop_
_atom_site_type_symbol
_atom_site_label
_atom_site_fract_x
_atom_site_fract_y
_atom_site_fract_z
Si Si1 0.000000 0.760921 0.000000
Si Si2 0.209952 0.860486 0.313592
Si Si3 0.000000 0.500000 0.000000
Si Si4 0.340784 0.624805 0.365987
Si Si5 0.077407 0.500000 0.592290
Si Si6 0.322723 0.500000 0.059994
O O1 0.145981 0.707285 0.895710
O O2 0.132228 0.812985 0.759514
O O3 0.335940 0.935556 0.159921
O O4 0.165543 0.846453 0.499884
O O5 0.000000 0.864508 0.500000
O O6 0.148092 0.571383 0.575830
O O7 0.533727 0.570425 0.121321
O O8 0.209060 0.500000 0.317646
O O9 0.845215 0.500000 0.835240
#
# Coordination Sequence:
#
# PCOD9197792 Si02
#       6
#     4   8   2   8   4   4
#     4  11  24  42  60  87 128 162 200 255 296 356
#     4  11  26  41  64  91 119 164 205 243 306 364
#     4  10  22  46  64  86 124 152 198 262 294 358
#     4  11  21  41  63  89 127 159 200 255 299 353
#     4  10  20  36  63  95 119 157 198 251 308 345
#     4  10  20  35  65  94 118 155 203 249 301 357
#
# _framework density 21.162873000000001
#
# number of rings (size 3 to 8) (size 9 to 14) (size 15 to 20)
#    0.000    1.333    2.667    3.600    0.000    9.600 
#    0.000    0.000    0.000    0.000    0.000    0.000 
#    0.000    0.000    0.000    0.000    0.000    0.000 
#
# Total GULP energy -83672.908519 kJ/mol
# GULP energy per Si atom -5578.193901 kJ/mol
# Density = 2.111470 g / cm^3
# Si number density = 21.162873 Si / 1000 Ang^3
#
#
#
# Elastic Constant Matrix: (Units=GPa)
#
#
# Indices 1 2 3 4 5 6 
#
# 1 119.3245 34.5970 30.6213 -0.2209 -33.7031 -0.0086
# 2 34.5970 152.6739 36.5920 -0.2824 -22.2600 0.0114
# 3 30.6213 36.5920 57.2724 -0.2566 -28.9879 0.0366
# 4 -0.2209 -0.2824 -0.2566 346.9877 0.3093 -20.0720
# 5 -33.7031 -22.2600 -28.9879 0.3093 61.7417 -0.0202
# 6 -0.0086 0.0114 0.0366 -20.0720 -0.0202 4.0192
#
#
#
# Elastic Compliance Matrix: (Units=1/GPa)
#
#
# Indices 1 2 3 4 5 6 
#
# 1 0.010584 -0.001115 -0.002920 0.000006 0.004005 0.000103
# 2 -0.001115 0.007869 -0.004334 0.000005 0.000194 0.000038
# 3 -0.002920 -0.004334 0.026487 -0.000007 0.009280 -0.000223
# 4 0.000006 0.000005 -0.000007 0.004053 -0.000012 0.020239
# 5 0.004005 0.000194 0.009280 -0.000012 0.022809 -0.000022
# 6 0.000103 0.000038 -0.000223 0.020239 -0.000022 0.349880
#
#
# Mechanical properties :
#
#
# Convention : Reuss Voigt Hill
#
# Bulk Modulus (GPa) = 35.45530 59.21016 47.33273
# Shear Modulus (GPa) = 11.16518 97.71377 54.43948
#
# Velocity S-wave (km/s) = 2.29941 6.80239 5.07739
# Velocity P-wave (km/s) = 4.88258 9.47289 7.53576
#
# Compressibility (1/GPa) = 0.02820453
#
# Stress axis : x y z
#
# Youngs Moduli (GPa) = 94.48062 127.07303 37.75411
#
# Poissons Ratio (x) = 0.14165 0.11023
# Poissons Ratio (y) = 0.10532 0.16362
# Poissons Ratio (z) = 0.27586 0.55070
#
# Static dielectric constant tensor:
#      x y z
#    x 1.769900 0.000000 0.060370 
#    y 0.000000 1.731110 0.000010 
#    z 0.060370 0.000010 1.811480 
# 
# From -- ./inp_files/130779.got.cif
#   From: 2010.05.17/outbox.cif.g08.bks.cpg/sg12_66_cif.got.tgz:130779.got - 2010.06.03 13:09:07.
