data_PCOD9197609
_publ_section_title
;
Structure prediction by ZEFSAII (Michael W. Deem and Ramdas Pophale) SiO2 
 PCOD9197609
Probable space group: C 2/M
;
_chemical_formula_sum "Si O2"
_cell_formula_units_Z 40
_cell_length_a 12.310243
_cell_length_b 28.866238
_cell_length_c 4.992351
_cell_angle_alpha 90.000000
_cell_angle_beta 100.315134
_cell_angle_gamma 90.000000
_cell_volume 1745.361611
_symmetry_space_group_name_H-M "C 2/M"
_symmetry_group_IT_number 12
_symmetry_cell_setting 'monoclinic'
loop_
_space_group_symop_operation_xyz
x,y,z
-x,y,-z
-x,-y,-z
x,-y,z
1/2+x,1/2+y,z
1/2-x,1/2+y,-z
1/2-x,1/2-y,-z
1/2+x,1/2-y,z
loop_
_atom_site_type_symbol
_atom_site_label
_atom_site_fract_x
_atom_site_fract_y
_atom_site_fract_z
Si Si1 0.000000 0.380323 0.000000
Si Si2 0.000000 0.676002 0.500000
Si Si3 0.675355 0.552658 0.573586
Si Si4 0.425847 0.354178 0.704152
Si Si5 0.818005 0.551889 0.137662
Si Si6 0.769620 0.282784 0.260278
O O1 0.049673 0.351681 0.268881
O O2 0.906885 0.410989 0.096561
O O3 0.103498 0.701641 0.676164
O O4 0.630057 0.500000 0.520174
O O5 0.607625 0.595887 0.432544
O O6 0.783557 0.553937 0.431162
O O7 0.711657 0.558692 0.897416
O O8 0.500000 0.330935 0.500000
O O9 0.317007 0.325203 0.742425
O O10 0.500000 0.359327 0.000000
O O11 0.858843 0.500000 0.097703
O O12 0.750000 0.250000 0.500000
O O13 0.750000 0.250000 0.000000
#
# Coordination Sequence:
#
# PCOD9197609 Si02
#       6
#     4   4   8   8   8   8
#     4  12  21  38  64  96 140 168 238 282 345 414
#     4  12  28  46  73 104 128 184 221 292 356 426
#     4  10  22  41  64  95 141 188 233 283 343 417
#     4  12  26  44  72 106 141 185 237 292 357 422
#     4  10  20  35  60  93 137 187 231 282 337 399
#     4  12  28  49  76 100 141 179 234 295 359 431
#
# _framework density 22.917884999999998
#
# number of rings (size 3 to 8) (size 9 to 14) (size 15 to 20)
#    0.000    0.800    0.000    7.500    4.200    0.800 
#    0.000    4.000    0.000    0.000    0.000    0.000 
#    0.000    0.000    0.000    0.000    0.000    0.000 
#
# Total GULP energy -111903.553361 kJ/mol
# GULP energy per Si atom -5595.177668 kJ/mol
# Density = 2.286572 g / cm^3
# Si number density = 22.917885 Si / 1000 Ang^3
#
#
#
# Elastic Constant Matrix: (Units=GPa)
#
#
# Indices 1 2 3 4 5 6 
#
# 1 96.2501 35.2651 -2.3512 0.0000 6.9190 0.0000
# 2 35.2651 96.7024 19.1659 0.0000 21.9585 0.0000
# 3 -2.3512 19.1659 96.3873 0.0000 -2.7506 0.0000
# 4 0.0000 0.0000 0.0000 -22.1332 0.0000 -19.0736
# 5 6.9190 21.9585 -2.7506 0.0000 41.6890 0.0000
# 6 0.0000 0.0000 0.0000 -19.0736 0.0000 4.0196
#
#
#
# Elastic Compliance Matrix: (Units=1/GPa)
#
#
# Indices 1 2 3 4 5 6 
#
# 1 0.012142 -0.004818 0.001271 0.000000 0.000606 0.000000
# 2 -0.004818 0.014300 -0.003159 0.000000 -0.006941 0.000000
# 3 0.001271 -0.003159 0.011096 0.000000 0.002185 0.000000
# 4 0.000000 0.000000 0.000000 -0.008878 0.000000 -0.042127
# 5 0.000606 -0.006941 0.002185 0.000000 0.027687 0.000000
# 6 0.000000 0.000000 0.000000 -0.042127 0.000000 0.048884
#
#
# Mechanical properties :
#
#
# Convention : Reuss Voigt Hill
#
# Bulk Modulus (GPa) = 41.44537 43.72215 42.58376
# Shear Modulus (GPa) = 39.46798 20.53242 30.00020
#
# Velocity S-wave (km/s) = 4.15438 2.99643 3.62198
# Velocity P-wave (km/s) = 6.41369 5.57589 6.00941
#
# Compressibility (1/GPa) = 0.02412815
#
# Stress axis : x y z
#
# Youngs Moduli (GPa) = 82.35732 69.92952 90.11983
#
# Poissons Ratio (x) = 0.33689 -0.11458
# Poissons Ratio (y) = 0.39677 0.28469
# Poissons Ratio (z) = -0.10471 0.22091
#
# Static dielectric constant tensor:
#      x y z
#    x 0.370360 0.000000 0.448180 
#    y 0.000000 1.880630 0.000000 
#    z 0.448180 0.000000 1.675790 
# 
# From -- ./inp_files/8545.got.cif
#   From: 2010.05.17/outbox.cif.g08.bks.cpg/sg12_5_cif.got.tgz:8545.got - 2010.06.03 13:09:07.
