data_PCOD9197753
_publ_section_title
;
Structure prediction by ZEFSAII (Michael W. Deem and Ramdas Pophale) SiO2 
 PCOD9197753
Probable space group: C 2/M
;
_chemical_formula_sum "Si O2"
_cell_formula_units_Z 40
_cell_length_a 14.851481
_cell_length_b 18.365580
_cell_length_c 9.208642
_cell_angle_alpha 90.000000
_cell_angle_beta 45.447205
_cell_angle_gamma 90.000000
_cell_volume 1789.857426
_symmetry_space_group_name_H-M "C 2/M"
_symmetry_group_IT_number 12
_symmetry_cell_setting 'monoclinic'
loop_
_space_group_symop_operation_xyz
x,y,z
-x,y,-z
-x,-y,-z
x,-y,z
1/2+x,1/2+y,z
1/2-x,1/2+y,-z
1/2-x,1/2-y,-z
1/2+x,1/2-y,z
loop_
_atom_site_type_symbol
_atom_site_label
_atom_site_fract_x
_atom_site_fract_y
_atom_site_fract_z
Si Si1 0.588245 0.695378 0.769741
Si Si2 0.375701 0.728564 0.773077
Si Si3 0.936526 0.615378 0.705687
Si Si4 0.734186 0.579502 0.173306
Si Si5 0.166855 0.355975 0.661586
O O1 0.493121 0.713074 0.745736
O O2 0.705168 0.647716 0.579848
O O3 0.646313 0.774053 0.748498
O O4 0.500000 0.666638 0.000000
O O5 0.393532 0.807471 0.681835
O O6 0.351460 0.652179 0.722036
O O7 0.250000 0.750000 0.000000
O O8 0.000000 0.574590 0.500000
O O9 0.046130 0.626721 0.700619
O O10 0.818668 0.585412 0.931390
O O11 0.671893 0.500000 0.245592
O O12 0.819274 0.589399 0.220360
#
# Coordination Sequence:
#
# PCOD9197753 Si02
#       5
#     8   8   8   8   8
#     4  10  20  35  63  92 124 159 210 271 310 362
#     4   9  20  36  61  91 127 160 211 257 313 368
#     4  10  22  38  67  97 120 160 215 274 315 362
#     4  11  24  42  63  92 134 171 205 255 322 395
#     4  10  22  37  60  94 123 162 210 256 323 370
#
# _framework density 22.348148999999999
#
# number of rings (size 3 to 8) (size 9 to 14) (size 15 to 20)
#    0.000    2.000    0.000    4.200   14.000    2.000 
#    0.000    2.000    0.000    1.200    0.000    0.000 
#    0.000    0.000    0.000    0.000    0.000    0.000 
#
# Total GULP energy -111520.741897 kJ/mol
# GULP energy per Si atom -5576.037095 kJ/mol
# Density = 2.229728 g / cm^3
# Si number density = 22.348149 Si / 1000 Ang^3
#
#
#
# Elastic Constant Matrix: (Units=GPa)
#
#
# Indices 1 2 3 4 5 6 
#
# 1 46.8462 28.2670 -20.9060 0.0000 -3.2236 0.0000
# 2 28.2670 141.4010 11.6970 0.0000 8.8195 0.0000
# 3 -20.9060 11.6970 123.3832 0.0000 -7.8304 0.0000
# 4 0.0000 0.0000 0.0000 -7.3973 0.0000 2.0592
# 5 -3.2236 8.8195 -7.8304 0.0000 36.5919 0.0000
# 6 0.0000 0.0000 0.0000 2.0592 0.0000 -17.2518
#
#
#
# Elastic Compliance Matrix: (Units=1/GPa)
#
#
# Indices 1 2 3 4 5 6 
#
# 1 0.028131 -0.006423 0.005708 0.000000 0.005248 0.000000
# 2 -0.006423 0.008726 -0.002114 0.000000 -0.003121 0.000000
# 3 0.005708 -0.002114 0.009465 0.000000 0.003038 0.000000
# 4 0.000000 0.000000 0.000000 -0.139831 0.000000 -0.016690
# 5 0.005248 -0.003121 0.003038 0.000000 0.029193 0.000000
# 6 0.000000 0.000000 0.000000 -0.016690 0.000000 -0.059957
#
#
# Mechanical properties :
#
#
# Convention : Reuss Voigt Hill
#
# Bulk Modulus (GPa) = 24.59110 38.86071 31.72591
# Shear Modulus (GPa) = -47.59101 21.89339 -12.84881
#
# Velocity S-wave (km/s) = -4.61969 3.13333 -2.40039
# Velocity P-wave (km/s) = 4.17466 5.52421 2.55823
#
# Compressibility (1/GPa) = 0.04066512
#
# Stress axis : x y z
#
# Youngs Moduli (GPa) = 35.54831 114.60502 105.64972
#
# Poissons Ratio (x) = 0.73612 -0.60310
# Poissons Ratio (y) = 0.22833 0.22330
# Poissons Ratio (z) = -0.20293 0.24223
#
# Static dielectric constant tensor:
#      x y z
#    x 1.827560 0.000000 -0.022520 
#    y 0.000000 1.840740 0.000000 
#    z -0.022520 0.000000 1.926740 
# 
# From -- ./inp_files/63153.got.cif
#   From: 2010.05.17/outbox.cif.g08.bks.cpg/sg12_32_cif.got.tgz:63153.got - 2010.06.03 13:09:07.
