data_PCOD9197354
_publ_section_title
;
Structure prediction by ZEFSAII (Michael W. Deem and Ramdas Pophale) SiO2 
 PCOD9197354
Probable space group: C 2/M
;
_chemical_formula_sum "Si O2"
_cell_formula_units_Z 60
_cell_length_a 9.298348
_cell_length_b 25.269612
_cell_length_c 20.714219
_cell_angle_alpha 90.000000
_cell_angle_beta 37.061257
_cell_angle_gamma 90.000000
_cell_volume 2933.265990
_symmetry_space_group_name_H-M "C 2/M"
_symmetry_group_IT_number 12
_symmetry_cell_setting 'monoclinic'
loop_
_space_group_symop_operation_xyz
x,y,z
-x,y,-z
-x,-y,-z
x,-y,z
1/2+x,1/2+y,z
1/2-x,1/2+y,-z
1/2-x,1/2-y,-z
1/2+x,1/2-y,z
loop_
_atom_site_type_symbol
_atom_site_label
_atom_site_fract_x
_atom_site_fract_y
_atom_site_fract_z
Si Si1 0.177679 0.137877 0.082552
Si Si2 0.238024 0.357284 0.594780
Si Si3 0.508252 0.938113 0.574463
Si Si4 0.953770 0.939623 0.767905
Si Si5 0.730955 0.443080 0.305089
Si Si6 0.000000 0.269001 0.000000
Si Si7 0.225002 0.681667 0.178019
Si Si8 0.259866 0.916172 0.924337
O O1 0.186875 0.107155 0.146551
O O2 0.912184 0.156879 0.161086
O O3 0.332305 0.190580 0.021752
O O4 0.255297 0.096003 0.001128
O O5 0.500000 0.330855 0.500000
O O6 0.274584 0.399916 0.638400
O O7 0.149269 0.393319 0.565245
O O8 0.028728 0.318402 0.694986
O O9 0.500000 0.928729 0.500000
O O10 0.227298 0.936677 0.693689
O O11 0.587646 0.000000 0.556292
O O12 0.932126 0.932222 0.698732
O O13 0.868766 0.000000 0.811315
O O14 0.665091 0.500000 0.355888
O O15 0.002318 0.445031 0.181956
O O16 0.837269 0.233957 0.105970
O O17 0.221638 0.639737 0.120306
O O18 0.000000 0.939077 0.000000
#
# Coordination Sequence:
#
# PCOD9197354 Si02
#       8
#     8   8   8   8   8   4   8   8
#     4  11  20  37  61  92 121 162 203 249 315 364
#     4  11  22  39  62  85 122 165 204 256 311 363
#     4  10  20  35  59  88 119 160 209 256 303 361
#     4  10  21  37  56  87 131 165 202 251 302 371
#     4  10  21  35  53  85 121 163 211 251 294 360
#     4  12  22  36  67  92 117 156 204 270 304 360
#     4  10  21  38  58  90 121 151 207 256 306 367
#     4   9  19  35  53  80 122 158 199 250 303 365
#
# _framework density 20.455015
#
# number of rings (size 3 to 8) (size 9 to 14) (size 15 to 20)
#    0.000    1.733    3.333    2.400    0.000    2.933 
#    0.000    1.667    0.000    1.600    0.000    0.000 
#    0.000    0.000    0.000    0.000    0.000    0.000 
#
# Total GULP energy -167336.975196 kJ/mol
# GULP energy per Si atom -5577.899173 kJ/mol
# Density = 2.040846 g / cm^3
# Si number density = 20.455015 Si / 1000 Ang^3
#
#
#
# Elastic Constant Matrix: (Units=GPa)
#
#
# Indices 1 2 3 4 5 6 
#
# 1 59.6214 12.8484 19.3369 0.0001 -1.8783 -0.0001
# 2 12.8484 73.4339 22.8905 0.0000 14.0379 0.0000
# 3 19.3369 22.8905 94.6856 -0.0002 -17.7637 0.0002
# 4 0.0001 0.0000 -0.0002 12.2222 0.0000 -6.3080
# 5 -1.8783 14.0379 -17.7637 0.0000 25.3720 -0.0001
# 6 -0.0001 0.0000 0.0002 -6.3080 -0.0001 -6.8215
#
#
#
# Elastic Compliance Matrix: (Units=1/GPa)
#
#
# Indices 1 2 3 4 5 6 
#
# 1 0.018289 -0.002334 -0.003079 0.000000 0.000489 0.000000
# 2 -0.002334 0.019291 -0.007163 0.000000 -0.015861 0.000000
# 3 -0.003079 -0.007163 0.015682 0.000000 0.014715 0.000000
# 4 0.000000 0.000000 0.000000 0.055386 0.000000 -0.051216
# 5 0.000489 -0.015861 0.014715 0.000000 0.058527 0.000000
# 6 0.000000 0.000000 0.000000 -0.051216 0.000000 -0.099235
#
#
# Mechanical properties :
#
#
# Convention : Reuss Voigt Hill
#
# Bulk Modulus (GPa) = 35.57262 37.54362 36.55812
# Shear Modulus (GPa) = 48.79883 17.66556 33.23219
#
# Velocity S-wave (km/s) = 4.88963 2.94195 4.03506
# Velocity P-wave (km/s) = 7.02185 5.47121 6.29446
#
# Compressibility (1/GPa) = 0.02811151
#
# Stress axis : x y z
#
# Youngs Moduli (GPa) = 54.67623 51.83848 63.76654
#
# Poissons Ratio (x) = 0.12098 0.19634
# Poissons Ratio (y) = 0.12760 0.45673
# Poissons Ratio (z) = 0.16835 0.37130
#
# Static dielectric constant tensor:
#      x y z
#    x 1.757730 0.000000 -0.049800 
#    y 0.000000 1.702580 0.000000 
#    z -0.049800 0.000000 1.796710 
# 
# From -- ./inp_files/302757.got.cif
#   From: 2010.05.17/outbox.cif.g08.bks.cpg/sg12_152_cif.got.tgz:302757.got - 2010.06.03 13:09:07.
