data_PCOD9197618
_publ_section_title
;
Structure prediction by ZEFSAII (Michael W. Deem and Ramdas Pophale) SiO2 
 PCOD9197618
Probable space group: C 2/M
;
_chemical_formula_sum "Si O2"
_cell_formula_units_Z 56
_cell_length_a 20.915048
_cell_length_b 14.613441
_cell_length_c 15.581365
_cell_angle_alpha 90.000000
_cell_angle_beta 30.723929
_cell_angle_gamma 90.000000
_cell_volume 2433.069109
_symmetry_space_group_name_H-M "C 2/M"
_symmetry_group_IT_number 12
_symmetry_cell_setting 'monoclinic'
loop_
_space_group_symop_operation_xyz
x,y,z
-x,y,-z
-x,-y,-z
x,-y,z
1/2+x,1/2+y,z
1/2-x,1/2+y,-z
1/2-x,1/2-y,-z
1/2+x,1/2-y,z
loop_
_atom_site_type_symbol
_atom_site_label
_atom_site_fract_x
_atom_site_fract_y
_atom_site_fract_z
Si Si1 0.272921 0.890847 0.311381
Si Si2 0.452560 0.109480 0.457832
Si Si3 0.168470 0.895025 0.245755
Si Si4 0.974998 0.896352 0.340871
Si Si5 0.037308 0.831271 0.099954
Si Si6 0.862301 0.681537 0.899954
Si Si7 0.181406 0.195904 0.762579
O O1 0.202580 0.869252 0.302217
O O2 0.360246 0.801874 0.209619
O O3 0.168097 0.866495 0.503748
O O4 0.312318 0.000000 0.268425
O O5 0.500000 0.127696 0.500000
O O6 0.561154 0.137301 0.265505
O O7 0.324954 0.165973 0.586578
O O8 0.427586 0.000000 0.479437
O O9 0.055058 0.849024 0.323906
O O10 0.135340 0.000000 0.292600
O O11 0.289510 0.887256 0.046161
O O12 0.051772 0.897259 0.164646
O O13 0.953490 0.000000 0.393122
O O14 0.910405 0.855808 0.196947
O O15 0.043272 0.737262 0.147580
O O16 0.142225 0.826767 0.905757
O O17 0.750000 0.750000 0.000000
#
# Coordination Sequence:
#
# PCOD9197618 Si02
#       7
#     8   8   8   8   8   8   8
#     4  10  21  39  63  96 130 167 214 271 338 397
#     4  11  27  46  68 100 138 179 224 275 336 400
#     4  10  20  35  60  95 129 161 209 267 331 393
#     4  10  21  36  60  92 127 163 212 276 326 387
#     4  11  24  43  64  98 126 175 232 272 335 406
#     4  12  22  40  67  97 131 175 220 270 334 393
#     4  11  25  45  68  90 136 177 222 283 333 398
#
# _framework density 23.016199
#
# number of rings (size 3 to 8) (size 9 to 14) (size 15 to 20)
#    0.000    1.286    2.857    2.571    0.000    5.143 
#    0.000    5.714    0.000    0.000    0.000    0.000 
#    0.000    0.000    0.000    0.000    0.000    0.000 
#
# Total GULP energy -155932.563188 kJ/mol
# GULP energy per Si atom -5569.020114 kJ/mol
# Density = 2.296381 g / cm^3
# Si number density = 23.016199 Si / 1000 Ang^3
#
#
#
# Elastic Constant Matrix: (Units=GPa)
#
#
# Indices 1 2 3 4 5 6 
#
# 1 62.1033 11.0860 18.1207 0.0000 6.9302 0.0000
# 2 11.0860 66.4656 15.4194 0.0000 -4.5564 0.0000
# 3 18.1207 15.4194 125.9977 0.0000 15.7053 0.0000
# 4 0.0000 0.0000 0.0000 31.4630 0.0000 9.3672
# 5 6.9302 -4.5564 15.7053 0.0000 34.8920 0.0000
# 6 0.0000 0.0000 0.0000 9.3672 0.0000 8.5058
#
#
#
# Elastic Compliance Matrix: (Units=1/GPa)
#
#
# Indices 1 2 3 4 5 6 
#
# 1 0.017445 -0.002697 -0.001804 0.000000 -0.003005 0.000000
# 2 -0.002697 0.016214 -0.002042 0.000000 0.003572 0.000000
# 3 -0.001804 -0.002042 0.008936 0.000000 -0.003930 0.000000
# 4 0.000000 0.000000 0.000000 0.047288 0.000000 -0.052076
# 5 -0.003005 0.003572 -0.003930 0.000000 0.031492 0.000000
# 6 0.000000 0.000000 0.000000 -0.052076 0.000000 0.174917
#
#
# Mechanical properties :
#
#
# Convention : Reuss Voigt Hill
#
# Bulk Modulus (GPa) = 33.88797 38.20209 36.04503
# Shear Modulus (GPa) = 15.66347 28.96819 22.31583
#
# Velocity S-wave (km/s) = 2.61155 3.55152 3.11717
# Velocity P-wave (km/s) = 4.88355 5.78375 5.35261
#
# Compressibility (1/GPa) = 0.02950899
#
# Stress axis : x y z
#
# Youngs Moduli (GPa) = 57.32146 61.67611 111.90819
#
# Poissons Ratio (x) = 0.16635 0.20192
# Poissons Ratio (y) = 0.15461 0.22847
# Poissons Ratio (z) = 0.10343 0.12591
#
# Static dielectric constant tensor:
#      x y z
#    x 1.944840 0.000000 -0.030560 
#    y 0.000000 2.024140 0.000000 
#    z -0.030560 0.000000 1.907780 
# 
# From -- ./inp_files/234640.got.cif
#   From: 2010.05.17/outbox.cif.g08.bks.cpg/sg12_118_cif.got.tgz:234640.got - 2010.06.03 13:09:07.
