data_PCOD9197407
_publ_section_title
;
Structure prediction by ZEFSAII (Michael W. Deem and Ramdas Pophale) SiO2 
 PCOD9197407
Probable space group: C 2/M
;
_chemical_formula_sum "Si O2"
_cell_formula_units_Z 56
_cell_length_a 8.885786
_cell_length_b 20.167295
_cell_length_c 17.531199
_cell_angle_alpha 90.000000
_cell_angle_beta 112.089547
_cell_angle_gamma 90.000000
_cell_volume 2911.026299
_symmetry_space_group_name_H-M "C 2/M"
_symmetry_group_IT_number 12
_symmetry_cell_setting 'monoclinic'
loop_
_space_group_symop_operation_xyz
x,y,z
-x,y,-z
-x,-y,-z
x,-y,z
1/2+x,1/2+y,z
1/2-x,1/2+y,-z
1/2-x,1/2-y,-z
1/2+x,1/2-y,z
loop_
_atom_site_type_symbol
_atom_site_label
_atom_site_fract_x
_atom_site_fract_y
_atom_site_fract_z
Si Si1 0.350969 0.302080 0.267417
Si Si2 0.640835 0.247571 0.901743
Si Si3 0.445038 0.826983 0.680515
Si Si4 0.653348 0.922619 0.471145
Si Si5 0.268141 0.926214 0.240076
Si Si6 0.114122 0.154912 0.090755
Si Si7 0.069636 0.074036 0.355702
O O1 0.337214 0.289562 0.173177
O O2 0.452961 0.239282 0.318903
O O3 0.178635 0.305860 0.276691
O O4 0.444993 0.368757 0.309340
O O5 0.698959 0.173625 0.891668
O O6 0.470042 0.276301 0.898240
O O7 0.750000 0.250000 0.000000
O O8 0.358591 0.865461 0.594615
O O9 0.575679 0.880649 0.731895
O O10 0.500000 0.915140 0.500000
O O11 0.822932 0.914846 0.548491
O O12 0.644661 0.000000 0.441423
O O13 0.125619 0.896509 0.160828
O O14 0.202028 0.926953 0.313223
O O15 0.307218 0.000000 0.222493
O O16 0.000000 0.131486 0.000000
O O17 0.995248 0.000000 0.345666
#
# Coordination Sequence:
#
# PCOD9197407 Si02
#       7
#     8   8   8   8   8   8   8
#     4  12  24  41  64  93 127 161 207 267 316 376
#     4  10  20  36  60  90 122 156 200 249 309 374
#     4  12  25  39  62  92 126 161 210 262 317 369
#     4  10  21  41  66  90 124 170 216 258 309 377
#     4  11  21  38  62  87 120 164 209 252 308 376
#     4  10  20  35  59  90 118 156 200 249 309 372
#     4  10  22  41  65  89 122 169 213 257 313 376
#
# _framework density 19.237203000000001
#
# number of rings (size 3 to 8) (size 9 to 14) (size 15 to 20)
#    0.000    1.286    4.286    2.143    0.000    2.571 
#    0.000    1.429    0.000    0.000    0.000    2.000 
#    0.000    0.000    0.000    0.000    0.000    0.000 
#
# Total GULP energy -155888.025491 kJ/mol
# GULP energy per Si atom -5567.429482 kJ/mol
# Density = 1.919342 g / cm^3
# Si number density = 19.237203 Si / 1000 Ang^3
#
#
#
# Elastic Constant Matrix: (Units=GPa)
#
#
# Indices 1 2 3 4 5 6 
#
# 1 55.2956 24.2185 9.2041 0.0000 5.5261 0.0000
# 2 24.2185 117.0671 61.2554 0.0000 17.0769 0.0000
# 3 9.2041 61.2554 125.1607 0.0000 3.3179 0.0000
# 4 0.0000 0.0000 0.0000 0.8084 0.0000 -3.5228
# 5 5.5261 17.0769 3.3179 0.0000 27.0720 0.0000
# 6 0.0000 0.0000 0.0000 -3.5228 0.0000 26.5010
#
#
#
# Elastic Compliance Matrix: (Units=1/GPa)
#
#
# Indices 1 2 3 4 5 6 
#
# 1 0.019990 -0.004264 0.000656 0.000000 -0.001471 0.000000
# 2 -0.004264 0.013691 -0.006201 0.000000 -0.007006 0.000000
# 3 0.000656 -0.006201 0.010912 0.000000 0.002441 0.000000
# 4 0.000000 0.000000 0.000000 2.940304 0.000000 0.390855
# 5 -0.001471 -0.007006 0.002441 0.000000 0.041359 0.000000
# 6 0.000000 0.000000 0.000000 0.390855 0.000000 0.089691
#
#
# Mechanical properties :
#
#
# Convention : Reuss Voigt Hill
#
# Bulk Modulus (GPa) = 40.04179 54.09771 47.06975
# Shear Modulus (GPa) = 1.59039 24.39930 12.99484
#
# Velocity S-wave (km/s) = 0.91023 3.56524 2.60187
# Velocity P-wave (km/s) = 4.68665 6.71791 5.79202
#
# Compressibility (1/GPa) = 0.02497391
#
# Stress axis : x y z
#
# Youngs Moduli (GPa) = 50.02480 73.04043 91.64390
#
# Poissons Ratio (x) = 0.31145 -0.06011
# Poissons Ratio (y) = 0.21331 0.56831
# Poissons Ratio (z) = -0.03281 0.45295
#
# Static dielectric constant tensor:
#      x y z
#    x 1.751030 0.000000 -0.000290 
#    y 0.000000 1.679860 0.000000 
#    z -0.000290 0.000000 1.772130 
# 
# From -- ./inp_files/258244.got.cif
#   From: 2010.05.17/outbox.cif.g08.bks.cpg/sg12_130_cif.got.tgz:258244.got - 2010.06.03 13:09:07.
