data_PCOD9197103
_publ_section_title
;
Structure prediction by ZEFSAII (Michael W. Deem and Ramdas Pophale) SiO2 
 PCOD9197103
Probable space group: C 2/M
;
_chemical_formula_sum "Si O2"
_cell_formula_units_Z 40
_cell_length_a 17.732736
_cell_length_b 9.740133
_cell_length_c 15.790368
_cell_angle_alpha 90.000000
_cell_angle_beta 41.872139
_cell_angle_gamma 90.000000
_cell_volume 1820.392306
_symmetry_space_group_name_H-M "C 2/M"
_symmetry_group_IT_number 12
_symmetry_cell_setting 'monoclinic'
loop_
_space_group_symop_operation_xyz
x,y,z
-x,y,-z
-x,-y,-z
x,-y,z
1/2+x,1/2+y,z
1/2-x,1/2+y,-z
1/2-x,1/2-y,-z
1/2+x,1/2-y,z
loop_
_atom_site_type_symbol
_atom_site_label
_atom_site_fract_x
_atom_site_fract_y
_atom_site_fract_z
Si Si1 0.153494 0.340218 0.627581
Si Si2 0.183707 0.835336 0.764918
Si Si3 0.094520 0.281169 0.202986
Si Si4 0.347835 0.349526 0.020406
Si Si5 0.618608 0.352165 0.354049
O O1 0.188534 0.500000 0.608259
O O2 0.250000 0.250000 0.500000
O O3 0.135157 0.256507 0.730276
O O4 0.031108 0.341312 0.684053
O O5 0.129615 0.805908 0.902282
O O6 0.309725 0.774823 0.671150
O O7 0.182084 0.000000 0.751550
O O8 0.211191 0.358877 0.126833
O O9 0.100378 0.162191 0.268681
O O10 0.111848 0.241168 0.090796
O O11 0.398800 0.500000 0.966333
O O12 0.500000 0.351521 0.500000
O O13 0.675503 0.500000 0.323093
#
# Coordination Sequence:
#
# PCOD9197103 Si02
#       5
#     8   8   8   8   8
#     4  12  26  43  63  90 126 164 205 252 307 369
#     4  10  22  39  59  86 122 162 205 252 305 364
#     4  10  21  37  61  91 122 160 206 257 308 362
#     4   9  19  38  62  88 119 159 206 254 307 366
#     4  10  20  35  58  87 119 158 206 258 309 363
#
# _framework density 21.973286000000002
#
# number of rings (size 3 to 8) (size 9 to 14) (size 15 to 20)
#    0.000    1.800    0.000    3.600    0.000    6.800 
#    0.000    6.000    0.000    0.000    0.000    0.000 
#    0.000    0.000    0.000    0.000    0.000    0.000 
#
# Total GULP energy -111481.359717 kJ/mol
# GULP energy per Si atom -5574.067986 kJ/mol
# Density = 2.192327 g / cm^3
# Si number density = 21.973286 Si / 1000 Ang^3
#
#
#
# Elastic Constant Matrix: (Units=GPa)
#
#
# Indices 1 2 3 4 5 6 
#
# 1 100.5767 45.7790 45.1447 0.0000 -7.4622 0.0000
# 2 45.7790 132.9447 44.6655 0.0000 1.7162 0.0000
# 3 45.1447 44.6655 86.8331 0.0000 -9.0326 0.0000
# 4 0.0000 0.0000 0.0000 -78.7639 0.0000 26.2158
# 5 -7.4622 1.7162 -9.0326 0.0000 38.4956 0.0000
# 6 0.0000 0.0000 0.0000 26.2158 0.0000 13.9746
#
#
#
# Elastic Compliance Matrix: (Units=1/GPa)
#
#
# Indices 1 2 3 4 5 6 
#
# 1 0.013883 -0.002936 -0.005549 0.000000 0.001520 0.000000
# 2 -0.002936 0.009804 -0.003712 0.000000 -0.001877 0.000000
# 3 -0.005549 -0.003712 0.016622 0.000000 0.002990 0.000000
# 4 0.000000 0.000000 0.000000 -0.007816 0.000000 0.014662
# 5 0.001520 -0.001877 0.002990 0.000000 0.027057 0.000000
# 6 0.000000 0.000000 0.000000 0.014662 0.000000 0.044052
#
#
# Mechanical properties :
#
#
# Convention : Reuss Voigt Hill
#
# Bulk Modulus (GPa) = 62.83637 65.72588 64.28113
# Shear Modulus (GPa) = 37.50907 7.05895 22.28401
#
# Velocity S-wave (km/s) = 4.13610 1.79429 3.18801
# Velocity P-wave (km/s) = 7.17416 5.85400 6.54744
#
# Compressibility (1/GPa) = 0.01591435
#
# Stress axis : x y z
#
# Youngs Moduli (GPa) = 72.03313 101.99721 60.16110
#
# Poissons Ratio (x) = 0.29942 0.33386
# Poissons Ratio (y) = 0.21146 0.22333
# Poissons Ratio (z) = 0.39974 0.37863
#
# Static dielectric constant tensor:
#      x y z
#    x 1.861660 0.000000 -0.011100 
#    y 0.000000 1.819130 0.000000 
#    z -0.011100 0.000000 1.814810 
# 
# From -- ./inp_files/212367.got.cif
#   From: 2010.05.17/outbox.cif.g08.bks.cpg/sg12_107_cif.got.tgz:212367.got - 2010.06.03 13:09:07.
