data_PCOD9197658
_publ_section_title
;
Structure prediction by ZEFSAII (Michael W. Deem and Ramdas Pophale) SiO2 
 PCOD9197658
Probable space group: C 2/M
;
_chemical_formula_sum "Si O2"
_cell_formula_units_Z 56
_cell_length_a 21.718048
_cell_length_b 12.831764
_cell_length_c 18.901946
_cell_angle_alpha 90.000000
_cell_angle_beta 145.989511
_cell_angle_gamma 90.000000
_cell_volume 2946.409931
_symmetry_space_group_name_H-M "C 2/M"
_symmetry_group_IT_number 12
_symmetry_cell_setting 'monoclinic'
loop_
_space_group_symop_operation_xyz
x,y,z
-x,y,-z
-x,-y,-z
x,-y,z
1/2+x,1/2+y,z
1/2-x,1/2+y,-z
1/2-x,1/2-y,-z
1/2+x,1/2-y,z
loop_
_atom_site_type_symbol
_atom_site_label
_atom_site_fract_x
_atom_site_fract_y
_atom_site_fract_z
Si Si1 0.816662 0.381863 0.629678
Si Si2 0.314372 0.379415 0.799705
Si Si3 0.535116 0.805867 0.109231
Si Si4 0.355458 0.379305 0.139193
Si Si5 0.424716 0.118542 0.497148
Si Si6 0.415197 0.720862 0.610384
Si Si7 0.190873 0.777669 0.052547
O O1 0.826064 0.500000 0.611987
O O2 0.878373 0.371118 0.763209
O O3 0.689340 0.348403 0.511766
O O4 0.874599 0.298489 0.633450
O O5 0.349040 0.500000 0.834130
O O6 0.405409 0.304109 0.852464
O O7 0.202388 0.371802 0.647868
O O8 0.291330 0.338794 0.857213
O O9 0.500000 0.852099 0.000000
O O10 0.424916 0.782592 0.048108
O O11 0.338130 0.500000 0.138512
O O12 0.482993 0.348270 0.268007
O O13 0.285061 0.305373 0.123837
O O14 0.318216 0.353022 0.023664
O O15 0.500000 0.131862 0.500000
O O16 0.449951 0.204530 0.579215
O O17 0.442110 0.000000 0.540114
#
# Coordination Sequence:
#
# PCOD9197658 Si02
#       7
#     8   8   8   8   8   8   8
#     4  11  23  40  62  89 122 162 202 248 306 358
#     4  10  20  37  63  90 120 155 198 253 306 349
#     4  10  21  40  62  88 120 154 203 256 297 357
#     4  11  23  40  63  88 121 163 199 243 304 360
#     4  10  20  35  61  91 121 158 196 246 303 353
#     4  11  22  41  61  90 123 158 200 255 290 369
#     4  10  22  40  59  90 121 152 199 255 295 362
#
# _framework density 19.006181999999999
#
# number of rings (size 3 to 8) (size 9 to 14) (size 15 to 20)
#    0.000    1.571    2.857    2.143    0.000    4.000 
#    0.000    3.571    0.000    1.714    0.000    0.000 
#    0.000    0.000    0.000    0.000    0.000    0.000 
#
# Total GULP energy -156441.980072 kJ/mol
# GULP energy per Si atom -5587.213574 kJ/mol
# Density = 1.896292 g / cm^3
# Si number density = 19.006182 Si / 1000 Ang^3
#
#
#
# Elastic Constant Matrix: (Units=GPa)
#
#
# Indices 1 2 3 4 5 6 
#
# 1 51.8597 12.3316 7.0989 0.0000 11.4628 0.0000
# 2 12.3316 74.5972 38.6767 0.0000 0.0348 0.0000
# 3 7.0989 38.6767 64.4522 0.0000 3.0167 0.0000
# 4 0.0000 0.0000 0.0000 -9.6188 0.0000 15.5094
# 5 11.4628 0.0348 3.0167 0.0000 30.4958 0.0000
# 6 0.0000 0.0000 0.0000 15.5094 0.0000 12.2586
#
#
#
# Elastic Compliance Matrix: (Units=1/GPa)
#
#
# Indices 1 2 3 4 5 6 
#
# 1 0.021972 -0.003737 0.000210 0.000000 -0.008275 0.000000
# 2 -0.003737 0.020135 -0.011790 0.000000 0.002548 0.000000
# 3 0.000210 -0.011790 0.022675 0.000000 -0.002309 0.000000
# 4 0.000000 0.000000 0.000000 -0.034198 0.000000 0.043267
# 5 -0.008275 0.002548 -0.002309 0.000000 0.036127 0.000000
# 6 0.000000 0.000000 0.000000 0.043267 0.000000 0.026834
#
#
# Mechanical properties :
#
#
# Convention : Reuss Voigt Hill
#
# Bulk Modulus (GPa) = 29.28499 34.12482 31.70490
# Shear Modulus (GPa) = 36.88340 15.48059 26.18200
#
# Velocity S-wave (km/s) = 4.41000 2.85705 3.71556
# Velocity P-wave (km/s) = 6.43214 5.37375 5.92662
#
# Compressibility (1/GPa) = 0.03414719
#
# Stress axis : x y z
#
# Youngs Moduli (GPa) = 45.51290 49.66511 44.10057
#
# Poissons Ratio (x) = 0.18560 -0.00926
# Poissons Ratio (y) = 0.17009 0.51996
# Poissons Ratio (z) = -0.00955 0.58556
#
# Static dielectric constant tensor:
#      x y z
#    x 1.640520 0.000000 -0.007560 
#    y 0.000000 1.620470 0.000000 
#    z -0.007560 0.000000 1.669540 
# 
# From -- ./inp_files/325175.got.cif
#   From: 2010.05.17/outbox.cif.g08.bks.cpg/sg12_163_cif.got.tgz:325175.got - 2010.06.03 13:09:07.
