data_PCOD9197272
_publ_section_title
;
Structure prediction by ZEFSAII (Michael W. Deem and Ramdas Pophale) SiO2 
 PCOD9197272
Probable space group: C 2/M
;
_chemical_formula_sum "Si O2"
_cell_formula_units_Z 32
_cell_length_a 14.325096
_cell_length_b 19.053106
_cell_length_c 10.673555
_cell_angle_alpha 90.000000
_cell_angle_beta 152.708682
_cell_angle_gamma 90.000000
_cell_volume 1335.752107
_symmetry_space_group_name_H-M "C 2/M"
_symmetry_group_IT_number 12
_symmetry_cell_setting 'monoclinic'
loop_
_space_group_symop_operation_xyz
x,y,z
-x,y,-z
-x,-y,-z
x,-y,z
1/2+x,1/2+y,z
1/2-x,1/2+y,-z
1/2-x,1/2-y,-z
1/2+x,1/2-y,z
loop_
_atom_site_type_symbol
_atom_site_label
_atom_site_fract_x
_atom_site_fract_y
_atom_site_fract_z
Si Si1 0.368008 0.500000 0.471154
Si Si2 0.735024 0.853262 0.396746
Si Si3 0.158881 0.855900 0.987394
Si Si4 0.144148 0.000000 0.050779
Si Si5 0.219791 0.302203 0.114272
O O1 0.500000 0.500000 0.500000
O O2 0.231759 0.431310 0.334154
O O3 0.519944 0.500000 0.771801
O O4 0.790502 0.808449 0.340828
O O5 0.913302 0.851751 0.712767
O O6 0.519050 0.823187 0.180437
O O7 0.182382 0.857992 0.864597
O O8 0.247650 0.923367 0.164029
O O9 0.249570 0.779828 0.121917
O O10 0.000000 0.000000 0.000000
#
# Coordination Sequence:
#
# PCOD9197272 Si02
#       5
#     4   8   8   4   8
#     4  10  20  38  63  89 117 156 203 252 302 351
#     4  10  20  35  59  85 113 148 197 256 294 348
#     4  10  21  39  56  84 119 156 200 240 299 358
#     4  10  22  37  63  85 122 167 193 240 302 366
#     4  10  21  34  59  90 112 154 199 252 301 345
#
# _framework density 23.956538999999999
#
# number of rings (size 3 to 8) (size 9 to 14) (size 15 to 20)
#    0.000    2.000    0.000    4.500    3.500    3.000 
#    0.000    0.000    0.000    6.000    0.000    0.000 
#    0.000    0.000    0.000    0.000    0.000    0.000 
#
# Total GULP energy -89231.684196 kJ/mol
# GULP energy per Si atom -5576.980262 kJ/mol
# Density = 2.390201 g / cm^3
# Si number density = 23.956539 Si / 1000 Ang^3
#
#
#
# Elastic Constant Matrix: (Units=GPa)
#
#
# Indices 1 2 3 4 5 6 
#
# 1 78.2225 28.2305 -1.5823 0.0000 8.6435 0.0000
# 2 28.2305 177.5195 2.4325 0.0000 6.8680 0.0000
# 3 -1.5823 2.4325 47.2790 0.0000 4.9850 0.0000
# 4 0.0000 0.0000 0.0000 17.5530 0.0000 0.6396
# 5 8.6435 6.8680 4.9850 0.0000 20.7982 0.0000
# 6 0.0000 0.0000 0.0000 0.6396 0.0000 28.1210
#
#
#
# Elastic Compliance Matrix: (Units=1/GPa)
#
#
# Indices 1 2 3 4 5 6 
#
# 1 0.014155 -0.002055 0.001157 0.000000 -0.005481 0.000000
# 2 -0.002055 0.006005 -0.000265 0.000000 -0.001065 0.000000
# 3 0.001157 -0.000265 0.021796 0.000000 -0.005617 0.000000
# 4 0.000000 0.000000 0.000000 0.057018 0.000000 -0.001297
# 5 -0.005481 -0.001065 -0.005617 0.000000 0.052057 0.000000
# 6 0.000000 0.000000 0.000000 -0.001297 0.000000 0.035590
#
#
# Mechanical properties :
#
#
# Convention : Reuss Voigt Hill
#
# Bulk Modulus (GPa) = 25.23361 40.13138 32.68250
# Shear Modulus (GPa) = 24.73340 31.55712 28.14526
#
# Velocity S-wave (km/s) = 3.21663 3.63335 3.43132
# Velocity P-wave (km/s) = 4.93473 5.86428 5.41947
#
# Compressibility (1/GPa) = 0.03962968
#
# Stress axis : x y z
#
# Youngs Moduli (GPa) = 70.64787 166.53327 45.88057
#
# Poissons Ratio (x) = 0.34219 -0.05310
# Poissons Ratio (y) = 0.14517 0.01218
# Poissons Ratio (z) = -0.08177 0.04420
#
# Static dielectric constant tensor:
#      x y z
#    x 1.935600 0.000000 -0.001710 
#    y 0.000000 2.016850 0.000000 
#    z -0.001710 0.000000 1.997430 
# 
# From -- ./inp_files/145219.got.cif
#   From: 2010.05.17/outbox.cif.g08.bks.cpg/sg12_73_cif.got.tgz:145219.got - 2010.06.03 13:09:07.
