data_PCOD9197866
_publ_section_title
;
Structure prediction by ZEFSAII (Michael W. Deem and Ramdas Pophale) SiO2 
 PCOD9197866
Probable space group: C 2/M
;
_chemical_formula_sum "Si O2"
_cell_formula_units_Z 64
_cell_length_a 14.117000
_cell_length_b 12.712829
_cell_length_c 18.165559
_cell_angle_alpha 90.000000
_cell_angle_beta 80.220903
_cell_angle_gamma 90.000000
_cell_volume 3212.748753
_symmetry_space_group_name_H-M "C 2/M"
_symmetry_group_IT_number 12
_symmetry_cell_setting 'monoclinic'
loop_
_space_group_symop_operation_xyz
x,y,z
-x,y,-z
-x,-y,-z
x,-y,z
1/2+x,1/2+y,z
1/2-x,1/2+y,-z
1/2-x,1/2-y,-z
1/2+x,1/2-y,z
loop_
_atom_site_type_symbol
_atom_site_label
_atom_site_fract_x
_atom_site_fract_y
_atom_site_fract_z
Si Si1 0.096424 0.119808 0.358050
Si Si2 0.916425 0.186908 0.806119
Si Si3 0.114367 0.389544 0.475774
Si Si4 0.951688 0.375108 0.255121
Si Si5 0.445268 0.621752 0.081912
Si Si6 0.769558 0.311708 0.661436
Si Si7 0.293002 0.240911 0.179897
Si Si8 0.905811 0.237087 0.402272
O O1 0.074350 0.128141 0.273346
O O2 0.190283 0.192564 0.355172
O O3 0.002942 0.173936 0.406492
O O4 0.110003 0.000000 0.378799
O O5 0.803757 0.190854 0.839096
O O6 0.959623 0.304111 0.786060
O O7 0.980727 0.135095 0.860120
O O8 0.153922 0.500000 0.499478
O O9 0.146747 0.378152 0.387305
O O10 0.141741 0.290246 0.520819
O O11 0.000000 0.391843 0.500000
O O12 0.965815 0.500000 0.253407
O O13 0.861972 0.340853 0.214558
O O14 0.930635 0.328498 0.339347
O O15 0.415755 0.500000 0.079780
O O16 0.356338 0.696563 0.113205
O O17 0.500000 0.651970 0.000000
O O18 0.744308 0.319305 0.750152
O O19 0.673400 0.332577 0.628352
#
# Coordination Sequence:
#
# PCOD9197866 Si02
#       8
#     8   8   8   8   8   8   8   8
#     4  10  20  36  57  81 109 142 182 227 272 318
#     4   9  19  34  55  82 112 143 178 221 265 316
#     4  11  22  36  53  73 106 146 181 222 276 328
#     4   9  18  33  55  81 108 141 181 225 270 315
#     4  10  21  37  57  83 114 145 177 216 266 324
#     4  10  21  37  55  79 107 137 183 230 270 321
#     4   9  20  36  56  82 109 140 180 226 268 317
#     4  10  20  36  54  76 108 141 181 228 274 323
#
# _framework density 19.920635999999998
#
# number of rings (size 3 to 8) (size 9 to 14) (size 15 to 20)
#    0.000    2.250    1.250    1.875    0.000    7.500 
#    0.000    1.250    0.000    6.000    0.000    0.000 
#    0.000    0.000    0.000    0.000    0.000    0.000 
#
# Total GULP energy -178519.115867 kJ/mol
# GULP energy per Si atom -5578.722371 kJ/mol
# Density = 1.987530 g / cm^3
# Si number density = 19.920636 Si / 1000 Ang^3
#
#
#
# Elastic Constant Matrix: (Units=GPa)
#
#
# Indices 1 2 3 4 5 6 
#
# 1 68.0746 4.3905 -9.5207 0.0000 -15.1204 0.0000
# 2 4.3905 84.5820 23.0167 0.0000 -22.2245 0.0000
# 3 -9.5207 23.0167 68.5799 0.0000 -19.6663 0.0000
# 4 0.0000 0.0000 0.0000 9.4503 0.0000 9.0104
# 5 -15.1204 -22.2245 -19.6663 0.0000 24.8041 0.0000
# 6 0.0000 0.0000 0.0000 9.0104 0.0000 -1.3906
#
#
#
# Elastic Compliance Matrix: (Units=1/GPa)
#
#
# Indices 1 2 3 4 5 6 
#
# 1 0.020256 0.002201 0.007998 0.000000 0.020661 0.000000
# 2 0.002201 0.015835 -0.000719 0.000000 0.014960 0.000000
# 3 0.007998 -0.000719 0.022192 0.000000 0.021827 0.000000
# 4 0.000000 0.000000 0.000000 0.014742 0.000000 0.095521
# 5 0.020661 0.014960 0.021827 0.000000 0.083621 0.000000
# 6 0.000000 0.000000 0.000000 0.095521 0.000000 -0.100184
#
#
# Mechanical properties :
#
#
# Convention : Reuss Voigt Hill
#
# Bulk Modulus (GPa) = 12.94610 28.55661 20.75135
# Shear Modulus (GPa) = 79.05202 20.12942 49.59072
#
# Velocity S-wave (km/s) = 6.30632 3.18225 4.99482
# Velocity P-wave (km/s) = 7.71616 5.27908 6.61089
#
# Compressibility (1/GPa) = 0.07724333
#
# Stress axis : x y z
#
# Youngs Moduli (GPa) = 49.36917 63.15090 45.06045
#
# Poissons Ratio (x) = -0.13899 -0.36040
# Poissons Ratio (y) = -0.10866 0.03240
# Poissons Ratio (z) = -0.39486 0.04541
#
# Static dielectric constant tensor:
#      x y z
#    x 1.732040 0.000000 0.000840 
#    y 0.000000 1.711590 0.000000 
#    z 0.000840 0.000000 1.709120 
# 
# From -- ./inp_files/309859.got.cif
#   From: 2010.05.17/outbox.cif.g08.bks.cpg/sg12_155_cif.got.tgz:309859.got - 2010.06.03 13:09:07.
