data_PCOD9197303
_publ_section_title
;
Structure prediction by ZEFSAII (Michael W. Deem and Ramdas Pophale) SiO2 
 PCOD9197303
Probable space group: C 2/M
;
_chemical_formula_sum "Si O2"
_cell_formula_units_Z 56
_cell_length_a 15.703284
_cell_length_b 8.539049
_cell_length_c 24.854858
_cell_angle_alpha 90.000000
_cell_angle_beta 61.821979
_cell_angle_gamma 90.000000
_cell_volume 2937.825771
_symmetry_space_group_name_H-M "C 2/M"
_symmetry_group_IT_number 12
_symmetry_cell_setting 'monoclinic'
loop_
_space_group_symop_operation_xyz
x,y,z
-x,y,-z
-x,-y,-z
x,-y,z
1/2+x,1/2+y,z
1/2-x,1/2+y,-z
1/2-x,1/2-y,-z
1/2+x,1/2-y,z
loop_
_atom_site_type_symbol
_atom_site_label
_atom_site_fract_x
_atom_site_fract_y
_atom_site_fract_z
Si Si1 0.161064 0.689877 0.284661
Si Si2 0.020780 0.187996 0.931550
Si Si3 0.763682 0.686356 0.147686
Si Si4 0.828808 0.313001 0.933978
Si Si5 0.099170 0.309211 0.500232
Si Si6 0.560501 0.811233 0.632437
Si Si7 0.757929 0.188759 0.368094
O O1 0.164909 0.500000 0.279598
O O2 0.211600 0.762224 0.217921
O O3 0.213980 0.736423 0.324110
O O4 0.049065 0.736531 0.323289
O O5 0.126537 0.250730 0.885407
O O6 0.934118 0.252580 0.920618
O O7 0.020863 0.000000 0.928086
O O8 0.000000 0.232028 0.000000
O O9 0.765565 0.500000 0.142187
O O10 0.705531 0.755737 0.114216
O O11 0.828178 0.500000 0.935474
O O12 0.750000 0.250000 0.000000
O O13 0.101863 0.500000 0.500252
O O14 0.094480 0.255083 0.563135
O O15 0.188832 0.255086 0.437464
O O16 0.000000 0.265456 0.500000
O O17 0.635426 0.750031 0.653562
O O18 0.562231 0.000000 0.631006
O O19 0.757586 0.000000 0.369532
#
# Coordination Sequence:
#
# PCOD9197303 Si02
#       7
#     8   8   8   8   8   8   8
#     4  10  22  41  60  81 116 164 208 247 300 368
#     4  11  23  41  68  98 128 162 201 250 306 364
#     4  12  26  43  65  93 127 166 208 257 309 366
#     4  12  24  41  67  98 130 163 202 249 303 365
#     4   9  15  30  57  86 113 150 201 246 298 365
#     4  10  20  35  59  86 116 155 200 251 303 363
#     4  10  20  35  59  86 116 155 199 251 305 363
#
# _framework density 19.061715
#
# number of rings (size 3 to 8) (size 9 to 14) (size 15 to 20)
#    0.000    1.429    2.857    3.429    0.000    2.857 
#    0.000    2.857    0.000    0.857    0.000    0.000 
#    0.000    0.000    0.000    0.000    0.000    0.000 
#
# Total GULP energy -156510.845676 kJ/mol
# GULP energy per Si atom -5589.673060 kJ/mol
# Density = 1.901833 g / cm^3
# Si number density = 19.061715 Si / 1000 Ang^3
#
#
#
# Elastic Constant Matrix: (Units=GPa)
#
#
# Indices 1 2 3 4 5 6 
#
# 1 214.9224 51.4354 100.6681 0.0000 -5.6194 0.0000
# 2 51.4354 60.1207 48.9703 0.0000 -1.7264 0.0000
# 3 100.6681 48.9703 161.1410 0.0000 -1.1831 0.0000
# 4 0.0000 0.0000 0.0000 17.7053 0.0000 0.2475
# 5 -5.6194 -1.7264 -1.1831 0.0000 -6.0074 0.0000
# 6 0.0000 0.0000 0.0000 0.2475 0.0000 31.3538
#
#
#
# Elastic Compliance Matrix: (Units=1/GPa)
#
#
# Indices 1 2 3 4 5 6 
#
# 1 0.006877 -0.003314 -0.003324 0.000000 -0.004826 0.000000
# 2 -0.003314 0.023551 -0.005106 0.000000 -0.002663 0.000000
# 3 -0.003324 -0.005106 0.009854 0.000000 0.002637 0.000000
# 4 0.000000 0.000000 0.000000 0.056487 0.000000 -0.000446
# 5 -0.004826 -0.002663 0.002637 0.000000 -0.161702 0.000000
# 6 0.000000 0.000000 0.000000 -0.000446 0.000000 0.031898
#
#
# Mechanical properties :
#
#
# Convention : Reuss Voigt Hill
#
# Bulk Modulus (GPa) = 59.55136 93.14797 76.34967
# Shear Modulus (GPa) = -1266.29211 24.28436 -621.00388
#
# Velocity S-wave (km/s) = -25.80221 3.57317 -18.06912
# Velocity P-wave (km/s) = 29.26368 8.12379 19.87922
#
# Compressibility (1/GPa) = 0.01679223
#
# Stress axis : x y z
#
# Youngs Moduli (GPa) = 145.41292 42.46030 101.48432
#
# Poissons Ratio (x) = 0.14072 0.33738
# Poissons Ratio (y) = 0.48193 0.51821
# Poissons Ratio (z) = 0.48342 0.21682
#
# Static dielectric constant tensor:
#      x y z
#    x 1.641490 0.000000 0.002110 
#    y 0.000000 1.648720 0.000000 
#    z 0.002110 0.000000 1.642800 
# 
# From -- ./inp_files/338538.got.cif
#   From: 2010.05.17/outbox.cif.g08.bks.cpg/sg12_170_cif.got.tgz:338538.got - 2010.06.03 13:09:07.
