data_PCOD9197836
_publ_section_title
;
Structure prediction by ZEFSAII (Michael W. Deem and Ramdas Pophale) SiO2 
 PCOD9197836
Probable space group: C 2/M
;
_chemical_formula_sum "Si O2"
_cell_formula_units_Z 48
_cell_length_a 7.044585
_cell_length_b 34.150096
_cell_length_c 10.673812
_cell_angle_alpha 90.000000
_cell_angle_beta 138.658586
_cell_angle_gamma 90.000000
_cell_volume 1696.168462
_symmetry_space_group_name_H-M "C 2/M"
_symmetry_group_IT_number 12
_symmetry_cell_setting 'monoclinic'
loop_
_space_group_symop_operation_xyz
x,y,z
-x,y,-z
-x,-y,-z
x,-y,z
1/2+x,1/2+y,z
1/2-x,1/2+y,-z
1/2-x,1/2-y,-z
1/2+x,1/2-y,z
loop_
_atom_site_type_symbol
_atom_site_label
_atom_site_fract_x
_atom_site_fract_y
_atom_site_fract_z
Si Si1 0.661085 0.293284 0.315798
Si Si2 0.856938 0.291451 0.791941
Si Si3 0.658084 0.622013 0.312638
Si Si4 0.947229 0.958263 0.692847
Si Si5 0.963764 0.543409 0.751028
Si Si6 0.115667 0.375215 0.200653
O O1 0.485717 0.293255 0.357660
O O2 0.566886 0.251747 0.214055
O O3 0.583951 0.335569 0.217242
O O4 0.000000 0.291992 0.500000
O O5 0.942231 0.332327 0.769897
O O6 0.000000 0.294577 0.000000
O O7 0.581455 0.578298 0.229453
O O8 0.461025 0.621144 0.343265
O O9 0.000000 0.622753 0.500000
O O10 0.705678 0.956746 0.464932
O O11 0.240504 0.957993 0.758662
O O12 0.919743 0.000000 0.742737
O O13 0.107205 0.500000 0.830454
O O14 0.039376 0.589465 0.804753
O O15 0.000000 0.376269 0.000000
#
# Coordination Sequence:
#
# PCOD9197836 Si02
#       6
#     8   8   8   8   8   8
#     4  10  20  36  53  76 106 130 171 219 255 296
#     4  10  20  36  54  74 103 140 173 206 253 310
#     4   9  18  32  50  69 102 126 157 201 249 289
#     4   8  14  27  48  72  97 126 161 199 243 292
#     4   8  14  27  47  73  98 123 161 204 241 285
#     4   9  18  32  49  72  99 129 164 200 241 292
#
# _framework density 28.299075999999999
#
# number of rings (size 3 to 8) (size 9 to 14) (size 15 to 20)
#    0.000    3.000    0.000    2.000    0.000    0.667 
#   15.000    0.000    0.000    0.000    0.000    2.333 
#    0.000    0.000    0.000    0.000    0.000    0.000 
#
# Total GULP energy -133935.691701 kJ/mol
# GULP energy per Si atom -5580.653821 kJ/mol
# Density = 2.823467 g / cm^3
# Si number density = 28.299076 Si / 1000 Ang^3
#
#
#
# Elastic Constant Matrix: (Units=GPa)
#
#
# Indices 1 2 3 4 5 6 
#
# 1 129.0489 30.7956 34.4836 0.0000 10.3793 0.0000
# 2 30.7956 404.9507 32.1069 0.0000 -19.6909 0.0000
# 3 34.4836 32.1069 100.4066 0.0000 8.9727 0.0000
# 4 0.0000 0.0000 0.0000 -11.4324 0.0000 -22.8326
# 5 10.3793 -19.6909 8.9727 0.0000 28.6170 0.0000
# 6 0.0000 0.0000 0.0000 -22.8326 0.0000 4.4468
#
#
#
# Elastic Compliance Matrix: (Units=1/GPa)
#
#
# Indices 1 2 3 4 5 6 
#
# 1 0.008808 -0.000601 -0.002583 0.000000 -0.002798 0.000000
# 2 -0.000601 0.002698 -0.000866 0.000000 0.002346 0.000000
# 3 -0.002583 -0.000866 0.011413 0.000000 -0.003238 0.000000
# 4 0.000000 0.000000 0.000000 -0.007772 0.000000 -0.039906
# 5 -0.002798 0.002346 -0.003238 0.000000 0.038588 0.000000
# 6 0.000000 0.000000 0.000000 -0.039906 0.000000 0.019981
#
#
# Mechanical properties :
#
#
# Convention : Reuss Voigt Hill
#
# Bulk Modulus (GPa) = 67.48106 92.13093 79.80600
# Shear Modulus (GPa) = 57.63386 40.12762 48.88074
#
# Velocity S-wave (km/s) = 4.51776 3.76970 4.16058
# Velocity P-wave (km/s) = 7.14920 7.18153 7.16538
#
# Compressibility (1/GPa) = 0.01481897
#
# Stress axis : x y z
#
# Youngs Moduli (GPa) = 113.53808 370.66267 87.62192
#
# Poissons Ratio (x) = 0.22281 0.22629
# Poissons Ratio (y) = 0.06825 0.07587
# Poissons Ratio (z) = 0.29322 0.32095
#
# Static dielectric constant tensor:
#      x y z
#    x 2.217950 0.000000 0.033710 
#    y 0.000000 2.311840 0.000000 
#    z 0.033710 0.000000 2.246230 
# 
# From -- ./inp_files/123873.got.cif
#   From: 2010.05.17/outbox.cif.g08.bks.cpg/sg12_62_cif.got.tgz:123873.got - 2010.06.03 13:09:07.
