data_PCOD9197617
_publ_section_title
;
Structure prediction by ZEFSAII (Michael W. Deem and Ramdas Pophale) SiO2 
 PCOD9197617
Probable space group: C 2/M
;
_chemical_formula_sum "Si O2"
_cell_formula_units_Z 48
_cell_length_a 15.587074
_cell_length_b 14.675623
_cell_length_c 12.133543
_cell_angle_alpha 90.000000
_cell_angle_beta 127.239396
_cell_angle_gamma 90.000000
_cell_volume 2209.652837
_symmetry_space_group_name_H-M "C 2/M"
_symmetry_group_IT_number 12
_symmetry_cell_setting 'monoclinic'
loop_
_space_group_symop_operation_xyz
x,y,z
-x,y,-z
-x,-y,-z
x,-y,z
1/2+x,1/2+y,z
1/2-x,1/2+y,-z
1/2-x,1/2-y,-z
1/2+x,1/2-y,z
loop_
_atom_site_type_symbol
_atom_site_label
_atom_site_fract_x
_atom_site_fract_y
_atom_site_fract_z
Si Si1 0.500067 0.888819 0.330966
Si Si2 0.121815 0.175010 0.091159
Si Si3 0.071973 0.632254 0.966506
Si Si4 0.124902 0.893706 0.627223
Si Si5 0.828867 0.689196 0.376951
Si Si6 0.690948 0.401389 0.919633
O O1 0.489383 0.854317 0.197072
O O2 0.612222 0.857179 0.473474
O O3 0.406399 0.843222 0.334653
O O4 0.490114 0.000000 0.325539
O O5 0.208597 0.154850 0.253244
O O6 0.107123 0.282472 0.069144
O O7 0.174768 0.156373 0.014403
O O8 0.000000 0.135617 0.000000
O O9 0.184489 0.592741 0.013998
O O10 0.000000 0.583196 0.000000
O O11 0.171389 0.799962 0.610554
O O12 0.133381 0.872442 0.763758
O O13 0.000000 0.896939 0.500000
O O14 0.167542 0.000000 0.643657
O O15 0.647280 0.500000 0.916068
#
# Coordination Sequence:
#
# PCOD9197617 Si02
#       6
#     8   8   8   8   8   8
#     4  11  23  38  65 101 133 173 217 272 339 399
#     4  11  24  41  64  97 130 178 226 272 329 397
#     4  11  23  41  65  98 129 169 221 277 334 395
#     4  10  20  35  60  95 126 168 224 272 333 402
#     4  11  20  39  65  95 134 174 217 274 334 400
#     4  11  22  38  63  91 129 174 217 276 335 392
#
# _framework density 21.72287
#
# number of rings (size 3 to 8) (size 9 to 14) (size 15 to 20)
#    0.000    1.167    5.000    3.000    0.000    2.333 
#    0.000    5.000    0.000    2.500    0.000    0.000 
#    0.000    0.000    0.000    0.000    0.000    0.000 
#
# Total GULP energy -133641.443484 kJ/mol
# GULP energy per Si atom -5568.393478 kJ/mol
# Density = 2.167343 g / cm^3
# Si number density = 21.722870 Si / 1000 Ang^3
#
#
#
# Elastic Constant Matrix: (Units=GPa)
#
#
# Indices 1 2 3 4 5 6 
#
# 1 83.5520 -3.3398 49.5460 0.0000 7.4842 0.0000
# 2 -3.3398 53.8865 0.7784 0.0000 3.5452 0.0000
# 3 49.5460 0.7784 192.9112 0.0000 27.0750 0.0000
# 4 0.0000 0.0000 0.0000 106.7544 0.0000 -74.2437
# 5 7.4842 3.5452 27.0750 0.0000 32.4414 0.0000
# 6 0.0000 0.0000 0.0000 -74.2437 0.0000 72.3919
#
#
#
# Elastic Compliance Matrix: (Units=1/GPa)
#
#
# Indices 1 2 3 4 5 6 
#
# 1 0.014169 0.000955 -0.003590 0.000000 -0.000377 0.000000
# 2 0.000955 0.018766 -0.000003 0.000000 -0.002269 0.000000
# 3 -0.003590 -0.000003 0.006784 0.000000 -0.004833 0.000000
# 4 0.000000 0.000000 0.000000 0.032667 0.000000 0.033503
# 5 -0.000377 -0.002269 -0.004833 0.000000 0.035194 0.000000
# 6 0.000000 0.000000 0.000000 0.033503 0.000000 0.048174
#
#
# Mechanical properties :
#
#
# Convention : Reuss Voigt Hill
#
# Bulk Modulus (GPa) = 29.03259 47.14656 38.08957
# Shear Modulus (GPa) = 28.98356 61.20856 45.09606
#
# Velocity S-wave (km/s) = 3.65669 5.31396 4.56123
# Velocity P-wave (km/s) = 5.58771 7.70725 6.73143
#
# Compressibility (1/GPa) = 0.03444405
#
# Stress axis : x y z
#
# Youngs Moduli (GPa) = 70.57430 53.28786 147.40169
#
# Poissons Ratio (x) = -0.05088 0.52919
# Poissons Ratio (y) = -0.06739 0.00037
# Poissons Ratio (z) = 0.25337 0.00013
#
# Static dielectric constant tensor:
#      x y z
#    x 2.000130 0.000000 -0.040260 
#    y 0.000000 4.155790 0.000000 
#    z -0.040260 0.000000 1.833180 
# 
# From -- ./inp_files/143869.got.cif
#   From: 2010.05.17/outbox.cif.g08.bks.cpg/sg12_72_cif.got.tgz:143869.got - 2010.06.03 13:09:07.
