data_PCOD9197904
_publ_section_title
;
Structure prediction by ZEFSAII (Michael W. Deem and Ramdas Pophale) SiO2 
 PCOD9197904
Probable space group: C 2/M
;
_chemical_formula_sum "Si O2"
_cell_formula_units_Z 48
_cell_length_a 15.847238
_cell_length_b 15.690100
_cell_length_c 11.920910
_cell_angle_alpha 90.000000
_cell_angle_beta 122.109431
_cell_angle_gamma 90.000000
_cell_volume 2510.670793
_symmetry_space_group_name_H-M "C 2/M"
_symmetry_group_IT_number 12
_symmetry_cell_setting 'monoclinic'
loop_
_space_group_symop_operation_xyz
x,y,z
-x,y,-z
-x,-y,-z
x,-y,z
1/2+x,1/2+y,z
1/2-x,1/2+y,-z
1/2-x,1/2-y,-z
1/2+x,1/2-y,z
loop_
_atom_site_type_symbol
_atom_site_label
_atom_site_fract_x
_atom_site_fract_y
_atom_site_fract_z
Si Si1 0.715816 0.101131 0.157936
Si Si2 0.387599 0.100656 0.396884
Si Si3 0.109660 0.898864 0.564063
Si Si4 0.552758 0.775427 0.148941
Si Si5 0.200732 0.829332 0.403692
Si Si6 0.390502 0.899788 0.139094
O O1 0.817331 0.132831 0.286142
O O2 0.629910 0.154111 0.157566
O O3 0.704612 0.000000 0.173480
O O4 0.699158 0.111702 0.013280
O O5 0.500000 0.135664 0.500000
O O6 0.293914 0.131982 0.402410
O O7 0.364007 0.113298 0.249247
O O8 0.394281 0.000000 0.424259
O O9 0.155226 0.884155 0.473277
O O10 0.000000 0.860760 0.500000
O O11 0.102526 0.000000 0.576448
O O12 0.612951 0.705408 0.261603
O O13 0.474069 0.831012 0.164555
O O14 0.500000 0.739086 0.000000
O O15 0.250000 0.750000 0.500000
O O16 0.424225 0.000000 0.150691
#
# Coordination Sequence:
#
# PCOD9197904 Si02
#       6
#     8   8   8   8   8   8
#     4   9  17  34  60  86 112 146 191 241 285 327
#     4  10  22  39  60  85 114 150 192 238 285 335
#     4  10  22  40  61  83 110 149 197 239 277 332
#     4  10  20  36  54  87 120 152 187 230 286 342
#     4  12  23  38  58  85 118 154 185 232 287 345
#     4   9  18  35  61  88 113 144 189 241 289 336
#
# _framework density 19.118397000000002
#
# number of rings (size 3 to 8) (size 9 to 14) (size 15 to 20)
#    0.000    2.000    1.667    2.000    0.000    4.000 
#    3.000    1.667    0.000    1.000    0.000    0.000 
#    0.000    0.000    0.000    0.000    0.000    0.000 
#
# Total GULP energy -133823.104154 kJ/mol
# GULP energy per Si atom -5575.962673 kJ/mol
# Density = 1.907488 g / cm^3
# Si number density = 19.118397 Si / 1000 Ang^3
#
#
#
# Elastic Constant Matrix: (Units=GPa)
#
#
# Indices 1 2 3 4 5 6 
#
# 1 129.3251 25.0852 77.6310 0.0000 3.9778 0.0000
# 2 25.0852 16.0718 34.5547 0.0000 -1.9329 0.0000
# 3 77.6310 34.5547 157.8228 0.0000 18.6939 0.0000
# 4 0.0000 0.0000 0.0000 15.1174 0.0000 33.1331
# 5 3.9778 -1.9329 18.6939 0.0000 25.6072 0.0000
# 6 0.0000 0.0000 0.0000 33.1331 0.0000 -76.3899
#
#
#
# Elastic Compliance Matrix: (Units=1/GPa)
#
#
# Indices 1 2 3 4 5 6 
#
# 1 0.011985 -0.011624 -0.003312 0.000000 -0.000321 0.000000
# 2 -0.011624 0.155077 -0.032660 0.000000 0.037354 0.000000
# 3 -0.003312 -0.032660 0.016800 0.000000 -0.014215 0.000000
# 4 0.000000 0.000000 0.000000 0.033912 0.000000 0.014709
# 5 -0.000321 0.037354 -0.014215 0.000000 0.052299 0.000000
# 6 0.000000 0.000000 0.000000 0.014709 0.000000 -0.006711
#
#
# Mechanical properties :
#
#
# Convention : Reuss Voigt Hill
#
# Bulk Modulus (GPa) = 11.27787 64.19570 37.73679
# Shear Modulus (GPa) = 12.88288 3.93018 8.40653
#
# Velocity S-wave (km/s) = 2.59867 1.43533 2.09920
# Velocity P-wave (km/s) = 3.86211 6.03306 5.06526
#
# Compressibility (1/GPa) = 0.08866922
#
# Stress axis : x y z
#
# Youngs Moduli (GPa) = 83.43491 6.44840 59.52299
#
# Poissons Ratio (x) = 0.07496 0.19716
# Poissons Ratio (y) = 0.96984 1.94405
# Poissons Ratio (z) = 0.27637 0.21061
#
# Static dielectric constant tensor:
#      x y z
#    x 1.701330 0.000000 -0.066350 
#    y 0.000000 1.649970 0.000000 
#    z -0.066350 0.000000 2.071320 
# 
# From -- ./inp_files/143565.got.cif
#   From: 2010.05.17/outbox.cif.g08.bks.cpg/sg12_72_cif.got.tgz:143565.got - 2010.06.03 13:09:07.
