data_PCOD9197719
_publ_section_title
;
Structure prediction by ZEFSAII (Michael W. Deem and Ramdas Pophale) SiO2 
 PCOD9197719
Probable space group: C 2/M
;
_chemical_formula_sum "Si O2"
_cell_formula_units_Z 52
_cell_length_a 8.755029
_cell_length_b 18.929795
_cell_length_c 21.052890
_cell_angle_alpha 90.000000
_cell_angle_beta 136.408657
_cell_angle_gamma 90.000000
_cell_volume 2405.779749
_symmetry_space_group_name_H-M "C 2/M"
_symmetry_group_IT_number 12
_symmetry_cell_setting 'monoclinic'
loop_
_space_group_symop_operation_xyz
x,y,z
-x,y,-z
-x,-y,-z
x,-y,z
1/2+x,1/2+y,z
1/2-x,1/2+y,-z
1/2-x,1/2-y,-z
1/2+x,1/2-y,z
loop_
_atom_site_type_symbol
_atom_site_label
_atom_site_fract_x
_atom_site_fract_y
_atom_site_fract_z
Si Si1 0.929614 0.000000 0.836281
Si Si2 0.164960 0.671474 0.487947
Si Si3 0.726186 0.124009 0.707182
Si Si4 0.256085 0.162545 0.093781
Si Si5 0.321895 0.753647 0.806855
Si Si6 0.981278 0.119198 0.322480
Si Si7 0.237713 0.500000 0.946309
Si Si8 0.741802 0.000000 0.185744
O O1 0.776948 0.067579 0.776671
O O2 0.108449 0.000000 0.832423
O O3 0.062214 0.000000 0.942344
O O4 0.250000 0.750000 0.500000
O O5 0.377956 0.624461 0.571028
O O6 0.000000 0.674494 0.500000
O O7 0.024469 0.642247 0.386382
O O8 0.859156 0.194816 0.764362
O O9 0.836907 0.097846 0.675538
O O10 0.454131 0.200759 0.113193
O O11 0.271212 0.203918 0.165114
O O12 0.270231 0.076961 0.091150
O O13 0.000000 0.178315 0.000000
O O14 0.133347 0.805906 0.724752
O O15 0.789792 0.064700 0.247714
O O16 0.006361 0.500000 0.913302
#
# Coordination Sequence:
#
# PCOD9197719 Si02
#       8
#     4   8   8   8   8   8   4   4
#     4  10  23  40  65  93 132 168 219 262 331 397
#     4  10  20  35  62  93 128 161 209 263 326 382
#     4  10  21  39  63  95 126 169 208 270 320 385
#     4  12  27  43  65  93 133 172 225 271 330 387
#     4  12  22  41  65  92 129 170 215 273 320 383
#     4  10  20  38  62  95 125 163 215 262 321 386
#     4  12  24  46  66  95 128 181 217 275 336 390
#     4  10  21  40  65  92 126 170 219 270 323 392
#
# _framework density 21.614612999999999
#
# number of rings (size 3 to 8) (size 9 to 14) (size 15 to 20)
#    0.000    1.231    4.615    1.846    0.000    1.231 
#    0.000    3.077    0.000    0.000    0.000    2.692 
#    0.000    0.000    0.000    0.000    0.000    0.000 
#
# Total GULP energy -144784.682543 kJ/mol
# GULP energy per Si atom -5568.641636 kJ/mol
# Density = 2.156542 g / cm^3
# Si number density = 21.614613 Si / 1000 Ang^3
#
#
#
# Elastic Constant Matrix: (Units=GPa)
#
#
# Indices 1 2 3 4 5 6 
#
# 1 45.1826 27.5604 21.3450 0.0004 6.5916 0.0003
# 2 27.5604 149.6464 76.2374 0.0002 1.2984 0.0002
# 3 21.3450 76.2374 129.7246 0.0008 18.1024 0.0007
# 4 0.0004 0.0002 0.0008 31.8679 0.0006 5.6195
# 5 6.5916 1.2984 18.1024 0.0006 24.5273 0.0005
# 6 0.0003 0.0002 0.0007 5.6195 0.0005 20.3672
#
#
#
# Elastic Compliance Matrix: (Units=1/GPa)
#
#
# Indices 1 2 3 4 5 6 
#
# 1 0.026067 -0.004277 -0.000925 0.000000 -0.006096 0.000000
# 2 -0.004277 0.010615 -0.006261 0.000000 0.005208 0.000000
# 3 -0.000925 -0.006261 0.012775 0.000000 -0.008849 0.000000
# 4 0.000000 0.000000 0.000000 0.032984 0.000000 -0.009101
# 5 -0.006096 0.005208 -0.008849 0.000000 0.048664 -0.000001
# 6 0.000000 0.000000 0.000000 -0.009101 -0.000001 0.051610
#
#
# Mechanical properties :
#
#
# Convention : Reuss Voigt Hill
#
# Bulk Modulus (GPa) = 37.69114 63.87101 50.78108
# Shear Modulus (GPa) = 23.31161 28.64654 25.97908
#
# Velocity S-wave (km/s) = 3.28763 3.64446 3.47064
# Velocity P-wave (km/s) = 5.64686 6.87921 6.29327
#
# Compressibility (1/GPa) = 0.02653143
#
# Stress axis : x y z
#
# Youngs Moduli (GPa) = 38.36196 94.20961 78.27617
#
# Poissons Ratio (x) = 0.40290 0.07242
# Poissons Ratio (y) = 0.16406 0.49010
# Poissons Ratio (z) = 0.03549 0.58987
#
# Static dielectric constant tensor:
#      x y z
#    x 1.857850 0.000000 -0.025310 
#    y 0.000000 1.818480 0.000000 
#    z -0.025310 0.000000 1.813100 
# 
# From -- ./inp_files/197108.got.cif
#   From: 2010.05.17/outbox.cif.g08.bks.cpg/sg12_99_cif.got.tgz:197108.got - 2010.06.03 13:09:07.
