data_PCOD9197431
_publ_section_title
;
Structure prediction by ZEFSAII (Michael W. Deem and Ramdas Pophale) SiO2 
 PCOD9197431
Probable space group: C 2/M
;
_chemical_formula_sum "Si O2"
_cell_formula_units_Z 56
_cell_length_a 19.705689
_cell_length_b 8.831217
_cell_length_c 18.989263
_cell_angle_alpha 90.000000
_cell_angle_beta 113.955875
_cell_angle_gamma 90.000000
_cell_volume 3019.946230
_symmetry_space_group_name_H-M "C 2/M"
_symmetry_group_IT_number 12
_symmetry_cell_setting 'monoclinic'
loop_
_space_group_symop_operation_xyz
x,y,z
-x,y,-z
-x,-y,-z
x,-y,z
1/2+x,1/2+y,z
1/2-x,1/2+y,-z
1/2-x,1/2-y,-z
1/2+x,1/2-y,z
loop_
_atom_site_type_symbol
_atom_site_label
_atom_site_fract_x
_atom_site_fract_y
_atom_site_fract_z
Si Si1 0.711932 0.821516 0.051884
Si Si2 0.442917 0.673862 0.041007
Si Si3 0.421943 0.318257 0.503133
Si Si4 0.707424 0.320626 0.195027
Si Si5 0.224921 0.679796 0.624869
Si Si6 0.376436 0.180630 0.631220
Si Si7 0.943417 0.679907 0.810920
O O1 0.738582 0.745204 0.135764
O O2 0.723409 0.000000 0.059567
O O3 0.750000 0.750000 0.000000
O O4 0.625477 0.779912 0.006918
O O5 0.417661 0.500000 0.039489
O O6 0.486766 0.732886 0.127626
O O7 0.500000 0.677096 0.000000
O O8 0.500000 0.274130 0.500000
O O9 0.418642 0.500000 0.504493
O O10 0.351459 0.255911 0.430359
O O11 0.412553 0.251792 0.577400
O O12 0.693452 0.500000 0.181669
O O13 0.758191 0.296921 0.285132
O O14 0.629855 0.237898 0.179316
O O15 0.222146 0.500000 0.610174
O O16 0.295199 0.749218 0.612627
O O17 0.426113 0.209769 0.721626
O O18 0.368604 0.000000 0.619732
O O19 0.951865 0.500000 0.824705
#
# Coordination Sequence:
#
# PCOD9197431 Si02
#       7
#     8   8   8   8   8   8   8
#     4  12  25  41  61  85 119 159 201 246 295 351
#     4  11  22  37  61  89 120 157 198 244 294 348
#     4  11  24  41  60  85 119 157 195 240 292 350
#     4  10  20  37  60  88 119 153 195 243 295 349
#     4  10  21  38  64  91 117 153 193 241 291 346
#     4  10  21  38  62  90 120 153 194 242 289 348
#     4  10  20  35  59  91 119 152 196 246 295 343
#
# _framework density 18.543377
#
# number of rings (size 3 to 8) (size 9 to 14) (size 15 to 20)
#    0.000    1.429    1.429    4.286    0.000    5.143 
#    2.571    0.000    0.000    0.000    0.000    0.000 
#    0.000    0.000    0.000    0.000    0.000    0.000 
#
# Total GULP energy -156506.416733 kJ/mol
# GULP energy per Si atom -5589.514883 kJ/mol
# Density = 1.850117 g / cm^3
# Si number density = 18.543377 Si / 1000 Ang^3
#
#
#
# Elastic Constant Matrix: (Units=GPa)
#
#
# Indices 1 2 3 4 5 6 
#
# 1 86.5094 40.0411 62.9186 0.0000 -18.7082 0.0000
# 2 40.0411 82.1761 57.6876 0.0000 -11.4451 0.0000
# 3 62.9186 57.6876 117.9509 0.0000 -16.8321 0.0000
# 4 0.0000 0.0000 0.0000 35.1001 0.0000 -0.7334
# 5 -18.7082 -11.4451 -16.8321 0.0000 31.0733 0.0000
# 6 0.0000 0.0000 0.0000 -0.7334 0.0000 30.9011
#
#
#
# Elastic Compliance Matrix: (Units=1/GPa)
#
#
# Indices 1 2 3 4 5 6 
#
# 1 0.020662 -0.003153 -0.008530 0.000000 0.006658 0.000000
# 2 -0.003153 0.019137 -0.007524 0.000000 0.001075 0.000000
# 3 -0.008530 -0.007524 0.016885 0.000000 0.001240 0.000000
# 4 0.000000 0.000000 0.000000 0.028504 0.000000 0.000677
# 5 0.006658 0.001075 0.001240 0.000000 0.037258 0.000000
# 6 0.000000 0.000000 0.000000 0.000677 0.000000 0.032377
#
#
# Mechanical properties :
#
#
# Convention : Reuss Voigt Hill
#
# Bulk Modulus (GPa) = 54.73284 67.54791 61.14038
# Shear Modulus (GPa) = 25.08426 27.81417 26.44921
#
# Velocity S-wave (km/s) = 3.68194 3.87712 3.78079
# Velocity P-wave (km/s) = 6.90332 7.51990 7.21819
#
# Compressibility (1/GPa) = 0.01827057
#
# Stress axis : x y z
#
# Youngs Moduli (GPa) = 48.39713 52.25484 59.22354
#
# Poissons Ratio (x) = 0.16474 0.50517
# Poissons Ratio (y) = 0.15258 0.44563
# Poissons Ratio (z) = 0.41282 0.39319
#
# Static dielectric constant tensor:
#      x y z
#    x 1.630960 0.000000 -0.011130 
#    y 0.000000 1.619060 0.000000 
#    z -0.011130 0.000000 1.652250 
# 
# From -- ./inp_files/275319.got.cif
#   From: 2010.05.17/outbox.cif.g08.bks.cpg/sg12_138_cif.got.tgz:275319.got - 2010.06.03 13:09:07.
