data_PCOD9197221
_publ_section_title
;
Structure prediction by ZEFSAII (Michael W. Deem and Ramdas Pophale) SiO2 
 PCOD9197221
Probable space group: C 2/M
;
_chemical_formula_sum "Si O2"
_cell_formula_units_Z 44
_cell_length_a 11.553441
_cell_length_b 17.301798
_cell_length_c 11.492605
_cell_angle_alpha 90.000000
_cell_angle_beta 67.679004
_cell_angle_gamma 90.000000
_cell_volume 2125.181122
_symmetry_space_group_name_H-M "C 2/M"
_symmetry_group_IT_number 12
_symmetry_cell_setting 'monoclinic'
loop_
_space_group_symop_operation_xyz
x,y,z
-x,y,-z
-x,-y,-z
x,-y,z
1/2+x,1/2+y,z
1/2-x,1/2+y,-z
1/2-x,1/2-y,-z
1/2+x,1/2-y,z
loop_
_atom_site_type_symbol
_atom_site_label
_atom_site_fract_x
_atom_site_fract_y
_atom_site_fract_z
Si Si1 0.000000 0.277402 0.000000
Si Si2 0.315671 0.582842 0.149407
Si Si3 0.617431 0.091651 0.577306
Si Si4 0.927895 0.865433 0.874441
Si Si5 0.766247 0.663158 0.245294
Si Si6 0.644961 0.824181 0.341049
O O1 0.061644 0.220258 0.073126
O O2 0.887004 0.318871 0.114688
O O3 0.262630 0.500000 0.199250
O O4 0.430367 0.605366 0.189360
O O5 0.211459 0.646564 0.199526
O O6 0.368340 0.584565 0.000071
O O7 0.690571 0.107505 0.667863
O O8 0.499303 0.151885 0.622821
O O9 0.685713 0.122035 0.434478
O O10 0.585275 0.000000 0.580146
O O11 0.842952 0.868774 0.795137
O O12 0.700341 0.738500 0.330638
#
# Coordination Sequence:
#
# PCOD9197221 Si02
#       6
#     4   8   8   8   8   8
#     4  10  20  38  60  96 122 164 206 254 310 382
#     4  10  20  37  62  87 122 169 208 246 312 382
#     4  11  26  44  64  93 129 169 213 263 314 370
#     4  10  20  35  58  92 129 152 204 254 318 364
#     4  12  23  39  68  95 128 158 210 267 317 366
#     4  11  22  43  67  87 120 171 219 254 300 383
#
# _framework density 20.704118999999999
#
# number of rings (size 3 to 8) (size 9 to 14) (size 15 to 20)
#    0.000    1.455    3.636    5.455    2.545    1.455 
#    0.000    0.455    0.000    2.182    0.000    0.000 
#    0.000    0.000    0.000    0.000    0.000    0.000 
#
# Total GULP energy -122542.191441 kJ/mol
# GULP energy per Si atom -5570.099611 kJ/mol
# Density = 2.065700 g / cm^3
# Si number density = 20.704119 Si / 1000 Ang^3
#
#
#
# Elastic Constant Matrix: (Units=GPa)
#
#
# Indices 1 2 3 4 5 6 
#
# 1 71.0444 14.3941 33.3487 0.0000 28.3829 0.0000
# 2 14.3941 73.0796 13.5142 0.0000 3.2629 0.0000
# 3 33.3487 13.5142 52.6803 0.0000 7.2632 0.0000
# 4 0.0000 0.0000 0.0000 17.9232 0.0000 -1.4116
# 5 28.3829 3.2629 7.2632 0.0000 44.7886 0.0000
# 6 0.0000 0.0000 0.0000 -1.4116 0.0000 4.9722
#
#
#
# Elastic Compliance Matrix: (Units=1/GPa)
#
#
# Indices 1 2 3 4 5 6 
#
# 1 0.027291 -0.001992 -0.014730 0.000000 -0.014760 0.000000
# 2 -0.001992 0.014520 -0.002549 0.000000 0.000618 0.000000
# 3 -0.014730 -0.002549 0.028281 0.000000 0.004934 0.000000
# 4 0.000000 0.000000 0.000000 0.057070 0.000000 0.016202
# 5 -0.014760 0.000618 0.004934 0.000000 0.030836 0.000000
# 6 0.000000 0.000000 0.000000 0.016202 0.000000 0.205716
#
#
# Mechanical properties :
#
#
# Convention : Reuss Voigt Hill
#
# Bulk Modulus (GPa) = 31.69664 35.47980 33.58822
# Shear Modulus (GPa) = 12.11326 22.57330 17.34328
#
# Velocity S-wave (km/s) = 2.42144 3.30552 2.89740
# Velocity P-wave (km/s) = 4.81252 5.63404 5.23941
#
# Compressibility (1/GPa) = 0.03154908
#
# Stress axis : x y z
#
# Youngs Moduli (GPa) = 36.64273 68.87113 35.35995
#
# Poissons Ratio (x) = 0.13721 0.52085
# Poissons Ratio (y) = 0.07300 0.09013
# Poissons Ratio (z) = 0.53974 0.17554
#
# Static dielectric constant tensor:
#      x y z
#    x 1.760820 0.000000 -0.037600 
#    y 0.000000 1.764020 0.000000 
#    z -0.037600 0.000000 1.783210 
# 
# From -- ./inp_files/130963.got.cif
#   From: 2010.05.17/outbox.cif.g08.bks.cpg/sg12_66_cif.got.tgz:130963.got - 2010.06.03 13:09:07.
