data_PCOD9197586
_publ_section_title
;
Structure prediction by ZEFSAII (Michael W. Deem and Ramdas Pophale) SiO2 
 PCOD9197586
Probable space group: C 2/M
;
_chemical_formula_sum "Si O2"
_cell_formula_units_Z 42
_cell_length_a 19.731755
_cell_length_b 12.337527
_cell_length_c 19.606743
_cell_angle_alpha 90.000000
_cell_angle_beta 150.198007
_cell_angle_gamma 90.000000
_cell_volume 2372.243678
_symmetry_space_group_name_H-M "C 2/M"
_symmetry_group_IT_number 12
_symmetry_cell_setting 'monoclinic'
loop_
_space_group_symop_operation_xyz
x,y,z
-x,y,-z
-x,-y,-z
x,-y,z
1/2+x,1/2+y,z
1/2-x,1/2+y,-z
1/2-x,1/2-y,-z
1/2+x,1/2-y,z
loop_
_atom_site_type_symbol
_atom_site_label
_atom_site_fract_x
_atom_site_fract_y
_atom_site_fract_z
Si Si1 0.169441 0.000000 0.567328
Si Si2 0.058907 0.789930 0.141770
Si Si3 0.477244 0.872122 0.398510
Si Si4 0.156470 0.000000 0.717401
Si Si5 0.767482 0.236529 0.435074
Si Si6 0.781836 0.276088 0.849493
Si Si7 0.500000 0.500000 0.000000
O O1 0.197168 0.000000 0.672766
O O2 0.220970 0.110650 0.577510
O O3 0.005837 0.000000 0.419693
O O4 0.139858 0.786240 0.282401
O O5 0.147140 0.722950 0.163189
O O6 0.047050 0.905917 0.095522
O O7 0.904709 0.746107 0.008797
O O8 0.500000 0.863505 0.500000
O O9 0.597834 0.802274 0.470477
O O10 0.332458 0.817862 0.252785
O O11 0.480485 0.000000 0.383614
O O12 0.212660 0.108878 0.799883
O O13 0.750000 0.250000 0.500000
#
# Coordination Sequence:
#
# PCOD9197586 Si02
#       7
#     4   8   8   4   8   8   2
#     4  11  22  38  62  91 123 163 204 256 309 378
#     4  10  22  36  58  98 124 160 208 262 322 365
#     4  11  22  37  63  91 123 159 215 270 317 370
#     4  11  18  36  67  89 123 149 205 261 315 365
#     4  12  26  42  62  91 132 172 212 256 324 392
#     4  10  20  35  60  92 118 153 202 268 314 358
#     4   8  20  34  64  82 136 156 210 262 316 364
#
# _framework density 17.704758999999999
#
# number of rings (size 3 to 8) (size 9 to 14) (size 15 to 20)
#    0.000    1.524    5.714    0.000    8.000    2.286 
#    0.000    0.952    0.000    0.000    0.000    0.000 
#    0.000    0.000    0.000    0.000    0.000    0.000 
#
# Total GULP energy -116913.623382 kJ/mol
# GULP energy per Si atom -5567.315399 kJ/mol
# Density = 1.766446 g / cm^3
# Si number density = 17.704759 Si / 1000 Ang^3
#
#
#
# Elastic Constant Matrix: (Units=GPa)
#
#
# Indices 1 2 3 4 5 6 
#
# 1 72.1080 35.0182 49.1364 0.0000 -12.4058 0.0000
# 2 35.0182 151.3602 55.8806 0.0001 4.4958 0.0000
# 3 49.1364 55.8806 158.5720 0.0001 -3.0396 0.0001
# 4 0.0000 0.0001 0.0001 -76.9465 0.0000 -28.7649
# 5 -12.4058 4.4958 -3.0396 0.0000 25.5806 0.0000
# 6 0.0000 0.0000 0.0001 -28.7649 0.0000 2.0824
#
#
#
# Elastic Compliance Matrix: (Units=1/GPa)
#
#
# Indices 1 2 3 4 5 6 
#
# 1 0.020574 -0.003186 -0.005062 0.000000 0.009936 0.000000
# 2 -0.003186 0.008159 -0.001949 0.000000 -0.003211 0.000000
# 3 -0.005062 -0.001949 0.008541 0.000000 -0.001097 0.000000
# 4 0.000000 0.000000 0.000000 -0.002108 0.000000 -0.029124
# 5 0.009936 -0.003211 -0.001097 0.000000 0.044345 0.000000
# 6 0.000000 0.000000 0.000000 -0.029124 0.000000 0.077908
#
#
# Mechanical properties :
#
#
# Convention : Reuss Voigt Hill
#
# Bulk Modulus (GPa) = 59.24651 73.56783 66.40717
# Shear Modulus (GPa) = 27.25677 6.27697 16.76687
#
# Velocity S-wave (km/s) = 3.92792 1.88495 3.08072
# Velocity P-wave (km/s) = 7.35579 6.81030 7.08830
#
# Compressibility (1/GPa) = 0.01687863
#
# Stress axis : x y z
#
# Youngs Moduli (GPa) = 48.60417 122.56384 117.08523
#
# Poissons Ratio (x) = 0.39053 0.59269
# Poissons Ratio (y) = 0.15487 0.22825
# Poissons Ratio (z) = 0.24604 0.23893
#
# Static dielectric constant tensor:
#      x y z
#    x 1.588260 0.000000 0.020670 
#    y 0.000000 1.603580 0.000000 
#    z 0.020670 0.000000 1.614880 
# 
# From -- ./inp_files/321110.got.cif
#   From: 2010.05.17/outbox.cif.g08.bks.cpg/sg12_161_cif.got.tgz:321110.got - 2010.06.03 13:09:07.
