data_PCOD9197678
_publ_section_title
;
Structure prediction by ZEFSAII (Michael W. Deem and Ramdas Pophale) SiO2 
 PCOD9197678
Probable space group: C 2/M
;
_chemical_formula_sum "Si O2"
_cell_formula_units_Z 48
_cell_length_a 24.057537
_cell_length_b 20.014907
_cell_length_c 15.118129
_cell_angle_alpha 90.000000
_cell_angle_beta 161.745817
_cell_angle_gamma 90.000000
_cell_volume 2280.187132
_symmetry_space_group_name_H-M "C 2/M"
_symmetry_group_IT_number 12
_symmetry_cell_setting 'monoclinic'
loop_
_space_group_symop_operation_xyz
x,y,z
-x,y,-z
-x,-y,-z
x,-y,z
1/2+x,1/2+y,z
1/2-x,1/2+y,-z
1/2-x,1/2-y,-z
1/2+x,1/2-y,z
loop_
_atom_site_type_symbol
_atom_site_label
_atom_site_fract_x
_atom_site_fract_y
_atom_site_fract_z
Si Si1 0.544558 0.725673 0.670866
Si Si2 0.319762 0.574048 0.864048
Si Si3 0.059293 0.427776 0.803105
Si Si4 0.437252 0.201891 0.676664
Si Si5 0.551600 0.304503 0.164933
Si Si6 0.899028 0.924415 0.191155
O O1 0.500000 0.735706 0.500000
O O2 0.428219 0.771575 0.561996
O O3 0.515120 0.646934 0.651281
O O4 0.750000 0.750000 0.000000
O O5 0.384276 0.500000 0.938957
O O6 0.119309 0.578860 0.525591
O O7 0.440227 0.628546 0.000131
O O8 0.337615 0.581381 0.996542
O O9 0.052154 0.500000 0.838091
O O10 0.061512 0.362456 0.866374
O O11 0.226420 0.426869 0.991954
O O12 0.500561 0.265238 0.826936
O O13 0.258396 0.183053 0.459632
O O14 0.500000 0.262800 0.000000
O O15 0.984795 0.000000 0.330476
#
# Coordination Sequence:
#
# PCOD9197678 Si02
#       6
#     8   8   8   8   8   8
#     4  12  27  42  69  99 130 170 216 272 330 390
#     4  10  20  36  61  93 128 167 214 265 322 385
#     4  10  20  35  61  93 126 163 209 267 330 387
#     4  11  24  39  58  91 125 163 213 266 320 383
#     4  11  23  38  60  84 125 171 214 264 316 380
#     4  10  21  39  61  91 129 167 211 263 323 388
#
# _framework density 21.050903999999999
#
# number of rings (size 3 to 8) (size 9 to 14) (size 15 to 20)
#    0.000    1.333    5.000    0.500    4.667    3.333 
#    0.000    0.000    0.000    0.500    0.000    0.000 
#    0.000    0.000    0.000    0.000    0.000    0.000 
#
# Total GULP energy -133832.869386 kJ/mol
# GULP energy per Si atom -5576.369558 kJ/mol
# Density = 2.100299 g / cm^3
# Si number density = 21.050904 Si / 1000 Ang^3
#
#
#
# Elastic Constant Matrix: (Units=GPa)
#
#
# Indices 1 2 3 4 5 6 
#
# 1 72.9238 31.2430 -7.6105 0.0000 -0.8652 0.0000
# 2 31.2430 146.3525 4.4920 0.0000 12.9733 0.0000
# 3 -7.6105 4.4920 21.8859 0.0000 -0.1676 0.0000
# 4 0.0000 0.0000 0.0000 12.6343 0.0000 14.2093
# 5 -0.8652 12.9733 -0.1676 0.0000 20.2852 0.0000
# 6 0.0000 0.0000 0.0000 14.2093 0.0000 18.0501
#
#
#
# Elastic Compliance Matrix: (Units=1/GPa)
#
#
# Indices 1 2 3 4 5 6 
#
# 1 0.016103 -0.003923 0.006430 0.000000 0.003249 0.000000
# 2 -0.003923 0.008250 -0.003099 0.000000 -0.005469 0.000000
# 3 0.006430 -0.003099 0.048584 0.000001 0.002658 -0.000001
# 4 0.000000 0.000000 0.000001 0.690356 0.000001 -0.543459
# 5 0.003249 -0.005469 0.002658 0.000001 0.052955 0.000000
# 6 0.000000 0.000000 -0.000001 -0.543459 0.000000 0.483220
#
#
# Mechanical properties :
#
#
# Convention : Reuss Voigt Hill
#
# Bulk Modulus (GPa) = 13.93689 33.04568 23.49128
# Shear Modulus (GPa) = 3.77481 24.39646 14.08563
#
# Velocity S-wave (km/s) = 1.34055 3.40799 2.58955
# Velocity P-wave (km/s) = 3.00517 5.58730 4.48603
#
# Compressibility (1/GPa) = 0.07175201
#
# Stress axis : x y z
#
# Youngs Moduli (GPa) = 62.09914 121.20842 20.58298
#
# Poissons Ratio (x) = 0.47550 -0.13234
# Poissons Ratio (y) = 0.24362 0.06380
# Poissons Ratio (z) = -0.39928 0.37567
#
# Static dielectric constant tensor:
#      x y z
#    x 1.756380 0.000000 -0.018800 
#    y 0.000000 1.824380 0.000000 
#    z -0.018800 0.000000 1.827350 
# 
# From -- ./inp_files/241872.got.cif
#   From: 2010.05.17/outbox.cif.g08.bks.cpg/sg12_121_cif.got.tgz:241872.got - 2010.06.03 13:09:07.
