data_PCOD9197662
_publ_section_title
;
Structure prediction by ZEFSAII (Michael W. Deem and Ramdas Pophale) SiO2 
 PCOD9197662
Probable space group: C 2/M
;
_chemical_formula_sum "Si O2"
_cell_formula_units_Z 50
_cell_length_a 32.245252
_cell_length_b 11.614444
_cell_length_c 6.101127
_cell_angle_alpha 90.000000
_cell_angle_beta 109.735632
_cell_angle_gamma 90.000000
_cell_volume 2150.721628
_symmetry_space_group_name_H-M "C 2/M"
_symmetry_group_IT_number 12
_symmetry_cell_setting 'monoclinic'
loop_
_space_group_symop_operation_xyz
x,y,z
-x,y,-z
-x,-y,-z
x,-y,z
1/2+x,1/2+y,z
1/2-x,1/2+y,-z
1/2-x,1/2-y,-z
1/2+x,1/2-y,z
loop_
_atom_site_type_symbol
_atom_site_label
_atom_site_fract_x
_atom_site_fract_y
_atom_site_fract_z
Si Si1 0.334660 0.367967 0.570532
Si Si2 0.446969 0.632001 0.424109
Si Si3 0.763057 0.128207 0.763074
Si Si4 0.107699 0.287415 0.006418
Si Si5 0.042030 0.680288 0.228351
Si Si6 0.180517 0.707660 0.834374
Si Si7 0.000000 0.500000 0.500000
O O1 0.347837 0.500000 0.594056
O O2 0.282819 0.363223 0.553509
O O3 0.361366 0.296741 0.797405
O O4 0.340021 0.309404 0.346982
O O5 0.500000 0.629853 0.500000
O O6 0.431382 0.500000 0.394057
O O7 0.439927 0.701624 0.636289
O O8 0.425344 0.707809 0.193408
O O9 0.711297 0.137141 0.722381
O O10 0.777304 0.000000 0.866417
O O11 0.786931 0.229463 0.937825
O O12 0.079624 0.362490 0.126980
O O13 0.140788 0.350271 0.896399
O O14 0.025764 0.599355 0.396577
O O15 0.000000 0.699941 0.000000
#
# Coordination Sequence:
#
# PCOD9197662 Si02
#       7
#     8   8   8   8   8   8   2
#     4  10  20  35  61  91 129 174 212 253 312 391
#     4  11  23  41  67  99 133 167 207 269 339 401
#     4   9  19  36  59  88 121 166 214 257 317 383
#     4  11  23  39  61  95 134 165 216 267 330 390
#     4  12  24  45  69  94 122 169 222 273 330 400
#     4  10  20  36  59  88 126 166 206 269 318 383
#     4  12  26  48  70  86 116 168 230 278 328 398
#
# _framework density 23.248010000000001
#
# number of rings (size 3 to 8) (size 9 to 14) (size 15 to 20)
#    0.000    1.440    2.400    2.640    0.000    4.800 
#    1.440    0.000    5.280    0.000    0.000    0.000 
#    0.000    0.000    0.000    0.000    0.000    0.000 
#
# Total GULP energy -139337.637524 kJ/mol
# GULP energy per Si atom -5573.505501 kJ/mol
# Density = 2.319510 g / cm^3
# Si number density = 23.248010 Si / 1000 Ang^3
#
#
#
# Elastic Constant Matrix: (Units=GPa)
#
#
# Indices 1 2 3 4 5 6 
#
# 1 193.0300 23.8560 38.7186 0.0000 -45.2156 0.0000
# 2 23.8560 80.0861 14.7609 0.0000 -9.5751 0.0000
# 3 38.7186 14.7609 57.1247 0.0000 -10.8061 0.0000
# 4 0.0000 0.0000 0.0000 -5.7585 0.0000 -4.6988
# 5 -45.2156 -9.5751 -10.8061 0.0000 43.5892 0.0000
# 6 0.0000 0.0000 0.0000 -4.6988 0.0000 3.4763
#
#
#
# Elastic Compliance Matrix: (Units=1/GPa)
#
#
# Indices 1 2 3 4 5 6 
#
# 1 0.007608 -0.000776 -0.003667 0.000000 0.006812 0.000000
# 2 -0.000776 0.013383 -0.002653 0.000000 0.001477 0.000000
# 3 -0.003667 -0.002653 0.020823 0.000000 0.000775 0.000000
# 4 0.000000 0.000000 0.000000 -0.082578 0.000000 -0.111618
# 5 0.006812 0.001477 0.000775 0.000000 0.030524 0.000000
# 6 0.000000 0.000000 0.000000 -0.111618 0.000000 0.136791
#
#
# Mechanical properties :
#
#
# Convention : Reuss Voigt Hill
#
# Bulk Modulus (GPa) = 36.20266 53.87908 45.04087
# Shear Modulus (GPa) = 33.34427 25.12176 29.23302
#
# Velocity S-wave (km/s) = 3.79130 3.29081 3.54989
# Velocity P-wave (km/s) = 5.89674 6.13721 6.01817
#
# Compressibility (1/GPa) = 0.02762228
#
# Stress axis : x y z
#
# Youngs Moduli (GPa) = 131.44645 74.72025 48.02288
#
# Poissons Ratio (x) = 0.05797 0.17612
# Poissons Ratio (y) = 0.10197 0.12740
# Poissons Ratio (z) = 0.48206 0.19822
#
# Static dielectric constant tensor:
#      x y z
#    x 2.002180 0.000000 -0.025600 
#    y 0.000000 1.835920 0.000000 
#    z -0.025600 0.000000 1.843230 
# 
# From -- ./inp_files/31554.got.cif
#   From: 2010.05.17/outbox.cif.g08.bks.cpg/sg12_16_cif.got.tgz:31554.got - 2010.06.03 13:09:07.
