data_PCOD9197025
_publ_section_title
;
Structure prediction by ZEFSAII (Michael W. Deem and Ramdas Pophale) SiO2 
 PCOD9197025
Probable space group: C 2/M
;
_chemical_formula_sum "Si O2"
_cell_formula_units_Z 56
_cell_length_a 32.438083
_cell_length_b 7.637283
_cell_length_c 12.281521
_cell_angle_alpha 90.000000
_cell_angle_beta 120.247776
_cell_angle_gamma 90.000000
_cell_volume 2628.373625
_symmetry_space_group_name_H-M "C 2/M"
_symmetry_group_IT_number 12
_symmetry_cell_setting 'monoclinic'
loop_
_space_group_symop_operation_xyz
x,y,z
-x,y,-z
-x,-y,-z
x,-y,z
1/2+x,1/2+y,z
1/2-x,1/2+y,-z
1/2-x,1/2-y,-z
1/2+x,1/2-y,z
loop_
_atom_site_type_symbol
_atom_site_label
_atom_site_fract_x
_atom_site_fract_y
_atom_site_fract_z
Si Si1 0.536643 0.289699 0.457804
Si Si2 0.008900 0.786243 0.183963
Si Si3 0.806030 0.291869 0.078186
Si Si4 0.648027 0.211053 0.634496
Si Si5 0.076267 0.785981 0.078547
Si Si6 0.266750 0.789427 0.399266
Si Si7 0.677196 0.292903 0.143823
O O1 0.500000 0.222539 0.500000
O O2 0.531551 0.500000 0.448728
O O3 0.520401 0.222102 0.318732
O O4 0.592434 0.254950 0.551052
O O5 0.958089 0.733043 0.066596
O O6 0.008979 0.000000 0.184856
O O7 0.049643 0.732052 0.152956
O O8 0.811356 0.500000 0.086696
O O9 0.830293 0.223988 0.221287
O O10 0.750000 0.250000 0.000000
O O11 0.826398 0.227695 0.990480
O O12 0.682066 0.273212 0.579889
O O13 0.651211 0.000000 0.640196
O O14 0.077362 0.000000 0.079900
O O15 0.129664 0.720225 0.136007
O O16 0.250000 0.750000 0.500000
O O17 0.225909 0.723199 0.261326
O O18 0.268557 0.000000 0.395214
O O19 0.678227 0.500000 0.167384
#
# Coordination Sequence:
#
# PCOD9197025 Si02
#       7
#     8   8   8   8   8   8   8
#     4  10  22  36  56  87 114 141 190 245 281 330
#     4   8  15  30  49  77 111 140 180 227 276 329
#     4  11  22  39  60  82 111 146 188 233 281 338
#     4  10  23  42  58  79 115 157 191 231 288 349
#     4   8  15  28  52  78 106 144 177 222 281 329
#     4  10  22  39  57  84 119 152 193 235 278 342
#     4  10  20  35  58  86 114 146 186 233 285 337
#
# _framework density 21.305951
#
# number of rings (size 3 to 8) (size 9 to 14) (size 15 to 20)
#    0.000    2.429    1.429    1.286    4.000    2.571 
#    0.000    0.000    0.000    0.000    0.000    2.000 
#    0.000    0.000    0.000    0.000    0.000    0.000 
#
# Total GULP energy -156283.088512 kJ/mol
# GULP energy per Si atom -5581.538875 kJ/mol
# Density = 2.125746 g / cm^3
# Si number density = 21.305951 Si / 1000 Ang^3
#
#
#
# Elastic Constant Matrix: (Units=GPa)
#
#
# Indices 1 2 3 4 5 6 
#
# 1 174.8572 4.9232 89.3844 0.0000 9.5978 0.0000
# 2 4.9232 36.7141 3.6292 0.0000 4.5883 0.0000
# 3 89.3844 3.6292 146.7795 0.0000 -16.7083 0.0000
# 4 0.0000 0.0000 0.0000 15.8473 0.0000 -1.9023
# 5 9.5978 4.5883 -16.7083 0.0000 23.5121 0.0000
# 6 0.0000 0.0000 0.0000 -1.9023 0.0000 15.2965
#
#
#
# Elastic Compliance Matrix: (Units=1/GPa)
#
#
# Indices 1 2 3 4 5 6 
#
# 1 0.009781 0.000514 -0.007002 0.000000 -0.009069 0.000000
# 2 0.000514 0.028222 -0.001808 0.000000 -0.007002 0.000000
# 3 -0.007002 -0.001808 0.012498 0.000000 0.012092 0.000000
# 4 0.000000 0.000000 0.000000 0.064058 0.000000 0.007967
# 5 -0.009069 -0.007002 0.012092 0.000000 0.056193 0.000000
# 6 0.000000 0.000000 0.000000 0.007967 0.000000 0.066365
#
#
# Mechanical properties :
#
#
# Convention : Reuss Voigt Hill
#
# Bulk Modulus (GPa) = 29.48938 61.58049 45.53494
# Shear Modulus (GPa) = 18.86707 28.29212 23.57960
#
# Velocity S-wave (km/s) = 2.97901 3.64799 3.33034
# Velocity P-wave (km/s) = 5.06988 6.83443 6.01719
#
# Compressibility (1/GPa) = 0.03391051
#
# Stress axis : x y z
#
# Youngs Moduli (GPa) = 102.23544 35.43299 80.01370
#
# Poissons Ratio (x) = -0.01821 0.56022
# Poissons Ratio (y) = -0.05253 0.14464
# Poissons Ratio (z) = 0.71581 0.06405
#
# Static dielectric constant tensor:
#      x y z
#    x 1.761930 0.000000 -0.010220 
#    y 0.000000 1.809190 0.000000 
#    z -0.010220 0.000000 1.754760 
# 
# From -- ./inp_files/187733.got.cif
#   From: 2010.05.17/outbox.cif.g08.bks.cpg/sg12_94_cif.got.tgz:187733.got - 2010.06.03 13:09:07.
