data_PCOD9197853
_publ_section_title
;
Structure prediction by ZEFSAII (Michael W. Deem and Ramdas Pophale) SiO2 
 PCOD9197853
Probable space group: C 2/M
;
_chemical_formula_sum "Si O2"
_cell_formula_units_Z 48
_cell_length_a 15.293542
_cell_length_b 7.412726
_cell_length_c 20.852583
_cell_angle_alpha 90.000000
_cell_angle_beta 117.504365
_cell_angle_gamma 90.000000
_cell_volume 2096.802785
_symmetry_space_group_name_H-M "C 2/M"
_symmetry_group_IT_number 12
_symmetry_cell_setting 'monoclinic'
loop_
_space_group_symop_operation_xyz
x,y,z
-x,y,-z
-x,-y,-z
x,-y,z
1/2+x,1/2+y,z
1/2-x,1/2+y,-z
1/2-x,1/2-y,-z
1/2+x,1/2-y,z
loop_
_atom_site_type_symbol
_atom_site_label
_atom_site_fract_x
_atom_site_fract_y
_atom_site_fract_z
Si Si1 0.628199 0.718361 0.899759
Si Si2 0.658005 0.291664 0.054753
Si Si3 0.912033 0.221493 0.834127
Si Si4 0.763386 0.294896 0.312203
Si Si5 0.325842 0.214070 0.583185
Si Si6 0.022398 0.720867 0.580842
O O1 0.633295 0.500000 0.900813
O O2 0.724092 0.782741 0.894150
O O3 0.518526 0.773428 0.842289
O O4 0.640618 0.784114 0.977839
O O5 0.627790 0.500000 0.039642
O O6 0.600903 0.218036 0.096634
O O7 0.818168 0.286294 0.762345
O O8 0.910751 0.000000 0.833458
O O9 0.779342 0.500000 0.294808
O O10 0.714353 0.298859 0.365710
O O11 0.871743 0.214365 0.358463
O O12 0.250000 0.250000 0.500000
O O13 0.432846 0.276343 0.596003
O O14 0.330367 0.000000 0.595479
O O15 0.024617 0.500000 0.580160
O O16 0.000000 0.776919 0.500000
#
# Coordination Sequence:
#
# PCOD9197853 Si02
#       6
#     8   8   8   8   8   8
#     4   9  17  31  51  76 104 133 169 215 259 296
#     4   9  17  31  52  76 101 134 176 212 248 303
#     4   9  18  32  52  74 100 137 174 207 250 307
#     4  10  20  36  54  74 101 135 173 209 252 306
#     4  11  21  35  56  79 102 130 167 210 256 302
#     4   9  17  32  53  73  96 128 162 199 247 300
#
# _framework density 22.891995000000001
#
# number of rings (size 3 to 8) (size 9 to 14) (size 15 to 20)
#    0.000    2.500    1.667    1.000    0.000    3.333 
#    0.000    6.667    0.000    4.000    0.000    0.000 
#    0.000    0.000    0.000    0.000    0.000    0.000 
#
# Total GULP energy -134048.809038 kJ/mol
# GULP energy per Si atom -5585.367043 kJ/mol
# Density = 2.283989 g / cm^3
# Si number density = 22.891995 Si / 1000 Ang^3
#
#
#
# Elastic Constant Matrix: (Units=GPa)
#
#
# Indices 1 2 3 4 5 6 
#
# 1 146.8922 -4.7303 9.7315 0.0000 31.2950 0.0000
# 2 -4.7303 80.0525 -5.1607 0.0000 4.1031 0.0000
# 3 9.7315 -5.1607 35.6876 0.0000 22.7496 0.0000
# 4 0.0000 0.0000 0.0000 0.6334 0.0000 -2.5642
# 5 31.2950 4.1031 22.7496 0.0000 40.9977 0.0000
# 6 0.0000 0.0000 0.0000 -2.5642 0.0000 14.2879
#
#
#
# Elastic Compliance Matrix: (Units=1/GPa)
#
#
# Indices 1 2 3 4 5 6 
#
# 1 0.008397 0.001122 0.003141 0.000000 -0.008265 0.000000
# 2 0.001122 0.013096 0.004595 0.000000 -0.004717 0.000000
# 3 0.003141 0.004595 0.045879 0.000000 -0.028316 0.000000
# 4 0.000000 0.000000 0.000000 5.773964 0.000000 1.036253
# 5 -0.008265 -0.004717 -0.028316 0.000000 0.046885 0.000000
# 6 0.000000 0.000000 0.000000 1.036253 0.000000 0.255966
#
#
# Mechanical properties :
#
#
# Convention : Reuss Voigt Hill
#
# Bulk Modulus (GPa) = 11.75257 29.14591 20.44924
# Shear Modulus (GPa) = 0.81237 28.70326 14.75781
#
# Velocity S-wave (km/s) = 0.59636 3.54482 2.54179
# Velocity P-wave (km/s) = 2.37050 5.43267 4.19125
#
# Compressibility (1/GPa) = 0.08508778
#
# Stress axis : x y z
#
# Youngs Moduli (GPa) = 119.09682 76.35869 21.79642
#
# Poissons Ratio (x) = -0.08569 -0.06847
# Poissons Ratio (y) = -0.13366 -0.10015
# Poissons Ratio (z) = -0.37410 -0.35084
#
# Static dielectric constant tensor:
#      x y z
#    x 1.850870 0.000000 0.013680 
#    y 0.000000 1.874490 0.000000 
#    z 0.013680 0.000000 1.847790 
# 
# From -- ./inp_files/261799.got.cif
#   From: 2010.05.17/outbox.cif.g08.bks.cpg/sg12_131_cif.got.tgz:261799.got - 2010.06.03 13:09:07.
