data_PCOD9197780
_publ_section_title
;
Structure prediction by ZEFSAII (Michael W. Deem and Ramdas Pophale) SiO2 
 PCOD9197780
Probable space group: C 2/M
;
_chemical_formula_sum "Si O2"
_cell_formula_units_Z 60
_cell_length_a 21.871230
_cell_length_b 22.944266
_cell_length_c 12.946673
_cell_angle_alpha 90.000000
_cell_angle_beta 27.490577
_cell_angle_gamma 90.000000
_cell_volume 2998.982431
_symmetry_space_group_name_H-M "C 2/M"
_symmetry_group_IT_number 12
_symmetry_cell_setting 'monoclinic'
loop_
_space_group_symop_operation_xyz
x,y,z
-x,y,-z
-x,-y,-z
x,-y,z
1/2+x,1/2+y,z
1/2-x,1/2+y,-z
1/2-x,1/2-y,-z
1/2+x,1/2-y,z
loop_
_atom_site_type_symbol
_atom_site_label
_atom_site_fract_x
_atom_site_fract_y
_atom_site_fract_z
Si Si1 0.905490 0.435657 0.239274
Si Si2 0.752937 0.723760 0.107483
Si Si3 0.038008 0.679506 0.752868
Si Si4 0.237330 0.826220 0.755013
Si Si5 0.660294 0.430878 0.479476
Si Si6 0.148658 0.930391 0.035681
Si Si7 0.000000 0.761287 0.000000
Si Si8 0.651360 0.597929 0.264028
O O1 0.884489 0.500000 0.317200
O O2 0.978123 0.388332 0.197879
O O3 0.766386 0.409540 0.404701
O O4 0.000000 0.442433 0.000000
O O5 0.715293 0.775737 0.239046
O O6 0.660843 0.667509 0.251178
O O7 0.750000 0.750000 0.000000
O O8 0.901791 0.703639 0.911089
O O9 0.157320 0.676700 0.494237
O O10 0.063216 0.718059 0.818539
O O11 0.216011 0.886372 0.851853
O O12 0.101408 0.802847 0.908320
O O13 0.659205 0.500000 0.494855
O O14 0.507987 0.411737 0.723934
O O15 0.708789 0.420237 0.289423
O O16 0.200385 0.922235 0.077128
O O17 0.157273 0.000000 0.997640
O O18 0.500000 0.576395 0.500000
#
# Coordination Sequence:
#
# PCOD9197780 Si02
#       8
#     8   8   8   8   8   8   4   8
#     4  10  20  37  61  92 126 164 211 255 304 370
#     4  11  24  42  61  89 123 160 209 253 310 370
#     4  11  24  41  64  90 126 165 202 258 311 371
#     4  11  25  40  64  92 123 163 203 254 313 376
#     4   9  19  34  61  92 123 164 208 256 308 362
#     4  10  21  40  60  91 128 160 208 261 310 370
#     4  10  24  44  62  90 124 160 208 252 308 368
#     4  10  20  35  64  90 121 162 205 258 311 364
#
# _framework density 20.006785000000001
#
# number of rings (size 3 to 8) (size 9 to 14) (size 15 to 20)
#    0.000    1.733    2.000    1.600    5.600    3.200 
#    0.000    1.000    0.000    0.800    0.000    0.000 
#    0.000    0.000    0.000    0.000    0.000    0.000 
#
# Total GULP energy -167198.614593 kJ/mol
# GULP energy per Si atom -5573.287153 kJ/mol
# Density = 1.996125 g / cm^3
# Si number density = 20.006785 Si / 1000 Ang^3
#
#
#
# Elastic Constant Matrix: (Units=GPa)
#
#
# Indices 1 2 3 4 5 6 
#
# 1 57.4566 35.3880 13.8206 -0.0004 18.7744 0.0005
# 2 35.3880 111.3855 37.7207 0.0001 18.3280 0.0005
# 3 13.8206 37.7207 87.6777 -0.0002 28.2861 0.0012
# 4 -0.0004 0.0001 -0.0002 39.3793 0.0000 15.2369
# 5 18.7744 18.3280 28.2861 0.0000 28.5243 -0.0009
# 6 0.0005 0.0005 0.0012 15.2369 -0.0009 44.9327
#
#
#
# Elastic Compliance Matrix: (Units=1/GPa)
#
#
# Indices 1 2 3 4 5 6 
#
# 1 0.026272 -0.007018 0.004414 0.000001 -0.017160 -0.000001
# 2 -0.007018 0.012604 -0.004696 0.000000 0.001178 0.000000
# 3 0.004414 -0.004696 0.018665 0.000001 -0.018397 -0.000001
# 4 0.000001 0.000000 0.000001 0.029229 -0.000001 -0.009912
# 5 -0.017160 0.001178 -0.018397 -0.000001 0.063839 0.000002
# 6 -0.000001 0.000000 -0.000001 -0.009912 0.000002 0.025617
#
#
# Mechanical properties :
#
#
# Convention : Reuss Voigt Hill
#
# Bulk Modulus (GPa) = 23.28768 47.81982 35.55375
# Shear Modulus (GPa) = 24.37351 33.87330 29.12341
#
# Velocity S-wave (km/s) = 3.49415 4.11918 3.81947
# Velocity P-wave (km/s) = 5.28620 6.82475 6.10414
#
# Compressibility (1/GPa) = 0.04294116
#
# Stress axis : x y z
#
# Youngs Moduli (GPa) = 38.06282 79.33903 53.57576
#
# Poissons Ratio (x) = 0.55681 -0.23649
# Poissons Ratio (y) = 0.26713 0.25160
# Poissons Ratio (z) = -0.16801 0.37259
#
# Static dielectric constant tensor:
#      x y z
#    x 1.059640 0.000000 -0.613140 
#    y 0.000000 1.662960 0.000000 
#    z -0.613140 0.000000 1.219220 
# 
# From -- ./inp_files/170383.got.cif
#   From: 2010.05.17/outbox.cif.g08.bks.cpg/sg12_86_cif.got.tgz:170383.got - 2010.06.03 13:09:07.
