data_PCOD9197041
_publ_section_title
;
Structure prediction by ZEFSAII (Michael W. Deem and Ramdas Pophale) SiO2 
 PCOD9197041
Probable space group: C 2/M
;
_chemical_formula_sum "Si O2"
_cell_formula_units_Z 40
_cell_length_a 30.639677
_cell_length_b 9.097707
_cell_length_c 21.338790
_cell_angle_alpha 90.000000
_cell_angle_beta 18.020650
_cell_angle_gamma 90.000000
_cell_volume 1840.135141
_symmetry_space_group_name_H-M "C 2/M"
_symmetry_group_IT_number 12
_symmetry_cell_setting 'monoclinic'
loop_
_space_group_symop_operation_xyz
x,y,z
-x,y,-z
-x,-y,-z
x,-y,z
1/2+x,1/2+y,z
1/2-x,1/2+y,-z
1/2-x,1/2-y,-z
1/2+x,1/2-y,z
loop_
_atom_site_type_symbol
_atom_site_label
_atom_site_fract_x
_atom_site_fract_y
_atom_site_fract_z
Si Si1 0.673763 0.828187 0.900626
Si Si2 0.775119 0.329150 0.317279
Si Si3 0.460535 0.671457 0.725107
Si Si4 0.181386 0.671465 0.191047
Si Si5 0.116682 0.174318 0.715236
O O1 0.703354 0.814772 0.786278
O O2 0.797195 0.761604 0.774777
O O3 0.655152 0.000000 0.940845
O O4 0.529916 0.739695 0.109117
O O5 0.805641 0.500000 0.292811
O O6 0.609589 0.297483 0.553837
O O7 0.867009 0.223127 0.234535
O O8 0.464059 0.500000 0.701281
O O9 0.433614 0.767673 0.700306
O O10 0.329270 0.690571 0.951032
O O11 0.160167 0.500000 0.232858
O O12 0.250000 0.250000 0.500000
O O13 0.120455 0.000000 0.702078
#
# Coordination Sequence:
#
# PCOD9197041 Si02
#       5
#     8   8   8   8   8
#     4  11  23  39  60  86 119 156 194 239 292 348
#     4  10  22  40  61  86 118 156 196 239 290 348
#     4   9  19  37  59  82 112 152 196 241 291 346
#     4  10  20  35  58  86 116 152 197 246 291 342
#     4  12  25  41  63  88 116 151 193 240 290 347
#
# _framework density 21.737535000000001
#
# number of rings (size 3 to 8) (size 9 to 14) (size 15 to 20)
#    0.000    1.600    0.000    4.800    0.000    8.000 
#    0.000    4.000    0.000    0.000    0.000    0.000 
#    0.000    0.000    0.000    0.000    0.000    0.000 
#
# Total GULP energy -111936.211907 kJ/mol
# GULP energy per Si atom -5596.810595 kJ/mol
# Density = 2.168806 g / cm^3
# Si number density = 21.737535 Si / 1000 Ang^3
#
#
#
# Elastic Constant Matrix: (Units=GPa)
#
#
# Indices 1 2 3 4 5 6 
#
# 1 94.6468 60.6822 -10.3697 -0.0002 -2.6734 0.0000
# 2 60.6822 115.7706 8.1742 -0.0004 1.6443 -0.0001
# 3 -10.3697 8.1742 41.6398 -0.0005 3.2361 -0.0001
# 4 -0.0002 -0.0004 -0.0005 20.9797 0.0001 -5.8516
# 5 -2.6734 1.6443 3.2361 0.0001 22.8754 0.0000
# 6 0.0000 -0.0001 -0.0001 -5.8516 0.0000 41.8659
#
#
#
# Elastic Compliance Matrix: (Units=1/GPa)
#
#
# Indices 1 2 3 4 5 6 
#
# 1 0.017437 -0.009595 0.006081 0.000000 0.001867 0.000000
# 2 -0.009595 0.014043 -0.005036 0.000000 -0.001418 0.000000
# 3 0.006081 -0.005036 0.026729 0.000001 -0.002709 0.000000
# 4 0.000000 0.000000 0.000001 0.049599 0.000000 0.006932
# 5 0.001867 -0.001418 -0.002709 0.000000 0.044419 0.000000
# 6 0.000000 0.000000 0.000000 0.006932 0.000000 0.024855
#
#
# Mechanical properties :
#
#
# Convention : Reuss Voigt Hill
#
# Bulk Modulus (GPa) = 24.32663 41.00339 32.66501
# Shear Modulus (GPa) = 24.05184 30.04890 27.05037
#
# Velocity S-wave (km/s) = 3.32997 3.72203 3.53144
# Velocity P-wave (km/s) = 5.09905 6.11353 5.62919
#
# Compressibility (1/GPa) = 0.04110721
#
# Stress axis : x y z
#
# Youngs Moduli (GPa) = 57.35046 71.20961 37.41264
#
# Poissons Ratio (x) = 0.68329 -0.22750
# Poissons Ratio (y) = 0.55030 0.18841
# Poissons Ratio (z) = -0.34874 0.35862
#
# Static dielectric constant tensor:
#      x y z
#    x 1.796180 0.000000 0.033140 
#    y 0.000000 1.726590 0.000000 
#    z 0.033140 0.000000 1.837620 
# 
# From -- ./inp_files/151636.got.cif
#   From: 2010.05.17/outbox.cif.g08.bks.cpg/sg12_76_cif.got.tgz:151636.got - 2010.06.03 13:09:07.
