data_PCOD9197306
_publ_section_title
;
Structure prediction by ZEFSAII (Michael W. Deem and Ramdas Pophale) SiO2 
 PCOD9197306
Probable space group: C 2/M
;
_chemical_formula_sum "Si O2"
_cell_formula_units_Z 56
_cell_length_a 25.856112
_cell_length_b 9.059635
_cell_length_c 18.504815
_cell_angle_alpha 90.000000
_cell_angle_beta 43.330231
_cell_angle_gamma 90.000000
_cell_volume 2974.478323
_symmetry_space_group_name_H-M "C 2/M"
_symmetry_group_IT_number 12
_symmetry_cell_setting 'monoclinic'
loop_
_space_group_symop_operation_xyz
x,y,z
-x,y,-z
-x,-y,-z
x,-y,z
1/2+x,1/2+y,z
1/2-x,1/2+y,-z
1/2-x,1/2-y,-z
1/2+x,1/2-y,z
loop_
_atom_site_type_symbol
_atom_site_label
_atom_site_fract_x
_atom_site_fract_y
_atom_site_fract_z
Si Si1 0.081636 0.823115 0.882315
Si Si2 0.420248 0.323270 0.549528
Si Si3 0.158719 0.332123 0.244710
Si Si4 0.163601 0.177969 0.509518
Si Si5 0.840593 0.323579 0.331363
Si Si6 0.660761 0.331365 0.945305
Si Si7 0.667338 0.176384 0.080056
O O1 0.105334 0.742488 0.785054
O O2 0.137158 0.777319 0.890750
O O3 0.087730 0.000000 0.864331
O O4 0.000000 0.793113 0.000000
O O5 0.500000 0.267351 0.500000
O O6 0.424850 0.500000 0.540043
O O7 0.362440 0.275698 0.670065
O O8 0.389599 0.272055 0.502754
O O9 0.134050 0.500000 0.285936
O O10 0.248888 0.334513 0.145338
O O11 0.128239 0.287384 0.196312
O O12 0.144464 0.253699 0.605090
O O13 0.252175 0.210769 0.403436
O O14 0.157496 0.000000 0.523123
O O15 0.848159 0.500000 0.326845
O O16 0.633089 0.500000 0.981436
O O17 0.631984 0.237569 0.042465
O O18 0.675316 0.000000 0.068984
O O19 0.750000 0.250000 0.000000
#
# Coordination Sequence:
#
# PCOD9197306 Si02
#       7
#     8   8   8   8   8   8   8
#     4  10  21  37  55  78 111 148 181 219 274 333
#     4  10  21  36  53  77 106 138 177 217 263 321
#     4   9  18  32  51  75 103 135 172 216 262 308
#     4   9  19  37  59  82 110 141 180 229 277 326
#     4  10  20  35  59  87 109 139 184 232 277 322
#     4   9  18  33  53  77 103 136 180 220 259 313
#     4   9  17  30  49  75 104 133 169 212 257 305
#
# _framework density 18.826830999999999
#
# number of rings (size 3 to 8) (size 9 to 14) (size 15 to 20)
#    0.000    2.571    0.000    2.571    0.000    5.143 
#    2.571    0.000    0.000    0.000    0.000    0.000 
#    0.000    0.000    0.000    0.000    0.000    0.000 
#
# Total GULP energy -156009.312916 kJ/mol
# GULP energy per Si atom -5571.761176 kJ/mol
# Density = 1.878398 g / cm^3
# Si number density = 18.826831 Si / 1000 Ang^3
#
#
#
# Elastic Constant Matrix: (Units=GPa)
#
#
# Indices 1 2 3 4 5 6 
#
# 1 97.5670 37.0745 66.1001 0.0001 31.1812 -0.0003
# 2 37.0745 29.8223 37.6757 0.0017 14.5824 -0.0020
# 3 66.1001 37.6757 105.7985 0.0034 34.5515 -0.0033
# 4 0.0001 0.0017 0.0034 30.9816 -0.0023 10.3844
# 5 31.1812 14.5824 34.5515 -0.0023 25.5517 0.0017
# 6 -0.0003 -0.0020 -0.0033 10.3844 0.0017 19.8471
#
#
#
# Elastic Compliance Matrix: (Units=1/GPa)
#
#
# Indices 1 2 3 4 5 6 
#
# 1 0.024488 -0.018324 -0.004352 0.000001 -0.013541 -0.000001
# 2 -0.018324 0.076048 -0.015691 -0.000005 0.000178 0.000007
# 3 -0.004352 -0.015691 0.023460 -0.000005 -0.017457 0.000006
# 4 0.000001 -0.000005 -0.000005 0.039142 0.000014 -0.020480
# 5 -0.013541 0.000178 -0.017457 0.000014 0.079164 -0.000017
# 6 -0.000001 0.000007 0.000006 -0.020480 -0.000017 0.061101
#
#
# Mechanical properties :
#
#
# Convention : Reuss Voigt Hill
#
# Bulk Modulus (GPa) = 21.15886 57.20983 39.18435
# Shear Modulus (GPa) = 12.62973 21.43190 17.03081
#
# Velocity S-wave (km/s) = 2.59286 3.37763 3.01093
# Velocity P-wave (km/s) = 4.49744 6.75756 5.73984
#
# Compressibility (1/GPa) = 0.04726152
#
# Stress axis : x y z
#
# Youngs Moduli (GPa) = 40.83580 13.14960 42.62593
#
# Poissons Ratio (x) = 0.24095 0.18552
# Poissons Ratio (y) = 0.74827 0.66886
# Poissons Ratio (z) = 0.17773 0.20633
#
# Static dielectric constant tensor:
#      x y z
#    x 1.808210 0.000010 -0.072480 
#    y 0.000010 1.644130 -0.000010 
#    z -0.072480 -0.000010 1.694200 
# 
# From -- ./inp_files/288473.got.cif
#   From: 2010.05.17/outbox.cif.g08.bks.cpg/sg12_145_cif.got.tgz:288473.got - 2010.06.03 13:09:07.
