data_PCOD9197051
_publ_section_title
;
Structure prediction by ZEFSAII (Michael W. Deem and Ramdas Pophale) SiO2 
 PCOD9197051
Probable space group: C 2/M
;
_chemical_formula_sum "Si O2"
_cell_formula_units_Z 64
_cell_length_a 19.116951
_cell_length_b 13.855619
_cell_length_c 16.472440
_cell_angle_alpha 90.000000
_cell_angle_beta 133.043360
_cell_angle_gamma 90.000000
_cell_volume 3188.770340
_symmetry_space_group_name_H-M "C 2/M"
_symmetry_group_IT_number 12
_symmetry_cell_setting 'monoclinic'
loop_
_space_group_symop_operation_xyz
x,y,z
-x,y,-z
-x,-y,-z
x,-y,z
1/2+x,1/2+y,z
1/2-x,1/2+y,-z
1/2-x,1/2-y,-z
1/2+x,1/2-y,z
loop_
_atom_site_type_symbol
_atom_site_label
_atom_site_fract_x
_atom_site_fract_y
_atom_site_fract_z
Si Si1 0.151639 0.384986 0.415921
Si Si2 0.057786 0.384381 0.800757
Si Si3 0.774568 0.115964 0.938660
Si Si4 0.450444 0.891892 0.875288
Si Si5 0.342953 0.615774 0.171850
Si Si6 0.713270 0.737285 0.587099
Si Si7 0.526310 0.614012 0.425301
Si Si8 0.287597 0.236888 0.816334
O O1 0.164853 0.500000 0.419986
O O2 0.198454 0.325976 0.378242
O O3 0.204755 0.339036 0.534861
O O4 0.037272 0.364217 0.327253
O O5 0.068241 0.500000 0.809446
O O6 0.162848 0.349954 0.858641
O O7 0.025174 0.358613 0.866036
O O8 0.813089 0.170542 0.890191
O O9 0.777196 0.000000 0.931326
O O10 0.829383 0.139968 0.066041
O O11 0.373756 0.812071 0.836958
O O12 0.413042 0.000000 0.820662
O O13 0.500000 0.905586 0.000000
O O14 0.335226 0.500000 0.171244
O O15 0.441514 0.642580 0.295937
O O16 0.257701 0.661348 0.156513
O O17 0.620963 0.675698 0.488011
O O18 0.714702 0.754339 0.684407
O O19 0.500000 0.624848 0.500000
O O20 0.545195 0.500000 0.427406
#
# Coordination Sequence:
#
# PCOD9197051 Si02
#       8
#     8   8   8   8   8   8   8   8
#     4  10  22  40  60  84 115 157 205 250 305 368
#     4   9  18  36  60  83 115 155 195 246 300 355
#     4  10  23  41  60  89 127 166 203 245 303 365
#     4  10  20  35  59  91 120 149 195 253 310 360
#     4  10  21  37  57  85 122 160 197 243 303 362
#     4  11  23  37  59  86 120 157 198 254 303 360
#     4  10  20  35  58  86 117 154 194 245 299 349
#     4  12  22  36  61  92 122 157 200 258 304 358
#
# _framework density 20.070432
#
# number of rings (size 3 to 8) (size 9 to 14) (size 15 to 20)
#    0.000    1.750    2.500    1.875    1.750    3.500 
#    0.000    0.000    0.000    3.000    0.000    1.750 
#    0.000    0.000    0.000    0.000    0.000    0.000 
#
# Total GULP energy -178509.302848 kJ/mol
# GULP energy per Si atom -5578.415714 kJ/mol
# Density = 2.002475 g / cm^3
# Si number density = 20.070432 Si / 1000 Ang^3
#
#
#
# Elastic Constant Matrix: (Units=GPa)
#
#
# Indices 1 2 3 4 5 6 
#
# 1 49.2318 24.1720 24.0390 0.0000 -8.9453 0.0000
# 2 24.1720 78.7047 47.0276 0.0000 -6.9266 0.0000
# 3 24.0390 47.0276 109.3255 0.0000 -7.8005 0.0000
# 4 0.0000 0.0000 0.0000 19.6825 0.0000 2.8541
# 5 -8.9453 -6.9266 -7.8005 0.0000 24.0971 0.0000
# 6 0.0000 0.0000 0.0000 2.8541 0.0000 23.5435
#
#
#
# Elastic Compliance Matrix: (Units=1/GPa)
#
#
# Indices 1 2 3 4 5 6 
#
# 1 0.025690 -0.005647 -0.002718 0.000000 0.007034 0.000000
# 2 -0.005647 0.018502 -0.006641 0.000000 0.001073 0.000000
# 3 -0.002718 -0.006641 0.012686 0.000000 0.001189 0.000000
# 4 0.000000 0.000000 0.000000 0.051716 0.000000 -0.006269
# 5 0.007034 0.001073 0.001189 0.000000 0.044803 0.000000
# 6 0.000000 0.000000 0.000000 -0.006269 0.000000 0.043235
#
#
# Mechanical properties :
#
#
# Convention : Reuss Voigt Hill
#
# Bulk Modulus (GPa) = 37.22037 47.52658 42.37348
# Shear Modulus (GPa) = 21.22258 22.93283 22.07770
#
# Velocity S-wave (km/s) = 3.25530 3.38393 3.32024
# Velocity P-wave (km/s) = 5.71966 6.24494 5.98806
#
# Compressibility (1/GPa) = 0.02686701
#
# Stress axis : x y z
#
# Youngs Moduli (GPa) = 38.92613 54.04697 78.82667
#
# Poissons Ratio (x) = 0.30520 0.21424
# Poissons Ratio (y) = 0.21981 0.52347
# Poissons Ratio (z) = 0.10580 0.35892
#
# Static dielectric constant tensor:
#      x y z
#    x 1.691390 0.000000 0.024860 
#    y 0.000000 1.739020 0.000000 
#    z 0.024860 0.000000 1.794730 
# 
# From -- ./inp_files/225738.got.cif
#   From: 2010.05.17/outbox.cif.g08.bks.cpg/sg12_113_cif.got.tgz:225738.got - 2010.06.03 13:09:07.
