data_PCOD9197086
_publ_section_title
;
Structure prediction by ZEFSAII (Michael W. Deem and Ramdas Pophale) SiO2 
 PCOD9197086
Probable space group: C 2/M
;
_chemical_formula_sum "Si O2"
_cell_formula_units_Z 56
_cell_length_a 17.769486
_cell_length_b 19.031378
_cell_length_c 9.309582
_cell_angle_alpha 90.000000
_cell_angle_beta 118.937620
_cell_angle_gamma 90.000000
_cell_volume 2755.220112
_symmetry_space_group_name_H-M "C 2/M"
_symmetry_group_IT_number 12
_symmetry_cell_setting 'monoclinic'
loop_
_space_group_symop_operation_xyz
x,y,z
-x,y,-z
-x,-y,-z
x,-y,z
1/2+x,1/2+y,z
1/2-x,1/2+y,-z
1/2-x,1/2-y,-z
1/2+x,1/2-y,z
loop_
_atom_site_type_symbol
_atom_site_label
_atom_site_fract_x
_atom_site_fract_y
_atom_site_fract_z
Si Si1 0.155917 0.273664 0.114718
Si Si2 0.084828 0.921397 0.484647
Si Si3 0.113698 0.779674 0.393947
Si Si4 0.729725 0.923186 0.212082
Si Si5 0.693817 0.814346 0.698787
Si Si6 0.376719 0.079635 0.588908
Si Si7 0.466011 0.812699 0.240903
O O1 0.133892 0.257687 0.261479
O O2 0.202436 0.348146 0.124704
O O3 0.219212 0.208060 0.139871
O O4 0.070285 0.283834 0.942834
O O5 0.106329 0.862822 0.386269
O O6 0.169053 0.921714 0.663079
O O7 0.000000 0.905565 0.500000
O O8 0.074890 0.000000 0.415644
O O9 0.177607 0.752019 0.576065
O O10 0.022133 0.749953 0.356688
O O11 0.676331 0.923180 0.312198
O O12 0.709748 0.000000 0.123380
O O13 0.683713 0.879573 0.580798
O O14 0.616049 0.825088 0.736100
O O15 0.466282 0.122380 0.695725
O O16 0.394959 0.000000 0.559600
#
# Coordination Sequence:
#
# PCOD9197086 Si02
#       7
#     8   8   8   8   8   8   8
#     4  12  22  38  58  86 125 159 195 248 303 365
#     4  10  20  35  58  89 117 149 198 257 302 342
#     4  11  20  36  61  84 112 154 201 245 292 356
#     4  10  20  35  58  87 117 151 195 245 299 359
#     4  11  21  37  59  84 117 159 204 247 296 357
#     4  10  21  39  64  90 120 162 210 252 302 373
#     4  11  24  36  56  90 123 158 193 248 311 358
#
# _framework density 20.325054000000002
#
# number of rings (size 3 to 8) (size 9 to 14) (size 15 to 20)
#    0.000    1.286    4.286    4.714    0.000    1.714 
#    0.000    1.429    0.000    2.571    0.000    0.000 
#    0.000    0.000    0.000    0.000    0.000    0.000 
#
# Total GULP energy -156026.300731 kJ/mol
# GULP energy per Si atom -5572.367883 kJ/mol
# Density = 2.027879 g / cm^3
# Si number density = 20.325054 Si / 1000 Ang^3
#
#
#
# Elastic Constant Matrix: (Units=GPa)
#
#
# Indices 1 2 3 4 5 6 
#
# 1 94.2405 26.7270 19.9866 0.0000 12.0299 0.0000
# 2 26.7270 142.1065 33.8690 0.0000 15.9434 0.0000
# 3 19.9866 33.8690 64.0987 0.0000 11.1819 0.0000
# 4 0.0000 0.0000 0.0000 10.5173 0.0000 0.1678
# 5 12.0299 15.9434 11.1819 0.0000 27.1608 0.0000
# 6 0.0000 0.0000 0.0000 0.1678 0.0000 15.4009
#
#
#
# Elastic Compliance Matrix: (Units=1/GPa)
#
#
# Indices 1 2 3 4 5 6 
#
# 1 0.011939 -0.001268 -0.002435 0.000000 -0.003541 0.000000
# 2 -0.001268 0.008453 -0.003559 0.000000 -0.002935 0.000000
# 3 -0.002435 -0.003559 0.019057 0.000000 -0.004678 0.000000
# 4 0.000000 0.000000 0.000000 0.095098 0.000000 -0.001036
# 5 -0.003541 -0.002935 -0.004678 0.000000 0.042035 0.000000
# 6 0.000000 0.000000 0.000000 -0.001036 0.000000 0.064943
#
#
# Mechanical properties :
#
#
# Convention : Reuss Voigt Hill
#
# Bulk Modulus (GPa) = 40.12031 51.29008 45.70519
# Shear Modulus (GPa) = 18.91382 25.27333 22.09358
#
# Velocity S-wave (km/s) = 3.05383 3.53009 3.30056
# Velocity P-wave (km/s) = 5.67597 6.47342 6.08777
#
# Compressibility (1/GPa) = 0.02492503
#
# Stress axis : x y z
#
# Youngs Moduli (GPa) = 83.75773 118.30130 52.47453
#
# Poissons Ratio (x) = 0.14998 0.12778
# Poissons Ratio (y) = 0.10619 0.18676
# Poissons Ratio (z) = 0.20396 0.42105
#
# Static dielectric constant tensor:
#      x y z
#    x 1.773090 0.000000 0.018390 
#    y 0.000000 1.772260 0.000000 
#    z 0.018390 0.000000 1.780480 
# 
# From -- ./inp_files/77618.got.cif
#   From: 2010.05.17/outbox.cif.g08.bks.cpg/sg12_39_cif.got.tgz:77618.got - 2010.06.03 13:09:07.
