data_PCOD9197805
_publ_section_title
;
Structure prediction by ZEFSAII (Michael W. Deem and Ramdas Pophale) SiO2 
 PCOD9197805
Probable space group: C 2/M
;
_chemical_formula_sum "Si O2"
_cell_formula_units_Z 40
_cell_length_a 13.352795
_cell_length_b 29.681450
_cell_length_c 5.048500
_cell_angle_alpha 90.000000
_cell_angle_beta 102.707478
_cell_angle_gamma 90.000000
_cell_volume 1951.863892
_symmetry_space_group_name_H-M "C 2/M"
_symmetry_group_IT_number 12
_symmetry_cell_setting 'monoclinic'
loop_
_space_group_symop_operation_xyz
x,y,z
-x,y,-z
-x,-y,-z
x,-y,z
1/2+x,1/2+y,z
1/2-x,1/2+y,-z
1/2-x,1/2-y,-z
1/2+x,1/2-y,z
loop_
_atom_site_type_symbol
_atom_site_label
_atom_site_fract_x
_atom_site_fract_y
_atom_site_fract_z
Si Si1 0.430038 0.051992 0.198646
Si Si2 0.407905 0.285287 0.156387
Si Si3 0.243879 0.887396 0.271809
Si Si4 0.292793 0.213343 0.316795
Si Si5 0.609611 0.618779 0.671877
O O1 0.500000 0.052132 0.500000
O O2 0.329243 0.080404 0.200995
O O3 0.402703 0.000000 0.118899
O O4 0.500000 0.069984 0.000000
O O5 0.398293 0.235899 0.278308
O O6 0.400855 0.326532 0.358111
O O7 0.500000 0.290259 0.000000
O O8 0.299080 0.288475 0.947707
O O9 0.298382 0.839549 0.378236
O O10 0.192986 0.900945 0.519653
O O11 0.150913 0.885830 0.997852
O O12 0.250000 0.250000 0.500000
O O13 0.500000 0.601362 0.500000
#
# Coordination Sequence:
#
# PCOD9197805 Si02
#       5
#     8   8   8   8   8
#     4  10  22  43  68  95 125 159 204 254 315 383
#     4  10  21  34  52  75 110 161 203 241 297 353
#     4  11  22  38  63  86 123 160 204 257 313 362
#     4  10  20  36  50  77 118 152 199 255 294 352
#     4  11  21  37  59  87 118 161 209 249 293 370
#
# _framework density 20.493233
#
# number of rings (size 3 to 8) (size 9 to 14) (size 15 to 20)
#    0.000    1.600    2.000    4.200    0.000    0.800 
#    3.600    0.000    0.000    3.600    0.000    0.000 
#    0.000    0.000    0.000    0.000    0.000    0.000 
#
# Total GULP energy -111367.552177 kJ/mol
# GULP energy per Si atom -5568.377609 kJ/mol
# Density = 2.044659 g / cm^3
# Si number density = 20.493233 Si / 1000 Ang^3
#
#
#
# Elastic Constant Matrix: (Units=GPa)
#
#
# Indices 1 2 3 4 5 6 
#
# 1 113.0851 34.4113 3.0911 0.0000 -18.8307 0.0000
# 2 34.4113 47.6796 -5.0638 0.0000 -2.3200 0.0000
# 3 3.0911 -5.0638 71.8749 0.0000 -4.0595 0.0000
# 4 0.0000 0.0000 0.0000 62.1879 0.0000 16.0740
# 5 -18.8307 -2.3200 -4.0595 0.0000 41.4526 0.0000
# 6 0.0000 0.0000 0.0000 16.0740 0.0000 38.0817
#
#
#
# Elastic Compliance Matrix: (Units=1/GPa)
#
#
# Indices 1 2 3 4 5 6 
#
# 1 0.012379 -0.008780 -0.000866 0.000000 0.005047 0.000000
# 2 -0.008780 0.027433 0.002184 0.000000 -0.002239 0.000000
# 3 -0.000866 0.002184 0.014167 0.000000 0.001116 0.000000
# 4 0.000000 0.000000 0.000000 0.018049 0.000000 -0.007619
# 5 0.005047 -0.002239 0.001116 0.000000 0.026401 0.000000
# 6 0.000000 0.000000 0.000000 -0.007619 0.000000 0.029475
#
#
# Mechanical properties :
#
#
# Convention : Reuss Voigt Hill
#
# Bulk Modulus (GPa) = 25.60527 33.05741 29.33134
# Shear Modulus (GPa) = 32.08261 41.69119 36.88690
#
# Velocity S-wave (km/s) = 3.96096 4.51531 4.24719
# Velocity P-wave (km/s) = 5.78278 6.58407 6.19639
#
# Compressibility (1/GPa) = 0.03905447
#
# Stress axis : x y z
#
# Youngs Moduli (GPa) = 80.78288 36.45202 70.58552
#
# Poissons Ratio (x) = 0.32006 0.06112
# Poissons Ratio (y) = 0.70931 -0.15415
# Poissons Ratio (z) = 0.06995 -0.07961
#
# Static dielectric constant tensor:
#      x y z
#    x 1.715360 0.000000 -0.066230 
#    y 0.000000 1.825390 0.000000 
#    z -0.066230 0.000000 1.668090 
# 
# From -- ./inp_files/8522.got.cif
#   From: 2010.05.17/outbox.cif.g08.bks.cpg/sg12_5_cif.got.tgz:8522.got - 2010.06.03 13:09:07.
