data_PCOD9197496
_publ_section_title
;
Structure prediction by ZEFSAII (Michael W. Deem and Ramdas Pophale) SiO2 
 PCOD9197496
Probable space group: C 2/M
;
_chemical_formula_sum "Si O2"
_cell_formula_units_Z 44
_cell_length_a 21.665189
_cell_length_b 10.695311
_cell_length_c 8.229582
_cell_angle_alpha 90.000000
_cell_angle_beta 104.884732
_cell_angle_gamma 90.000000
_cell_volume 1842.937574
_symmetry_space_group_name_H-M "C 2/M"
_symmetry_group_IT_number 12
_symmetry_cell_setting 'monoclinic'
loop_
_space_group_symop_operation_xyz
x,y,z
-x,y,-z
-x,-y,-z
x,-y,z
1/2+x,1/2+y,z
1/2-x,1/2+y,-z
1/2-x,1/2-y,-z
1/2+x,1/2-y,z
loop_
_atom_site_type_symbol
_atom_site_label
_atom_site_fract_x
_atom_site_fract_y
_atom_site_fract_z
Si Si1 0.394788 0.500000 0.791152
Si Si2 0.056644 0.269128 0.668928
Si Si3 0.350481 0.000000 0.721939
Si Si4 0.972810 0.000000 0.298491
Si Si5 0.006362 0.500000 0.306317
Si Si6 0.308698 0.756139 0.256006
Si Si7 0.709809 0.500000 0.564042
Si Si8 0.670042 0.734460 0.114822
O O1 0.466608 0.500000 0.777143
O O2 0.345020 0.500000 0.607414
O O3 0.380008 0.627656 0.875568
O O4 0.124034 0.310732 0.636456
O O5 0.000000 0.256221 0.500000
O O6 0.031127 0.375359 0.772685
O O7 0.064398 0.129834 0.743317
O O8 0.420263 0.000000 0.690782
O O9 0.345114 0.129470 0.820774
O O10 0.285261 0.000000 0.569913
O O11 0.000000 0.000000 0.500000
O O12 0.000000 0.500000 0.500000
O O13 0.301543 0.621467 0.333190
O O14 0.238710 0.813879 0.232058
O O15 0.319915 0.750911 0.070154
#
# Coordination Sequence:
#
# PCOD9197496 Si02
#       8
#     4   8   4   4   4   8   4   8
#     4  12  23  38  63 102 125 156 212 265 316 359
#     4  10  20  35  60  86 114 157 207 252 294 365
#     4  10  22  42  59  90 128 168 213 256 311 362
#     4  10  20  36  58  82 117 157 195 245 302 364
#     4  10  22  37  56  84 125 165 199 251 311 369
#     4  10  21  42  64  90 123 169 208 245 319 374
#     4  10  21  37  68  94 127 160 202 271 313 368
#     4  10  24  41  66  91 128 164 207 264 306 375
#
# _framework density 23.874925999999999
#
# number of rings (size 3 to 8) (size 9 to 14) (size 15 to 20)
#    0.000    1.818    0.000    4.364    0.000   10.909 
#    0.000    5.455    0.000    1.091    0.000    0.000 
#    0.000    0.000    0.000    0.000    0.000    0.000 
#
# Total GULP energy -122902.368670 kJ/mol
# GULP energy per Si atom -5586.471303 kJ/mol
# Density = 2.382059 g / cm^3
# Si number density = 23.874926 Si / 1000 Ang^3
#
#
#
# Elastic Constant Matrix: (Units=GPa)
#
#
# Indices 1 2 3 4 5 6 
#
# 1 179.8106 30.6011 -2.1855 0.0000 -4.2181 0.0000
# 2 30.6011 133.5069 7.5843 0.0000 -9.9355 0.0000
# 3 -2.1855 7.5843 46.9183 0.0000 3.5222 0.0000
# 4 0.0000 0.0000 0.0000 12.7383 0.0000 -1.0545
# 5 -4.2181 -9.9355 3.5222 0.0000 34.3659 0.0000
# 6 0.0000 0.0000 0.0000 -1.0545 0.0000 32.5071
#
#
#
# Elastic Compliance Matrix: (Units=1/GPa)
#
#
# Indices 1 2 3 4 5 6 
#
# 1 0.005801 -0.001335 0.000465 0.000000 0.000278 0.000000
# 2 -0.001335 0.008057 -0.001539 0.000000 0.002323 0.000000
# 3 0.000465 -0.001539 0.021781 0.000000 -0.002620 0.000000
# 4 0.000000 0.000000 0.000000 0.078715 0.000000 0.002553
# 5 0.000278 0.002323 -0.002620 0.000000 0.030073 0.000000
# 6 0.000000 0.000000 0.000000 0.002553 0.000000 0.030845
#
#
# Mechanical properties :
#
#
# Convention : Reuss Voigt Hill
#
# Bulk Modulus (GPa) = 32.44642 48.02618 40.23630
# Shear Modulus (GPa) = 26.26563 37.53798 31.90181
#
# Velocity S-wave (km/s) = 3.32043 3.96950 3.65938
# Velocity P-wave (km/s) = 5.32165 6.41628 5.89443
#
# Compressibility (1/GPa) = 0.03082004
#
# Stress axis : x y z
#
# Youngs Moduli (GPa) = 172.38877 124.12138 45.91208
#
# Poissons Ratio (x) = 0.16574 -0.02136
# Poissons Ratio (y) = 0.23020 0.07066
# Poissons Ratio (z) = -0.08019 0.19102
#
# Static dielectric constant tensor:
#      x y z
#    x 1.917000 0.000000 0.050220 
#    y 0.000000 1.930770 0.000000 
#    z 0.050220 0.000000 1.793960 
# 
# From -- ./inp_files/84233.got.cif
#   From: 2010.05.17/outbox.cif.g08.bks.cpg/sg12_43_cif.got.tgz:84233.got - 2010.06.03 13:09:07.
