data_PCOD9197914
_publ_section_title
;
Structure prediction by ZEFSAII (Michael W. Deem and Ramdas Pophale) SiO2 
 PCOD9197914
Probable space group: C 2/M
;
_chemical_formula_sum "Si O2"
_cell_formula_units_Z 56
_cell_length_a 19.558706
_cell_length_b 7.605169
_cell_length_c 25.059016
_cell_angle_alpha 90.000000
_cell_angle_beta 42.315679
_cell_angle_gamma 90.000000
_cell_volume 2509.381624
_symmetry_space_group_name_H-M "C 2/M"
_symmetry_group_IT_number 12
_symmetry_cell_setting 'monoclinic'
loop_
_space_group_symop_operation_xyz
x,y,z
-x,y,-z
-x,-y,-z
x,-y,z
1/2+x,1/2+y,z
1/2-x,1/2+y,-z
1/2-x,1/2-y,-z
1/2+x,1/2-y,z
loop_
_atom_site_type_symbol
_atom_site_label
_atom_site_fract_x
_atom_site_fract_y
_atom_site_fract_z
Si Si1 0.329856 0.715627 0.816512
Si Si2 0.534786 0.297135 0.921977
Si Si3 0.176128 0.290941 0.993788
Si Si4 0.250226 0.704666 0.752527
Si Si5 0.643557 0.710415 0.532045
Si Si6 0.738464 0.290886 0.372357
Si Si7 0.550718 0.712787 0.691871
O O1 0.327637 0.500000 0.817915
O O2 0.236715 0.773750 0.906679
O O3 0.312697 0.778374 0.766237
O O4 0.439741 0.769066 0.775077
O O5 0.562495 0.500000 0.914783
O O6 0.632507 0.211538 0.838559
O O7 0.500000 0.222642 0.000000
O O8 0.436167 0.287062 0.941220
O O9 0.163615 0.500000 0.997514
O O10 0.250000 0.250000 0.000000
O O11 0.279525 0.500000 0.731900
O O12 0.266404 0.782955 0.684530
O O13 0.630225 0.500000 0.535508
O O14 0.750000 0.750000 0.500000
O O15 0.660636 0.780158 0.462317
O O16 0.564102 0.772815 0.622349
O O17 0.720342 0.500000 0.379848
O O18 0.852750 0.270236 0.329410
O O19 0.553630 0.500000 0.690208
#
# Coordination Sequence:
#
# PCOD9197914 Si02
#       7
#     8   8   8   8   8   8   8
#     4   9  19  35  53  74 103 138 173 209 258 315
#     4  11  23  39  58  80 105 137 180 224 264 316
#     4  11  23  39  58  80 109 142 178 220 265 317
#     4  10  20  36  55  75 104 141 176 213 263 319
#     4   8  14  27  47  72 102 132 167 208 254 303
#     4   9  18  31  50  78 104 131 171 217 256 304
#     4   9  17  31  52  75 102 138 172 209 258 310
#
# _framework density 22.316255000000002
#
# number of rings (size 3 to 8) (size 9 to 14) (size 15 to 20)
#    0.000    2.429    1.429    0.857    2.000    1.143 
#    0.000    2.143    0.000    4.286    0.000    0.000 
#    0.000   12.571    0.000    0.000    0.000    0.000 
#
# Total GULP energy -156211.534941 kJ/mol
# GULP energy per Si atom -5578.983391 kJ/mol
# Density = 2.226546 g / cm^3
# Si number density = 22.316255 Si / 1000 Ang^3
#
#
#
# Elastic Constant Matrix: (Units=GPa)
#
#
# Indices 1 2 3 4 5 6 
#
# 1 58.1708 -6.8829 -7.2281 0.0000 19.2996 0.0004
# 2 -6.8829 53.8945 -1.1878 0.0001 5.0887 0.0000
# 3 -7.2281 -1.1878 26.6986 -0.0001 17.7385 -0.0003
# 4 0.0000 0.0001 -0.0001 4.0331 -0.0001 2.1728
# 5 19.2996 5.0887 17.7385 -0.0001 44.6836 0.0002
# 6 0.0004 0.0000 -0.0003 2.1728 0.0002 14.6070
#
#
#
# Elastic Compliance Matrix: (Units=1/GPa)
#
#
# Indices 1 2 3 4 5 6 
#
# 1 0.027742 0.006049 0.022001 0.000000 -0.021405 0.000000
# 2 0.006049 0.020261 0.007889 -0.000001 -0.008052 0.000000
# 3 0.022001 0.007889 0.068826 0.000001 -0.037724 0.000001
# 4 0.000000 -0.000001 0.000001 0.269553 0.000000 -0.040097
# 5 -0.021405 -0.008052 -0.037724 0.000000 0.047517 -0.000001
# 6 0.000000 0.000000 0.000001 -0.040097 -0.000001 0.074425
#
#
# Mechanical properties :
#
#
# Convention : Reuss Voigt Hill
#
# Bulk Modulus (GPa) = 5.29921 12.01847 8.65884
# Shear Modulus (GPa) = 10.01302 22.93556 16.47429
#
# Velocity S-wave (km/s) = 2.12052 3.20933 2.71997
# Velocity P-wave (km/s) = 2.89400 4.37382 3.70847
#
# Compressibility (1/GPa) = 0.18870737
#
# Stress axis : x y z
#
# Youngs Moduli (GPa) = 36.04638 49.35502 14.52933
#
# Poissons Ratio (x) = -0.29854 -0.31967
# Poissons Ratio (y) = -0.21804 -0.11462
# Poissons Ratio (z) = -0.79307 -0.38934
#
# Static dielectric constant tensor:
#      x y z
#    x 1.800990 0.000000 0.044980 
#    y 0.000000 1.860570 0.000000 
#    z 0.044980 0.000000 1.851710 
# 
# From -- ./inp_files/280405.got.cif
#   From: 2010.05.17/outbox.cif.g08.bks.cpg/sg12_141_cif.got.tgz:280405.got - 2010.06.03 13:09:07.
