data_PCOD9197648
_publ_section_title
;
Structure prediction by ZEFSAII (Michael W. Deem and Ramdas Pophale) SiO2 
 PCOD9197648
Probable space group: C 2/M
;
_chemical_formula_sum "Si O2"
_cell_formula_units_Z 58
_cell_length_a 19.637579
_cell_length_b 12.389649
_cell_length_c 17.045032
_cell_angle_alpha 90.000000
_cell_angle_beta 47.515567
_cell_angle_gamma 90.000000
_cell_volume 3058.325791
_symmetry_space_group_name_H-M "C 2/M"
_symmetry_group_IT_number 12
_symmetry_cell_setting 'monoclinic'
loop_
_space_group_symop_operation_xyz
x,y,z
-x,y,-z
-x,-y,-z
x,-y,z
1/2+x,1/2+y,z
1/2-x,1/2+y,-z
1/2-x,1/2-y,-z
1/2+x,1/2-y,z
loop_
_atom_site_type_symbol
_atom_site_label
_atom_site_fract_x
_atom_site_fract_y
_atom_site_fract_z
Si Si1 0.896557 0.380787 0.610774
Si Si2 0.866377 0.129280 0.380132
Si Si3 0.000000 0.000000 0.000000
Si Si4 0.832784 0.375725 0.831343
Si Si5 0.776287 0.778001 0.604366
Si Si6 0.113741 0.623837 0.825883
Si Si7 0.029559 0.750211 0.167343
Si Si8 0.372170 0.686767 0.061249
O O1 0.857752 0.500000 0.620428
O O2 0.895736 0.373543 0.704833
O O3 0.837984 0.287176 0.617447
O O4 0.000000 0.375410 0.500000
O O5 0.838073 0.163121 0.490598
O O6 0.789091 0.189322 0.387387
O O7 0.963491 0.180303 0.275627
O O8 0.865918 0.000000 0.371647
O O9 0.919710 0.906375 0.074684
O O10 0.822176 0.500000 0.865793
O O11 0.885434 0.305249 0.854288
O O12 0.733829 0.333473 0.878744
O O13 0.708626 0.857439 0.704042
O O14 0.101964 0.500000 0.857457
O O15 0.115644 0.702785 0.899745
O O16 0.034274 0.662411 0.827453
O O17 0.072746 0.819095 0.063441
#
# Coordination Sequence:
#
# PCOD9197648 Si02
#       8
#     8   8   2   8   8   8   8   8
#     4  10  20  35  61  90 120 161 207 260 315 379
#     4  10  22  37  61  91 123 165 212 267 323 378
#     4  12  24  44  70 100 122 160 228 266 320 378
#     4  11  23  40  63  90 127 164 206 260 318 374
#     4  10  20  38  61  89 124 163 211 267 316 382
#     4  11  23  41  66  93 128 167 215 260 316 387
#     4  11  24  40  61  93 127 166 208 260 317 384
#     4  12  24  42  67  96 124 166 213 267 320 377
#
# _framework density 18.964625000000002
#
# number of rings (size 3 to 8) (size 9 to 14) (size 15 to 20)
#    0.000    1.241    3.448    2.483    0.966    1.655 
#    0.000    4.828    0.000    1.655    0.000    0.000 
#    0.000    0.000    0.000    0.000    0.000    0.000 
#
# Total GULP energy -161676.633643 kJ/mol
# GULP energy per Si atom -5575.056333 kJ/mol
# Density = 1.892146 g / cm^3
# Si number density = 18.964625 Si / 1000 Ang^3
#
#
#
# Elastic Constant Matrix: (Units=GPa)
#
#
# Indices 1 2 3 4 5 6 
#
# 1 73.5178 22.1084 2.5559 0.0000 -9.0665 0.0000
# 2 22.1084 109.9081 5.2426 0.0000 -6.0992 0.0000
# 3 2.5559 5.2426 86.1199 0.0000 -3.1850 0.0000
# 4 0.0000 0.0000 0.0000 15.8493 0.0000 -17.8795
# 5 -9.0665 -6.0992 -3.1850 0.0000 19.1651 0.0000
# 6 0.0000 0.0000 0.0000 -17.8795 0.0000 -18.3606
#
#
#
# Elastic Compliance Matrix: (Units=1/GPa)
#
#
# Indices 1 2 3 4 5 6 
#
# 1 0.015196 -0.002704 -0.000053 0.000000 0.006320 0.000000
# 2 -0.002704 0.009761 -0.000449 0.000000 0.001753 0.000000
# 3 -0.000053 -0.000449 0.011706 0.000000 0.001778 0.000000
# 4 0.000000 0.000000 0.000000 0.030066 0.000000 -0.029278
# 5 0.006320 0.001753 0.001778 0.000000 0.056021 0.000000
# 6 0.000000 0.000000 0.000000 -0.029278 0.000000 -0.025954
#
#
# Mechanical properties :
#
#
# Convention : Reuss Voigt Hill
#
# Bulk Modulus (GPa) = 33.05463 36.59550 34.82507
# Shear Modulus (GPa) = 44.13367 19.30670 31.72018
#
# Velocity S-wave (km/s) = 4.82930 3.19413 4.09418
# Velocity P-wave (km/s) = 6.96876 5.73950 6.38379
#
# Compressibility (1/GPa) = 0.03025295
#
# Stress axis : x y z
#
# Youngs Moduli (GPa) = 65.80511 102.44811 85.42358
#
# Poissons Ratio (x) = 0.27698 0.00450
# Poissons Ratio (y) = 0.17791 0.03837
# Poissons Ratio (z) = 0.00347 0.04601
#
# Static dielectric constant tensor:
#      x y z
#    x 1.639990 0.000000 0.003090 
#    y 0.000000 1.645790 0.000000 
#    z 0.003090 0.000000 1.679470 
# 
# From -- ./inp_files/283530.got.cif
#   From: 2010.05.17/outbox.cif.g08.bks.cpg/sg12_142_cif.got.tgz:283530.got - 2010.06.03 13:09:07.
