data_PCOD9197291
_publ_section_title
;
Structure prediction by ZEFSAII (Michael W. Deem and Ramdas Pophale) SiO2 
 PCOD9197291
Probable space group: C 2/M
;
_chemical_formula_sum "Si O2"
_cell_formula_units_Z 56
_cell_length_a 20.190137
_cell_length_b 7.921399
_cell_length_c 19.898329
_cell_angle_alpha 90.000000
_cell_angle_beta 120.253598
_cell_angle_gamma 90.000000
_cell_volume 2748.988397
_symmetry_space_group_name_H-M "C 2/M"
_symmetry_group_IT_number 12
_symmetry_cell_setting 'monoclinic'
loop_
_space_group_symop_operation_xyz
x,y,z
-x,y,-z
-x,-y,-z
x,-y,z
1/2+x,1/2+y,z
1/2-x,1/2+y,-z
1/2-x,1/2-y,-z
1/2+x,1/2-y,z
loop_
_atom_site_type_symbol
_atom_site_label
_atom_site_fract_x
_atom_site_fract_y
_atom_site_fract_z
Si Si1 0.217304 0.295169 0.186435
Si Si2 0.201219 0.698195 0.909200
Si Si3 0.470808 0.795128 0.190909
Si Si4 0.605240 0.300809 0.360970
Si Si5 0.456982 0.205767 0.912584
Si Si6 0.258699 0.297274 0.356825
Si Si7 0.577576 0.293096 0.499436
O O1 0.220577 0.500000 0.188252
O O2 0.257384 0.233717 0.139675
O O3 0.129933 0.239844 0.135237
O O4 0.247012 0.235965 0.274279
O O5 0.190403 0.500000 0.912924
O O6 0.115989 0.771002 0.854065
O O7 0.250000 0.750000 0.000000
O O8 0.531373 0.733931 0.276899
O O9 0.502486 0.745107 0.134740
O O10 0.470777 0.000000 0.196020
O O11 0.615779 0.500000 0.373184
O O12 0.684195 0.239733 0.365488
O O13 0.585255 0.235540 0.425661
O O14 0.457276 0.000000 0.915081
O O15 0.500000 0.268529 0.000000
O O16 0.262539 0.500000 0.356030
O O17 0.341581 0.238995 0.425901
O O18 0.500000 0.239769 0.500000
O O19 0.575546 0.500000 0.498724
#
# Coordination Sequence:
#
# PCOD9197291 Si02
#       7
#     8   8   8   8   8   8   8
#     4  10  20  35  59  86 112 152 197 239 290 348
#     4  11  24  40  60  85 119 158 196 245 295 348
#     4  10  21  39  60  83 115 157 198 235 286 352
#     4  11  22  36  60  90 120 151 190 248 298 341
#     4   9  16  31  56  81 105 141 192 235 271 335
#     4  10  20  38  63  85 115 159 200 238 288 358
#     4   9  20  37  59  88 117 153 199 242 288 347
#
# _framework density 20.371129
#
# number of rings (size 3 to 8) (size 9 to 14) (size 15 to 20)
#    0.000    2.000    1.429    2.143    2.000    4.000 
#    0.000    0.714    0.000    3.857    0.000    0.000 
#    0.000    0.000    0.000    0.000    0.000    0.000 
#
# Total GULP energy -156197.169211 kJ/mol
# GULP energy per Si atom -5578.470329 kJ/mol
# Density = 2.032476 g / cm^3
# Si number density = 20.371129 Si / 1000 Ang^3
#
#
#
# Elastic Constant Matrix: (Units=GPa)
#
#
# Indices 1 2 3 4 5 6 
#
# 1 198.4748 -3.0155 114.2830 0.0000 12.0393 0.0000
# 2 -3.0155 16.4656 2.0672 0.0000 2.5244 0.0000
# 3 114.2830 2.0672 225.3764 0.0000 7.9204 0.0000
# 4 0.0000 0.0000 0.0000 61.0085 0.0000 16.6805
# 5 12.0393 2.5244 7.9204 0.0000 37.3808 0.0000
# 6 0.0000 0.0000 0.0000 16.6805 0.0000 32.0259
#
#
#
# Elastic Compliance Matrix: (Units=1/GPa)
#
#
# Indices 1 2 3 4 5 6 
#
# 1 0.007273 0.002052 -0.003647 0.000000 -0.001708 0.000000
# 2 0.002052 0.061986 -0.001449 0.000000 -0.004540 0.000000
# 3 -0.003647 -0.001449 0.006302 0.000000 -0.000063 0.000000
# 4 0.000000 0.000000 0.000000 0.019113 0.000000 -0.009955
# 5 -0.001708 -0.004540 -0.000063 0.000000 0.027622 0.000000
# 6 0.000000 0.000000 0.000000 -0.009955 0.000000 0.036410
#
#
# Mechanical properties :
#
#
# Convention : Reuss Voigt Hill
#
# Bulk Modulus (GPa) = 14.39423 74.10956 44.25189
# Shear Modulus (GPa) = 26.60256 47.88185 37.24220
#
# Velocity S-wave (km/s) = 3.61764 4.85343 4.28037
# Velocity P-wave (km/s) = 4.95289 8.23811 6.79696
#
# Compressibility (1/GPa) = 0.06947228
#
# Stress axis : x y z
#
# Youngs Moduli (GPa) = 137.49377 16.13257 158.68689
#
# Poissons Ratio (x) = -0.03310 0.57870
# Poissons Ratio (y) = -0.28210 0.23000
# Poissons Ratio (z) = 0.50141 0.02338
#
# Static dielectric constant tensor:
#      x y z
#    x 1.660940 0.000000 0.019910 
#    y 0.000000 1.746800 0.000000 
#    z 0.019910 0.000000 1.718880 
# 
# From -- ./inp_files/275650.got.cif
#   From: 2010.05.17/outbox.cif.g08.bks.cpg/sg12_138_cif.got.tgz:275650.got - 2010.06.03 13:09:07.
