data_PCOD9197261
_publ_section_title
;
Structure prediction by ZEFSAII (Michael W. Deem and Ramdas Pophale) SiO2 
 PCOD9197261
Probable space group: C 2/M
;
_chemical_formula_sum "Si O2"
_cell_formula_units_Z 64
_cell_length_a 18.523860
_cell_length_b 23.002463
_cell_length_c 16.087990
_cell_angle_alpha 90.000000
_cell_angle_beta 149.039764
_cell_angle_gamma 90.000000
_cell_volume 3526.508511
_symmetry_space_group_name_H-M "C 2/M"
_symmetry_group_IT_number 12
_symmetry_cell_setting 'monoclinic'
loop_
_space_group_symop_operation_xyz
x,y,z
-x,y,-z
-x,-y,-z
x,-y,z
1/2+x,1/2+y,z
1/2-x,1/2+y,-z
1/2-x,1/2-y,-z
1/2+x,1/2-y,z
loop_
_atom_site_type_symbol
_atom_site_label
_atom_site_fract_x
_atom_site_fract_y
_atom_site_fract_z
Si Si1 0.010204 0.859871 0.745562
Si Si2 0.660555 0.787451 0.681521
Si Si3 0.767029 0.934346 0.445462
Si Si4 0.834456 0.567117 0.844800
Si Si5 0.093985 0.323412 0.321678
Si Si6 0.692197 0.285244 0.336067
Si Si7 0.883189 0.156624 0.323384
Si Si8 0.785974 0.686444 0.074657
O O1 0.922427 0.915966 0.629716
O O2 0.917053 0.823871 0.719110
O O3 0.039183 0.828451 0.686031
O O4 0.164657 0.860148 0.936292
O O5 0.500000 0.803785 0.500000
O O6 0.770609 0.805944 0.719269
O O7 0.666173 0.717198 0.687018
O O8 0.696255 0.807661 0.809093
O O9 0.737926 0.930777 0.317906
O O10 0.666973 0.885242 0.384414
O O11 0.735498 0.000000 0.440104
O O12 0.826834 0.500000 0.866819
O O13 0.745038 0.611963 0.811548
O O14 0.000000 0.581997 0.000000
O O15 0.162979 0.290763 0.469091
O O16 0.135074 0.280581 0.286515
O O17 0.930970 0.330056 0.174740
O O18 0.000000 0.130601 0.500000
O O19 0.750000 0.750000 0.000000
#
# Coordination Sequence:
#
# PCOD9197261 Si02
#       8
#     8   8   8   8   8   8   8   8
#     4  11  23  39  56  86 123 159 192 247 298 347
#     4  11  22  36  57  85 118 153 195 234 292 370
#     4  10  22  40  59  82 116 163 207 241 290 353
#     4  10  22  37  54  82 116 154 205 248 275 323
#     4  10  20  35  59  84 119 158 196 244 291 343
#     4  10  20  36  59  84 118 161 192 235 302 358
#     4  11  21  35  56  81 115 163 197 226 285 351
#     4  12  22  38  54  91 126 150 193 248 300 354
#
# _framework density 18.148261999999999
#
# number of rings (size 3 to 8) (size 9 to 14) (size 15 to 20)
#    0.000    1.375    5.000    0.750    8.750    1.250 
#    2.250    0.625    0.000    0.000    0.000   14.000 
#    0.000    0.000    0.000    0.000    0.000    0.000 
#
# Total GULP energy -178481.624630 kJ/mol
# GULP energy per Si atom -5577.550770 kJ/mol
# Density = 1.810696 g / cm^3
# Si number density = 18.148262 Si / 1000 Ang^3
#
#
#
# Elastic Constant Matrix: (Units=GPa)
#
#
# Indices 1 2 3 4 5 6 
#
# 1 115.1198 21.8676 40.2782 0.0000 0.7054 0.0000
# 2 21.8676 63.6677 22.9429 0.0000 11.4622 0.0000
# 3 40.2782 22.9429 101.5066 0.0000 7.7709 0.0000
# 4 0.0000 0.0000 0.0000 17.1598 0.0000 0.5830
# 5 0.7054 11.4622 7.7709 0.0000 34.4553 0.0000
# 6 0.0000 0.0000 0.0000 0.5830 0.0000 16.4604
#
#
#
# Elastic Compliance Matrix: (Units=1/GPa)
#
#
# Indices 1 2 3 4 5 6 
#
# 1 0.010447 -0.002522 -0.003687 0.000000 0.001457 0.000000
# 2 -0.002522 0.018562 -0.002774 0.000000 -0.005498 0.000000
# 3 -0.003687 -0.002774 0.012074 0.000000 -0.001725 0.000000
# 4 0.000000 0.000000 0.000000 0.058346 0.000000 -0.002067
# 5 0.001457 -0.005498 -0.001725 0.000000 0.031211 0.000000
# 6 0.000000 0.000000 0.000000 -0.002067 0.000000 0.060825
#
#
# Mechanical properties :
#
#
# Convention : Reuss Voigt Hill
#
# Bulk Modulus (GPa) = 43.25771 50.05239 46.65505
# Shear Modulus (GPa) = 23.02713 26.62879 24.82796
#
# Velocity S-wave (km/s) = 3.56593 3.83468 3.70275
# Velocity P-wave (km/s) = 6.39077 6.87357 6.63656
#
# Compressibility (1/GPa) = 0.02311726
#
# Stress axis : x y z
#
# Youngs Moduli (GPa) = 95.72461 53.87339 82.82582
#
# Poissons Ratio (x) = 0.13585 0.30536
# Poissons Ratio (y) = 0.24139 0.22975
# Poissons Ratio (z) = 0.35292 0.14944
#
# Static dielectric constant tensor:
#      x y z
#    x 1.640210 0.000000 -0.001340 
#    y 0.000000 1.615470 0.000000 
#    z -0.001340 0.000000 1.680430 
# 
# From -- ./inp_files/228162.got.cif
#   From: 2010.05.17/outbox.cif.g08.bks.cpg/sg12_115_cif.got.tgz:228162.got - 2010.06.03 13:09:07.
