data_PCOD9197573
_publ_section_title
;
Structure prediction by ZEFSAII (Michael W. Deem and Ramdas Pophale) SiO2 
 PCOD9197573
Probable space group: C 2/M
;
_chemical_formula_sum "Si O2"
_cell_formula_units_Z 48
_cell_length_a 20.283822
_cell_length_b 8.922014
_cell_length_c 14.531867
_cell_angle_alpha 90.000000
_cell_angle_beta 89.999910
_cell_angle_gamma 90.000000
_cell_volume 2629.868938
_symmetry_space_group_name_H-M "C 2/M"
_symmetry_group_IT_number 12
_symmetry_cell_setting 'monoclinic'
loop_
_space_group_symop_operation_xyz
x,y,z
-x,y,-z
-x,-y,-z
x,-y,z
1/2+x,1/2+y,z
1/2-x,1/2+y,-z
1/2-x,1/2-y,-z
1/2+x,1/2-y,z
loop_
_atom_site_type_symbol
_atom_site_label
_atom_site_fract_x
_atom_site_fract_y
_atom_site_fract_z
Si Si1 0.991990 0.181189 0.250000
Si Si2 0.138490 0.318752 0.250000
Si Si3 0.432160 0.325440 0.056610
Si Si4 0.567840 0.674561 0.556609
Si Si5 0.812811 0.678668 0.950412
Si Si6 0.812811 0.678667 0.549588
O O1 0.951146 0.222602 0.159351
O O2 0.951145 0.222598 0.340649
O O3 0.064608 0.252445 0.250001
O O4 0.000162 0.000000 0.249999
O O5 0.133532 0.500000 0.250000
O O6 0.175512 0.273186 0.155937
O O7 0.175513 0.273187 0.344063
O O8 0.410437 0.500000 0.058322
O O9 0.500000 0.318640 0.000000
O O10 0.377131 0.228296 0.007164
O O11 0.500000 0.681366 0.500000
O O12 0.589562 0.500000 0.558318
O O13 0.622869 0.771705 0.507164
O O14 0.806043 0.500000 0.950786
O O15 0.750000 0.750000 0.000000
O O16 0.806042 0.500000 0.549214
O O17 0.750000 0.750000 0.500000
#
# Coordination Sequence:
#
# PCOD9197573 Si02
#       6
#     8   8   8   8   8   8
#     4  10  20  35  60  91 121 155 193 239 290 345
#     4  10  22  39  60  85 115 153 195 243 296 347
#     4  10  20  36  60  89 119 152 194 239 287 345
#     4  10  20  36  60  89 119 152 194 239 287 345
#     4  11  24  41  61  86 119 157 197 244 295 349
#     4  11  24  41  61  86 119 157 197 244 295 349
#
# _framework density 18.251861000000002
#
# number of rings (size 3 to 8) (size 9 to 14) (size 15 to 20)
#    0.000    1.667    3.333    1.000    0.000    4.667 
#    0.000    6.667    0.000    0.000    0.000    0.000 
#    0.000    0.000    0.000    0.000    0.000    0.000 
#
# Total GULP energy -134033.064307 kJ/mol
# GULP energy per Si atom -5584.711013 kJ/mol
# Density = 1.821032 g / cm^3
# Si number density = 18.251861 Si / 1000 Ang^3
#
#
#
# Elastic Constant Matrix: (Units=GPa)
#
#
# Indices 1 2 3 4 5 6 
#
# 1 104.7921 41.2391 75.1811 0.0000 0.0009 0.0000
# 2 41.2391 38.8152 46.1424 0.0000 0.0008 0.0000
# 3 75.1811 46.1424 207.8353 0.0000 0.0028 0.0000
# 4 0.0000 0.0000 0.0000 24.5564 0.0000 0.0003
# 5 0.0009 0.0008 0.0028 0.0000 23.1130 0.0000
# 6 0.0000 0.0000 0.0000 0.0003 0.0000 38.5696
#
#
#
# Elastic Compliance Matrix: (Units=1/GPa)
#
#
# Indices 1 2 3 4 5 6 
#
# 1 0.017697 -0.015205 -0.003026 0.000000 0.000000 0.000000
# 2 -0.015205 0.048065 -0.005171 0.000000 0.000000 0.000000
# 3 -0.003026 -0.005171 0.007054 0.000000 -0.000001 0.000000
# 4 0.000000 0.000000 0.000000 0.040723 0.000000 0.000000
# 5 0.000000 0.000000 -0.000001 0.000000 0.043266 0.000000
# 6 0.000000 0.000000 0.000000 0.000000 0.000000 0.025927
#
#
# Mechanical properties :
#
#
# Convention : Reuss Voigt Hill
#
# Bulk Modulus (GPa) = 38.44356 75.17419 56.80888
# Shear Modulus (GPa) = 20.99014 29.83979 25.41497
#
# Velocity S-wave (km/s) = 3.39488 4.04776 3.73562
# Velocity P-wave (km/s) = 6.03950 7.94496 7.05684
#
# Compressibility (1/GPa) = 0.02601216
#
# Stress axis : x y z
#
# Youngs Moduli (GPa) = 56.50534 20.80516 141.76206
#
# Poissons Ratio (x) = 0.31635 0.42896
# Poissons Ratio (y) = 0.85919 0.73302
# Poissons Ratio (z) = 0.17098 0.10758
#
# Static dielectric constant tensor:
#      x y z
#    x 1.577930 0.000000 -0.000010 
#    y 0.000000 1.621110 0.000000 
#    z -0.000010 0.000000 1.681730 
# 
# From -- ./inp_files/221709.got.cif
#   From: 2010.05.17/outbox.cif.g08.bks.cpg/sg12_111_cif.got.tgz:221709.got - 2010.06.03 13:09:07.
