data_PCOD9197011
_publ_section_title
;
Structure prediction by ZEFSAII (Michael W. Deem and Ramdas Pophale) SiO2 
 PCOD9197011
Probable space group: C 2/M
;
_chemical_formula_sum "Si O2"
_cell_formula_units_Z 46
_cell_length_a 35.216378
_cell_length_b 10.504087
_cell_length_c 25.313166
_cell_angle_alpha 90.000000
_cell_angle_beta 16.402602
_cell_angle_gamma 90.000000
_cell_volume 2644.180646
_symmetry_space_group_name_H-M "C 2/M"
_symmetry_group_IT_number 12
_symmetry_cell_setting 'monoclinic'
loop_
_space_group_symop_operation_xyz
x,y,z
-x,y,-z
-x,-y,-z
x,-y,z
1/2+x,1/2+y,z
1/2-x,1/2+y,-z
1/2-x,1/2-y,-z
1/2+x,1/2-y,z
loop_
_atom_site_type_symbol
_atom_site_label
_atom_site_fract_x
_atom_site_fract_y
_atom_site_fract_z
Si Si1 0.248706 0.500000 0.419581
Si Si2 0.000000 0.000000 0.000000
Si Si3 0.170497 0.000000 0.883328
Si Si4 0.921416 0.000000 0.294858
Si Si5 0.504975 0.349882 0.620517
Si Si6 0.435104 0.249415 0.348039
Si Si7 0.863895 0.728896 0.654425
Si Si8 0.234145 0.652050 0.930041
O O1 0.318247 0.500000 0.384081
O O2 0.158185 0.627408 0.537419
O O3 0.360978 0.500000 0.223340
O O4 0.091980 0.000000 0.932503
O O5 0.266238 0.877980 0.762017
O O6 0.065996 0.000000 0.072137
O O7 0.904470 0.126765 0.353054
O O8 0.501000 0.500000 0.635320
O O9 0.572404 0.284820 0.580421
O O10 0.586211 0.318677 0.459212
O O11 0.351593 0.306277 0.813909
O O12 0.590384 0.213516 0.131042
O O13 0.787776 0.807761 0.801034
O O14 0.000000 0.674457 0.500000
O O15 0.222504 0.500000 0.948997
#
# Coordination Sequence:
#
# PCOD9197011 Si02
#       8
#     4   2   4   4   8   8   8   8
#     4  11  25  42  67  88 114 154 206 253 301 356
#     4  10  24  42  60  88 112 154 194 256 308 346
#     4  11  20  38  58  85 117 154 203 249 296 357
#     4  11  24  40  63  87 121 155 200 253 305 350
#     4  10  21  35  56  86 125 160 195 243 295 359
#     4  12  21  41  62  89 120 159 196 249 302 355
#     4  10  20  35  58  85 120 162 199 244 295 355
#     4  10  20  36  58  89 120 158 202 236 295 363
#
# _framework density 17.396692999999999
#
# number of rings (size 3 to 8) (size 9 to 14) (size 15 to 20)
#    0.000    1.391    3.478    2.870    0.000    2.087 
#    0.000    0.870    0.000    0.522    0.000    0.000 
#    0.000    0.000    0.000    0.000    0.000    0.000 
#
# Total GULP energy -128082.519240 kJ/mol
# GULP energy per Si atom -5568.805184 kJ/mol
# Density = 1.735710 g / cm^3
# Si number density = 17.396693 Si / 1000 Ang^3
#
#
#
# Elastic Constant Matrix: (Units=GPa)
#
#
# Indices 1 2 3 4 5 6 
#
# 1 97.6244 24.0103 15.9245 0.0000 -12.2853 0.0000
# 2 24.0103 74.4287 17.1427 0.0000 -16.5144 0.0000
# 3 15.9245 17.1427 62.5507 0.0000 -9.7460 0.0000
# 4 0.0000 0.0000 0.0000 18.1152 0.0000 0.5272
# 5 -12.2853 -16.5144 -9.7460 0.0000 27.6220 0.0000
# 6 0.0000 0.0000 0.0000 0.5272 0.0000 21.2172
#
#
#
# Elastic Compliance Matrix: (Units=1/GPa)
#
#
# Indices 1 2 3 4 5 6 
#
# 1 0.011555 -0.002676 -0.001753 0.000000 0.002921 0.000000
# 2 -0.002676 0.016648 -0.002662 0.000000 0.007824 0.000000
# 3 -0.001753 -0.002662 0.017770 0.000000 0.003898 0.000000
# 4 0.000000 0.000000 0.000000 0.055242 0.000000 -0.001373
# 5 0.002921 0.007824 0.003898 0.000000 0.043555 0.000000
# 6 0.000000 0.000000 0.000000 -0.001373 0.000000 0.047166
#
#
# Mechanical properties :
#
#
# Convention : Reuss Voigt Hill
#
# Bulk Modulus (GPa) = 31.45565 38.75098 35.10331
# Shear Modulus (GPa) = 23.07165 25.22598 24.14881
#
# Velocity S-wave (km/s) = 3.64567 3.81208 3.72980
# Velocity P-wave (km/s) = 5.98680 6.45749 6.22660
#
# Compressibility (1/GPa) = 0.03179080
#
# Stress axis : x y z
#
# Youngs Moduli (GPa) = 86.54277 60.06721 56.27319
#
# Poissons Ratio (x) = 0.16072 0.09867
# Poissons Ratio (y) = 0.23156 0.14982
# Poissons Ratio (z) = 0.15174 0.15992
#
# Static dielectric constant tensor:
#      x y z
#    x 1.575830 0.000000 -0.007150 
#    y 0.000000 1.567540 0.000000 
#    z -0.007150 0.000000 1.586830 
# 
# From -- ./inp_files/327994.got.cif
#   From: 2010.05.17/outbox.cif.g08.bks.cpg/sg12_164_cif.got.tgz:327994.got - 2010.06.03 13:09:07.
