data_PCOD9197929
_publ_section_title
;
Structure prediction by ZEFSAII (Michael W. Deem and Ramdas Pophale) SiO2 
 PCOD9197929
Probable space group: C 2/M
;
_chemical_formula_sum "Si O2"
_cell_formula_units_Z 48
_cell_length_a 28.444284
_cell_length_b 7.354756
_cell_length_c 9.832526
_cell_angle_alpha 90.000000
_cell_angle_beta 120.751469
_cell_angle_gamma 90.000000
_cell_volume 1767.747955
_symmetry_space_group_name_H-M "C 2/M"
_symmetry_group_IT_number 12
_symmetry_cell_setting 'monoclinic'
loop_
_space_group_symop_operation_xyz
x,y,z
-x,y,-z
-x,-y,-z
x,-y,z
1/2+x,1/2+y,z
1/2-x,1/2+y,-z
1/2-x,1/2-y,-z
1/2+x,1/2-y,z
loop_
_atom_site_type_symbol
_atom_site_label
_atom_site_fract_x
_atom_site_fract_y
_atom_site_fract_z
Si Si1 0.943908 0.720503 0.993149
Si Si2 0.770008 0.777680 0.825014
Si Si3 0.012521 0.289882 0.666434
Si Si4 0.393080 0.721169 0.506789
Si Si5 0.167970 0.789907 0.332557
Si Si6 0.339057 0.292451 0.170589
O O1 0.943052 0.500000 0.992207
O O2 0.947924 0.782610 0.157295
O O3 0.889133 0.783570 0.836687
O O4 0.000000 0.777559 0.000000
O O5 0.785481 0.714503 0.697510
O O6 0.714636 0.710319 0.811175
O O7 0.768908 0.000000 0.827317
O O8 0.818209 0.713426 0.998835
O O9 0.026482 0.500000 0.666478
O O10 0.952028 0.282442 0.643518
O O11 0.000000 0.203476 0.500000
O O12 0.391901 0.500000 0.504939
O O13 0.347182 0.789426 0.543538
O O14 0.383593 0.787214 0.338541
O O15 0.181847 0.000000 0.374615
O O16 0.354102 0.500000 0.167346
#
# Coordination Sequence:
#
# PCOD9197929 Si02
#       6
#     8   8   8   8   8   8
#     4  10  20  36  55  76 106 141 176 215 258 308
#     4   9  19  36  55  77 104 136 174 215 261 312
#     4  10  22  38  54  77 108 140 176 218 262 309
#     4  10  21  36  54  79 109 139 174 217 262 310
#     4  10  21  35  54  80 108 139 176 216 260 310
#     4   9  19  36  55  76 105 137 172 216 262 310
#
# _framework density 27.153192000000001
#
# number of rings (size 3 to 8) (size 9 to 14) (size 15 to 20)
#    0.000    2.333    1.667    0.000    2.333    3.333 
#    0.000    0.000    0.000    0.000    0.000    0.000 
#    0.000    0.000    0.000    0.000    0.000    0.000 
#
# Total GULP energy -134296.584656 kJ/mol
# GULP energy per Si atom -5595.691027 kJ/mol
# Density = 2.709139 g / cm^3
# Si number density = 27.153192 Si / 1000 Ang^3
#
#
#
# Elastic Constant Matrix: (Units=GPa)
#
#
# Indices 1 2 3 4 5 6 
#
# 1 99.9680 19.8063 -6.8193 0.0000 -12.3609 0.0000
# 2 19.8063 133.9497 11.0622 0.0000 -8.7705 0.0000
# 3 -6.8193 11.0622 132.6390 0.0000 -9.0398 0.0000
# 4 0.0000 0.0000 0.0000 13.3038 0.0000 7.1207
# 5 -12.3609 -8.7705 -9.0398 0.0000 56.7427 0.0000
# 6 0.0000 0.0000 0.0000 7.1207 0.0000 28.3472
#
#
#
# Elastic Compliance Matrix: (Units=1/GPa)
#
#
# Indices 1 2 3 4 5 6 
#
# 1 0.010629 -0.001495 0.000822 0.000000 0.002215 0.000000
# 2 -0.001495 0.007793 -0.000674 0.000000 0.000772 0.000000
# 3 0.000822 -0.000674 0.007727 0.000000 0.001306 0.000000
# 4 0.000000 0.000000 0.000000 0.086842 0.000000 -0.021814
# 5 0.002215 0.000772 0.001306 0.000000 0.018433 0.000000
# 6 0.000000 0.000000 0.000000 -0.021814 0.000000 0.040757
#
#
# Mechanical properties :
#
#
# Convention : Reuss Voigt Hill
#
# Bulk Modulus (GPa) = 42.63377 46.07279 44.35328
# Shear Modulus (GPa) = 27.36837 42.51257 34.94047
#
# Velocity S-wave (km/s) = 3.17823 3.96113 3.59108
# Velocity P-wave (km/s) = 5.40402 6.15835 5.79348
#
# Compressibility (1/GPa) = 0.02345558
#
# Stress axis : x y z
#
# Youngs Moduli (GPa) = 94.07936 128.32573 129.42051
#
# Poissons Ratio (x) = 0.19179 -0.10640
# Poissons Ratio (y) = 0.14060 0.08725
# Poissons Ratio (z) = -0.07734 0.08651
#
# Static dielectric constant tensor:
#      x y z
#    x 2.171670 0.000000 -0.010370 
#    y 0.000000 1.980960 0.000000 
#    z -0.010370 0.000000 2.118550 
# 
# From -- ./inp_files/94516.got.cif
#   From: 2010.05.17/outbox.cif.g08.bks.cpg/sg12_48_cif.got.tgz:94516.got - 2010.06.03 13:09:07.
