data_PCOD9197071
_publ_section_title
;
Structure prediction by ZEFSAII (Michael W. Deem and Ramdas Pophale) SiO2 
 PCOD9197071
Probable space group: C 2/M
;
_chemical_formula_sum "Si O2"
_cell_formula_units_Z 40
_cell_length_a 14.266435
_cell_length_b 27.618696
_cell_length_c 10.340594
_cell_angle_alpha 90.000000
_cell_angle_beta 151.103339
_cell_angle_gamma 90.000000
_cell_volume 1968.879932
_symmetry_space_group_name_H-M "C 2/M"
_symmetry_group_IT_number 12
_symmetry_cell_setting 'monoclinic'
loop_
_space_group_symop_operation_xyz
x,y,z
-x,y,-z
-x,-y,-z
x,-y,z
1/2+x,1/2+y,z
1/2-x,1/2+y,-z
1/2-x,1/2-y,-z
1/2+x,1/2-y,z
loop_
_atom_site_type_symbol
_atom_site_label
_atom_site_fract_x
_atom_site_fract_y
_atom_site_fract_z
Si Si1 0.843701 0.688289 0.700480
Si Si2 0.630047 0.072700 0.279314
Si Si3 0.541017 0.554989 0.687169
Si Si4 0.479305 0.753397 0.320365
Si Si5 0.602008 0.055869 0.744896
O O1 0.849268 0.630480 0.702535
O O2 0.626765 0.707767 0.471157
O O3 0.921705 0.707683 0.656926
O O4 0.000000 0.704187 0.000000
O O5 0.535167 0.056653 0.297360
O O6 0.842496 0.052035 0.521444
O O7 0.500000 0.057441 0.000000
O O8 0.500000 0.579269 0.500000
O O9 0.613439 0.500000 0.744773
O O10 0.701986 0.579990 0.968007
O O11 0.500000 0.763375 0.500000
O O12 0.250000 0.750000 0.000000
O O13 0.500000 0.079608 0.500000
O O14 0.649295 0.000000 0.763759
#
# Coordination Sequence:
#
# PCOD9197071 Si02
#       5
#     8   8   8   8   8
#     4  10  23  39  60  94 118 147 202 241 288 363
#     4  11  22  37  60  88 121 153 192 249 294 336
#     4  10  20  35  58  87 114 154 204 238 281 345
#     4  11  22  41  65  86 117 156 189 237 298 353
#     4  10  22  39  58  84 121 160 199 241 290 345
#
# _framework density 20.316117999999999
#
# number of rings (size 3 to 8) (size 9 to 14) (size 15 to 20)
#    0.000    1.600    4.000    0.600    0.000    4.800 
#    0.000    5.000    0.000    0.000    0.000    0.000 
#    0.000    0.000    0.000    0.000    0.000    0.000 
#
# Total GULP energy -111497.140619 kJ/mol
# GULP energy per Si atom -5574.857031 kJ/mol
# Density = 2.026988 g / cm^3
# Si number density = 20.316118 Si / 1000 Ang^3
#
#
#
# Elastic Constant Matrix: (Units=GPa)
#
#
# Indices 1 2 3 4 5 6 
#
# 1 127.8797 5.2249 77.5323 0.0000 -1.6176 0.0000
# 2 5.2249 58.4742 12.3713 0.0000 -2.1215 0.0000
# 3 77.5323 12.3713 208.4517 0.0000 -4.8710 0.0000
# 4 0.0000 0.0000 0.0000 -2.6711 0.0000 -11.2823
# 5 -1.6176 -2.1215 -4.8710 0.0000 48.7314 0.0000
# 6 0.0000 0.0000 0.0000 -11.2823 0.0000 20.8169
#
#
#
# Elastic Compliance Matrix: (Units=1/GPa)
#
#
# Indices 1 2 3 4 5 6 
#
# 1 0.010097 -0.000110 -0.003750 0.000000 -0.000044 0.000000
# 2 -0.000110 0.017341 -0.000973 0.000000 0.000654 0.000000
# 3 -0.003750 -0.000973 0.006261 0.000000 0.000459 0.000000
# 4 0.000000 0.000000 0.000000 -0.113820 0.000000 -0.061687
# 5 -0.000044 0.000654 0.000459 0.000000 0.020594 0.000000
# 6 0.000000 0.000000 0.000000 -0.061687 0.000000 0.014605
#
#
# Mechanical properties :
#
#
# Convention : Reuss Voigt Hill
#
# Bulk Modulus (GPa) = 41.61081 65.00694 53.30888
# Shear Modulus (GPa) = -183.52179 33.35393 -75.08393
#
# Velocity S-wave (km/s) = -9.51468 4.05624 -6.08589
# Velocity P-wave (km/s) = 10.00897 7.34879 4.80494
#
# Compressibility (1/GPa) = 0.02403222
#
# Stress axis : x y z
#
# Youngs Moduli (GPa) = 99.03445 57.66689 159.72942
#
# Poissons Ratio (x) = 0.00637 0.59901
# Poissons Ratio (y) = 0.01094 0.15538
# Poissons Ratio (z) = 0.37140 0.05610
#
# Static dielectric constant tensor:
#      x y z
#    x 1.681900 0.000000 0.005930 
#    y 0.000000 1.748560 0.000000 
#    z 0.005930 0.000000 1.791410 
# 
# From -- ./inp_files/68757.got.cif
#   From: 2010.05.17/outbox.cif.g08.bks.cpg/sg12_35_cif.got.tgz:68757.got - 2010.06.03 13:09:07.
