data_PCOD9197370
_publ_section_title
;
Structure prediction by ZEFSAII (Michael W. Deem and Ramdas Pophale) SiO2 
 PCOD9197370
Probable space group: C 2/M
;
_chemical_formula_sum "Si O2"
_cell_formula_units_Z 56
_cell_length_a 24.643884
_cell_length_b 14.162408
_cell_length_c 10.039446
_cell_angle_alpha 90.000000
_cell_angle_beta 60.103705
_cell_angle_gamma 90.000000
_cell_volume 3037.662553
_symmetry_space_group_name_H-M "C 2/M"
_symmetry_group_IT_number 12
_symmetry_cell_setting 'monoclinic'
loop_
_space_group_symop_operation_xyz
x,y,z
-x,y,-z
-x,-y,-z
x,-y,z
1/2+x,1/2+y,z
1/2-x,1/2+y,-z
1/2-x,1/2-y,-z
1/2+x,1/2-y,z
loop_
_atom_site_type_symbol
_atom_site_label
_atom_site_fract_x
_atom_site_fract_y
_atom_site_fract_z
Si Si1 0.014371 0.112418 0.138991
Si Si2 0.319474 0.389698 0.750846
Si Si3 0.202707 0.887993 0.678745
Si Si4 0.107064 0.803779 0.578277
Si Si5 0.150718 0.199180 0.010901
Si Si6 0.824532 0.393514 0.135759
Si Si7 0.652876 0.108127 0.581041
O O1 0.081388 0.156220 0.089688
O O2 0.959711 0.159048 0.292380
O O3 0.015275 0.000000 0.160178
O O4 0.000000 0.128296 0.000000
O O5 0.332033 0.500000 0.763496
O O6 0.370248 0.348862 0.587271
O O7 0.319162 0.331518 0.887333
O O8 0.250871 0.383845 0.768508
O O9 0.157431 0.838299 0.627784
O O10 0.275017 0.875737 0.550785
O O11 0.188612 0.000000 0.695723
O O12 0.188671 0.844854 0.840177
O O13 0.111595 0.690641 0.569158
O O14 0.149692 0.311027 0.988119
O O15 0.838408 0.500000 0.072403
O O16 0.849115 0.383040 0.256152
O O17 0.636484 0.000000 0.566114
#
# Coordination Sequence:
#
# PCOD9197370 Si02
#       7
#     8   8   8   8   8   8   8
#     4  11  22  36  58  84 112 147 193 238 278 334
#     4  11  23  37  57  86 119 149 184 234 291 344
#     4  11  19  32  58  83 109 144 187 232 282 336
#     4  12  21  37  58  82 113 153 190 227 284 335
#     4  12  23  38  55  84 119 152 188 234 283 334
#     4  10  20  37  59  85 114 149 190 235 287 338
#     4  10  20  35  59  89 113 143 192 243 281 331
#
# _framework density 18.435227000000001
#
# number of rings (size 3 to 8) (size 9 to 14) (size 15 to 20)
#    0.000    1.000    4.286    4.286    0.000    0.571 
#    0.000    4.286    0.000    2.571    0.000    2.000 
#    0.000    0.000    0.000    0.000    0.000    0.000 
#
# Total GULP energy -156555.313741 kJ/mol
# GULP energy per Si atom -5591.261205 kJ/mol
# Density = 1.839327 g / cm^3
# Si number density = 18.435227 Si / 1000 Ang^3
#
#
#
# Elastic Constant Matrix: (Units=GPa)
#
#
# Indices 1 2 3 4 5 6 
#
# 1 12.4577 13.8902 -0.3973 0.0000 -8.3247 0.0000
# 2 13.8902 124.1308 36.4938 0.0000 -11.1591 0.0000
# 3 -0.3973 36.4938 80.7262 0.0000 9.4994 0.0000
# 4 0.0000 0.0000 0.0000 26.8527 0.0000 -1.7074
# 5 -8.3247 -11.1591 9.4994 0.0000 17.6403 0.0000
# 6 0.0000 0.0000 0.0000 -1.7074 0.0000 19.9566
#
#
#
# Elastic Compliance Matrix: (Units=1/GPa)
#
#
# Indices 1 2 3 4 5 6 
#
# 1 0.126924 -0.008619 -0.002013 0.000000 0.055529 0.000000
# 2 -0.008619 0.011317 -0.005896 0.000000 0.006267 0.000000
# 3 -0.002013 -0.005896 0.016649 0.000000 -0.013645 0.000000
# 4 0.000000 0.000000 0.000000 0.037444 0.000000 0.003204
# 5 0.055529 0.006267 -0.013645 0.000000 0.094205 0.000000
# 6 0.000000 0.000000 0.000000 0.003204 0.000000 0.050383
#
#
# Mechanical properties :
#
#
# Convention : Reuss Voigt Hill
#
# Bulk Modulus (GPa) = 8.20792 35.25423 21.73107
# Shear Modulus (GPa) = 12.17761 24.04512 18.11137
#
# Velocity S-wave (km/s) = 2.57293 3.61543 3.13778
# Velocity P-wave (km/s) = 3.64535 6.04924 4.99409
#
# Compressibility (1/GPa) = 0.12183352
#
# Stress axis : x y z
#
# Youngs Moduli (GPa) = 7.87874 88.36063 60.06453
#
# Poissons Ratio (x) = 0.76157 0.12092
# Poissons Ratio (y) = 0.06791 0.35414
# Poissons Ratio (z) = 0.01586 0.52098
#
# Static dielectric constant tensor:
#      x y z
#    x 1.620370 0.000000 0.011980 
#    y 0.000000 1.656860 0.000000 
#    z 0.011980 0.000000 1.610770 
# 
# From -- ./inp_files/96736.got.cif
#   From: 2010.05.17/outbox.cif.g08.bks.cpg/sg12_49_cif.got.tgz:96736.got - 2010.06.03 13:09:07.
