data_PCOD9197478
_publ_section_title
;
Structure prediction by ZEFSAII (Michael W. Deem and Ramdas Pophale) SiO2 
 PCOD9197478
Probable space group: C 2/M
;
_chemical_formula_sum "Si O2"
_cell_formula_units_Z 36
_cell_length_a 11.129935
_cell_length_b 25.623764
_cell_length_c 6.553330
_cell_angle_alpha 90.000000
_cell_angle_beta 61.071450
_cell_angle_gamma 90.000000
_cell_volume 1635.748809
_symmetry_space_group_name_H-M "C 2/M"
_symmetry_group_IT_number 12
_symmetry_cell_setting 'monoclinic'
loop_
_space_group_symop_operation_xyz
x,y,z
-x,y,-z
-x,-y,-z
x,-y,z
1/2+x,1/2+y,z
1/2-x,1/2+y,-z
1/2-x,1/2-y,-z
1/2+x,1/2-y,z
loop_
_atom_site_type_symbol
_atom_site_label
_atom_site_fract_x
_atom_site_fract_y
_atom_site_fract_z
Si Si1 0.633897 0.709279 0.022014
Si Si2 0.849694 0.362867 0.654354
Si Si3 0.635694 0.945451 0.022738
Si Si4 0.306026 0.440427 0.492894
Si Si5 0.500000 0.357327 0.500000
O O1 0.585534 0.678829 0.269404
O O2 0.500000 0.727863 0.000000
O O3 0.750000 0.750000 0.000000
O O4 0.720778 0.674432 0.789176
O O5 0.860704 0.393648 0.855163
O O6 0.814976 0.409391 0.524434
O O7 0.000000 0.337868 0.500000
O O8 0.638053 0.000000 0.143227
O O9 0.500000 0.946412 0.000000
O O10 0.760401 0.945632 0.764126
O O11 0.333368 0.500000 0.396517
O O12 0.425808 0.398081 0.406273
#
# Coordination Sequence:
#
# PCOD9197478 Si02
#       5
#     8   8   8   8   4
#     4  12  30  52  77 105 140 190 248 312 375 428
#     4  12  24  42  70 108 146 187 241 299 352 427
#     4  10  20  35  59  99 145 191 232 276 341 419
#     4  11  23  40  69 106 150 194 232 283 356 436
#     4  12  25  50  74 102 148 184 243 298 364 436
#
# _framework density 22.00827
#
# number of rings (size 3 to 8) (size 9 to 14) (size 15 to 20)
#    0.000    0.667    6.667    1.000    1.556    4.444 
#    0.000    1.111    0.000    0.000    0.000    0.000 
#    0.000    0.000    0.000    0.000    0.000    0.000 
#
# Total GULP energy -100244.955001 kJ/mol
# GULP energy per Si atom -5569.164167 kJ/mol
# Density = 2.195818 g / cm^3
# Si number density = 22.008270 Si / 1000 Ang^3
#
#
#
# Elastic Constant Matrix: (Units=GPa)
#
#
# Indices 1 2 3 4 5 6 
#
# 1 133.6752 62.7104 21.8997 0.0000 -5.1322 0.0000
# 2 62.7104 85.7601 30.0294 0.0000 -15.4557 0.0000
# 3 21.8997 30.0294 65.0324 0.0000 -16.2771 0.0000
# 4 0.0000 0.0000 0.0000 15.0084 0.0000 -27.9804
# 5 -5.1322 -15.4557 -16.2771 0.0000 31.7497 0.0000
# 6 0.0000 0.0000 0.0000 -27.9804 0.0000 78.1571
#
#
#
# Elastic Compliance Matrix: (Units=1/GPa)
#
#
# Indices 1 2 3 4 5 6 
#
# 1 0.011573 -0.008761 -0.000518 0.000000 -0.002659 0.000000
# 2 -0.008761 0.020996 -0.005210 0.000000 0.006134 0.000000
# 3 -0.000518 -0.005210 0.019848 0.000000 0.007556 0.000000
# 4 0.000000 0.000000 0.000000 0.200346 0.000000 0.071724
# 5 -0.002659 0.006134 0.007556 0.000000 0.037926 0.000000
# 6 0.000000 0.000000 0.000000 0.071724 0.000000 0.038472
#
#
# Mechanical properties :
#
#
# Convention : Reuss Voigt Hill
#
# Bulk Modulus (GPa) = 42.65957 57.08297 49.87127
# Shear Modulus (GPa) = 13.66299 36.30493 24.98396
#
# Velocity S-wave (km/s) = 2.49431 4.06594 3.37294
# Velocity P-wave (km/s) = 5.26507 6.93079 6.15454
#
# Compressibility (1/GPa) = 0.02344140
#
# Stress axis : x y z
#
# Youngs Moduli (GPa) = 86.40448 47.62724 50.38286
#
# Poissons Ratio (x) = 0.41726 0.02608
# Poissons Ratio (y) = 0.75698 0.26248
# Poissons Ratio (z) = 0.04472 0.24813
#
# Static dielectric constant tensor:
#      x y z
#    x 1.932170 0.000000 -0.026270 
#    y 0.000000 1.858330 0.000000 
#    z -0.026270 0.000000 1.836160 
# 
# From -- ./inp_files/7493.got.cif
#   From: 2010.05.17/outbox.cif.g08.bks.cpg/sg12_4_cif.got.tgz:7493.got - 2010.06.03 13:09:07.
