data_PCOD9197290
_publ_section_title
;
Structure prediction by ZEFSAII (Michael W. Deem and Ramdas Pophale) SiO2 
 PCOD9197290
Probable space group: C 2/M
;
_chemical_formula_sum "Si O2"
_cell_formula_units_Z 48
_cell_length_a 28.062196
_cell_length_b 7.482311
_cell_length_c 10.218080
_cell_angle_alpha 90.000000
_cell_angle_beta 91.911007
_cell_angle_gamma 90.000000
_cell_volume 2144.297791
_symmetry_space_group_name_H-M "C 2/M"
_symmetry_group_IT_number 12
_symmetry_cell_setting 'monoclinic'
loop_
_space_group_symop_operation_xyz
x,y,z
-x,y,-z
-x,-y,-z
x,-y,z
1/2+x,1/2+y,z
1/2-x,1/2+y,-z
1/2-x,1/2-y,-z
1/2+x,1/2-y,z
loop_
_atom_site_type_symbol
_atom_site_label
_atom_site_fract_x
_atom_site_fract_y
_atom_site_fract_z
Si Si1 0.186497 0.713667 0.774707
Si Si2 0.541979 0.218760 0.100481
Si Si3 0.850318 0.282955 0.948484
Si Si4 0.034338 0.293234 0.393548
Si Si5 0.287472 0.292049 0.689478
Si Si6 0.862579 0.212926 0.490352
O O1 0.191981 0.500000 0.788749
O O2 0.236287 0.787425 0.722429
O O3 0.146573 0.748091 0.662114
O O4 0.172558 0.779870 0.917159
O O5 0.594703 0.273215 0.059667
O O6 0.533098 0.282867 0.247543
O O7 0.542440 0.000000 0.101840
O O8 0.500000 0.274891 0.000000
O O9 0.849278 0.500000 0.946366
O O10 0.820474 0.220003 0.820845
O O11 0.019146 0.500000 0.377277
O O12 0.088280 0.288414 0.450310
O O13 0.000000 0.211167 0.500000
O O14 0.279085 0.500000 0.656402
O O15 0.317863 0.216030 0.571594
O O16 0.865013 0.000000 0.509280
#
# Coordination Sequence:
#
# PCOD9197290 Si02
#       6
#     8   8   8   8   8   8
#     4  10  22  37  57  85 114 149 196 238 275 333
#     4   9  18  33  55  84 112 137 177 231 281 330
#     4  10  20  35  59  86 112 146 187 237 287 334
#     4  10  21  37  61  86 110 146 188 233 282 333
#     4  10  21  38  57  81 116 153 189 234 284 337
#     4  11  23  38  57  82 117 155 188 232 286 335
#
# _framework density 22.384948999999999
#
# number of rings (size 3 to 8) (size 9 to 14) (size 15 to 20)
#    0.000    2.000    1.667    1.500    2.333    2.333 
#    0.000    0.000    0.000    1.000    0.000    0.000 
#    0.000    0.000    0.000    0.000    0.000    0.000 
#
# Total GULP energy -134170.389524 kJ/mol
# GULP energy per Si atom -5590.432897 kJ/mol
# Density = 2.233400 g / cm^3
# Si number density = 22.384949 Si / 1000 Ang^3
#
#
#
# Elastic Constant Matrix: (Units=GPa)
#
#
# Indices 1 2 3 4 5 6 
#
# 1 88.3110 -5.3988 12.9433 0.0000 -5.9214 0.0000
# 2 -5.3988 65.7430 -10.2318 0.0000 -13.4907 0.0000
# 3 12.9433 -10.2318 67.5581 0.0000 -12.4562 0.0000
# 4 0.0000 0.0000 0.0000 -144.3861 0.0000 224.4008
# 5 -5.9214 -13.4907 -12.4562 0.0000 45.8866 0.0000
# 6 0.0000 0.0000 0.0000 224.4008 0.0000 -248.4865
#
#
#
# Elastic Compliance Matrix: (Units=1/GPa)
#
#
# Indices 1 2 3 4 5 6 
#
# 1 0.011741 0.000936 -0.001871 0.000000 0.001282 0.000000
# 2 0.000936 0.017090 0.003535 0.000000 0.006105 0.000000
# 3 -0.001871 0.003535 0.016678 0.000000 0.005325 0.000000
# 4 0.000000 0.000000 0.000000 0.017163 0.000000 0.015500
# 5 0.001282 0.006105 0.005325 0.000000 0.025199 0.000000
# 6 0.000000 0.000000 0.000000 0.015500 0.000000 0.009973
#
#
# Mechanical properties :
#
#
# Convention : Reuss Voigt Hill
#
# Bulk Modulus (GPa) = 19.72065 24.02640 21.87352
# Shear Modulus (GPa) = 45.64207 -54.44390 -4.40091
#
# Velocity S-wave (km/s) = 4.52039 -4.93705 -1.40367
# Velocity P-wave (km/s) = 6.00617 4.66291 2.67688
#
# Compressibility (1/GPa) = 0.05070827
#
# Stress axis : x y z
#
# Youngs Moduli (GPa) = 85.17100 58.51215 59.96023
#
# Poissons Ratio (x) = -0.05477 0.11220
# Poissons Ratio (y) = -0.07973 -0.21194
# Poissons Ratio (z) = 0.15938 -0.20682
#
# Static dielectric constant tensor:
#      x y z
#    x 1.788780 0.000000 -0.038600 
#    y 0.000000 1.826960 0.000000 
#    z -0.038600 0.000000 1.787020 
# 
# From -- ./inp_files/108556.got.cif
#   From: 2010.05.17/outbox.cif.g08.bks.cpg/sg12_55_cif.got.tgz:108556.got - 2010.06.03 13:09:07.
