data_PCOD9197044
_publ_section_title
;
Structure prediction by ZEFSAII (Michael W. Deem and Ramdas Pophale) SiO2 
 PCOD9197044
Probable space group: C 2/M
;
_chemical_formula_sum "Si O2"
_cell_formula_units_Z 56
_cell_length_a 13.883728
_cell_length_b 14.426242
_cell_length_c 18.696123
_cell_angle_alpha 90.000000
_cell_angle_beta 52.290272
_cell_angle_gamma 90.000000
_cell_volume 2962.463866
_symmetry_space_group_name_H-M "C 2/M"
_symmetry_group_IT_number 12
_symmetry_cell_setting 'monoclinic'
loop_
_space_group_symop_operation_xyz
x,y,z
-x,y,-z
-x,-y,-z
x,-y,z
1/2+x,1/2+y,z
1/2-x,1/2+y,-z
1/2-x,1/2-y,-z
1/2+x,1/2-y,z
loop_
_atom_site_type_symbol
_atom_site_label
_atom_site_fract_x
_atom_site_fract_y
_atom_site_fract_z
Si Si1 0.147322 0.851953 0.601888
Si Si2 0.647038 0.107822 0.784358
Si Si3 0.312904 0.862971 0.397009
Si Si4 0.673035 0.390770 0.052147
Si Si5 0.066532 0.704248 0.045646
Si Si6 0.380950 0.390942 0.759514
Si Si7 0.518224 0.000000 0.605368
Si Si8 0.705340 0.000000 0.386928
O O1 0.204882 0.888698 0.501267
O O2 0.182856 0.746850 0.599370
O O3 0.002703 0.855000 0.668329
O O4 0.207616 0.913014 0.637373
O O5 0.695817 0.109286 0.681216
O O6 0.529553 0.171408 0.850465
O O7 0.754993 0.146153 0.785370
O O8 0.618044 0.000000 0.816370
O O9 0.435441 0.911042 0.371617
O O10 0.664862 0.500000 0.034821
O O11 0.608462 0.311623 0.033734
O O12 0.614875 0.380257 0.157393
O O13 0.813399 0.358920 0.998379
O O14 0.000000 0.687949 0.000000
O O15 0.377237 0.500000 0.745556
O O16 0.603957 0.000000 0.496022
O O17 0.377677 0.000000 0.646044
#
# Coordination Sequence:
#
# PCOD9197044 Si02
#       8
#     8   8   8   8   8   8   4   4
#     4  10  20  36  57  83 117 157 204 241 295 351
#     4  11  22  36  60  89 119 153 197 248 301 359
#     4  10  21  36  56  83 119 158 195 252 292 345
#     4  10  22  40  64  91 123 158 198 249 299 356
#     4  11  22  40  66  92 119 158 201 246 305 363
#     4  10  20  35  58  86 116 154 194 240 294 359
#     4   9  18  36  55  79 111 154 199 239 291 341
#     4   9  18  34  59  79 108 155 201 239 285 350
#
# _framework density 18.903185000000001
#
# number of rings (size 3 to 8) (size 9 to 14) (size 15 to 20)
#    0.000    1.857    2.857    1.286    0.000    2.571 
#    0.000    4.286    0.000    0.000    0.000    0.000 
#    0.000    0.000    0.000    0.000    0.000    0.000 
#
# Total GULP energy -156058.844590 kJ/mol
# GULP energy per Si atom -5573.530164 kJ/mol
# Density = 1.886016 g / cm^3
# Si number density = 18.903185 Si / 1000 Ang^3
#
#
#
# Elastic Constant Matrix: (Units=GPa)
#
#
# Indices 1 2 3 4 5 6 
#
# 1 50.5819 20.6984 3.8887 0.0000 -16.2598 0.0000
# 2 20.6984 104.5319 5.7938 0.0000 -9.8857 0.0000
# 3 3.8887 5.7938 53.3926 0.0000 -20.4789 0.0000
# 4 0.0000 0.0000 0.0000 37.5466 0.0000 -10.3792
# 5 -16.2598 -9.8857 -20.4789 0.0000 29.3711 0.0000
# 6 0.0000 0.0000 0.0000 -10.3792 0.0000 13.6392
#
#
#
# Elastic Compliance Matrix: (Units=1/GPa)
#
#
# Indices 1 2 3 4 5 6 
#
# 1 0.026362 -0.003913 0.004910 0.000000 0.016701 0.000000
# 2 -0.003913 0.010465 -0.000451 0.000000 0.001042 0.000000
# 3 0.004910 -0.000451 0.026489 0.000000 0.021036 0.000000
# 4 0.000000 0.000000 0.000000 0.033729 0.000000 0.025667
# 5 0.016701 0.001042 0.021036 0.000000 0.058310 0.000000
# 6 0.000000 0.000000 0.000000 0.025667 0.000000 0.092850
#
#
# Mechanical properties :
#
#
# Convention : Reuss Voigt Hill
#
# Bulk Modulus (GPa) = 15.52592 29.91869 22.72230
# Shear Modulus (GPa) = 18.61629 27.98639 23.30134
#
# Velocity S-wave (km/s) = 3.14159 3.85192 3.51475
# Velocity P-wave (km/s) = 4.62501 5.97032 5.34020
#
# Compressibility (1/GPa) = 0.06440844
#
# Stress axis : x y z
#
# Youngs Moduli (GPa) = 37.93331 95.55911 37.75172
#
# Poissons Ratio (x) = 0.37390 -0.18537
# Poissons Ratio (y) = 0.14842 0.01703
# Poissons Ratio (z) = -0.18626 0.04310
#
# Static dielectric constant tensor:
#      x y z
#    x 1.664850 0.000000 -0.003390 
#    y 0.000000 1.668310 0.000000 
#    z -0.003390 0.000000 1.671450 
# 
# From -- ./inp_files/263272.got.cif
#   From: 2010.05.17/outbox.cif.g08.bks.cpg/sg12_132_cif.got.tgz:263272.got - 2010.06.03 13:09:07.
