data_PCOD9197533
_publ_section_title
;
Structure prediction by ZEFSAII (Michael W. Deem and Ramdas Pophale) SiO2 
 PCOD9197533
Probable space group: C 2/M
;
_chemical_formula_sum "Si O2"
_cell_formula_units_Z 40
_cell_length_a 19.633066
_cell_length_b 18.927661
_cell_length_c 12.388390
_cell_angle_alpha 90.000000
_cell_angle_beta 155.171471
_cell_angle_gamma 90.000000
_cell_volume 1933.080736
_symmetry_space_group_name_H-M "C 2/M"
_symmetry_group_IT_number 12
_symmetry_cell_setting 'monoclinic'
loop_
_space_group_symop_operation_xyz
x,y,z
-x,y,-z
-x,-y,-z
x,-y,z
1/2+x,1/2+y,z
1/2-x,1/2+y,-z
1/2-x,1/2-y,-z
1/2+x,1/2-y,z
loop_
_atom_site_type_symbol
_atom_site_label
_atom_site_fract_x
_atom_site_fract_y
_atom_site_fract_z
Si Si1 0.366661 0.693766 0.404962
Si Si2 0.673626 0.415065 0.291051
Si Si3 0.352847 0.716477 0.050501
Si Si4 0.689415 0.084763 0.281794
Si Si5 0.317093 0.083068 0.270747
O O1 0.500000 0.688091 0.500000
O O2 0.463664 0.724120 0.647464
O O3 0.291199 0.619963 0.332629
O O4 0.219299 0.743437 0.156064
O O5 0.653430 0.500000 0.274454
O O6 0.738438 0.390194 0.499206
O O7 0.796202 0.404999 0.368329
O O8 0.500000 0.386726 0.000000
O O9 0.250000 0.750000 0.000000
O O10 0.306398 0.634345 0.968362
O O11 0.700527 0.000000 0.292932
O O12 0.500000 0.103781 0.000000
O O13 0.500000 0.100911 0.500000
O O14 0.286644 0.000000 0.205296
#
# Coordination Sequence:
#
# PCOD9197533 Si02
#       5
#     8   8   8   8   8
#     4  10  22  40  63  85 115 161 204 243 294 359
#     4   9  18  34  55  80 113 150 188 235 287 337
#     4  10  21  39  60  87 123 156 191 250 307 345
#     4  10  22  40  60  88 127 159 189 244 310 357
#     4  10  20  35  60  89 113 149 204 251 288 345
#
# _framework density 20.692357000000001
#
# number of rings (size 3 to 8) (size 9 to 14) (size 15 to 20)
#    0.000    2.200    0.000    3.000    0.000    7.600 
#    0.000   12.000    0.000    0.000    0.000    0.000 
#    0.000    0.000    0.000    0.000    0.000    0.000 
#
# Total GULP energy -111601.778060 kJ/mol
# GULP energy per Si atom -5580.088903 kJ/mol
# Density = 2.064526 g / cm^3
# Si number density = 20.692357 Si / 1000 Ang^3
#
#
#
# Elastic Constant Matrix: (Units=GPa)
#
#
# Indices 1 2 3 4 5 6 
#
# 1 68.2381 25.5823 56.0797 0.0000 5.3357 0.0000
# 2 25.5823 41.2727 40.5601 0.0000 -14.2698 0.0000
# 3 56.0797 40.5601 159.1367 0.0000 -25.7501 0.0000
# 4 0.0000 0.0000 0.0000 18.4636 0.0000 -3.8541
# 5 5.3357 -14.2698 -25.7501 0.0000 26.8242 0.0000
# 6 0.0000 0.0000 0.0000 -3.8541 0.0000 21.5137
#
#
#
# Elastic Compliance Matrix: (Units=1/GPa)
#
#
# Indices 1 2 3 4 5 6 
#
# 1 0.033275 -0.019027 -0.011348 0.000000 -0.027634 0.000000
# 2 -0.019027 0.046199 -0.000569 0.000000 0.027815 0.000000
# 3 -0.011348 -0.000569 0.012720 0.000000 0.014165 0.000000
# 4 0.000000 0.000000 0.000000 0.056265 0.000000 0.010080
# 5 -0.027634 0.027815 0.014165 0.000000 0.071172 0.000000
# 6 0.000000 0.000000 0.000000 0.010080 0.000000 0.048288
#
#
# Mechanical properties :
#
#
# Convention : Reuss Voigt Hill
#
# Bulk Modulus (GPa) = 32.99748 57.01018 45.00383
# Shear Modulus (GPa) = 14.70988 23.12200 18.91594
#
# Velocity S-wave (km/s) = 2.66913 3.34641 3.02677
# Velocity P-wave (km/s) = 5.04781 6.52245 5.83193
#
# Compressibility (1/GPa) = 0.03030534
#
# Stress axis : x y z
#
# Youngs Moduli (GPa) = 30.05296 21.64553 78.61611
#
# Poissons Ratio (x) = 0.41185 0.89213
# Poissons Ratio (y) = 0.57182 0.04473
# Poissons Ratio (z) = 0.34104 0.01232
#
# Static dielectric constant tensor:
#      x y z
#    x 1.728430 0.000000 -0.013010 
#    y 0.000000 1.738620 0.000000 
#    z -0.013010 0.000000 1.762230 
# 
# From -- ./inp_files/158489.got.cif
#   From: 2010.05.17/outbox.cif.g08.bks.cpg/sg12_80_cif.got.tgz:158489.got - 2010.06.03 13:09:07.
