data_PCOD9197763
_publ_section_title
;
Structure prediction by ZEFSAII (Michael W. Deem and Ramdas Pophale) SiO2 
 PCOD9197763
Probable space group: C 2/M
;
_chemical_formula_sum "Si O2"
_cell_formula_units_Z 48
_cell_length_a 12.741382
_cell_length_b 13.114936
_cell_length_c 19.626310
_cell_angle_alpha 90.000000
_cell_angle_beta 144.870472
_cell_angle_gamma 90.000000
_cell_volume 1887.171916
_symmetry_space_group_name_H-M "C 2/M"
_symmetry_group_IT_number 12
_symmetry_cell_setting 'monoclinic'
loop_
_space_group_symop_operation_xyz
x,y,z
-x,y,-z
-x,-y,-z
x,-y,z
1/2+x,1/2+y,z
1/2-x,1/2+y,-z
1/2-x,1/2-y,-z
1/2+x,1/2-y,z
loop_
_atom_site_type_symbol
_atom_site_label
_atom_site_fract_x
_atom_site_fract_y
_atom_site_fract_z
Si Si1 0.241484 0.109529 0.621893
Si Si2 0.745465 0.819917 0.219122
Si Si3 0.030067 0.389904 0.672898
Si Si4 0.320198 0.168903 0.442149
Si Si5 0.409509 0.340112 0.169280
Si Si6 0.094454 0.183578 0.982110
O O1 0.448869 0.110191 0.705163
O O2 0.156236 0.209274 0.542795
O O3 0.765672 0.123449 0.300980
O O4 0.168645 0.000000 0.561762
O O5 0.815571 0.879028 0.189429
O O6 0.539260 0.780739 0.101821
O O7 0.855964 0.711431 0.281683
O O8 0.119781 0.500000 0.707337
O O9 0.847238 0.380219 0.529690
O O10 0.500000 0.127309 0.500000
O O11 0.124895 0.157271 0.302697
O O12 0.400342 0.378177 0.086063
O O13 0.290160 0.235143 0.099190
O O14 0.000000 0.135617 0.000000
#
# Coordination Sequence:
#
# PCOD9197763 Si02
#       6
#     8   8   8   8   8   8
#     4  11  24  41  65  99 132 174 224 269 323 392
#     4  11  19  41  66  94 134 172 220 272 334 384
#     4  11  24  41  66  97 136 179 221 267 327 395
#     4  12  22  41  64  92 133 177 219 270 325 392
#     4  10  20  35  63  94 130 174 219 268 336 390
#     4   9  18  34  63 100 119 168 227 269 324 399
#
# _framework density 25.434885000000001
#
# number of rings (size 3 to 8) (size 9 to 14) (size 15 to 20)
#    0.000    1.333    5.000    0.500    0.000    0.667 
#    0.000    0.833    0.000   13.000    0.000    0.000 
#    0.000    0.000    0.000    0.000    0.000    0.000 
#
# Total GULP energy -133823.959666 kJ/mol
# GULP energy per Si atom -5575.998319 kJ/mol
# Density = 2.537699 g / cm^3
# Si number density = 25.434885 Si / 1000 Ang^3
#
#
#
# Elastic Constant Matrix: (Units=GPa)
#
#
# Indices 1 2 3 4 5 6 
#
# 1 197.7561 31.4588 30.1097 0.0000 -23.9575 0.0000
# 2 31.4588 111.8912 20.0190 0.0000 -6.5845 0.0000
# 3 30.1097 20.0190 141.8360 0.0001 7.6598 0.0000
# 4 0.0000 0.0000 0.0001 2.9342 0.0000 -1.0998
# 5 -23.9575 -6.5845 7.6598 0.0000 50.0481 0.0000
# 6 0.0000 0.0000 0.0000 -1.0998 0.0000 8.9877
#
#
#
# Elastic Compliance Matrix: (Units=1/GPa)
#
#
# Indices 1 2 3 4 5 6 
#
# 1 0.005775 -0.001245 -0.001201 0.000000 0.002784 0.000000
# 2 -0.001245 0.009538 -0.001127 0.000000 0.000831 0.000000
# 3 -0.001201 -0.001127 0.007566 0.000000 -0.001881 0.000000
# 4 0.000000 0.000000 0.000000 0.357192 0.000000 0.043708
# 5 0.002784 0.000831 -0.001881 0.000000 0.021711 0.000000
# 6 0.000000 0.000000 0.000000 0.043708 0.000000 0.116611
#
#
# Mechanical properties :
#
#
# Convention : Reuss Voigt Hill
#
# Bulk Modulus (GPa) = 63.55713 68.29538 65.92625
# Shear Modulus (GPa) = 9.42007 37.05372 23.23690
#
# Velocity S-wave (km/s) = 1.92656 3.82096 3.02583
# Velocity P-wave (km/s) = 5.47643 6.80996 6.17928
#
# Compressibility (1/GPa) = 0.01573388
#
# Stress axis : x y z
#
# Youngs Moduli (GPa) = 173.16340 104.84584 132.17243
#
# Poissons Ratio (x) = 0.13053 0.15868
# Poissons Ratio (y) = 0.21559 0.14893
# Poissons Ratio (z) = 0.20790 0.11814
#
# Static dielectric constant tensor:
#      x y z
#    x 2.179820 0.000000 -0.045520 
#    y 0.000000 1.970930 0.000000 
#    z -0.045520 0.000000 2.056360 
# 
# From -- ./inp_files/340212.got.cif
#   From: 2010.05.17/outbox.cif.g08.bks.cpg/sg12_171_cif.got.tgz:340212.got - 2010.06.03 13:09:07.
