data_PCOD9197434
_publ_section_title
;
Structure prediction by ZEFSAII (Michael W. Deem and Ramdas Pophale) SiO2 
 PCOD9197434
Probable space group: C 2/M
;
_chemical_formula_sum "Si O2"
_cell_formula_units_Z 58
_cell_length_a 14.969001
_cell_length_b 10.430267
_cell_length_c 22.084643
_cell_angle_alpha 90.000000
_cell_angle_beta 112.621546
_cell_angle_gamma 90.000000
_cell_volume 3182.813642
_symmetry_space_group_name_H-M "C 2/M"
_symmetry_group_IT_number 12
_symmetry_cell_setting 'monoclinic'
loop_
_space_group_symop_operation_xyz
x,y,z
-x,y,-z
-x,-y,-z
x,-y,z
1/2+x,1/2+y,z
1/2-x,1/2+y,-z
1/2-x,1/2-y,-z
1/2+x,1/2-y,z
loop_
_atom_site_type_symbol
_atom_site_label
_atom_site_fract_x
_atom_site_fract_y
_atom_site_fract_z
Si Si1 0.180745 0.639031 0.505915
Si Si2 0.067587 0.352784 0.077123
Si Si3 0.015490 0.848824 0.849553
Si Si4 0.318650 0.147116 0.348518
Si Si5 0.500000 0.500000 0.500000
Si Si6 0.605865 0.653406 0.298401
Si Si7 0.763333 0.851206 0.057543
Si Si8 0.515753 0.274077 0.402070
O O1 0.219627 0.500000 0.497232
O O2 0.250000 0.750000 0.500000
O O3 0.177365 0.644311 0.577229
O O4 0.074607 0.661684 0.451226
O O5 0.057334 0.500000 0.097113
O O6 0.034377 0.246316 0.115850
O O7 0.177201 0.333322 0.083097
O O8 0.000000 0.341953 0.000000
O O9 0.974289 0.816380 0.772572
O O10 0.130834 0.834543 0.885999
O O11 0.992980 0.000000 0.855580
O O12 0.212196 0.200930 0.306112
O O13 0.409453 0.231500 0.353559
O O14 0.328165 0.000000 0.329208
O O15 0.509131 0.388164 0.448971
O O16 0.615886 0.500000 0.303696
O O17 0.576472 0.694905 0.357743
O O18 0.756057 0.000000 0.033904
O O19 0.750000 0.750000 0.000000
#
# Coordination Sequence:
#
# PCOD9197434 Si02
#       8
#     8   8   8   8   2   8   8   8
#     4  11  22  35  59  86 114 148 194 248 303 353
#     4  10  20  36  60  88 122 157 191 244 301 348
#     4  10  22  39  60  88 120 156 206 242 293 362
#     4  10  21  38  59  81 111 155 197 239 301 361
#     4  12  24  32  62  96 116 150 208 258 312 356
#     4  10  22  40  59  82 118 164 196 245 304 362
#     4  10  20  35  59  91 120 155 195 244 298 349
#     4  12  22  38  60  89 121 151 201 258 306 358
#
# _framework density 18.222871000000001
#
# number of rings (size 3 to 8) (size 9 to 14) (size 15 to 20)
#    0.000    1.517    4.828    0.414    0.966    3.034 
#    0.000    1.379    1.517    0.000    0.000    0.000 
#    0.000    0.000    0.000    0.000    0.000    0.000 
#
# Total GULP energy -161553.605761 kJ/mol
# GULP energy per Si atom -5570.813992 kJ/mol
# Density = 1.818139 g / cm^3
# Si number density = 18.222871 Si / 1000 Ang^3
#
#
#
# Elastic Constant Matrix: (Units=GPa)
#
#
# Indices 1 2 3 4 5 6 
#
# 1 98.6135 40.8386 26.8854 0.0000 18.5927 0.0000
# 2 40.8386 82.6295 28.0468 0.0000 0.8854 0.0000
# 3 26.8854 28.0468 79.4250 0.0000 15.1949 0.0000
# 4 0.0000 0.0000 0.0000 18.7986 0.0000 -1.3516
# 5 18.5927 0.8854 15.1949 0.0000 26.4400 0.0000
# 6 0.0000 0.0000 0.0000 -1.3516 0.0000 23.7889
#
#
#
# Elastic Compliance Matrix: (Units=1/GPa)
#
#
# Indices 1 2 3 4 5 6 
#
# 1 0.015190 -0.007166 -0.000690 0.000000 -0.010046 0.000000
# 2 -0.007166 0.017294 -0.005095 0.000000 0.007388 0.000000
# 3 -0.000690 -0.005095 0.016288 0.000000 -0.008705 0.000000
# 4 0.000000 0.000000 0.000000 0.053414 0.000000 0.003035
# 5 -0.010046 0.007388 -0.008705 0.000000 0.049641 0.000000
# 6 0.000000 0.000000 0.000000 0.003035 0.000000 0.042209
#
#
# Mechanical properties :
#
#
# Convention : Reuss Voigt Hill
#
# Bulk Modulus (GPa) = 43.72100 50.24552 46.98326
# Shear Modulus (GPa) = 21.97221 24.79866 23.38543
#
# Velocity S-wave (km/s) = 3.47616 3.69298 3.58621
# Velocity P-wave (km/s) = 6.33688 6.76881 6.55640
#
# Compressibility (1/GPa) = 0.02287230
#
# Stress axis : x y z
#
# Youngs Moduli (GPa) = 65.83190 57.82375 61.39355
#
# Poissons Ratio (x) = 0.41436 0.04234
# Poissons Ratio (y) = 0.47174 0.31278
# Poissons Ratio (z) = 0.04540 0.29459
#
# Static dielectric constant tensor:
#      x y z
#    x 1.661410 0.000000 0.048400 
#    y 0.000000 1.628610 0.000000 
#    z 0.048400 0.000000 1.613520 
# 
# From -- ./inp_files/309979.got.cif
#   From: 2010.05.17/outbox.cif.g08.bks.cpg/sg12_155_cif.got.tgz:309979.got - 2010.06.03 13:09:07.
