data_PCOD9197049
_publ_section_title
;
Structure prediction by ZEFSAII (Michael W. Deem and Ramdas Pophale) SiO2 
 PCOD9197049
Probable space group: C 2/M
;
_chemical_formula_sum "Si O2"
_cell_formula_units_Z 64
_cell_length_a 25.869696
_cell_length_b 12.254369
_cell_length_c 15.023241
_cell_angle_alpha 90.000000
_cell_angle_beta 45.182563
_cell_angle_gamma 90.000000
_cell_volume 3378.394169
_symmetry_space_group_name_H-M "C 2/M"
_symmetry_group_IT_number 12
_symmetry_cell_setting 'monoclinic'
loop_
_space_group_symop_operation_xyz
x,y,z
-x,y,-z
-x,-y,-z
x,-y,z
1/2+x,1/2+y,z
1/2-x,1/2+y,-z
1/2-x,1/2-y,-z
1/2+x,1/2-y,z
loop_
_atom_site_type_symbol
_atom_site_label
_atom_site_fract_x
_atom_site_fract_y
_atom_site_fract_z
Si Si1 0.250434 0.123876 0.600556
Si Si2 0.511916 0.780087 0.087650
Si Si3 0.166560 0.618023 0.868895
Si Si4 0.572389 0.376826 0.161649
Si Si5 0.756566 0.874801 0.036655
Si Si6 0.348623 0.824613 0.313255
Si Si7 0.795744 0.720221 0.732386
Si Si8 0.076950 0.127566 0.357891
O O1 0.306183 0.130912 0.450071
O O2 0.181448 0.200852 0.662111
O O3 0.289023 0.168535 0.642971
O O4 0.227376 0.000000 0.642699
O O5 0.532518 0.688977 0.133715
O O6 0.435763 0.831667 0.211627
O O7 0.500000 0.740671 0.000000
O O8 0.583042 0.856826 0.995236
O O9 0.187857 0.500000 0.876939
O O10 0.172420 0.620244 0.754553
O O11 0.222362 0.708295 0.834060
O O12 0.543649 0.500000 0.198523
O O13 0.566418 0.332151 0.269363
O O14 0.658637 0.379201 0.039566
O O15 0.706463 0.865560 0.184751
O O16 0.743441 0.000000 0.012348
O O17 0.750000 0.750000 0.000000
O O18 0.863519 0.800532 0.663886
O O19 0.000000 0.131590 0.500000
O O20 0.100843 0.000000 0.324224
#
# Coordination Sequence:
#
# PCOD9197049 Si02
#       8
#     8   8   8   8   8   8   8   8
#     4  10  21  38  58  82 113 155 196 236 296 353
#     4  10  21  37  56  87 119 148 193 245 298 355
#     4  10  20  35  58  86 117 153 195 245 298 354
#     4  10  21  38  59  84 116 154 194 243 303 359
#     4  11  22  39  63  89 120 156 199 249 305 363
#     4   9  21  37  57  82 115 153 197 245 285 351
#     4  11  21  37  59  88 116 152 194 250 299 364
#     4  10  22  39  61  87 118 157 202 255 304 358
#
# _framework density 18.943912000000001
#
# number of rings (size 3 to 8) (size 9 to 14) (size 15 to 20)
#    0.000    1.875    2.500    1.125    1.750    4.000 
#    0.000    0.625    0.000    1.500    0.000    0.000 
#    0.000    0.000    0.000    0.000    0.000    0.000 
#
# Total GULP energy -178272.834288 kJ/mol
# GULP energy per Si atom -5571.026071 kJ/mol
# Density = 1.890079 g / cm^3
# Si number density = 18.943912 Si / 1000 Ang^3
#
#
#
# Elastic Constant Matrix: (Units=GPa)
#
#
# Indices 1 2 3 4 5 6 
#
# 1 47.3157 29.3687 10.1930 0.0000 1.6128 0.0000
# 2 29.3687 107.7643 14.4130 0.0000 4.9051 0.0000
# 3 10.1930 14.4130 81.2369 0.0000 -2.8081 0.0000
# 4 0.0000 0.0000 0.0000 9.8954 0.0000 7.1811
# 5 1.6128 4.9051 -2.8081 0.0000 26.8504 0.0000
# 6 0.0000 0.0000 0.0000 7.1811 0.0000 -0.8400
#
#
#
# Elastic Compliance Matrix: (Units=1/GPa)
#
#
# Indices 1 2 3 4 5 6 
#
# 1 0.025769 -0.006723 -0.002059 0.000000 -0.000535 0.000000
# 2 -0.006723 0.011359 -0.001234 0.000000 -0.001800 0.000000
# 3 -0.002059 -0.001234 0.012845 0.000000 0.001693 0.000000
# 4 0.000000 0.000000 0.000000 0.014028 0.000000 0.119924
# 5 -0.000535 -0.001800 0.001693 0.000000 0.037781 0.000000
# 6 0.000000 0.000000 0.000000 0.119924 0.000000 -0.165253
#
#
# Mechanical properties :
#
#
# Convention : Reuss Voigt Hill
#
# Bulk Modulus (GPa) = 33.39848 38.25180 35.82514
# Shear Modulus (GPa) = -149.44451 19.33731 -65.05360
#
# Velocity S-wave (km/s) = -8.89152 3.19841 -5.86640
# Velocity P-wave (km/s) = 9.36716 5.82029 5.18980
#
# Compressibility (1/GPa) = 0.02994148
#
# Stress axis : x y z
#
# Youngs Moduli (GPa) = 38.80558 88.03802 77.84856
#
# Poissons Ratio (x) = 0.59189 0.16029
# Poissons Ratio (y) = 0.26090 0.09606
# Poissons Ratio (z) = 0.07990 0.10863
#
# Static dielectric constant tensor:
#      x y z
#    x 1.644390 0.000000 0.023360 
#    y 0.000000 1.694400 0.000000 
#    z 0.023360 0.000000 1.662200 
# 
# From -- ./inp_files/245931.got.cif
#   From: 2010.05.17/outbox.cif.g08.bks.cpg/sg12_123_cif.got.tgz:245931.got - 2010.06.03 13:09:07.
