data_PCOD9197092
_publ_section_title
;
Structure prediction by ZEFSAII (Michael W. Deem and Ramdas Pophale) SiO2 
 PCOD9197092
Probable space group: C 2/M
;
_chemical_formula_sum "Si O2"
_cell_formula_units_Z 58
_cell_length_a 20.795414
_cell_length_b 7.404950
_cell_length_c 16.990446
_cell_angle_alpha 90.000000
_cell_angle_beta 94.716907
_cell_angle_gamma 90.000000
_cell_volume 2607.480686
_symmetry_space_group_name_H-M "C 2/M"
_symmetry_group_IT_number 12
_symmetry_cell_setting 'monoclinic'
loop_
_space_group_symop_operation_xyz
x,y,z
-x,y,-z
-x,-y,-z
x,-y,z
1/2+x,1/2+y,z
1/2-x,1/2+y,-z
1/2-x,1/2-y,-z
1/2+x,1/2-y,z
loop_
_atom_site_type_symbol
_atom_site_label
_atom_site_fract_x
_atom_site_fract_y
_atom_site_fract_z
Si Si1 0.730146 0.213984 0.408776
Si Si2 0.399237 0.292763 0.688184
Si Si3 0.845954 0.785691 0.847564
Si Si4 0.648053 0.279452 0.680182
Si Si5 0.399937 0.719238 0.020399
Si Si6 0.000000 0.500000 0.000000
Si Si7 0.513812 0.721298 0.590799
Si Si8 0.194063 0.215752 0.851071
O O1 0.750000 0.250000 0.500000
O O2 0.662210 0.293763 0.375851
O O3 0.787740 0.279665 0.358810
O O4 0.724079 0.000000 0.396999
O O5 0.417551 0.500000 0.707122
O O6 0.374788 0.212216 0.768645
O O7 0.459113 0.214478 0.646154
O O8 0.769258 0.759712 0.848503
O O9 0.855535 0.000000 0.847517
O O10 0.881076 0.720505 0.929855
O O11 0.647785 0.500000 0.679321
O O12 0.583770 0.222562 0.628935
O O13 0.654736 0.219349 0.770865
O O14 0.409733 0.500000 0.024648
O O15 0.340630 0.769145 0.071834
O O16 0.461689 0.838917 0.045957
O O17 0.500000 0.778676 0.500000
O O18 0.512238 0.500000 0.589844
O O19 0.190801 0.000000 0.849650
#
# Coordination Sequence:
#
# PCOD9197092 Si02
#       8
#     8   8   8   8   8   2   8   8
#     4  11  21  35  56  83 116 153 200 255 311 368
#     4  10  20  35  58  87 117 157 201 257 318 379
#     4  10  21  37  61  92 129 162 208 268 326 386
#     4   9  18  33  56  86 114 155 205 257 308 374
#     4  10  24  43  65  98 133 173 219 272 318 385
#     4  12  26  44  68  94 132 184 220 254 324 398
#     4   9  17  31  53  80 112 151 202 252 305 376
#     4  10  20  37  64  91 125 163 211 268 321 382
#
# _framework density 22.243694000000001
#
# number of rings (size 3 to 8) (size 9 to 14) (size 15 to 20)
#    0.000    2.069    1.379    1.862    1.931    3.310 
#    0.000    4.138    0.000    4.552    0.000    0.000 
#    0.000    0.000    0.000    0.000    0.000    0.000 
#
# Total GULP energy -161751.203746 kJ/mol
# GULP energy per Si atom -5577.627715 kJ/mol
# Density = 2.219307 g / cm^3
# Si number density = 22.243694 Si / 1000 Ang^3
#
#
#
# Elastic Constant Matrix: (Units=GPa)
#
#
# Indices 1 2 3 4 5 6 
#
# 1 66.1995 3.1311 -19.5446 0.0000 -10.5519 0.0000
# 2 3.1311 89.8352 5.3309 0.0000 -7.8471 0.0000
# 3 -19.5446 5.3309 70.8966 0.0000 -6.0535 0.0000
# 4 0.0000 0.0000 0.0000 -2.9557 0.0000 11.4552
# 5 -10.5519 -7.8471 -6.0535 0.0000 40.0450 0.0000
# 6 0.0000 0.0000 0.0000 11.4552 0.0000 -20.0169
#
#
#
# Elastic Compliance Matrix: (Units=1/GPa)
#
#
# Indices 1 2 3 4 5 6 
#
# 1 0.017552 -0.000462 0.005329 0.000000 0.005340 0.000000
# 2 -0.000462 0.011369 -0.000813 0.000000 0.001983 0.000000
# 3 0.005329 -0.000813 0.015948 0.000000 0.003656 0.000000
# 4 0.000000 0.000000 0.000000 0.277796 0.000000 0.158976
# 5 0.005340 0.001983 0.003656 0.000000 0.027320 0.000000
# 6 0.000000 0.000000 0.000000 0.158976 0.000000 0.041020
#
#
# Mechanical properties :
#
#
# Convention : Reuss Voigt Hill
#
# Bulk Modulus (GPa) = 18.87530 22.75178 20.81354
# Shear Modulus (GPa) = 12.48267 19.28206 15.88236
#
# Velocity S-wave (km/s) = 2.37149 2.94743 2.67501
# Velocity P-wave (km/s) = 4.00034 4.67266 4.34951
#
# Compressibility (1/GPa) = 0.05297929
#
# Stress axis : x y z
#
# Youngs Moduli (GPa) = 56.97237 87.95800 62.70560
#
# Poissons Ratio (x) = 0.04060 -0.33419
# Poissons Ratio (y) = 0.02630 0.05097
# Poissons Ratio (z) = -0.30363 0.07149
#
# Static dielectric constant tensor:
#      x y z
#    x 1.816190 0.000000 0.005880 
#    y 0.000000 1.855630 0.000000 
#    z 0.005880 0.000000 1.825810 
# 
# From -- ./inp_files/275443.got.cif
#   From: 2010.05.17/outbox.cif.g08.bks.cpg/sg12_138_cif.got.tgz:275443.got - 2010.06.03 13:09:07.
