data_PCOD9197351
_publ_section_title
;
Structure prediction by ZEFSAII (Michael W. Deem and Ramdas Pophale) SiO2 
 PCOD9197351
Probable space group: C 2/M
;
_chemical_formula_sum "Si O2"
_cell_formula_units_Z 64
_cell_length_a 20.943561
_cell_length_b 18.492399
_cell_length_c 9.313476
_cell_angle_alpha 90.000000
_cell_angle_beta 93.099625
_cell_angle_gamma 90.000000
_cell_volume 3601.801326
_symmetry_space_group_name_H-M "C 2/M"
_symmetry_group_IT_number 12
_symmetry_cell_setting 'monoclinic'
loop_
_space_group_symop_operation_xyz
x,y,z
-x,y,-z
-x,-y,-z
x,-y,z
1/2+x,1/2+y,z
1/2-x,1/2+y,-z
1/2-x,1/2-y,-z
1/2+x,1/2-y,z
loop_
_atom_site_type_symbol
_atom_site_label
_atom_site_fract_x
_atom_site_fract_y
_atom_site_fract_z
Si Si1 0.156011 0.914651 0.882065
Si Si2 0.150451 0.679033 0.073509
Si Si3 0.690115 0.167261 0.596273
Si Si4 0.764236 0.414575 0.126406
Si Si5 0.743264 0.679525 0.689776
Si Si6 0.439303 0.290443 0.098097
Si Si7 0.535912 0.916220 0.157783
Si Si8 0.456865 0.820235 0.357162
O O1 0.199215 0.880045 0.760680
O O2 0.091138 0.868795 0.880117
O O3 0.146805 0.000000 0.860922
O O4 0.197514 0.903947 0.033409
O O5 0.206310 0.705754 0.184257
O O6 0.098062 0.634072 0.155790
O O7 0.182249 0.624915 0.963277
O O8 0.115509 0.742914 0.985996
O O9 0.729138 0.120661 0.717084
O O10 0.702879 0.251729 0.633079
O O11 0.716940 0.151631 0.441584
O O12 0.614433 0.157316 0.604991
O O13 0.776466 0.500000 0.133956
O O14 0.454691 0.247243 0.246220
O O15 0.500000 0.291943 0.000000
O O16 0.489363 0.885338 0.273028
O O17 0.552091 0.000000 0.181975
O O18 0.500000 0.909245 0.000000
O O19 0.500000 0.803232 0.500000
#
# Coordination Sequence:
#
# PCOD9197351 Si02
#       8
#     8   8   8   8   8   8   8   8
#     4  10  22  41  62  88 117 148 194 249 304 352
#     4  11  18  36  59  86 113 151 196 234 284 351
#     4  11  21  37  56  87 118 151 192 233 285 342
#     4  10  20  35  59  88 119 151 185 235 292 350
#     4  10  22  36  61  85 114 151 188 238 290 352
#     4  12  22  39  63  86 111 155 199 249 295 342
#     4  11  21  36  56  83 120 160 194 228 278 345
#     4  12  23  38  56  85 120 160 199 238 282 342
#
# _framework density 17.768886999999999
#
# number of rings (size 3 to 8) (size 9 to 14) (size 15 to 20)
#    0.000    1.125    5.000    1.875    0.000    5.000 
#    0.000    1.250    0.000    0.375    0.000    0.000 
#    0.000    0.000    0.000    0.000    0.000    0.000 
#
# Total GULP energy -178797.207221 kJ/mol
# GULP energy per Si atom -5587.412726 kJ/mol
# Density = 1.772844 g / cm^3
# Si number density = 17.768887 Si / 1000 Ang^3
#
#
#
# Elastic Constant Matrix: (Units=GPa)
#
#
# Indices 1 2 3 4 5 6 
#
# 1 25.7454 5.2164 14.8597 0.0000 -2.9409 0.0000
# 2 5.2164 72.2884 20.7810 0.0000 4.9877 0.0000
# 3 14.8597 20.7810 110.1154 0.0000 -1.5476 0.0000
# 4 0.0000 0.0000 0.0000 14.0712 0.0000 3.0930
# 5 -2.9409 4.9877 -1.5476 0.0000 16.9515 0.0000
# 6 0.0000 0.0000 0.0000 3.0930 0.0000 21.6807
#
#
#
# Elastic Compliance Matrix: (Units=1/GPa)
#
#
# Indices 1 2 3 4 5 6 
#
# 1 0.043216 -0.002114 -0.005326 0.000000 0.007633 0.000000
# 2 -0.002114 0.015091 -0.002634 0.000000 -0.005048 0.000000
# 3 -0.005326 -0.002634 0.010308 0.000000 0.000792 0.000000
# 4 0.000000 0.000000 0.000000 0.073368 0.000000 -0.010467
# 5 0.007633 -0.005048 0.000792 0.000000 0.061874 0.000000
# 6 0.000000 0.000000 0.000000 -0.010467 0.000000 0.047617
#
#
# Mechanical properties :
#
#
# Convention : Reuss Voigt Hill
#
# Bulk Modulus (GPa) = 20.63188 32.20705 26.41946
# Shear Modulus (GPa) = 17.37451 21.69348 19.53399
#
# Velocity S-wave (km/s) = 3.13038 3.49788 3.31922
# Velocity P-wave (km/s) = 4.97013 5.87184 5.43970
#
# Compressibility (1/GPa) = 0.04846869
#
# Stress axis : x y z
#
# Youngs Moduli (GPa) = 23.13955 66.26274 97.01006
#
# Poissons Ratio (x) = 0.14010 0.51663
# Poissons Ratio (y) = 0.04892 0.25549
# Poissons Ratio (z) = 0.12323 0.17452
#
# Static dielectric constant tensor:
#      x y z
#    x 1.607110 0.000000 0.003000 
#    y 0.000000 1.585300 0.000000 
#    z 0.003000 0.000000 1.612960 
# 
# From -- ./inp_files/87944.got.cif
#   From: 2010.05.17/outbox.cif.g08.bks.cpg/sg12_44_cif.got.tgz:87944.got - 2010.06.03 13:09:07.
