data_PCOD9197517
_publ_section_title
;
Structure prediction by ZEFSAII (Michael W. Deem and Ramdas Pophale) SiO2 
 PCOD9197517
Probable space group: C 2/M
;
_chemical_formula_sum "Si O2"
_cell_formula_units_Z 56
_cell_length_a 18.379473
_cell_length_b 16.318470
_cell_length_c 14.009917
_cell_angle_alpha 90.000000
_cell_angle_beta 140.741602
_cell_angle_gamma 90.000000
_cell_volume 2659.055766
_symmetry_space_group_name_H-M "C 2/M"
_symmetry_group_IT_number 12
_symmetry_cell_setting 'monoclinic'
loop_
_space_group_symop_operation_xyz
x,y,z
-x,y,-z
-x,-y,-z
x,-y,z
1/2+x,1/2+y,z
1/2-x,1/2+y,-z
1/2-x,1/2-y,-z
1/2+x,1/2-y,z
loop_
_atom_site_type_symbol
_atom_site_label
_atom_site_fract_x
_atom_site_fract_y
_atom_site_fract_z
Si Si1 0.019776 0.859150 0.916323
Si Si2 0.456647 0.412106 0.266688
Si Si3 0.548887 0.094554 0.292080
Si Si4 0.316433 0.770398 0.665349
Si Si5 0.260685 0.255942 0.813838
Si Si6 0.691861 0.912389 0.059200
Si Si7 0.513745 0.235149 0.626467
O O1 0.017205 0.911514 0.818768
O O2 0.927360 0.786900 0.800667
O O3 0.144097 0.819327 0.056658
O O4 0.000000 0.898456 0.000000
O O5 0.495114 0.500000 0.347999
O O6 0.510871 0.328846 0.364944
O O7 0.318106 0.408422 0.139121
O O8 0.633233 0.138174 0.300747
O O9 0.418145 0.091221 0.120802
O O10 0.541499 0.161154 0.370184
O O11 0.582370 0.000000 0.348942
O O12 0.250000 0.750000 0.500000
O O13 0.237334 0.747479 0.676286
O O14 0.152921 0.269388 0.773139
O O15 0.313797 0.166361 0.881669
O O16 0.686558 0.000000 0.105266
O O17 0.500000 0.226227 0.500000
#
# Coordination Sequence:
#
# PCOD9197517 Si02
#       7
#     8   8   8   8   8   8   8
#     4  10  20  36  59  86 114 156 203 248 304 366
#     4  10  20  36  60  88 121 157 202 256 307 362
#     4  11  22  38  63  91 122 161 206 255 311 367
#     4  11  22  38  58  83 122 163 201 251 307 368
#     4  10  20  35  60  87 118 161 204 248 308 367
#     4   9  18  33  57  90 119 147 196 255 305 355
#     4  11  22  38  61  90 124 168 202 253 308 366
#
# _framework density 21.060108
#
# number of rings (size 3 to 8) (size 9 to 14) (size 15 to 20)
#    0.000    1.714    2.857    1.714    0.000    3.714 
#    0.000    2.143    0.000    3.429    0.000    0.000 
#    0.000    0.000    0.000    0.000    0.000    0.000 
#
# Total GULP energy -155983.722898 kJ/mol
# GULP energy per Si atom -5570.847246 kJ/mol
# Density = 2.101217 g / cm^3
# Si number density = 21.060108 Si / 1000 Ang^3
#
#
#
# Elastic Constant Matrix: (Units=GPa)
#
#
# Indices 1 2 3 4 5 6 
#
# 1 41.0252 23.3335 -18.0331 0.0000 -5.9426 0.0000
# 2 23.3335 128.6995 11.7374 0.0000 -0.8669 0.0000
# 3 -18.0331 11.7374 39.3419 0.0000 -8.2267 0.0000
# 4 0.0000 0.0000 0.0000 7.0258 0.0000 11.0074
# 5 -5.9426 -0.8669 -8.2267 0.0000 26.2531 0.0000
# 6 0.0000 0.0000 0.0000 11.0074 0.0000 -3.7871
#
#
#
# Elastic Compliance Matrix: (Units=1/GPa)
#
#
# Indices 1 2 3 4 5 6 
#
# 1 0.045390 -0.010647 0.027884 0.000000 0.018661 0.000000
# 2 -0.010647 0.010491 -0.009034 0.000000 -0.004894 0.000000
# 3 0.027884 -0.009034 0.045108 0.000000 0.020148 0.000000
# 4 0.000000 0.000000 0.000000 0.025629 0.000000 0.074490
# 5 0.018661 -0.004894 0.020148 0.000000 0.048467 0.000000
# 6 0.000000 0.000000 0.000000 0.074490 0.000000 -0.047546
#
#
# Mechanical properties :
#
#
# Convention : Reuss Voigt Hill
#
# Bulk Modulus (GPa) = 8.51813 27.01579 17.76696
# Shear Modulus (GPa) = 33.27485 18.70028 25.98756
#
# Velocity S-wave (km/s) = 3.97923 2.98308 3.51660
# Velocity P-wave (km/s) = 5.01655 4.97200 4.99433
#
# Compressibility (1/GPa) = 0.11739666
#
# Stress axis : x y z
#
# Youngs Moduli (GPa) = 22.03108 95.31797 22.16924
#
# Poissons Ratio (x) = 1.01482 -0.61817
# Poissons Ratio (y) = 0.23456 0.20027
# Poissons Ratio (z) = -0.61431 0.86106
#
# Static dielectric constant tensor:
#      x y z
#    x 1.832420 0.000000 0.019100 
#    y 0.000000 1.760480 0.000000 
#    z 0.019100 0.000000 1.774690 
# 
# From -- ./inp_files/233765.got.cif
#   From: 2010.05.17/outbox.cif.g08.bks.cpg/sg12_117_cif.got.tgz:233765.got - 2010.06.03 13:09:07.
