data_PCOD9197034
_publ_section_title
;
Structure prediction by ZEFSAII (Michael W. Deem and Ramdas Pophale) SiO2 
 PCOD9197034
Probable space group: C 2/M
;
_chemical_formula_sum "Si O2"
_cell_formula_units_Z 64
_cell_length_a 19.838000
_cell_length_b 13.907015
_cell_length_c 11.995919
_cell_angle_alpha 90.000000
_cell_angle_beta 92.665329
_cell_angle_gamma 90.000000
_cell_volume 3305.942216
_symmetry_space_group_name_H-M "C 2/M"
_symmetry_group_IT_number 12
_symmetry_cell_setting 'monoclinic'
loop_
_space_group_symop_operation_xyz
x,y,z
-x,y,-z
-x,-y,-z
x,-y,z
1/2+x,1/2+y,z
1/2-x,1/2+y,-z
1/2-x,1/2-y,-z
1/2+x,1/2-y,z
loop_
_atom_site_type_symbol
_atom_site_label
_atom_site_fract_x
_atom_site_fract_y
_atom_site_fract_z
Si Si1 0.576184 0.109381 0.050892
Si Si2 0.863280 0.247466 0.120628
Si Si3 0.030343 0.110359 0.776572
Si Si4 0.299004 0.308487 0.584610
Si Si5 0.810234 0.110317 0.955859
Si Si6 0.201786 0.394780 0.751479
Si Si7 0.397011 0.725956 0.785265
Si Si8 0.072931 0.890433 0.533069
O O1 0.579195 0.173549 0.161820
O O2 0.599753 0.000000 0.067608
O O3 0.500000 0.107397 0.000000
O O4 0.619380 0.167080 0.963202
O O5 0.927773 0.177659 0.136911
O O6 0.845047 0.301749 0.234029
O O7 0.805830 0.178010 0.064206
O O8 0.073770 0.107454 0.666633
O O9 0.959401 0.162411 0.746858
O O10 0.020246 0.000000 0.813157
O O11 0.250000 0.250000 0.500000
O O12 0.251570 0.381861 0.650421
O O13 0.339779 0.256761 0.688320
O O14 0.359834 0.348672 0.514513
O O15 0.746865 0.107890 0.867715
O O16 0.866528 0.161342 0.883185
O O17 0.826601 0.000000 0.986462
O O18 0.168335 0.500000 0.743013
O O19 0.000000 0.843654 0.500000
O O20 0.068949 0.000000 0.488679
#
# Coordination Sequence:
#
# PCOD9197034 Si02
#       8
#     8   8   8   8   8   8   8   8
#     4  10  20  36  56  80 113 157 202 243 288 344
#     4  11  20  34  54  84 118 153 193 240 289 351
#     4  11  21  33  55  88 120 148 185 237 301 361
#     4  11  22  39  61  86 118 154 195 249 304 355
#     4   9  19  33  54  82 116 152 186 232 289 348
#     4  10  21  37  57  80 111 157 203 238 282 350
#     4  10  20  36  56  85 117 152 193 238 294 355
#     4  10  20  35  58  86 115 150 192 243 299 358
#
# _framework density 19.359081
#
# number of rings (size 3 to 8) (size 9 to 14) (size 15 to 20)
#    0.000    1.750    2.500    2.625    0.000    1.000 
#    0.000    3.125    0.000    4.500    0.000    1.750 
#    0.000    0.000    0.000    0.000    0.000    0.000 
#
# Total GULP energy -178386.283662 kJ/mol
# GULP energy per Si atom -5574.571364 kJ/mol
# Density = 1.931502 g / cm^3
# Si number density = 19.359081 Si / 1000 Ang^3
#
#
#
# Elastic Constant Matrix: (Units=GPa)
#
#
# Indices 1 2 3 4 5 6 
#
# 1 73.8787 45.9889 25.0318 0.0000 -1.2755 0.0000
# 2 45.9889 151.4415 42.8974 0.0000 5.2806 0.0000
# 3 25.0318 42.8974 62.1897 0.0000 -2.6151 0.0000
# 4 0.0000 0.0000 0.0000 17.2115 0.0000 0.4880
# 5 -1.2755 5.2806 -2.6151 0.0000 34.8551 0.0000
# 6 0.0000 0.0000 0.0000 0.4880 0.0000 26.8713
#
#
#
# Elastic Compliance Matrix: (Units=1/GPa)
#
#
# Indices 1 2 3 4 5 6 
#
# 1 0.017566 -0.004197 -0.004135 0.000000 0.000968 0.000000
# 2 -0.004197 0.009308 -0.004812 0.000000 -0.001925 0.000000
# 3 -0.004135 -0.004812 0.021154 0.000000 0.002165 0.000000
# 4 0.000000 0.000000 0.000000 0.058131 0.000000 -0.001056
# 5 0.000968 -0.001925 0.002165 0.000000 0.029180 0.000000
# 6 0.000000 0.000000 0.000000 -0.001056 0.000000 0.037234
#
#
# Mechanical properties :
#
#
# Convention : Reuss Voigt Hill
#
# Bulk Modulus (GPa) = 45.99649 57.26068 51.62858
# Shear Modulus (GPa) = 24.25931 27.36037 25.80984
#
# Velocity S-wave (km/s) = 3.54379 3.76348 3.65528
# Velocity P-wave (km/s) = 6.36834 6.96616 6.67395
#
# Compressibility (1/GPa) = 0.02174079
#
# Stress axis : x y z
#
# Youngs Moduli (GPa) = 56.92856 107.43591 47.27142
#
# Poissons Ratio (x) = 0.45089 0.19546
# Poissons Ratio (y) = 0.23892 0.22747
# Poissons Ratio (z) = 0.23539 0.51699
#
# Static dielectric constant tensor:
#      x y z
#    x 1.717690 0.000000 -0.006850 
#    y 0.000000 1.699390 0.000000 
#    z -0.006850 0.000000 1.712300 
# 
# From -- ./inp_files/156643.got.cif
#   From: 2010.05.17/outbox.cif.g08.bks.cpg/sg12_79_cif.got.tgz:156643.got - 2010.06.03 13:09:07.
