data_PCOD9197692
_publ_section_title
;
Structure prediction by ZEFSAII (Michael W. Deem and Ramdas Pophale) SiO2 
 PCOD9197692
Probable space group: C 2/M
;
_chemical_formula_sum "Si O2"
_cell_formula_units_Z 48
_cell_length_a 11.404833
_cell_length_b 22.312994
_cell_length_c 9.009244
_cell_angle_alpha 90.000000
_cell_angle_beta 104.198321
_cell_angle_gamma 90.000000
_cell_volume 2222.601894
_symmetry_space_group_name_H-M "C 2/M"
_symmetry_group_IT_number 12
_symmetry_cell_setting 'monoclinic'
loop_
_space_group_symop_operation_xyz
x,y,z
-x,y,-z
-x,-y,-z
x,-y,z
1/2+x,1/2+y,z
1/2-x,1/2+y,-z
1/2-x,1/2-y,-z
1/2+x,1/2-y,z
loop_
_atom_site_type_symbol
_atom_site_label
_atom_site_fract_x
_atom_site_fract_y
_atom_site_fract_z
Si Si1 0.030175 0.868283 0.169583
Si Si2 0.134543 0.431442 0.976219
Si Si3 0.858025 0.752231 0.908353
Si Si4 0.211271 0.149743 0.757430
Si Si5 0.094403 0.568687 0.640274
Si Si6 0.840137 0.933423 0.535323
O O1 0.129148 0.817782 0.161225
O O2 0.066352 0.913935 0.308708
O O3 0.912962 0.834040 0.197188
O O4 0.000000 0.896897 0.000000
O O5 0.178397 0.500000 0.975012
O O6 0.121783 0.403905 0.808311
O O7 0.221534 0.396619 0.112545
O O8 0.000000 0.432115 0.000000
O O9 0.805279 0.704210 0.774835
O O10 0.750000 0.750000 0.000000
O O11 0.000000 0.737607 0.000000
O O12 0.175339 0.116192 0.595784
O O13 0.048064 0.500000 0.658219
O O14 0.215375 0.564004 0.585425
O O15 0.000000 0.598829 0.500000
O O16 0.863868 0.000000 0.481514
#
# Coordination Sequence:
#
# PCOD9197692 Si02
#       6
#     8   8   8   8   8   8
#     4  11  24  45  70  98 136 181 234 297 351 419
#     4  10  20  35  61  97 135 182 234 281 344 423
#     4  11  23  46  75 104 136 180 237 302 354 413
#     4  12  23  41  69 100 137 179 231 289 353 416
#     4   9  18  34  55  84 129 176 221 276 331 397
#     4  11  25  43  65 100 145 185 228 283 352 433
#
# _framework density 21.596309000000002
#
# number of rings (size 3 to 8) (size 9 to 14) (size 15 to 20)
#    0.000    1.333    3.333    3.500    0.000    5.667 
#    0.000    0.000    0.000    0.000    0.000    0.000 
#    0.000    0.000    0.000    0.000    0.000    0.000 
#
# Total GULP energy -133921.543613 kJ/mol
# GULP energy per Si atom -5580.064317 kJ/mol
# Density = 2.154716 g / cm^3
# Si number density = 21.596309 Si / 1000 Ang^3
#
#
#
# Elastic Constant Matrix: (Units=GPa)
#
#
# Indices 1 2 3 4 5 6 
#
# 1 105.9466 10.3769 14.8713 0.0000 -3.5242 0.0000
# 2 10.3769 57.2244 29.2426 0.0000 5.6890 0.0000
# 3 14.8713 29.2426 138.3861 0.0000 -0.3384 0.0000
# 4 0.0000 0.0000 0.0000 37.8726 0.0000 8.8748
# 5 -3.5242 5.6890 -0.3384 0.0000 33.7323 0.0000
# 6 0.0000 0.0000 0.0000 8.8748 0.0000 29.5280
#
#
#
# Elastic Compliance Matrix: (Units=1/GPa)
#
#
# Indices 1 2 3 4 5 6 
#
# 1 0.009731 -0.001522 -0.000721 0.000000 0.001266 0.000000
# 2 -0.001522 0.020214 -0.004117 0.000000 -0.003609 0.000000
# 3 -0.000721 -0.004117 0.008175 0.000000 0.000701 0.000000
# 4 0.000000 0.000000 0.000000 0.028405 0.000000 -0.008537
# 5 0.001266 -0.003609 0.000701 0.000000 0.030393 0.000000
# 6 0.000000 0.000000 0.000000 -0.008537 0.000000 0.036432
#
#
# Mechanical properties :
#
#
# Convention : Reuss Voigt Hill
#
# Bulk Modulus (GPa) = 39.36920 45.61543 42.49231
# Shear Modulus (GPa) = 32.35484 36.69765 34.52625
#
# Velocity S-wave (km/s) = 3.87481 4.12667 4.00273
# Velocity P-wave (km/s) = 6.18774 6.62372 6.40944
#
# Compressibility (1/GPa) = 0.02540056
#
# Stress axis : x y z
#
# Youngs Moduli (GPa) = 102.76319 49.47173 122.32045
#
# Poissons Ratio (x) = 0.07530 0.08819
# Poissons Ratio (y) = 0.15641 0.50355
# Poissons Ratio (z) = 0.07409 0.20366
#
# Static dielectric constant tensor:
#      x y z
#    x 1.820810 0.000000 0.017000 
#    y 0.000000 1.837130 0.000000 
#    z 0.017000 0.000000 1.809360 
# 
# From -- ./inp_files/51461.got.cif
#   From: 2010.05.17/outbox.cif.g08.bks.cpg/sg12_26_cif.got.tgz:51461.got - 2010.06.03 13:09:07.
