data_PCOD9197663
_publ_section_title
;
Structure prediction by ZEFSAII (Michael W. Deem and Ramdas Pophale) SiO2 
 PCOD9197663
Probable space group: C 2/M
;
_chemical_formula_sum "Si O2"
_cell_formula_units_Z 40
_cell_length_a 20.579720
_cell_length_b 10.944045
_cell_length_c 9.662970
_cell_angle_alpha 90.000000
_cell_angle_beta 48.124735
_cell_angle_gamma 90.000000
_cell_volume 1620.506844
_symmetry_space_group_name_H-M "C 2/M"
_symmetry_group_IT_number 12
_symmetry_cell_setting 'monoclinic'
loop_
_space_group_symop_operation_xyz
x,y,z
-x,y,-z
-x,-y,-z
x,-y,z
1/2+x,1/2+y,z
1/2-x,1/2+y,-z
1/2-x,1/2-y,-z
1/2+x,1/2-y,z
loop_
_atom_site_type_symbol
_atom_site_label
_atom_site_fract_x
_atom_site_fract_y
_atom_site_fract_z
Si Si1 0.832446 0.500000 0.330741
Si Si2 0.305968 0.500000 0.235457
Si Si3 0.151794 0.237609 0.196035
Si Si4 0.854055 0.235726 0.319480
Si Si5 0.821313 0.500000 0.815966
Si Si6 0.489693 0.353643 0.350000
Si Si7 0.780768 0.000000 0.768703
O O1 0.786845 0.500000 0.546932
O O2 0.880468 0.372278 0.236656
O O3 0.751202 0.500000 0.340714
O O4 0.356201 0.621569 0.211591
O O5 0.272945 0.500000 0.125691
O O6 0.133352 0.372036 0.283969
O O7 0.083229 0.203446 0.174895
O O8 0.163638 0.120079 0.278207
O O9 0.250000 0.250000 0.000000
O O10 0.750000 0.250000 0.500000
O O11 0.914033 0.201564 0.364249
O O12 0.800725 0.500000 0.009614
O O13 0.500000 0.320805 0.500000
O O14 0.489417 0.500000 0.337145
#
# Coordination Sequence:
#
# PCOD9197663 Si02
#       7
#     4   4   8   8   4   8   4
#     4  10  22  33  63  89 132 172 218 265 345 395
#     4  10  20  35  61  91 132 170 218 267 343 393
#     4  10  22  40  66  94 138 174 229 270 338 398
#     4  10  22  38  59  95 138 171 207 275 350 394
#     4  10  22  37  63  97 126 178 226 269 329 403
#     4  11  24  39  68 104 135 177 232 280 334 414
#     4  10  20  39  65  93 124 186 226 259 323 425
#
# _framework density 24.683636
#
# number of rings (size 3 to 8) (size 9 to 14) (size 15 to 20)
#    0.000    1.800    2.000    1.200   11.200    0.800 
#    0.000    1.000    0.000   28.800    0.000    0.000 
#    0.000    0.000    0.000    0.000    0.000    0.000 
#
# Total GULP energy -111732.572381 kJ/mol
# GULP energy per Si atom -5586.628619 kJ/mol
# Density = 2.462746 g / cm^3
# Si number density = 24.683636 Si / 1000 Ang^3
#
#
#
# Elastic Constant Matrix: (Units=GPa)
#
#
# Indices 1 2 3 4 5 6 
#
# 1 202.6536 84.0272 30.2087 0.0000 -21.8561 0.0000
# 2 84.0272 291.0175 6.7380 0.0000 -1.0500 0.0000
# 3 30.2087 6.7380 29.5918 0.0000 1.3940 0.0000
# 4 0.0000 0.0000 0.0000 8.9657 0.0000 -5.9688
# 5 -21.8561 -1.0500 1.3940 0.0000 21.8407 0.0000
# 6 0.0000 0.0000 0.0000 -5.9688 0.0000 47.7171
#
#
#
# Elastic Compliance Matrix: (Units=1/GPa)
#
#
# Indices 1 2 3 4 5 6 
#
# 1 0.007866 -0.002057 -0.007951 0.000000 0.008280 0.000000
# 2 -0.002057 0.003993 0.001283 0.000000 -0.001948 0.000000
# 3 -0.007951 0.001283 0.042117 0.000000 -0.010584 0.000000
# 4 0.000000 0.000000 0.000000 0.121668 0.000000 0.015219
# 5 0.008280 -0.001948 -0.010584 0.000000 0.054654 0.000000
# 6 0.000000 0.000000 0.000000 0.015219 0.000000 0.022861
#
#
# Mechanical properties :
#
#
# Convention : Reuss Voigt Hill
#
# Bulk Modulus (GPa) = 27.37920 85.02341 56.20131
# Shear Modulus (GPa) = 17.68129 42.52398 30.10264
#
# Velocity S-wave (km/s) = 2.67931 4.15512 3.49598
# Velocity P-wave (km/s) = 4.54838 7.58551 6.25411
#
# Compressibility (1/GPa) = 0.03652408
#
# Stress axis : x y z
#
# Youngs Moduli (GPa) = 127.13320 250.40881 23.74344
#
# Poissons Ratio (x) = 0.51513 0.18879
# Poissons Ratio (y) = 0.26153 -0.03045
# Poissons Ratio (z) = 1.01089 -0.32116
#
# Static dielectric constant tensor:
#      x y z
#    x 1.920340 0.000000 -0.150530 
#    y 0.000000 2.047020 0.000000 
#    z -0.150530 0.000000 2.361150 
# 
# From -- ./inp_files/153356.got.cif
#   From: 2010.05.17/outbox.cif.g08.bks.cpg/sg12_77_cif.got.tgz:153356.got - 2010.06.03 13:09:07.
