data_PCOD9197871
_publ_section_title
;
Structure prediction by ZEFSAII (Michael W. Deem and Ramdas Pophale) SiO2 
 PCOD9197871
Probable space group: C 2/M
;
_chemical_formula_sum "Si O2"
_cell_formula_units_Z 32
_cell_length_a 14.605679
_cell_length_b 25.656109
_cell_length_c 7.273470
_cell_angle_alpha 90.000000
_cell_angle_beta 147.065265
_cell_angle_gamma 90.000000
_cell_volume 1481.836329
_symmetry_space_group_name_H-M "C 2/M"
_symmetry_group_IT_number 12
_symmetry_cell_setting 'monoclinic'
loop_
_space_group_symop_operation_xyz
x,y,z
-x,y,-z
-x,-y,-z
x,-y,z
1/2+x,1/2+y,z
1/2-x,1/2+y,-z
1/2-x,1/2-y,-z
1/2+x,1/2-y,z
loop_
_atom_site_type_symbol
_atom_site_label
_atom_site_fract_x
_atom_site_fract_y
_atom_site_fract_z
Si Si1 0.405171 0.000000 0.577811
Si Si2 0.693472 0.690956 0.392710
Si Si3 0.169380 0.383497 0.678569
Si Si4 0.267674 0.500000 0.313134
Si Si5 0.036810 0.102876 0.287656
O O1 0.348272 0.944310 0.405265
O O2 0.326043 0.000000 0.648024
O O3 0.608665 0.000000 0.910191
O O4 0.750000 0.750000 0.500000
O O5 0.811837 0.657754 0.456193
O O6 0.667600 0.650970 0.518181
O O7 0.500000 0.695111 0.000000
O O8 0.000000 0.370018 0.500000
O O9 0.359155 0.382179 0.078629
O O10 0.381747 0.550933 0.497945
O O11 0.000000 0.093239 0.000000
#
# Coordination Sequence:
#
# PCOD9197871 Si02
#       5
#     4   8   8   4   8
#     4  11  20  29  52  87 108 135 174 220 262 298
#     4   9  19  34  54  76  98 134 182 219 254 306
#     4  10  20  36  54  77 108 143 175 209 262 324
#     4  11  18  30  52  82 110 132 181 222 249 299
#     4   9  17  33  52  73 104 143 178 206 252 318
#
# _framework density 21.594829000000001
#
# number of rings (size 3 to 8) (size 9 to 14) (size 15 to 20)
#    0.000    2.750    5.000    1.500    0.000    2.000 
#    0.000    7.500    0.000    0.000    0.000    0.000 
#    0.000    0.000    0.000    0.000    0.000    0.000 
#
# Total GULP energy -89119.573897 kJ/mol
# GULP energy per Si atom -5569.973369 kJ/mol
# Density = 2.154568 g / cm^3
# Si number density = 21.594829 Si / 1000 Ang^3
#
#
#
# Elastic Constant Matrix: (Units=GPa)
#
#
# Indices 1 2 3 4 5 6 
#
# 1 115.5021 59.1040 45.9218 0.0000 48.3175 0.0000
# 2 59.1040 231.2251 54.6018 0.0000 26.4978 0.0000
# 3 45.9218 54.6018 66.2536 0.0000 47.6435 0.0000
# 4 0.0000 0.0000 0.0000 42.2000 0.0000 16.5277
# 5 48.3175 26.4978 47.6435 0.0000 43.6770 0.0000
# 6 0.0000 0.0000 0.0000 16.5277 0.0000 15.8911
#
#
#
# Elastic Compliance Matrix: (Units=1/GPa)
#
#
# Indices 1 2 3 4 5 6 
#
# 1 0.020666 -0.005138 0.019059 0.000000 -0.040534 0.000000
# 2 -0.005138 0.007197 -0.015389 0.000000 0.018104 0.000000
# 3 0.019059 -0.015389 0.106749 0.000000 -0.128190 0.000000
# 4 0.000000 0.000000 0.000000 0.039984 0.000000 -0.041585
# 5 -0.040534 0.018104 -0.128190 0.000000 0.196584 0.000000
# 6 0.000000 0.000000 0.000000 -0.041585 0.000000 0.106179
#
#
# Mechanical properties :
#
#
# Convention : Reuss Voigt Hill
#
# Bulk Modulus (GPa) = 7.59444 81.35956 44.47700
# Shear Modulus (GPa) = 9.53856 37.24383 23.39119
#
# Velocity S-wave (km/s) = 2.10396 4.15741 3.29475
# Velocity P-wave (km/s) = 3.07028 7.79761 5.92576
#
# Compressibility (1/GPa) = 0.13167530
#
# Stress axis : x y z
#
# Youngs Moduli (GPa) = 48.38855 138.93811 9.36778
#
# Poissons Ratio (x) = 0.71385 -0.17854
# Poissons Ratio (y) = 0.24862 0.14416
# Poissons Ratio (z) = -0.92221 2.13814
#
# Static dielectric constant tensor:
#      x y z
#    x 1.901780 0.000000 -0.067840 
#    y 0.000000 1.786360 0.000000 
#    z -0.067840 0.000000 1.852080 
# 
# From -- ./inp_files/67233.got.cif
#   From: 2010.05.17/outbox.cif.g08.bks.cpg/sg12_34_cif.got.tgz:67233.got - 2010.06.03 13:09:07.
