data_PCOD9197937
_publ_section_title
;
Structure prediction by ZEFSAII (Michael W. Deem and Ramdas Pophale) SiO2 
 PCOD9197937
Probable space group: C 2/M
;
_chemical_formula_sum "Si O2"
_cell_formula_units_Z 64
_cell_length_a 27.690598
_cell_length_b 14.211170
_cell_length_c 9.643810
_cell_angle_alpha 90.000000
_cell_angle_beta 75.165061
_cell_angle_gamma 90.000000
_cell_volume 3668.494773
_symmetry_space_group_name_H-M "C 2/M"
_symmetry_group_IT_number 12
_symmetry_cell_setting 'monoclinic'
loop_
_space_group_symop_operation_xyz
x,y,z
-x,y,-z
-x,-y,-z
x,-y,z
1/2+x,1/2+y,z
1/2-x,1/2+y,-z
1/2-x,1/2-y,-z
1/2+x,1/2-y,z
loop_
_atom_site_type_symbol
_atom_site_label
_atom_site_fract_x
_atom_site_fract_y
_atom_site_fract_z
Si Si1 0.377437 0.792516 0.261623
Si Si2 0.798069 0.109148 0.599586
Si Si3 0.678251 0.609311 0.732219
Si Si4 0.729104 0.113497 0.154372
Si Si5 0.018146 0.391790 0.830027
Si Si6 0.203665 0.387001 0.859898
Si Si7 0.950635 0.390945 0.630865
Si Si8 0.353784 0.792740 0.591894
O O1 0.367201 0.681952 0.245448
O O2 0.434468 0.825083 0.224541
O O3 0.347150 0.844803 0.162919
O O4 0.353478 0.817869 0.428843
O O5 0.792658 0.116623 0.436911
O O6 0.748296 0.136048 0.719821
O O7 0.841157 0.182061 0.609378
O O8 0.809517 0.000000 0.622761
O O9 0.663906 0.500000 0.759636
O O10 0.716195 0.637983 0.826389
O O11 0.688225 0.154842 0.288476
O O12 0.726215 0.000000 0.160874
O O13 0.718152 0.143624 0.004701
O O14 0.033021 0.500000 0.782370
O O15 0.971282 0.368054 0.767540
O O16 0.000000 0.390048 0.000000
O O17 0.198969 0.500000 0.865640
O O18 0.932979 0.500000 0.640017
O O19 0.907123 0.323807 0.611342
O O20 0.000000 0.384607 0.500000
#
# Coordination Sequence:
#
# PCOD9197937 Si02
#       8
#     8   8   8   8   8   8   8   8
#     4  11  21  34  55  79 103 137 177 214 257 307
#     4   9  19  36  54  74 105 141 175 214 257 302
#     4   9  19  36  55  75 103 139 177 215 255 302
#     4  10  21  34  50  78 111 140 172 211 256 309
#     4  10  22  38  55  77 106 135 166 208 260 314
#     4  10  21  34  50  77 112 142 170 209 258 310
#     4  10  20  36  55  77 105 134 165 208 260 310
#     4  11  21  33  55  80 103 136 179 215 253 308
#
# _framework density 17.445847000000001
#
# number of rings (size 3 to 8) (size 9 to 14) (size 15 to 20)
#    0.000    2.000    1.250    2.250    1.750    6.500 
#    0.000    0.000    0.000    1.500    0.000    0.000 
#    0.000    0.000    0.000    0.000    0.000    0.000 
#
# Total GULP energy -178591.787651 kJ/mol
# GULP energy per Si atom -5580.993364 kJ/mol
# Density = 1.740614 g / cm^3
# Si number density = 17.445847 Si / 1000 Ang^3
#
#
#
# Elastic Constant Matrix: (Units=GPa)
#
#
# Indices 1 2 3 4 5 6 
#
# 1 73.5271 39.3483 16.0114 0.0000 20.8576 0.0000
# 2 39.3483 51.9529 21.4467 0.0000 11.5947 0.0000
# 3 16.0114 21.4467 57.3089 0.0000 21.4901 0.0000
# 4 0.0000 0.0000 0.0000 17.8064 0.0000 2.8849
# 5 20.8576 11.5947 21.4901 0.0000 29.0705 0.0000
# 6 0.0000 0.0000 0.0000 2.8849 0.0000 30.6705
#
#
#
# Elastic Compliance Matrix: (Units=1/GPa)
#
#
# Indices 1 2 3 4 5 6 
#
# 1 0.027327 -0.019455 0.005656 0.000000 -0.016028 0.000000
# 2 -0.019455 0.036931 -0.011201 0.000000 0.007509 0.000000
# 3 0.005656 -0.011201 0.027542 0.000000 -0.019951 0.000000
# 4 0.000000 0.000000 0.000000 0.057029 0.000000 -0.005364
# 5 -0.016028 0.007509 -0.019951 0.000000 0.057653 0.000000
# 6 0.000000 0.000000 0.000000 -0.005364 0.000000 0.033109
#
#
# Mechanical properties :
#
#
# Convention : Reuss Voigt Hill
#
# Bulk Modulus (GPa) = 23.92290 37.37798 30.65044
# Shear Modulus (GPa) = 16.47317 22.57496 19.52407
#
# Velocity S-wave (km/s) = 3.07619 3.60113 3.34896
# Velocity P-wave (km/s) = 5.13417 6.22595 5.70623
#
# Compressibility (1/GPa) = 0.04180095
#
# Stress axis : x y z
#
# Youngs Moduli (GPa) = 36.59417 27.07750 36.30788
#
# Poissons Ratio (x) = 0.52678 -0.20537
# Poissons Ratio (y) = 0.71193 0.40669
# Poissons Ratio (z) = -0.20698 0.30330
#
# Static dielectric constant tensor:
#      x y z
#    x 1.560660 0.000000 0.020160 
#    y 0.000000 1.610460 0.000000 
#    z 0.020160 0.000000 1.625720 
# 
# From -- ./inp_files/104534.got.cif
#   From: 2010.05.17/outbox.cif.g08.bks.cpg/sg12_53_cif.got.tgz:104534.got - 2010.06.03 13:09:07.
