data_PCOD9197845
_publ_section_title
;
Structure prediction by ZEFSAII (Michael W. Deem and Ramdas Pophale) SiO2 
 PCOD9197845
Probable space group: C 2/M
;
_chemical_formula_sum "Si O2"
_cell_formula_units_Z 44
_cell_length_a 8.831640
_cell_length_b 25.412291
_cell_length_c 14.087316
_cell_angle_alpha 90.000000
_cell_angle_beta 45.903729
_cell_angle_gamma 90.000000
_cell_volume 2270.605337
_symmetry_space_group_name_H-M "C 2/M"
_symmetry_group_IT_number 12
_symmetry_cell_setting 'monoclinic'
loop_
_space_group_symop_operation_xyz
x,y,z
-x,y,-z
-x,-y,-z
x,-y,z
1/2+x,1/2+y,z
1/2-x,1/2+y,-z
1/2-x,1/2-y,-z
1/2+x,1/2-y,z
loop_
_atom_site_type_symbol
_atom_site_label
_atom_site_fract_x
_atom_site_fract_y
_atom_site_fract_z
Si Si1 0.041772 0.305843 0.646119
Si Si2 0.520807 0.000000 0.272919
Si Si3 0.072295 0.085945 0.229184
Si Si4 0.195886 0.500000 0.985523
Si Si5 0.840373 0.806014 0.329173
Si Si6 0.257999 0.402858 0.641891
Si Si7 0.260840 0.000000 0.635661
O O1 0.060392 0.251152 0.694902
O O2 0.203940 0.311759 0.486053
O O3 0.118691 0.351637 0.682125
O O4 0.816889 0.308135 0.691918
O O5 0.367933 0.950160 0.351758
O O6 0.712385 0.000000 0.262668
O O7 0.618365 0.000000 0.126008
O O8 0.174991 0.052801 0.098984
O O9 0.221468 0.084200 0.255881
O O10 0.002414 0.146032 0.246938
O O11 0.864137 0.051437 0.342519
O O12 0.000000 0.500000 0.000000
O O13 0.500000 0.396449 0.500000
O O14 0.500000 0.000000 0.500000
#
# Coordination Sequence:
#
# PCOD9197845 Si02
#       7
#     8   4   8   4   8   8   4
#     4  10  21  33  57  84 126 154 200 235 326 369
#     4  12  24  40  64  83 123 166 207 250 310 357
#     4  11  22  37  60  82 123 156 208 252 299 357
#     4  11  23  45  60  88 114 170 218 255 290 357
#     4  10  20  36  53  87 119 162 192 256 293 385
#     4  12  21  35  57  91 119 160 196 251 310 383
#     4  11  24  38  56  93 125 156 189 257 316 379
#
# _framework density 19.378093
#
# number of rings (size 3 to 8) (size 9 to 14) (size 15 to 20)
#    0.000    1.091    3.636    4.091    5.091    1.455 
#    0.000    0.000    0.000    1.091    0.000    0.000 
#    0.000    0.000    0.000    0.000    0.000    0.000 
#
# Total GULP energy -122817.561258 kJ/mol
# GULP energy per Si atom -5582.616421 kJ/mol
# Density = 1.933399 g / cm^3
# Si number density = 19.378093 Si / 1000 Ang^3
#
#
#
# Elastic Constant Matrix: (Units=GPa)
#
#
# Indices 1 2 3 4 5 6 
#
# 1 128.2757 56.8808 14.4835 0.0000 10.9729 0.0000
# 2 56.8808 161.8084 18.7933 0.0000 -7.3478 0.0000
# 3 14.4835 18.7933 60.0019 0.0000 7.1894 0.0000
# 4 0.0000 0.0000 0.0000 0.0237 0.0000 -17.3581
# 5 10.9729 -7.3478 7.1894 0.0000 26.7851 0.0000
# 6 0.0000 0.0000 0.0000 -17.3581 0.0000 21.1885
#
#
#
# Elastic Compliance Matrix: (Units=1/GPa)
#
#
# Indices 1 2 3 4 5 6 
#
# 1 0.009893 -0.003621 -0.000671 0.000000 -0.004866 0.000000
# 2 -0.003621 0.007888 -0.002101 0.000000 0.004211 0.000000
# 3 -0.000671 -0.002101 0.018105 0.000000 -0.005161 0.000000
# 4 0.000000 0.000000 0.000000 -0.070441 0.000000 -0.057706
# 5 -0.004866 0.004211 -0.005161 0.000000 0.041868 0.000000
# 6 0.000000 0.000000 0.000000 -0.057706 0.000000 -0.000079
#
#
# Mechanical properties :
#
#
# Convention : Reuss Voigt Hill
#
# Bulk Modulus (GPa) = 43.28993 58.93348 51.11170
# Shear Modulus (GPa) = 180.36893 26.92802 103.64848
#
# Velocity S-wave (km/s) = 9.65820 3.73179 7.32145
# Velocity P-wave (km/s) = 12.11456 7.00334 9.89468
#
# Compressibility (1/GPa) = 0.02310006
#
# Stress axis : x y z
#
# Youngs Moduli (GPa) = 101.07853 126.77034 55.23451
#
# Poissons Ratio (x) = 0.45902 0.03706
# Poissons Ratio (y) = 0.36599 0.11606
# Poissons Ratio (z) = 0.06782 0.26638
#
# Static dielectric constant tensor:
#      x y z
#    x 1.668240 0.000000 0.013190 
#    y 0.000000 1.676550 0.000000 
#    z 0.013190 0.000000 1.698430 
# 
# From -- ./inp_files/198258.got.cif
#   From: 2010.05.17/outbox.cif.g08.bks.cpg/sg12_100_cif.got.tgz:198258.got - 2010.06.03 13:09:07.
