data_PCOD9197000
_publ_section_title
;
Structure prediction by ZEFSAII (Michael W. Deem and Ramdas Pophale) SiO2 
 PCOD9197000
Probable space group: C 2/M
;
_chemical_formula_sum "Si O2"
_cell_formula_units_Z 58
_cell_length_a 24.548870
_cell_length_b 7.789964
_cell_length_c 15.256561
_cell_angle_alpha 90.000000
_cell_angle_beta 81.892297
_cell_angle_gamma 90.000000
_cell_volume 2888.423471
_symmetry_space_group_name_H-M "C 2/M"
_symmetry_group_IT_number 12
_symmetry_cell_setting 'monoclinic'
loop_
_space_group_symop_operation_xyz
x,y,z
-x,y,-z
-x,-y,-z
x,-y,z
1/2+x,1/2+y,z
1/2-x,1/2+y,-z
1/2-x,1/2-y,-z
1/2+x,1/2-y,z
loop_
_atom_site_type_symbol
_atom_site_label
_atom_site_fract_x
_atom_site_fract_y
_atom_site_fract_z
Si Si1 0.000000 0.500000 0.500000
Si Si2 0.503114 0.699163 0.628243
Si Si3 0.127224 0.195169 0.554629
Si Si4 0.791919 0.301810 0.315186
Si Si5 0.216405 0.292054 0.878207
Si Si6 0.830812 0.303891 0.637249
Si Si7 0.085266 0.291891 0.230535
Si Si8 0.833897 0.705598 0.931938
O O1 0.978087 0.346156 0.571581
O O2 0.495411 0.500000 0.602916
O O3 0.568065 0.742052 0.608669
O O4 0.474040 0.722241 0.728379
O O5 0.173391 0.209110 0.618247
O O6 0.143813 0.300505 0.465495
O O7 0.123009 0.000000 0.524345
O O8 0.809850 0.500000 0.313246
O O9 0.799474 0.231897 0.214980
O O10 0.727022 0.293066 0.349574
O O11 0.214755 0.500000 0.876822
O O12 0.278887 0.242511 0.888153
O O13 0.178718 0.229112 0.967317
O O14 0.817982 0.500000 0.664692
O O15 0.873360 0.237382 0.700195
O O16 0.082963 0.500000 0.229649
O O17 0.113461 0.231755 0.134100
O O18 0.838834 0.500000 0.937285
#
# Coordination Sequence:
#
# PCOD9197000 Si02
#       8
#     2   8   8   8   8   8   8   8
#     4  12  22  40  64  82 120 146 198 248 296 340
#     4  11  25  40  60  87 116 155 200 246 297 346
#     4  11  25  41  56  77 109 152 198 241 281 339
#     4  11  22  36  56  80 113 153 192 234 283 340
#     4   9  18  32  52  83 114 145 185 231 285 349
#     4  11  22  35  55  82 112 148 189 232 282 337
#     4  10  20  35  58  85 116 154 190 239 293 349
#     4   9  17  32  55  82 115 146 181 230 292 349
#
# _framework density 20.080158000000001
#
# number of rings (size 3 to 8) (size 9 to 14) (size 15 to 20)
#    0.000    1.655    2.069    2.690    3.862    3.310 
#    0.000    0.000    0.000    0.828    0.000    5.793 
#    0.000    0.000    0.000    0.000    0.000    0.000 
#
# Total GULP energy -161679.450770 kJ/mol
# GULP energy per Si atom -5575.153475 kJ/mol
# Density = 2.003445 g / cm^3
# Si number density = 20.080158 Si / 1000 Ang^3
#
#
#
# Elastic Constant Matrix: (Units=GPa)
#
#
# Indices 1 2 3 4 5 6 
#
# 1 56.9556 5.2906 28.6906 0.0000 -14.7263 0.0000
# 2 5.2906 56.8750 18.1019 0.0000 -6.1769 0.0000
# 3 28.6906 18.1019 91.8503 0.0000 -28.4847 0.0000
# 4 0.0000 0.0000 0.0000 7.9445 0.0000 -7.7884
# 5 -14.7263 -6.1769 -28.4847 0.0000 36.1355 0.0000
# 6 0.0000 0.0000 0.0000 -7.7884 0.0000 12.1182
#
#
#
# Elastic Compliance Matrix: (Units=1/GPa)
#
#
# Indices 1 2 3 4 5 6 
#
# 1 0.021393 0.000194 -0.005303 0.000000 0.004571 0.000000
# 2 0.000194 0.018765 -0.003626 0.000000 0.000428 0.000000
# 3 -0.005303 -0.003626 0.016407 0.000000 0.010152 0.000000
# 4 0.000000 0.000000 0.000000 0.340265 0.000000 0.218689
# 5 0.004571 0.000428 0.010152 0.000000 0.037612 0.000000
# 6 0.000000 0.000000 0.000000 0.218689 0.000000 0.223072
#
#
# Mechanical properties :
#
#
# Convention : Reuss Voigt Hill
#
# Bulk Modulus (GPa) = 25.57871 34.42745 30.00308
# Shear Modulus (GPa) = 7.26728 21.47948 14.37338
#
# Velocity S-wave (km/s) = 1.90447 3.27415 2.67835
# Velocity P-wave (km/s) = 4.19547 5.61032 4.95367
#
# Compressibility (1/GPa) = 0.03909502
#
# Stress axis : x y z
#
# Youngs Moduli (GPa) = 46.74489 53.29084 60.95066
#
# Poissons Ratio (x) = -0.01035 0.32322
# Poissons Ratio (y) = -0.00908 0.22101
# Poissons Ratio (z) = 0.24789 0.19323
#
# Static dielectric constant tensor:
#      x y z
#    x 1.711620 0.000000 -0.037710 
#    y 0.000000 1.715090 0.000000 
#    z -0.037710 0.000000 1.751950 
# 
# From -- ./inp_files/237565.got.cif
#   From: 2010.05.17/outbox.cif.g08.bks.cpg/sg12_119_cif.got.tgz:237565.got - 2010.06.03 13:09:07.
