data_PCOD9197660
_publ_section_title
;
Structure prediction by ZEFSAII (Michael W. Deem and Ramdas Pophale) SiO2 
 PCOD9197660
Probable space group: C 2/M
;
_chemical_formula_sum "Si O2"
_cell_formula_units_Z 58
_cell_length_a 25.697327
_cell_length_b 13.823545
_cell_length_c 20.275888
_cell_angle_alpha 90.000000
_cell_angle_beta 19.708409
_cell_angle_gamma 90.000000
_cell_volume 2428.946137
_symmetry_space_group_name_H-M "C 2/M"
_symmetry_group_IT_number 12
_symmetry_cell_setting 'monoclinic'
loop_
_space_group_symop_operation_xyz
x,y,z
-x,y,-z
-x,-y,-z
x,-y,z
1/2+x,1/2+y,z
1/2-x,1/2+y,-z
1/2-x,1/2-y,-z
1/2+x,1/2-y,z
loop_
_atom_site_type_symbol
_atom_site_label
_atom_site_fract_x
_atom_site_fract_y
_atom_site_fract_z
Si Si1 0.354822 0.891904 0.422375
Si Si2 0.257761 0.754487 0.633811
Si Si3 0.716101 0.886996 0.089253
Si Si4 0.581867 0.606514 0.657765
Si Si5 0.404650 0.392617 0.546279
Si Si6 0.208110 0.179701 0.142207
Si Si7 0.983439 0.667720 0.906708
Si Si8 0.000000 0.500000 0.000000
O O1 0.346387 0.851275 0.506735
O O2 0.175736 0.891395 0.613504
O O3 0.433227 0.842494 0.264868
O O4 0.415597 0.000000 0.349810
O O5 0.338571 0.684083 0.483492
O O6 0.297511 0.696648 0.652876
O O7 0.076472 0.753320 0.832740
O O8 0.657109 0.792189 0.198664
O O9 0.672785 0.000000 0.152068
O O10 0.696426 0.854291 0.036249
O O11 0.900775 0.880479 0.882597
O O12 0.612937 0.500000 0.592036
O O13 0.500000 0.383805 0.500000
O O14 0.327711 0.500000 0.634249
O O15 0.555455 0.385515 0.319581
O O16 0.308771 0.167513 0.087914
O O17 0.006065 0.583070 0.932986
#
# Coordination Sequence:
#
# PCOD9197660 Si02
#       8
#     8   8   8   8   8   8   8   2
#     4  10  20  36  60  92 124 156 205 261 307 358
#     4  11  21  38  62  87 120 160 209 255 305 364
#     4  10  20  35  61  91 124 159 200 254 319 365
#     4   9  16  31  55  86 118 153 192 244 304 363
#     4  11  26  42  62  85 120 162 206 247 307 387
#     4  11  23  39  58  90 126 159 202 257 308 372
#     4  11  25  39  60  90 128 164 205 252 318 378
#     4  12  28  40  60  94 138 172 198 256 336 386
#
# _framework density 23.878668000000001
#
# number of rings (size 3 to 8) (size 9 to 14) (size 15 to 20)
#    0.000    1.517    2.069    4.138    7.724    0.000 
#    0.000    0.000    0.000    1.655    0.000    0.966 
#    0.000    0.000    0.000    0.000    0.000    0.000 
#
# Total GULP energy -161454.202997 kJ/mol
# GULP energy per Si atom -5567.386310 kJ/mol
# Density = 2.382432 g / cm^3
# Si number density = 23.878668 Si / 1000 Ang^3
#
#
#
# Elastic Constant Matrix: (Units=GPa)
#
#
# Indices 1 2 3 4 5 6 
#
# 1 118.7627 -0.5683 15.3889 0.0001 -19.4835 -0.0001
# 2 -0.5683 77.8181 -13.0382 0.0003 6.3398 -0.0001
# 3 15.3889 -13.0382 40.6732 0.0008 -14.3534 -0.0003
# 4 0.0001 0.0003 0.0008 25.6080 -0.0004 8.9560
# 5 -19.4835 6.3398 -14.3534 -0.0004 34.3418 0.0001
# 6 -0.0001 -0.0001 -0.0003 8.9560 0.0001 28.0022
#
#
#
# Elastic Compliance Matrix: (Units=1/GPa)
#
#
# Indices 1 2 3 4 5 6 
#
# 1 0.009449 -0.000668 -0.002175 0.000000 0.004575 0.000000
# 2 -0.000668 0.013646 0.004228 0.000000 -0.001131 0.000000
# 3 -0.002175 0.004228 0.030561 -0.000001 0.010759 0.000001
# 4 0.000000 0.000000 -0.000001 0.043969 0.000000 -0.014063
# 5 0.004575 -0.001131 0.010759 0.000000 0.036420 0.000000
# 6 0.000000 0.000000 0.000001 -0.014063 0.000000 0.040209
#
#
# Mechanical properties :
#
#
# Convention : Reuss Voigt Hill
#
# Bulk Modulus (GPa) = 17.72204 26.75767 22.23985
# Shear Modulus (GPa) = 26.27521 33.28849 29.78185
#
# Velocity S-wave (km/s) = 3.32077 3.73777 3.53543
# Velocity P-wave (km/s) = 4.70544 5.46424 5.09898
#
# Compressibility (1/GPa) = 0.05642692
#
# Stress axis : x y z
#
# Youngs Moduli (GPa) = 105.82726 73.28078 32.72131
#
# Poissons Ratio (x) = 0.04896 0.07116
# Poissons Ratio (y) = 0.07071 -0.13835
# Poissons Ratio (z) = 0.23015 -0.30983
#
# Static dielectric constant tensor:
#      x y z
#    x 1.996990 0.000000 -0.007890 
#    y 0.000000 1.997880 0.000000 
#    z -0.007890 0.000000 2.051370 
# 
# From -- ./inp_files/328363.got.cif
#   From: 2010.05.17/outbox.cif.g08.bks.cpg/sg12_165_cif.got.tgz:328363.got - 2010.06.03 13:09:07.
