data_PCOD9197953
_publ_section_title
;
Structure prediction by ZEFSAII (Michael W. Deem and Ramdas Pophale) SiO2 
 PCOD9197953
Probable space group: C 2/M
;
_chemical_formula_sum "Si O2"
_cell_formula_units_Z 48
_cell_length_a 14.545395
_cell_length_b 8.486394
_cell_length_c 21.846030
_cell_angle_alpha 90.000000
_cell_angle_beta 92.449839
_cell_angle_gamma 90.000000
_cell_volume 2694.164573
_symmetry_space_group_name_H-M "C 2/M"
_symmetry_group_IT_number 12
_symmetry_cell_setting 'monoclinic'
loop_
_space_group_symop_operation_xyz
x,y,z
-x,y,-z
-x,-y,-z
x,-y,z
1/2+x,1/2+y,z
1/2-x,1/2+y,-z
1/2-x,1/2-y,-z
1/2+x,1/2-y,z
loop_
_atom_site_type_symbol
_atom_site_label
_atom_site_fract_x
_atom_site_fract_y
_atom_site_fract_z
Si Si1 0.492706 0.310416 0.404845
Si Si2 0.146344 0.312032 0.500392
Si Si3 0.648361 0.309615 0.838079
Si Si4 0.142690 0.309716 0.172317
Si Si5 0.990884 0.309655 0.069548
Si Si6 0.003389 0.190097 0.264564
O O1 0.488321 0.500000 0.407001
O O2 0.405846 0.243072 0.439527
O O3 0.583490 0.255123 0.443646
O O4 0.495264 0.258273 0.334427
O O5 0.145604 0.500000 0.497441
O O6 0.250000 0.250000 0.500000
O O7 0.648499 0.500000 0.839151
O O8 0.752851 0.254981 0.832886
O O9 0.599698 0.250063 0.898283
O O10 0.583042 0.258686 0.779821
O O11 0.142978 0.500000 0.173349
O O12 0.077245 0.259063 0.114113
O O13 0.093950 0.250640 0.232547
O O14 0.989155 0.500000 0.069299
O O15 0.000000 0.255122 0.000000
O O16 0.005117 0.000000 0.264277
#
# Coordination Sequence:
#
# PCOD9197953 Si02
#       6
#     8   8   8   8   8   8
#     4  10  20  36  55  78 107 137 171 213 259 309
#     4  11  22  37  56  79 106 138 174 213 257 305
#     4   9  18  33  50  71  98 128 164 204 247 296
#     4   9  18  32  50  71  98 132 168 206 248 298
#     4   9  18  32  48  69  98 130 165 207 253 298
#     4   9  19  34  52  74 101 130 162 204 250 296
#
# _framework density 17.816282999999999
#
# number of rings (size 3 to 8) (size 9 to 14) (size 15 to 20)
#    0.000    2.500    0.000    3.000    0.000    4.333 
#    0.000    1.667    0.000    0.000    0.000    0.000 
#    0.000    0.000    0.000    0.000    0.000    0.000 
#
# Total GULP energy -133898.377222 kJ/mol
# GULP energy per Si atom -5579.099051 kJ/mol
# Density = 1.777573 g / cm^3
# Si number density = 17.816283 Si / 1000 Ang^3
#
#
#
# Elastic Constant Matrix: (Units=GPa)
#
#
# Indices 1 2 3 4 5 6 
#
# 1 148.7731 15.0172 79.3632 0.0000 -30.7548 0.0000
# 2 15.0172 25.9119 16.2214 0.0000 -0.7417 0.0000
# 3 79.3632 16.2214 175.3835 0.0000 -8.6365 0.0000
# 4 0.0000 0.0000 0.0000 27.7916 0.0000 -6.9347
# 5 -30.7548 -0.7417 -8.6365 0.0000 13.7693 0.0000
# 6 0.0000 0.0000 0.0000 -6.9347 0.0000 23.9183
#
#
#
# Elastic Compliance Matrix: (Units=1/GPa)
#
#
# Indices 1 2 3 4 5 6 
#
# 1 0.017743 -0.005663 -0.005746 0.000000 0.035721 0.000000
# 2 -0.005663 0.042772 -0.001963 0.000000 -0.011577 0.000000
# 3 -0.005746 -0.001963 0.008096 0.000000 -0.007862 0.000000
# 4 0.000000 0.000000 0.000000 0.038788 0.000000 0.011246
# 5 0.035721 -0.011577 -0.007862 0.000000 0.146855 0.000000
# 6 0.000000 0.000000 0.000000 0.011246 0.000000 0.045070
#
#
# Mechanical properties :
#
#
# Convention : Reuss Voigt Hill
#
# Bulk Modulus (GPa) = 23.88567 63.47468 43.68017
# Shear Modulus (GPa) = 14.70480 29.06029 21.88254
#
# Velocity S-wave (km/s) = 2.87602 4.04308 3.50842
# Velocity P-wave (km/s) = 4.94615 7.58288 6.40173
#
# Compressibility (1/GPa) = 0.04186611
#
# Stress axis : x y z
#
# Youngs Moduli (GPa) = 56.36104 23.37965 123.51167
#
# Poissons Ratio (x) = 0.13240 0.70970
# Poissons Ratio (y) = 0.31918 0.24251
# Poissons Ratio (z) = 0.32385 0.04591
#
# Static dielectric constant tensor:
#      x y z
#    x 1.593850 0.000000 0.012620 
#    y 0.000000 1.607700 0.000000 
#    z 0.012620 0.000000 1.593010 
# 
# From -- ./inp_files/308315.got.cif
#   From: 2010.05.17/outbox.cif.g08.bks.cpg/sg12_155_cif.got.tgz:308315.got - 2010.06.03 13:09:07.
