data_PCOD9197295
_publ_section_title
;
Structure prediction by ZEFSAII (Michael W. Deem and Ramdas Pophale) SiO2 
 PCOD9197295
Probable space group: C 2/M
;
_chemical_formula_sum "Si O2"
_cell_formula_units_Z 48
_cell_length_a 20.276842
_cell_length_b 8.895193
_cell_length_c 27.148073
_cell_angle_alpha 90.000000
_cell_angle_beta 33.514208
_cell_angle_gamma 90.000000
_cell_volume 2703.627550
_symmetry_space_group_name_H-M "C 2/M"
_symmetry_group_IT_number 12
_symmetry_cell_setting 'monoclinic'
loop_
_space_group_symop_operation_xyz
x,y,z
-x,y,-z
-x,-y,-z
x,-y,z
1/2+x,1/2+y,z
1/2-x,1/2+y,-z
1/2-x,1/2-y,-z
1/2+x,1/2-y,z
loop_
_atom_site_type_symbol
_atom_site_label
_atom_site_fract_x
_atom_site_fract_y
_atom_site_fract_z
Si Si1 0.862084 0.819422 0.079741
Si Si2 0.016027 0.675657 0.548355
Si Si3 0.714025 0.819942 0.074360
Si Si4 0.851368 0.177980 0.728668
Si Si5 0.996803 0.821362 0.266581
Si Si6 0.248368 0.679019 0.555344
O O1 0.810231 0.784590 0.057626
O O2 0.774121 0.741084 0.173453
O O3 0.853730 0.000000 0.091472
O O4 0.000000 0.775130 0.000000
O O5 0.033907 0.500000 0.549674
O O6 0.131325 0.768984 0.493023
O O7 0.000000 0.688906 0.500000
O O8 0.903415 0.737813 0.648978
O O9 0.589699 0.750558 0.170683
O O10 0.705037 0.000000 0.076332
O O11 0.750000 0.750000 0.000000
O O12 0.945085 0.202695 0.715350
O O13 0.843995 0.000000 0.724461
O O14 0.868653 0.743585 0.345073
O O15 0.986582 0.000000 0.265299
O O16 0.242810 0.500000 0.555314
O O17 0.250000 0.750000 0.500000
#
# Coordination Sequence:
#
# PCOD9197295 Si02
#       6
#     8   8   8   8   8   8
#     4   9  19  37  60  83 109 147 192 236 282 340
#     4  11  24  41  60  84 117 157 194 237 291 345
#     4  10  20  36  58  84 115 150 187 236 291 344
#     4  10  20  35  59  86 114 150 189 239 289 339
#     4  10  20  36  59  87 115 149 193 239 286 342
#     4  12  23  37  61  89 117 151 193 241 285 342
#
# _framework density 17.753924999999999
#
# number of rings (size 3 to 8) (size 9 to 14) (size 15 to 20)
#    0.000    1.667    1.667    3.500    0.000    3.667 
#    3.000    0.000    0.000    0.000    0.000    0.000 
#    0.000    0.000    0.000    0.000    0.000    0.000 
#
# Total GULP energy -134091.140980 kJ/mol
# GULP energy per Si atom -5587.130874 kJ/mol
# Density = 1.771352 g / cm^3
# Si number density = 17.753925 Si / 1000 Ang^3
#
#
#
# Elastic Constant Matrix: (Units=GPa)
#
#
# Indices 1 2 3 4 5 6 
#
# 1 56.2014 48.3758 65.6823 0.0000 -1.6617 0.0001
# 2 48.3758 108.6979 78.2665 -0.0002 6.3168 0.0003
# 3 65.6823 78.2665 166.9575 0.0000 2.1548 0.0000
# 4 0.0000 -0.0002 0.0000 37.7988 0.0000 -0.0785
# 5 -1.6617 6.3168 2.1548 0.0000 35.5649 0.0000
# 6 0.0001 0.0003 0.0000 -0.0785 0.0000 25.8196
#
#
#
# Elastic Compliance Matrix: (Units=1/GPa)
#
#
# Indices 1 2 3 4 5 6 
#
# 1 0.038979 -0.009830 -0.010781 0.000000 0.004220 0.000000
# 2 -0.009830 0.016521 -0.003837 0.000000 -0.003161 0.000000
# 3 -0.010781 -0.003837 0.012036 0.000000 -0.000552 0.000000
# 4 0.000000 0.000000 0.000000 0.026456 0.000000 0.000080
# 5 0.004220 -0.003161 -0.000552 0.000000 0.028910 0.000000
# 6 0.000000 0.000000 0.000000 0.000080 0.000000 0.038731
#
#
# Mechanical properties :
#
#
# Convention : Reuss Voigt Hill
#
# Bulk Modulus (GPa) = 53.64522 79.61178 66.62850
# Shear Modulus (GPa) = 23.06897 29.13881 26.10389
#
# Velocity S-wave (km/s) = 3.60859 4.05564 3.83863
# Velocity P-wave (km/s) = 6.90247 8.17741 7.56684
#
# Compressibility (1/GPa) = 0.01864099
#
# Stress axis : x y z
#
# Youngs Moduli (GPa) = 25.65497 60.52935 83.08073
#
# Poissons Ratio (x) = 0.59501 0.89568
# Poissons Ratio (y) = 0.25219 0.31875
# Poissons Ratio (z) = 0.27658 0.23223
#
# Static dielectric constant tensor:
#      x y z
#    x 1.589230 0.000000 -0.003770 
#    y 0.000000 1.590630 0.000000 
#    z -0.003770 0.000000 1.589540 
# 
# From -- ./inp_files/365355.got.cif
#   From: 2010.05.17/outbox.cif.g08.bks.cpg/sg12_183_cif.got.tgz:365355.got - 2010.06.03 13:09:07.
