data_PCOD9197471
_publ_section_title
;
Structure prediction by ZEFSAII (Michael W. Deem and Ramdas Pophale) SiO2 
 PCOD9197471
Probable space group: C 2/M
;
_chemical_formula_sum "Si O2"
_cell_formula_units_Z 56
_cell_length_a 8.733720
_cell_length_b 17.777312
_cell_length_c 18.110816
_cell_angle_alpha 90.000000
_cell_angle_beta 71.796587
_cell_angle_gamma 90.000000
_cell_volume 2671.195653
_symmetry_space_group_name_H-M "C 2/M"
_symmetry_group_IT_number 12
_symmetry_cell_setting 'monoclinic'
loop_
_space_group_symop_operation_xyz
x,y,z
-x,y,-z
-x,-y,-z
x,-y,z
1/2+x,1/2+y,z
1/2-x,1/2+y,-z
1/2-x,1/2-y,-z
1/2+x,1/2-y,z
loop_
_atom_site_type_symbol
_atom_site_label
_atom_site_fract_x
_atom_site_fract_y
_atom_site_fract_z
Si Si1 0.475214 0.790915 0.686210
Si Si2 0.628535 0.685052 0.544197
Si Si3 0.126151 0.091518 0.919158
Si Si4 0.723799 0.182784 0.776802
Si Si5 0.509284 0.089255 0.087216
Si Si6 0.482413 0.584719 0.223627
Si Si7 0.185866 0.416350 0.381664
O O1 0.538324 0.721254 0.628104
O O2 0.611559 0.817964 0.721735
O O3 0.318862 0.762465 0.755821
O O4 0.434776 0.855461 0.633636
O O5 0.500000 0.667880 0.500000
O O6 0.750000 0.750000 0.500000
O O7 0.733045 0.615006 0.556420
O O8 0.310353 0.108513 0.912132
O O9 0.067062 0.118658 0.848013
O O10 0.120632 0.000000 0.918414
O O11 0.000000 0.117534 0.000000
O O12 0.610968 0.150824 0.859388
O O13 0.873054 0.126296 0.758746
O O14 0.476188 0.000000 0.112867
O O15 0.500000 0.092241 0.000000
O O16 0.537723 0.500000 0.200405
O O17 0.327719 0.581632 0.299156
O O18 0.119375 0.500000 0.399829
#
# Coordination Sequence:
#
# PCOD9197471 Si02
#       7
#     8   8   8   8   8   8   8
#     4  12  24  43  66  99 130 179 227 277 339 419
#     4  12  23  44  74  98 132 179 219 272 342 415
#     4   9  17  32  55  87 133 181 221 270 337 400
#     4  12  22  39  66  92 133 177 234 277 339 404
#     4  10  21  37  62 100 138 177 228 286 344 402
#     4  10  20  35  59  94 133 171 221 281 337 395
#     4  11  24  44  68 102 137 173 224 283 335 404
#
# _framework density 20.964393999999999
#
# number of rings (size 3 to 8) (size 9 to 14) (size 15 to 20)
#    0.000    1.143    4.286    2.143    0.000    4.857 
#    0.000    2.143    0.000    1.714    0.000    0.000 
#    0.000    0.000    0.000    0.000    0.000    0.000 
#
# Total GULP energy -156344.080793 kJ/mol
# GULP energy per Si atom -5583.717171 kJ/mol
# Density = 2.091668 g / cm^3
# Si number density = 20.964394 Si / 1000 Ang^3
#
#
#
# Elastic Constant Matrix: (Units=GPa)
#
#
# Indices 1 2 3 4 5 6 
#
# 1 119.5436 31.8296 29.9755 0.0000 25.0200 0.0000
# 2 31.8296 81.5388 18.5752 0.0000 7.8420 0.0000
# 3 29.9755 18.5752 88.2024 0.0000 5.2236 0.0000
# 4 0.0000 0.0000 0.0000 32.9897 0.0000 10.0828
# 5 25.0200 7.8420 5.2236 0.0000 45.2092 0.0000
# 6 0.0000 0.0000 0.0000 10.0828 0.0000 43.9021
#
#
#
# Elastic Compliance Matrix: (Units=1/GPa)
#
#
# Indices 1 2 3 4 5 6 
#
# 1 0.010990 -0.003160 -0.002761 0.000000 -0.005215 0.000000
# 2 -0.003160 0.013961 -0.001839 0.000000 -0.000461 0.000000
# 3 -0.002761 -0.001839 0.012640 0.000000 0.000386 0.000000
# 4 0.000000 0.000000 0.000000 0.032601 0.000000 -0.007487
# 5 -0.005215 -0.000461 0.000386 0.000000 0.025041 0.000000
# 6 0.000000 0.000000 0.000000 -0.007487 0.000000 0.024498
#
#
# Mechanical properties :
#
#
# Convention : Reuss Voigt Hill
#
# Bulk Modulus (GPa) = 45.30557 50.00502 47.65530
# Shear Modulus (GPa) = 35.06145 38.34717 36.70431
#
# Velocity S-wave (km/s) = 4.09397 4.28150 4.18879
# Velocity P-wave (km/s) = 6.63363 6.95312 6.79525
#
# Compressibility (1/GPa) = 0.02207234
#
# Stress axis : x y z
#
# Youngs Moduli (GPa) = 90.98997 71.62938 79.11265
#
# Poissons Ratio (x) = 0.22632 0.21841
# Poissons Ratio (y) = 0.28750 0.14549
# Poissons Ratio (z) = 0.25120 0.13173
#
# Static dielectric constant tensor:
#      x y z
#    x 1.730350 0.000000 -0.032870 
#    y 0.000000 1.838560 0.000000 
#    z -0.032870 0.000000 1.774900 
# 
# From -- ./inp_files/257020.got.cif
#   From: 2010.05.17/outbox.cif.g08.bks.cpg/sg12_129_cif.got.tgz:257020.got - 2010.06.03 13:09:07.
