data_PCOD9197644
_publ_section_title
;
Structure prediction by ZEFSAII (Michael W. Deem and Ramdas Pophale) SiO2 
 PCOD9197644
Probable space group: C 2/M
;
_chemical_formula_sum "Si O2"
_cell_formula_units_Z 40
_cell_length_a 16.285578
_cell_length_b 11.169373
_cell_length_c 10.412125
_cell_angle_alpha 90.000000
_cell_angle_beta 104.924217
_cell_angle_gamma 90.000000
_cell_volume 1830.073922
_symmetry_space_group_name_H-M "C 2/M"
_symmetry_group_IT_number 12
_symmetry_cell_setting 'monoclinic'
loop_
_space_group_symop_operation_xyz
x,y,z
-x,y,-z
-x,-y,-z
x,-y,z
1/2+x,1/2+y,z
1/2-x,1/2+y,-z
1/2-x,1/2-y,-z
1/2+x,1/2-y,z
loop_
_atom_site_type_symbol
_atom_site_label
_atom_site_fract_x
_atom_site_fract_y
_atom_site_fract_z
Si Si1 0.922133 0.500000 0.575700
Si Si2 0.976359 0.702442 0.250472
Si Si3 0.580592 0.637076 0.431565
Si Si4 0.800769 0.500000 0.770333
Si Si5 0.905796 0.500000 0.071965
Si Si6 0.205058 0.500000 0.713282
Si Si7 0.198003 0.240535 0.680802
O O1 0.981262 0.613931 0.627309
O O2 0.855189 0.500000 0.663423
O O3 0.869774 0.500000 0.424025
O O4 0.042182 0.811291 0.284157
O O5 0.961840 0.618051 0.122751
O O6 0.884258 0.744979 0.260098
O O7 0.500000 0.639654 0.500000
O O8 0.608104 0.500000 0.433097
O O9 0.656389 0.713774 0.524736
O O10 0.747439 0.622763 0.744047
O O11 0.859110 0.500000 0.919267
O O12 0.836913 0.500000 0.161701
O O13 0.245807 0.368678 0.708418
#
# Coordination Sequence:
#
# PCOD9197644 Si02
#       7
#     4   8   8   4   4   4   8
#     4  11  22  38  64  95 128 161 209 276 317 379
#     4   9  19  34  61  87 114 162 220 257 300 361
#     4   9  15  27  53  90 118 149 207 275 308 343
#     4  12  26  41  57  95 141 169 203 249 346 383
#     4   9  22  38  62  87 124 173 215 255 297 405
#     4  10  20  37  62  89 121 163 216 259 314 359
#     4  10  20  35  61  89 127 167 210 262 307 392
#
# _framework density 21.857040999999999
#
# number of rings (size 3 to 8) (size 9 to 14) (size 15 to 20)
#    0.000    2.200    3.000    0.600    4.200    7.200 
#    0.000    0.000    2.200    0.000    0.000    1.400 
#    0.000    0.000    0.000    0.000    0.000    0.000 
#
# Total GULP energy -111656.241178 kJ/mol
# GULP energy per Si atom -5582.812059 kJ/mol
# Density = 2.180729 g / cm^3
# Si number density = 21.857041 Si / 1000 Ang^3
#
#
#
# Elastic Constant Matrix: (Units=GPa)
#
#
# Indices 1 2 3 4 5 6 
#
# 1 64.3936 39.5325 26.7898 0.0000 -4.6306 0.0000
# 2 39.5325 181.9934 29.8672 0.0000 12.6599 0.0000
# 3 26.7898 29.8672 84.7341 0.0000 11.2612 0.0000
# 4 0.0000 0.0000 0.0000 19.1819 0.0000 21.6279
# 5 -4.6306 12.6599 11.2612 0.0000 25.9614 0.0000
# 6 0.0000 0.0000 0.0000 21.6279 0.0000 23.7290
#
#
#
# Elastic Compliance Matrix: (Units=1/GPa)
#
#
# Indices 1 2 3 4 5 6 
#
# 1 0.021407 -0.004195 -0.006440 0.000000 0.008657 0.000000
# 2 -0.004195 0.006761 -0.000551 0.000000 -0.003806 0.000000
# 3 -0.006440 -0.000551 0.015014 0.000000 -0.007393 0.000000
# 4 0.000000 0.000000 0.000000 -1.883310 0.000000 1.716553
# 5 0.008657 -0.003806 -0.007393 0.000000 0.045126 0.000000
# 6 0.000000 0.000000 0.000000 1.716553 0.000000 -1.522420
#
#
# Mechanical properties :
#
#
# Convention : Reuss Voigt Hill
#
# Bulk Modulus (GPa) = 48.05346 58.16670 53.11008
# Shear Modulus (GPa) = -1.52063 29.43657 13.95797
#
# Velocity S-wave (km/s) = -0.83500 3.67383 2.52980
# Velocity P-wave (km/s) = 4.59385 6.68327 5.73453
#
# Compressibility (1/GPa) = 0.02081016
#
# Stress axis : x y z
#
# Youngs Moduli (GPa) = 46.71400 147.90251 66.60296
#
# Poissons Ratio (x) = 0.62051 0.42891
# Poissons Ratio (y) = 0.19598 0.03669
# Poissons Ratio (z) = 0.30083 0.08148
#
# Static dielectric constant tensor:
#      x y z
#    x 1.837940 0.000000 -0.017790 
#    y 0.000000 1.902930 0.000000 
#    z -0.017790 0.000000 1.746080 
# 
# From -- ./inp_files/141158.got.cif
#   From: 2010.05.17/outbox.cif.g08.bks.cpg/sg12_71_cif.got.tgz:141158.got - 2010.06.03 13:09:07.
