data_PCOD9197113
_publ_section_title
;
Structure prediction by ZEFSAII (Michael W. Deem and Ramdas Pophale) SiO2 
 PCOD9197113
Probable space group: C 2/M
;
_chemical_formula_sum "Si O2"
_cell_formula_units_Z 56
_cell_length_a 9.561375
_cell_length_b 26.079308
_cell_length_c 12.131474
_cell_angle_alpha 90.000000
_cell_angle_beta 68.197319
_cell_angle_gamma 90.000000
_cell_volume 2808.646857
_symmetry_space_group_name_H-M "C 2/M"
_symmetry_group_IT_number 12
_symmetry_cell_setting 'monoclinic'
loop_
_space_group_symop_operation_xyz
x,y,z
-x,y,-z
-x,-y,-z
x,-y,z
1/2+x,1/2+y,z
1/2-x,1/2+y,-z
1/2-x,1/2-y,-z
1/2+x,1/2-y,z
loop_
_atom_site_type_symbol
_atom_site_label
_atom_site_fract_x
_atom_site_fract_y
_atom_site_fract_z
Si Si1 0.323102 0.055364 0.575422
Si Si2 0.163345 0.184421 0.314532
Si Si3 0.396834 0.797418 0.640528
Si Si4 0.330641 0.439858 0.001225
Si Si5 0.359048 0.106752 0.126513
Si Si6 0.097153 0.600850 0.224877
Si Si7 0.666704 0.343231 0.557210
O O1 0.500000 0.057075 0.500000
O O2 0.328146 0.065430 0.703977
O O3 0.243141 0.101457 0.537484
O O4 0.259915 0.000000 0.566148
O O5 0.113841 0.242182 0.300910
O O6 0.280654 0.157814 0.198802
O O7 0.209548 0.184668 0.430466
O O8 0.009813 0.151945 0.369652
O O9 0.500000 0.795956 0.500000
O O10 0.437300 0.844545 0.708285
O O11 0.234549 0.811659 0.638517
O O12 0.288916 0.500000 0.030815
O O13 0.229747 0.399164 0.097364
O O14 0.500000 0.434736 0.000000
O O15 0.273753 0.425909 0.893582
O O16 0.446691 0.082017 0.206304
O O17 0.500000 0.115315 0.000000
#
# Coordination Sequence:
#
# PCOD9197113 Si02
#       7
#     8   8   8   8   8   8   8
#     4  10  20  35  58  87 123 162 201 251 316 378
#     4  11  22  37  60  87 128 164 206 256 314 360
#     4  11  21  36  62  93 124 165 204 249 310 375
#     4  10  23  43  65  89 117 158 208 259 314 367
#     4  10  23  41  61  88 122 159 208 259 305 367
#     4  10  21  38  62  89 120 156 205 259 302 370
#     4  10  21  36  58  92 123 162 208 258 301 385
#
# _framework density 19.938427000000001
#
# number of rings (size 3 to 8) (size 9 to 14) (size 15 to 20)
#    0.000    1.714    1.429    4.286    6.000    3.143 
#    0.000    5.714    0.000    0.000    0.000    0.000 
#    0.000    0.000    0.000    0.000    0.000    0.000 
#
# Total GULP energy -155909.533815 kJ/mol
# GULP energy per Si atom -5568.197636 kJ/mol
# Density = 1.989305 g / cm^3
# Si number density = 19.938427 Si / 1000 Ang^3
#
#
#
# Elastic Constant Matrix: (Units=GPa)
#
#
# Indices 1 2 3 4 5 6 
#
# 1 93.7418 19.1449 12.2719 0.0000 10.1402 0.0000
# 2 19.1449 100.2038 10.6595 0.0000 -7.4813 0.0000
# 3 12.2719 10.6595 40.9801 0.0000 1.3398 0.0000
# 4 0.0000 0.0000 0.0000 26.7982 0.0000 -3.0211
# 5 10.1402 -7.4813 1.3398 0.0000 25.4102 0.0000
# 6 0.0000 0.0000 0.0000 -3.0211 0.0000 16.0991
#
#
#
# Elastic Compliance Matrix: (Units=1/GPa)
#
#
# Indices 1 2 3 4 5 6 
#
# 1 0.012115 -0.002417 -0.002823 0.000000 -0.005397 0.000000
# 2 -0.002417 0.011007 -0.002281 0.000000 0.004326 0.000000
# 3 -0.002823 -0.002281 0.025870 0.000000 -0.000909 0.000000
# 4 0.000000 0.000000 0.000000 0.038122 0.000000 0.007154
# 5 -0.005397 0.004326 -0.000909 0.000000 0.042830 0.000000
# 6 0.000000 0.000000 0.000000 0.007154 0.000000 0.063458
#
#
# Mechanical properties :
#
#
# Convention : Reuss Voigt Hill
#
# Bulk Modulus (GPa) = 29.45430 35.45313 32.45372
# Shear Modulus (GPa) = 22.75209 26.51813 24.63511
#
# Velocity S-wave (km/s) = 3.38171 3.65087 3.51887
# Velocity P-wave (km/s) = 5.48203 5.96588 5.72907
#
# Compressibility (1/GPa) = 0.03395090
#
# Stress axis : x y z
#
# Youngs Moduli (GPa) = 82.54472 90.85062 38.65440
#
# Poissons Ratio (x) = 0.21962 0.10911
# Poissons Ratio (y) = 0.19954 0.08816
# Poissons Ratio (z) = 0.23299 0.20720
#
# Static dielectric constant tensor:
#      x y z
#    x 1.766400 0.000000 0.073750 
#    y 0.000000 1.688040 0.000000 
#    z 0.073750 0.000000 2.079330 
# 
# From -- ./inp_files/124205.got.cif
#   From: 2010.05.17/outbox.cif.g08.bks.cpg/sg12_63_cif.got.tgz:124205.got - 2010.06.03 13:09:07.
