data_PCOD9197458
_publ_section_title
;
Structure prediction by ZEFSAII (Michael W. Deem and Ramdas Pophale) SiO2 
 PCOD9197458
Probable space group: C 2/M
;
_chemical_formula_sum "Si O2"
_cell_formula_units_Z 64
_cell_length_a 19.667998
_cell_length_b 18.843403
_cell_length_c 12.042386
_cell_angle_alpha 90.000000
_cell_angle_beta 44.789907
_cell_angle_gamma 90.000000
_cell_volume 3144.261853
_symmetry_space_group_name_H-M "C 2/M"
_symmetry_group_IT_number 12
_symmetry_cell_setting 'monoclinic'
loop_
_space_group_symop_operation_xyz
x,y,z
-x,y,-z
-x,-y,-z
x,-y,z
1/2+x,1/2+y,z
1/2-x,1/2+y,-z
1/2-x,1/2-y,-z
1/2+x,1/2-y,z
loop_
_atom_site_type_symbol
_atom_site_label
_atom_site_fract_x
_atom_site_fract_y
_atom_site_fract_z
Si Si1 0.874610 0.585562 0.384628
Si Si2 0.782149 0.085725 0.857106
Si Si3 0.705283 0.414119 0.416208
Si Si4 0.422625 0.137899 0.807065
Si Si5 0.931085 0.918084 0.236057
Si Si6 0.147749 0.418904 0.338985
Si Si7 0.638167 0.621655 0.913959
Si Si8 0.852143 0.785441 0.909130
O O1 0.866149 0.500000 0.396716
O O2 0.796728 0.610576 0.384323
O O3 0.856121 0.611985 0.532289
O O4 0.985036 0.606601 0.237855
O O5 0.792292 0.105791 0.715375
O O6 0.852023 0.139672 0.843922
O O7 0.798374 0.000000 0.852903
O O8 0.674233 0.106184 0.023528
O O9 0.708979 0.500000 0.409397
O O10 0.609280 0.394882 0.598042
O O11 0.412416 0.115767 0.689979
O O12 0.426998 0.223237 0.800431
O O13 0.044156 0.913670 0.078782
O O14 0.900792 0.000000 0.255368
O O15 0.880120 0.876385 0.195430
O O16 0.116304 0.500000 0.381734
O O17 0.261129 0.415991 0.176543
O O18 0.644945 0.697221 0.964346
O O19 0.750000 0.750000 0.000000
#
# Coordination Sequence:
#
# PCOD9197458 Si02
#       8
#     8   8   8   8   8   8   8   8
#     4  10  20  35  59  93 124 151 190 242 295 347
#     4  10  20  36  62  85 111 157 201 238 287 347
#     4   9  19  36  55  84 125 152 184 244 293 338
#     4  11  22  37  58  83 123 160 194 238 286 350
#     4  10  20  35  59  93 118 141 189 248 304 350
#     4  11  19  32  60  94 120 147 190 244 299 346
#     4  11  19  34  62  84 115 149 188 240 299 346
#     4  10  22  40  58  82 119 155 198 243 283 341
#
# _framework density 20.354538999999999
#
# number of rings (size 3 to 8) (size 9 to 14) (size 15 to 20)
#    0.000    1.750    3.750    3.000    0.000    2.500 
#    0.000   10.000    0.000    6.750    0.000    0.000 
#    0.000    0.000    0.000    0.000    0.000    0.000 
#
# Total GULP energy -178373.093508 kJ/mol
# GULP energy per Si atom -5574.159172 kJ/mol
# Density = 2.030821 g / cm^3
# Si number density = 20.354539 Si / 1000 Ang^3
#
#
#
# Elastic Constant Matrix: (Units=GPa)
#
#
# Indices 1 2 3 4 5 6 
#
# 1 58.3487 11.0296 19.7043 0.0000 8.4214 0.0000
# 2 11.0296 57.6120 8.9952 0.0000 16.4432 0.0000
# 3 19.7043 8.9952 86.8222 0.0000 18.9650 0.0000
# 4 0.0000 0.0000 0.0000 2.6064 0.0000 4.2549
# 5 8.4214 16.4432 18.9650 0.0000 36.6708 0.0000
# 6 0.0000 0.0000 0.0000 4.2549 0.0000 11.7225
#
#
#
# Elastic Compliance Matrix: (Units=1/GPa)
#
#
# Indices 1 2 3 4 5 6 
#
# 1 0.019107 -0.002722 -0.003791 0.000000 -0.001207 0.000000
# 2 -0.002722 0.020294 0.000413 0.000000 -0.008688 0.000000
# 3 -0.003791 0.000413 0.013738 0.000000 -0.006419 0.000000
# 4 0.000000 0.000000 0.000000 0.941628 0.000000 -0.341781
# 5 -0.001207 -0.008688 -0.006419 0.000000 0.034763 0.000000
# 6 0.000000 0.000000 0.000000 -0.341781 0.000000 0.209362
#
#
# Mechanical properties :
#
#
# Convention : Reuss Voigt Hill
#
# Bulk Modulus (GPa) = 24.42612 31.36011 27.89311
# Shear Modulus (GPa) = 3.95339 21.07018 12.51179
#
# Velocity S-wave (km/s) = 1.39516 3.22088 2.48199
# Velocity P-wave (km/s) = 3.82383 5.41040 4.68477
#
# Compressibility (1/GPa) = 0.04093979
#
# Stress axis : x y z
#
# Youngs Moduli (GPa) = 52.33643 49.27604 72.79344
#
# Poissons Ratio (x) = 0.13411 0.27594
# Poissons Ratio (y) = 0.14244 -0.03006
# Poissons Ratio (z) = 0.19839 -0.02035
#
# Static dielectric constant tensor:
#      x y z
#    x 1.728370 0.000000 -0.013990 
#    y 0.000000 1.726640 0.000000 
#    z -0.013990 0.000000 1.816930 
# 
# From -- ./inp_files/168779.got.cif
#   From: 2010.05.17/outbox.cif.g08.bks.cpg/sg12_85_cif.got.tgz:168779.got - 2010.06.03 13:09:07.
