data_PCOD9197745
_publ_section_title
;
Structure prediction by ZEFSAII (Michael W. Deem and Ramdas Pophale) SiO2 
 PCOD9197745
Probable space group: C 2/M
;
_chemical_formula_sum "Si O2"
_cell_formula_units_Z 48
_cell_length_a 9.381431
_cell_length_b 32.153576
_cell_length_c 14.246637
_cell_angle_alpha 90.000000
_cell_angle_beta 30.441881
_cell_angle_gamma 90.000000
_cell_volume 2177.363083
_symmetry_space_group_name_H-M "C 2/M"
_symmetry_group_IT_number 12
_symmetry_cell_setting 'monoclinic'
loop_
_space_group_symop_operation_xyz
x,y,z
-x,y,-z
-x,-y,-z
x,-y,z
1/2+x,1/2+y,z
1/2-x,1/2+y,-z
1/2-x,1/2-y,-z
1/2+x,1/2-y,z
loop_
_atom_site_type_symbol
_atom_site_label
_atom_site_fract_x
_atom_site_fract_y
_atom_site_fract_z
Si Si1 0.731805 0.623688 0.786132
Si Si2 0.893139 0.785538 0.168059
Si Si3 0.188738 0.955238 0.297102
Si Si4 0.010493 0.697685 0.098109
Si Si5 0.839231 0.046343 0.303422
Si Si6 0.664755 0.120206 0.690394
O O1 0.769109 0.670940 0.726214
O O2 0.619953 0.588507 0.779205
O O3 0.021831 0.610323 0.672142
O O4 0.500000 0.625908 0.000000
O O5 0.802651 0.737326 0.230807
O O6 0.000000 0.785484 0.000000
O O7 0.166751 0.788627 0.077075
O O8 0.390455 0.916754 0.203951
O O9 0.000000 0.956870 0.500000
O O10 0.993418 0.949829 0.316793
O O11 0.333315 0.000000 0.206390
O O12 0.961946 0.663091 0.202544
O O13 0.000000 0.679733 0.000000
O O14 0.500000 0.044392 0.500000
O O15 0.925454 0.000000 0.216543
O O16 0.000000 0.125966 0.500000
#
# Coordination Sequence:
#
# PCOD9197745 Si02
#       6
#     8   8   8   8   8   8
#     4  11  22  40  61  86 122 161 201 244 291 356
#     4   9  18  38  60  82 114 157 203 234 291 351
#     4   9  19  36  57  82 116 155 192 235 293 355
#     4  10  20  35  63  86 112 158 204 240 288 360
#     4  10  21  38  61  89 120 158 202 244 297 359
#     4  11  22  37  58  88 121 153 192 247 302 348
#
# _framework density 22.045013999999998
#
# number of rings (size 3 to 8) (size 9 to 14) (size 15 to 20)
#    0.000    2.000    3.333    2.000    2.333    2.333 
#    0.000    1.667    0.000    2.500    0.000    0.000 
#    0.000    0.000    0.000    0.000    0.000    0.000 
#
# Total GULP energy -133654.167586 kJ/mol
# GULP energy per Si atom -5568.923649 kJ/mol
# Density = 2.199484 g / cm^3
# Si number density = 22.045014 Si / 1000 Ang^3
#
#
#
# Elastic Constant Matrix: (Units=GPa)
#
#
# Indices 1 2 3 4 5 6 
#
# 1 130.6509 38.5221 -0.3674 0.0000 -1.0176 0.0000
# 2 38.5221 191.7573 4.1350 0.0000 12.5138 0.0000
# 3 -0.3674 4.1350 21.5501 0.0000 -4.4742 0.0000
# 4 0.0000 0.0000 0.0000 12.2455 0.0000 2.0939
# 5 -1.0176 12.5138 -4.4742 0.0000 25.8541 0.0000
# 6 0.0000 0.0000 0.0000 2.0939 0.0000 41.3074
#
#
#
# Elastic Compliance Matrix: (Units=1/GPa)
#
#
# Indices 1 2 3 4 5 6 
#
# 1 0.008180 -0.001744 0.000743 0.000000 0.001295 0.000000
# 2 -0.001744 0.005813 -0.001808 0.000000 -0.003195 0.000000
# 3 0.000743 -0.001808 0.048701 0.000000 0.009333 0.000000
# 4 0.000000 0.000000 0.000000 0.082377 0.000000 -0.004176
# 5 0.001295 -0.003195 0.009333 0.000000 0.041891 0.000000
# 6 0.000000 0.000000 0.000000 -0.004176 0.000000 0.024420
#
#
# Mechanical properties :
#
#
# Convention : Reuss Voigt Hill
#
# Bulk Modulus (GPa) = 17.52083 47.61530 32.56806
# Shear Modulus (GPa) = 21.18414 35.99264 28.58839
#
# Velocity S-wave (km/s) = 3.10328 4.04504 3.60504
# Velocity P-wave (km/s) = 4.56130 6.59261 5.66868
#
# Compressibility (1/GPa) = 0.05707493
#
# Stress axis : x y z
#
# Youngs Moduli (GPa) = 122.24452 172.03564 20.53359
#
# Poissons Ratio (x) = 0.30000 -0.01525
# Poissons Ratio (y) = 0.21318 0.03713
# Poissons Ratio (z) = -0.09081 0.31111
#
# Static dielectric constant tensor:
#      x y z
#    x 3.771180 0.000000 2.274830 
#    y 0.000000 1.959120 0.000000 
#    z 2.274830 0.000000 4.508830 
# 
# From -- ./inp_files/200792.got.cif
#   From: 2010.05.17/outbox.cif.g08.bks.cpg/sg12_101_cif.got.tgz:200792.got - 2010.06.03 13:09:07.
