data_PCOD9197828
_publ_section_title
;
Structure prediction by ZEFSAII (Michael W. Deem and Ramdas Pophale) SiO2 
 PCOD9197828
Probable space group: C 2/M
;
_chemical_formula_sum "Si O2"
_cell_formula_units_Z 48
_cell_length_a 22.344466
_cell_length_b 23.351984
_cell_length_c 5.361244
_cell_angle_alpha 90.000000
_cell_angle_beta 119.067756
_cell_angle_gamma 90.000000
_cell_volume 2445.082495
_symmetry_space_group_name_H-M "C 2/M"
_symmetry_group_IT_number 12
_symmetry_cell_setting 'monoclinic'
loop_
_space_group_symop_operation_xyz
x,y,z
-x,y,-z
-x,-y,-z
x,-y,z
1/2+x,1/2+y,z
1/2-x,1/2+y,-z
1/2-x,1/2-y,-z
1/2+x,1/2-y,z
loop_
_atom_site_type_symbol
_atom_site_label
_atom_site_fract_x
_atom_site_fract_y
_atom_site_fract_z
Si Si1 0.218724 0.064034 0.495448
Si Si2 0.430466 0.218894 0.278143
Si Si3 0.935732 0.835612 0.028422
Si Si4 0.668259 0.275951 0.530990
Si Si5 0.801806 0.672040 0.771678
Si Si6 0.871885 0.064857 0.188793
O O1 0.277989 0.110795 0.631750
O O2 0.181169 0.065899 0.151647
O O3 0.246588 0.000000 0.583364
O O4 0.165724 0.071719 0.621251
O O5 0.500000 0.189035 0.500000
O O6 0.389207 0.254923 0.399493
O O7 0.454147 0.271148 0.149671
O O8 0.373795 0.176543 0.054405
O O9 0.866781 0.821409 0.729210
O O10 0.919655 0.881120 0.214269
O O11 0.000000 0.857992 0.000000
O O12 0.735465 0.304182 0.788904
O O13 0.690652 0.218642 0.432055
O O14 0.902799 0.000000 0.249512
#
# Coordination Sequence:
#
# PCOD9197828 Si02
#       6
#     8   8   8   8   8   8
#     4  10  21  39  61  86 115 150 196 248 297 341
#     4  11  22  35  55  81 119 152 189 238 300 354
#     4  11  21  34  55  78 117 159 194 237 285 347
#     4  10  20  36  52  85 112 148 195 234 293 347
#     4  10  21  33  59  84 111 148 192 247 285 352
#     4  10  22  38  58  84 117 155 199 246 286 336
#
# _framework density 19.631239000000001
#
# number of rings (size 3 to 8) (size 9 to 14) (size 15 to 20)
#    0.000    1.667    3.333    1.500    2.333    0.333 
#    0.000    0.000    0.000    4.000    0.000    1.167 
#    0.000    0.000    0.000    0.000    0.000    0.000 
#
# Total GULP energy -133858.966110 kJ/mol
# GULP energy per Si atom -5577.456921 kJ/mol
# Density = 1.958656 g / cm^3
# Si number density = 19.631239 Si / 1000 Ang^3
#
#
#
# Elastic Constant Matrix: (Units=GPa)
#
#
# Indices 1 2 3 4 5 6 
#
# 1 72.3183 19.7654 26.3795 0.0000 13.8931 0.0000
# 2 19.7654 97.0752 12.8913 0.0000 10.3322 0.0000
# 3 26.3795 12.8913 64.4059 0.0000 14.9899 0.0000
# 4 0.0000 0.0000 0.0000 17.8518 0.0000 -6.7696
# 5 13.8931 10.3322 14.9899 0.0000 39.1598 0.0000
# 6 0.0000 0.0000 0.0000 -6.7696 0.0000 12.5226
#
#
#
# Elastic Compliance Matrix: (Units=1/GPa)
#
#
# Indices 1 2 3 4 5 6 
#
# 1 0.017229 -0.002389 -0.005821 0.000000 -0.003254 0.000000
# 2 -0.002389 0.011085 -0.000831 0.000000 -0.001759 0.000000
# 3 -0.005821 -0.000831 0.019261 0.000000 -0.005089 0.000000
# 4 0.000000 0.000000 0.000000 0.070461 0.000000 0.038091
# 5 -0.003254 -0.001759 -0.005089 0.000000 0.029103 0.000000
# 6 0.000000 0.000000 0.000000 0.038091 0.000000 0.100447
#
#
# Mechanical properties :
#
#
# Convention : Reuss Voigt Hill
#
# Bulk Modulus (GPa) = 33.90519 39.09686 36.50102
# Shear Modulus (GPa) = 18.14878 25.55769 21.85323
#
# Velocity S-wave (km/s) = 3.04383 3.61208 3.34006
# Velocity P-wave (km/s) = 5.44626 6.11188 5.78865
#
# Compressibility (1/GPa) = 0.02949401
#
# Stress axis : x y z
#
# Youngs Moduli (GPa) = 58.04110 90.20999 51.91706
#
# Poissons Ratio (x) = 0.21548 0.30223
# Poissons Ratio (y) = 0.13864 0.04314
# Poissons Ratio (z) = 0.33788 0.07496
#
# Static dielectric constant tensor:
#      x y z
#    x 1.754070 0.000000 -0.010610 
#    y 0.000000 1.701090 0.000000 
#    z -0.010610 0.000000 1.788050 
# 
# From -- ./inp_files/16575.got.cif
#   From: 2010.05.17/outbox.cif.g08.bks.cpg/sg12_9_cif.got.tgz:16575.got - 2010.06.03 13:09:07.
