data_PCOD9197452
_publ_section_title
;
Structure prediction by ZEFSAII (Michael W. Deem and Ramdas Pophale) SiO2 
 PCOD9197452
Probable space group: C 2/M
;
_chemical_formula_sum "Si O2"
_cell_formula_units_Z 48
_cell_length_a 13.987870
_cell_length_b 12.917113
_cell_length_c 12.187267
_cell_angle_alpha 90.000000
_cell_angle_beta 77.649716
_cell_angle_gamma 90.000000
_cell_volume 2151.071843
_symmetry_space_group_name_H-M "C 2/M"
_symmetry_group_IT_number 12
_symmetry_cell_setting 'monoclinic'
loop_
_space_group_symop_operation_xyz
x,y,z
-x,y,-z
-x,-y,-z
x,-y,z
1/2+x,1/2+y,z
1/2-x,1/2+y,-z
1/2-x,1/2-y,-z
1/2+x,1/2-y,z
loop_
_atom_site_type_symbol
_atom_site_label
_atom_site_fract_x
_atom_site_fract_y
_atom_site_fract_z
Si Si1 0.155100 0.805056 0.253469
Si Si2 0.131013 0.617427 0.852326
Si Si3 0.883690 0.118888 0.506429
Si Si4 0.066668 0.183101 0.740978
Si Si5 0.181545 0.376665 0.081835
Si Si6 0.104438 0.885729 0.957064
O O1 0.252084 0.867661 0.195850
O O2 0.156802 0.810680 0.385259
O O3 0.156728 0.694348 0.191759
O O4 0.047659 0.847456 0.245197
O O5 0.101773 0.500000 0.834531
O O6 0.079230 0.701506 0.787633
O O7 0.118708 0.635239 0.986326
O O8 0.878040 0.166746 0.386794
O O9 0.000000 0.112489 0.500000
O O10 0.845667 0.000000 0.520664
O O11 0.114525 0.114096 0.823774
O O12 0.182333 0.500000 0.106745
O O13 0.293824 0.345409 0.024672
O O14 0.095052 0.000000 0.007525
O O15 0.000000 0.833146 0.000000
#
# Coordination Sequence:
#
# PCOD9197452 Si02
#       6
#     8   8   8   8   8   8
#     4  11  22  40  65  89 123 168 213 259 315 376
#     4  11  24  41  61  92 133 170 209 258 317 384
#     4   9  20  40  64  93 126 162 207 263 322 373
#     4  11  23  37  65  92 125 165 212 260 313 381
#     4  10  22  40  60  89 129 166 205 257 316 373
#     4  10  20  35  59  92 124 156 203 261 317 373
#
# _framework density 22.314457000000001
#
# number of rings (size 3 to 8) (size 9 to 14) (size 15 to 20)
#    0.000    1.667    1.667    2.500    2.333    4.667 
#    0.000    2.500    0.000    3.000    0.000    0.000 
#    0.000    0.000    0.000    0.000    0.000    0.000 
#
# Total GULP energy -133967.375041 kJ/mol
# GULP energy per Si atom -5581.973960 kJ/mol
# Density = 2.226367 g / cm^3
# Si number density = 22.314457 Si / 1000 Ang^3
#
#
#
# Elastic Constant Matrix: (Units=GPa)
#
#
# Indices 1 2 3 4 5 6 
#
# 1 85.1447 8.4573 15.4455 0.0000 7.1102 0.0000
# 2 8.4573 143.6212 57.5736 0.0000 1.6534 0.0000
# 3 15.4455 57.5736 166.4258 0.0000 9.2006 0.0000
# 4 0.0000 0.0000 0.0000 25.1960 0.0000 3.1620
# 5 7.1102 1.6534 9.2006 0.0000 26.3763 0.0000
# 6 0.0000 0.0000 0.0000 3.1620 0.0000 26.8591
#
#
#
# Elastic Compliance Matrix: (Units=1/GPa)
#
#
# Indices 1 2 3 4 5 6 
#
# 1 0.012180 -0.000343 -0.000848 0.000000 -0.002966 0.000000
# 2 -0.000343 0.008099 -0.002801 0.000000 0.000562 0.000000
# 3 -0.000848 -0.002801 0.007172 0.000000 -0.002098 0.000000
# 4 0.000000 0.000000 0.000000 0.040284 0.000000 -0.004743
# 5 -0.002966 0.000562 -0.002098 0.000000 0.039409 0.000000
# 6 0.000000 0.000000 0.000000 -0.004743 0.000000 0.037790
#
#
# Mechanical properties :
#
#
# Convention : Reuss Voigt Hill
#
# Bulk Modulus (GPa) = 51.36672 62.01605 56.69139
# Shear Modulus (GPa) = 31.36602 36.60063 33.98332
#
# Velocity S-wave (km/s) = 3.75325 4.05436 3.90671
# Velocity P-wave (km/s) = 6.46931 7.05474 6.76835
#
# Compressibility (1/GPa) = 0.01946786
#
# Stress axis : x y z
#
# Youngs Moduli (GPa) = 82.09987 123.46605 139.42432
#
# Poissons Ratio (x) = 0.04238 0.11819
# Poissons Ratio (y) = 0.02818 0.39054
# Poissons Ratio (z) = 0.06959 0.34584
#
# Static dielectric constant tensor:
#      x y z
#    x 1.855840 0.000000 -0.031450 
#    y 0.000000 1.868930 0.000000 
#    z -0.031450 0.000000 1.856930 
# 
# From -- ./inp_files/142851.got.cif
#   From: 2010.05.17/outbox.cif.g08.bks.cpg/sg12_72_cif.got.tgz:142851.got - 2010.06.03 13:09:07.
