data_PCOD9197241
_publ_section_title
;
Structure prediction by ZEFSAII (Michael W. Deem and Ramdas Pophale) SiO2 
 PCOD9197241
Probable space group: C 2/M
;
_chemical_formula_sum "Si O2"
_cell_formula_units_Z 48
_cell_length_a 16.581154
_cell_length_b 13.647506
_cell_length_c 10.223662
_cell_angle_alpha 90.000000
_cell_angle_beta 88.037788
_cell_angle_gamma 90.000000
_cell_volume 2312.170184
_symmetry_space_group_name_H-M "C 2/M"
_symmetry_group_IT_number 12
_symmetry_cell_setting 'monoclinic'
loop_
_space_group_symop_operation_xyz
x,y,z
-x,y,-z
-x,-y,-z
x,-y,z
1/2+x,1/2+y,z
1/2-x,1/2+y,-z
1/2-x,1/2-y,-z
1/2+x,1/2-y,z
loop_
_atom_site_type_symbol
_atom_site_label
_atom_site_fract_x
_atom_site_fract_y
_atom_site_fract_z
Si Si1 0.891578 0.110036 0.034955
Si Si2 0.233106 0.615047 0.181485
Si Si3 0.325331 0.729469 0.402321
Si Si4 0.570613 0.761647 0.187061
Si Si5 0.046099 0.384321 0.637444
Si Si6 0.473677 0.387934 0.320340
O O1 0.794657 0.118805 0.055819
O O2 0.932251 0.113770 0.176669
O O3 0.908447 0.000000 0.980855
O O4 0.922602 0.198194 0.945001
O O5 0.222391 0.500000 0.214600
O O6 0.282248 0.673136 0.287648
O O7 0.149045 0.670621 0.179321
O O8 0.250000 0.750000 0.500000
O O9 0.366890 0.833864 0.373427
O O10 0.406554 0.662418 0.417247
O O11 0.499294 0.834563 0.236709
O O12 0.554273 0.676484 0.296294
O O13 0.049805 0.500000 0.653805
O O14 0.000000 0.366177 0.500000
O O15 0.488379 0.500000 0.352853
#
# Coordination Sequence:
#
# PCOD9197241 Si02
#       6
#     8   8   8   8   8   8
#     4   9  18  34  57  82 109 145 184 222 267 318
#     4  10  21  37  57  81 109 144 184 223 269 323
#     4  10  20  35  59  83 105 140 185 227 267 318
#     4  11  19  31  57  85 109 141 182 226 267 319
#     4  10  22  39  58  81 109 142 180 221 268 324
#     4   9  19  35  56  82 110 144 185 226 270 320
#
# _framework density 20.759719
#
# number of rings (size 3 to 8) (size 9 to 14) (size 15 to 20)
#    0.000    2.167    0.000    4.500    0.000    4.000 
#    0.000    1.667    0.000   77.000    0.000    0.000 
#    0.000    0.000    0.000    0.000    0.000    0.000 
#
# Total GULP energy -133631.845259 kJ/mol
# GULP energy per Si atom -5567.993552 kJ/mol
# Density = 2.071247 g / cm^3
# Si number density = 20.759719 Si / 1000 Ang^3
#
#
#
# Elastic Constant Matrix: (Units=GPa)
#
#
# Indices 1 2 3 4 5 6 
#
# 1 120.1304 61.1785 51.7109 0.0000 -46.7405 0.0000
# 2 61.1785 186.2501 69.3740 0.0000 -20.2613 0.0000
# 3 51.7109 69.3740 90.0705 0.0000 -18.5996 0.0000
# 4 0.0000 0.0000 0.0000 12.6341 0.0000 8.4659
# 5 -46.7405 -20.2613 -18.5996 0.0000 37.5947 0.0000
# 6 0.0000 0.0000 0.0000 8.4659 0.0000 23.8129
#
#
#
# Elastic Compliance Matrix: (Units=1/GPa)
#
#
# Indices 1 2 3 4 5 6 
#
# 1 0.019918 -0.002269 -0.005376 0.000000 0.020882 0.000000
# 2 -0.002269 0.007847 -0.004957 0.000000 -0.001044 0.000000
# 3 -0.005376 -0.004957 0.017904 0.000000 -0.000498 0.000000
# 4 0.000000 0.000000 0.000000 0.103903 0.000000 -0.036939
# 5 0.020882 -0.001044 -0.000498 0.000000 0.051752 0.000000
# 6 0.000000 0.000000 0.000000 -0.036939 0.000000 0.055127
#
#
# Mechanical properties :
#
#
# Convention : Reuss Voigt Hill
#
# Bulk Modulus (GPa) = 48.86116 84.55308 66.70712
# Shear Modulus (GPa) = 17.33235 29.08751 23.20993
#
# Velocity S-wave (km/s) = 2.89260 3.74726 3.34732
# Velocity P-wave (km/s) = 5.89439 7.71624 6.86601
#
# Compressibility (1/GPa) = 0.02046615
#
# Stress axis : x y z
#
# Youngs Moduli (GPa) = 50.20468 127.43422 55.85259
#
# Poissons Ratio (x) = 0.28910 0.30027
# Poissons Ratio (y) = 0.11390 0.27687
# Poissons Ratio (z) = 0.26991 0.63171
#
# Static dielectric constant tensor:
#      x y z
#    x 1.809810 0.000000 -0.010050 
#    y 0.000000 1.843720 0.000000 
#    z -0.010050 0.000000 1.832310 
# 
# From -- ./inp_files/153556.got.cif
#   From: 2010.05.17/outbox.cif.g08.bks.cpg/sg12_77_cif.got.tgz:153556.got - 2010.06.03 13:09:07.
