data_PCOD9197198
_publ_section_title
;
Structure prediction by ZEFSAII (Michael W. Deem and Ramdas Pophale) SiO2 
 PCOD9197198
Probable space group: C 2/M
;
_chemical_formula_sum "Si O2"
_cell_formula_units_Z 64
_cell_length_a 15.724349
_cell_length_b 8.701189
_cell_length_c 28.939018
_cell_angle_alpha 90.000000
_cell_angle_beta 57.252110
_cell_angle_gamma 90.000000
_cell_volume 3330.132358
_symmetry_space_group_name_H-M "C 2/M"
_symmetry_group_IT_number 12
_symmetry_cell_setting 'monoclinic'
loop_
_space_group_symop_operation_xyz
x,y,z
-x,y,-z
-x,-y,-z
x,-y,z
1/2+x,1/2+y,z
1/2-x,1/2+y,-z
1/2-x,1/2-y,-z
1/2+x,1/2-y,z
loop_
_atom_site_type_symbol
_atom_site_label
_atom_site_fract_x
_atom_site_fract_y
_atom_site_fract_z
Si Si1 0.866948 0.318301 0.174474
Si Si2 0.451863 0.681476 0.828558
Si Si3 0.280856 0.814037 0.440972
Si Si4 0.089005 0.185382 0.438125
Si Si5 0.357648 0.184275 0.763370
Si Si6 0.100889 0.318764 0.940994
Si Si7 0.487327 0.814755 0.635875
Si Si8 0.782997 0.319316 0.941429
O O1 0.870991 0.500000 0.182562
O O2 0.752152 0.261046 0.207420
O O3 0.911369 0.292555 0.109848
O O4 0.935202 0.230040 0.191224
O O5 0.442667 0.500000 0.825556
O O6 0.412108 0.763727 0.794263
O O7 0.380254 0.737243 0.891404
O O8 0.250000 0.750000 0.500000
O O9 0.196429 0.766369 0.428364
O O10 0.395328 0.764729 0.396281
O O11 0.278716 0.000000 0.443636
O O12 0.063743 0.252045 0.395580
O O13 0.000000 0.230723 0.500000
O O14 0.088255 0.000000 0.435300
O O15 0.425054 0.230745 0.699525
O O16 0.346413 0.000000 0.766915
O O17 0.127982 0.500000 0.939238
O O18 0.191152 0.215411 0.933532
O O19 0.000000 0.290072 0.000000
O O20 0.487110 0.000000 0.633809
O O21 0.802452 0.500000 0.940110
O O22 0.750000 0.250000 0.000000
#
# Coordination Sequence:
#
# PCOD9197198 Si02
#       8
#     8   8   8   8   8   8   8   8
#     4  11  23  41  67  95 126 167 212 262 326 386
#     4  12  25  43  67  95 128 168 216 266 322 385
#     4  10  20  36  58  87 123 162 204 252 309 367
#     4  10  20  35  58  90 125 161 204 254 310 370
#     4  11  24  44  65  91 129 170 219 269 316 377
#     4  10  21  38  61  91 127 161 205 261 323 387
#     4  10  23  40  61  90 124 164 209 257 310 370
#     4  12  24  39  62  92 129 167 211 264 321 383
#
# _framework density 19.218454999999999
#
# number of rings (size 3 to 8) (size 9 to 14) (size 15 to 20)
#    0.000    1.250    2.500    3.750    0.000    4.500 
#    0.000    1.250    0.000    0.000    0.000    0.000 
#    0.000    0.000    0.000    0.000    0.000    0.000 
#
# Total GULP energy -178945.722730 kJ/mol
# GULP energy per Si atom -5592.053835 kJ/mol
# Density = 1.917471 g / cm^3
# Si number density = 19.218455 Si / 1000 Ang^3
#
#
#
# Elastic Constant Matrix: (Units=GPa)
#
#
# Indices 1 2 3 4 5 6 
#
# 1 121.2054 2.6072 50.2688 0.0000 -3.3285 0.0000
# 2 2.6072 25.1752 15.0027 0.0001 0.2736 0.0000
# 3 50.2688 15.0027 131.6084 0.0000 0.3380 0.0000
# 4 0.0000 0.0001 0.0000 23.6130 0.0000 6.7336
# 5 -3.3285 0.2736 0.3380 0.0000 26.0954 0.0000
# 6 0.0000 0.0000 0.0000 6.7336 0.0000 33.2190
#
#
#
# Elastic Compliance Matrix: (Units=1/GPa)
#
#
# Indices 1 2 3 4 5 6 
#
# 1 0.009887 0.001303 -0.003928 0.000000 0.001298 0.000000
# 2 0.001303 0.042792 -0.005375 0.000000 -0.000213 0.000000
# 3 -0.003928 -0.005375 0.009713 0.000000 -0.000570 0.000000
# 4 0.000000 0.000000 0.000000 0.044948 0.000000 -0.009111
# 5 0.001298 -0.000213 -0.000570 0.000000 0.038496 0.000000
# 6 0.000000 0.000000 0.000000 -0.009111 0.000000 0.031950
#
#
# Mechanical properties :
#
#
# Convention : Reuss Voigt Hill
#
# Bulk Modulus (GPa) = 21.55578 45.97182 33.76380
# Shear Modulus (GPa) = 23.89468 30.59284 27.24376
#
# Velocity S-wave (km/s) = 3.52990 3.99412 3.76917
# Velocity P-wave (km/s) = 5.27770 6.72631 6.04555
#
# Compressibility (1/GPa) = 0.04639127
#
# Stress axis : x y z
#
# Youngs Moduli (GPa) = 101.13921 23.36872 102.95475
#
# Poissons Ratio (x) = -0.03045 0.40445
# Poissons Ratio (y) = -0.13178 0.55341
# Poissons Ratio (z) = 0.39732 0.12561
#
# Static dielectric constant tensor:
#      x y z
#    x 1.657240 0.000000 -0.010720 
#    y 0.000000 1.647250 0.000000 
#    z -0.010720 0.000000 1.651470 
# 
# From -- ./inp_files/375477.got.cif
#   From: 2010.05.17/outbox.cif.g08.bks.cpg/sg12_188_cif.got.tgz:375477.got - 2010.06.03 13:09:07.
