data_PCOD9197705
_publ_section_title
;
Structure prediction by ZEFSAII (Michael W. Deem and Ramdas Pophale) SiO2 
 PCOD9197705
Probable space group: C 2/M
;
_chemical_formula_sum "Si O2"
_cell_formula_units_Z 50
_cell_length_a 18.655171
_cell_length_b 14.845838
_cell_length_c 11.522468
_cell_angle_alpha 90.000000
_cell_angle_beta 58.086500
_cell_angle_gamma 90.000000
_cell_volume 2708.812588
_symmetry_space_group_name_H-M "C 2/M"
_symmetry_group_IT_number 12
_symmetry_cell_setting 'monoclinic'
loop_
_space_group_symop_operation_xyz
x,y,z
-x,y,-z
-x,-y,-z
x,-y,z
1/2+x,1/2+y,z
1/2-x,1/2+y,-z
1/2-x,1/2-y,-z
1/2+x,1/2-y,z
loop_
_atom_site_type_symbol
_atom_site_label
_atom_site_fract_x
_atom_site_fract_y
_atom_site_fract_z
Si Si1 0.919484 0.794742 0.655168
Si Si2 0.866445 0.245972 0.168280
Si Si3 0.755848 0.896825 0.401898
Si Si4 0.533313 0.323831 0.125406
Si Si5 0.000000 0.000000 0.000000
Si Si6 0.763052 0.107037 0.668785
Si Si7 0.098441 0.598119 0.384281
O O1 0.945661 0.829724 0.758370
O O2 0.844495 0.851562 0.661982
O O3 0.889706 0.690580 0.694789
O O4 0.000000 0.796117 0.500000
O O5 0.805750 0.171286 0.277709
O O6 0.818930 0.340252 0.215716
O O7 0.952473 0.239927 0.169339
O O8 0.891277 0.216588 0.017366
O O9 0.768050 0.874653 0.526046
O O10 0.658046 0.893197 0.446558
O O11 0.785363 0.000000 0.356993
O O12 0.511050 0.420124 0.089229
O O13 0.758127 0.000000 0.688927
O O14 0.120546 0.500000 0.311911
O O15 0.000000 0.595065 0.500000
#
# Coordination Sequence:
#
# PCOD9197705 Si02
#       7
#     8   8   8   8   2   8   8
#     4  11  23  40  62  95 128 161 201 267 320 365
#     4  10  21  41  61  84 120 161 208 250 305 373
#     4  10  20  35  62  90 118 160 211 256 309 378
#     4  10  24  40  65  89 121 161 212 253 308 380
#     4   8  20  44  62  88 114 164 202 248 298 370
#     4  11  24  39  59  91 127 167 204 259 323 366
#     4   9  19  35  57  91 125 160 208 253 308 369
#
# _framework density 18.458272000000001
#
# number of rings (size 3 to 8) (size 9 to 14) (size 15 to 20)
#    0.000    2.080    1.600    1.440   10.080    0.960 
#    0.000    2.400    0.000    0.000    0.000    0.000 
#    0.000    0.000    0.000    0.000    0.000    0.000 
#
# Total GULP energy -139191.688759 kJ/mol
# GULP energy per Si atom -5567.667550 kJ/mol
# Density = 1.841626 g / cm^3
# Si number density = 18.458272 Si / 1000 Ang^3
#
#
#
# Elastic Constant Matrix: (Units=GPa)
#
#
# Indices 1 2 3 4 5 6 
#
# 1 125.2680 61.9113 63.7523 0.0000 15.8408 0.0000
# 2 61.9113 119.6001 56.2858 0.0000 3.2771 0.0000
# 3 63.7523 56.2858 91.6677 0.0000 6.8266 0.0000
# 4 0.0000 0.0000 0.0000 4.2072 0.0000 3.4809
# 5 15.8408 3.2771 6.8266 0.0000 33.4556 0.0000
# 6 0.0000 0.0000 0.0000 3.4809 0.0000 7.5243
#
#
#
# Elastic Compliance Matrix: (Units=1/GPa)
#
#
# Indices 1 2 3 4 5 6 
#
# 1 0.014098 -0.003826 -0.007094 0.000000 -0.004853 0.000000
# 2 -0.003826 0.012801 -0.005321 0.000000 0.001644 0.000000
# 3 -0.007094 -0.005321 0.019112 0.000000 -0.000020 0.000000
# 4 0.000000 0.000000 0.000000 0.385082 0.000000 -0.178147
# 5 -0.004853 0.001644 -0.000020 0.000000 0.032031 0.000000
# 6 0.000000 0.000000 0.000000 -0.178147 0.000000 0.215317
#
#
# Mechanical properties :
#
#
# Convention : Reuss Voigt Hill
#
# Bulk Modulus (GPa) = 73.92480 77.82606 75.87543
# Shear Modulus (GPa) = 6.98877 19.34319 13.16598
#
# Velocity S-wave (km/s) = 1.94794 3.24070 2.67363
# Velocity P-wave (km/s) = 6.72279 7.50051 7.12227
#
# Compressibility (1/GPa) = 0.01352726
#
# Stress axis : x y z
#
# Youngs Moduli (GPa) = 70.93241 78.11723 52.32452
#
# Poissons Ratio (x) = 0.29891 0.37118
# Poissons Ratio (y) = 0.27141 0.27844
# Poissons Ratio (z) = 0.50318 0.41570
#
# Static dielectric constant tensor:
#      x y z
#    x 1.643920 0.000000 -0.029300 
#    y 0.000000 1.659070 0.000000 
#    z -0.029300 0.000000 1.628070 
# 
# From -- ./inp_files/155917.got.cif
#   From: 2010.05.17/outbox.cif.g08.bks.cpg/sg12_78_cif.got.tgz:155917.got - 2010.06.03 13:09:07.
