data_PCOD9197572
_publ_section_title
;
Structure prediction by ZEFSAII (Michael W. Deem and Ramdas Pophale) SiO2 
 PCOD9197572
Probable space group: C 2/M
;
_chemical_formula_sum "Si O2"
_cell_formula_units_Z 60
_cell_length_a 17.763074
_cell_length_b 14.455660
_cell_length_c 11.603040
_cell_angle_alpha 90.000000
_cell_angle_beta 72.351291
_cell_angle_gamma 90.000000
_cell_volume 2839.163014
_symmetry_space_group_name_H-M "C 2/M"
_symmetry_group_IT_number 12
_symmetry_cell_setting 'monoclinic'
loop_
_space_group_symop_operation_xyz
x,y,z
-x,y,-z
-x,-y,-z
x,-y,z
1/2+x,1/2+y,z
1/2-x,1/2+y,-z
1/2-x,1/2-y,-z
1/2+x,1/2-y,z
loop_
_atom_site_type_symbol
_atom_site_label
_atom_site_fract_x
_atom_site_fract_y
_atom_site_fract_z
Si Si1 0.704523 0.396889 0.228968
Si Si2 0.259822 0.799294 0.714166
Si Si3 0.598887 0.392369 0.785949
Si Si4 0.475139 0.365422 0.638192
Si Si5 0.500000 0.731725 0.000000
Si Si6 0.763734 0.394775 0.956699
Si Si7 0.063571 0.651985 0.380344
Si Si8 0.443311 0.899169 0.876745
O O1 0.739173 0.500000 0.229913
O O2 0.740415 0.312283 0.285528
O O3 0.612249 0.400241 0.297194
O O4 0.710862 0.372403 0.090597
O O5 0.180360 0.845709 0.704248
O O6 0.258739 0.829609 0.849362
O O7 0.343963 0.836741 0.626204
O O8 0.610955 0.500000 0.810003
O O9 0.534941 0.388461 0.712817
O O10 0.565877 0.335065 0.911950
O O11 0.500000 0.397533 0.500000
O O12 0.466757 0.254921 0.633638
O O13 0.480764 0.805456 0.907620
O O14 0.747214 0.500000 0.926451
O O15 0.853163 0.394134 0.961642
O O16 0.062034 0.602315 0.258673
O O17 0.000000 0.612969 0.500000
O O18 0.477866 0.000000 0.892005
#
# Coordination Sequence:
#
# PCOD9197572 Si02
#       8
#     8   8   8   8   4   8   8   8
#     4  10  20  35  60  91 120 165 216 258 308 377
#     4  10  21  37  60  91 129 163 201 266 323 375
#     4  12  26  41  63  95 130 169 210 261 326 381
#     4  10  22  43  67  90 126 172 216 262 314 379
#     4  12  24  40  58  94 136 168 212 260 318 380
#     4   9  18  33  56  85 120 160 207 257 313 375
#     4   9  19  41  68  96 124 170 221 263 316 375
#     4  10  20  37  64  94 129 172 211 260 318 377
#
# _framework density 21.132988999999998
#
# number of rings (size 3 to 8) (size 9 to 14) (size 15 to 20)
#    0.000    1.867    1.333    2.400    1.867    1.867 
#    0.000    6.667    0.000    0.000    0.000    0.000 
#    0.000    0.000    0.000    0.000    0.000    0.000 
#
# Total GULP energy -167374.719073 kJ/mol
# GULP energy per Si atom -5579.157302 kJ/mol
# Density = 2.108489 g / cm^3
# Si number density = 21.132989 Si / 1000 Ang^3
#
#
#
# Elastic Constant Matrix: (Units=GPa)
#
#
# Indices 1 2 3 4 5 6 
#
# 1 57.8959 42.8017 18.6071 0.0000 -17.2676 0.0000
# 2 42.8017 130.8018 14.5419 0.0000 1.9106 0.0000
# 3 18.6071 14.5419 93.4097 0.0000 -36.4438 0.0000
# 4 0.0000 0.0000 0.0000 -62.2554 0.0000 49.1762
# 5 -17.2676 1.9106 -36.4438 0.0000 27.0246 0.0000
# 6 0.0000 0.0000 0.0000 49.1762 0.0000 -73.5552
#
#
#
# Elastic Compliance Matrix: (Units=1/GPa)
#
#
# Indices 1 2 3 4 5 6 
#
# 1 0.033974 -0.012553 0.008446 0.000000 0.033985 0.000000
# 2 -0.012553 0.012699 -0.006238 0.000000 -0.017331 0.000000
# 3 0.008446 -0.006238 0.025897 0.000000 0.040761 0.000000
# 4 0.000000 0.000000 0.000000 -0.034039 0.000000 -0.022757
# 5 0.033985 -0.017331 0.040761 0.000000 0.114912 0.000000
# 6 0.000000 0.000000 0.000000 -0.022757 0.000000 -0.028810
#
#
# Mechanical properties :
#
#
# Convention : Reuss Voigt Hill
#
# Bulk Modulus (GPa) = 19.27490 48.22319 33.74905
# Shear Modulus (GPa) = 30.74705 -8.01342 11.36681
#
# Velocity S-wave (km/s) = 3.81849 -1.94939 2.32172
# Velocity P-wave (km/s) = 5.34619 4.21920 4.81577
#
# Compressibility (1/GPa) = 0.05188094
#
# Stress axis : x y z
#
# Youngs Moduli (GPa) = 29.43414 78.74399 38.61412
#
# Poissons Ratio (x) = 0.98844 -0.32613
# Poissons Ratio (y) = 0.36948 0.24088
# Poissons Ratio (z) = -0.24860 0.49122
#
# Static dielectric constant tensor:
#      x y z
#    x 1.776070 0.000000 -0.006840 
#    y 0.000000 1.822360 0.000000 
#    z -0.006840 0.000000 1.757790 
# 
# From -- ./inp_files/156587.got.cif
#   From: 2010.05.17/outbox.cif.g08.bks.cpg/sg12_79_cif.got.tgz:156587.got - 2010.06.03 13:09:07.
