data_PCOD9197637
_publ_section_title
;
Structure prediction by ZEFSAII (Michael W. Deem and Ramdas Pophale) SiO2 
 PCOD9197637
Probable space group: C 2/M
;
_chemical_formula_sum "Si O2"
_cell_formula_units_Z 56
_cell_length_a 15.384564
_cell_length_b 14.773614
_cell_length_c 19.679949
_cell_angle_alpha 90.000000
_cell_angle_beta 29.026807
_cell_angle_gamma 90.000000
_cell_volume 2170.368647
_symmetry_space_group_name_H-M "C 2/M"
_symmetry_group_IT_number 12
_symmetry_cell_setting 'monoclinic'
loop_
_space_group_symop_operation_xyz
x,y,z
-x,y,-z
-x,-y,-z
x,-y,z
1/2+x,1/2+y,z
1/2-x,1/2+y,-z
1/2-x,1/2-y,-z
1/2+x,1/2-y,z
loop_
_atom_site_type_symbol
_atom_site_label
_atom_site_fract_x
_atom_site_fract_y
_atom_site_fract_z
Si Si1 0.784950 0.835733 0.767071
Si Si2 0.897453 0.701258 0.976838
Si Si3 0.507654 0.104861 0.213916
Si Si4 0.206752 0.104758 0.615472
Si Si5 0.898452 0.367896 0.692549
Si Si6 0.353196 0.396089 0.491639
Si Si7 0.028893 0.102992 0.876540
O O1 0.591248 0.839460 0.865863
O O2 0.870318 0.737560 0.699847
O O3 0.939965 0.897145 0.630739
O O4 0.746029 0.842948 0.874366
O O5 0.876091 0.667931 0.914707
O O6 0.918683 0.809037 0.976895
O O7 0.562135 0.109575 0.255844
O O8 0.301756 0.142277 0.354884
O O9 0.519738 0.000000 0.182410
O O10 0.422678 0.106406 0.471272
O O11 0.158622 0.147398 0.575583
O O12 0.103280 0.136694 0.752435
O O13 0.151268 0.000000 0.649961
O O14 0.709443 0.406804 0.797468
O O15 0.292762 0.500000 0.525799
O O16 0.948758 0.000000 0.928501
#
# Coordination Sequence:
#
# PCOD9197637 Si02
#       7
#     8   8   8   8   8   8   8
#     4  10  23  41  59  85 121 162 203 246 298 362
#     4  10  24  42  59  88 123 160 204 248 300 357
#     4  10  22  40  63  93 124 155 199 253 301 354
#     4   9  18  33  57  91 121 149 195 247 298 355
#     4  10  20  35  61  88 122 158 195 244 303 356
#     4   9  20  38  61  89 121 158 200 249 305 355
#     4  10  20  37  61  89 122 161 201 244 297 359
#
# _framework density 25.802067999999998
#
# number of rings (size 3 to 8) (size 9 to 14) (size 15 to 20)
#    0.000    2.286    0.000    2.571    4.000    4.571 
#    0.000   10.000    0.000    0.000    0.000    0.000 
#    0.000    0.000    0.000    0.000    0.000    0.000 
#
# Total GULP energy -156544.047887 kJ/mol
# GULP energy per Si atom -5590.858853 kJ/mol
# Density = 2.574334 g / cm^3
# Si number density = 25.802068 Si / 1000 Ang^3
#
#
#
# Elastic Constant Matrix: (Units=GPa)
#
#
# Indices 1 2 3 4 5 6 
#
# 1 56.6365 -3.6743 18.6080 -0.0350 -9.7881 0.0210
# 2 -3.6743 78.8402 7.6607 0.2956 -0.1777 -0.1024
# 3 18.6080 7.6607 115.1303 0.3676 -5.5936 -0.1225
# 4 -0.0350 0.2956 0.3676 -860.1955 -0.0301 379.5144
# 5 -9.7881 -0.1777 -5.5936 -0.0301 47.7840 0.0079
# 6 0.0210 -0.1024 -0.1225 379.5144 0.0079 -150.6250
#
#
#
# Elastic Compliance Matrix: (Units=1/GPa)
#
#
# Indices 1 2 3 4 5 6 
#
# 1 0.019356 0.001205 -0.003033 -0.000002 0.003614 0.000000
# 2 0.001205 0.012842 -0.001041 -0.000005 0.000173 -0.000019
# 3 -0.003033 -0.001041 0.009268 -0.000005 0.000460 -0.000019
# 4 -0.000002 -0.000005 -0.000005 0.010414 0.000001 0.026238
# 5 0.003614 0.000173 0.000460 0.000001 0.021722 0.000004
# 6 0.000000 -0.000019 -0.000019 0.026238 0.000004 0.059471
#
#
# Mechanical properties :
#
#
# Convention : Reuss Voigt Hill
#
# Bulk Modulus (GPa) = 27.98988 32.86617 30.42803
# Shear Modulus (GPa) = 33.17448 -177.40646 -72.11599
#
# Velocity S-wave (km/s) = 3.58960 -8.30096 -5.29248
# Velocity P-wave (km/s) = 5.29639 8.89433 5.05259
#
# Compressibility (1/GPa) = 0.03572719
#
# Stress axis : x y z
#
# Youngs Moduli (GPa) = 51.66429 77.87216 107.90279
#
# Poissons Ratio (x) = -0.09383 0.32726
# Poissons Ratio (y) = -0.06225 0.11231
# Poissons Ratio (z) = 0.15669 0.08105
#
# Static dielectric constant tensor:
#      x y z
#    x 2.093830 0.000000 0.011770 
#    y 0.000000 2.116950 0.000000 
#    z 0.011770 0.000000 2.060090 
# 
# From -- ./inp_files/317155.got.cif
#   From: 2010.05.17/outbox.cif.g08.bks.cpg/sg12_159_cif.got.tgz:317155.got - 2010.06.03 13:09:07.
