data_PCOD9197347
_publ_section_title
;
Structure prediction by ZEFSAII (Michael W. Deem and Ramdas Pophale) SiO2 
 PCOD9197347
Probable space group: C 2/M
;
_chemical_formula_sum "Si O2"
_cell_formula_units_Z 56
_cell_length_a 11.145128
_cell_length_b 13.516711
_cell_length_c 24.666669
_cell_angle_alpha 90.000000
_cell_angle_beta 48.098871
_cell_angle_gamma 90.000000
_cell_volume 2765.754786
_symmetry_space_group_name_H-M "C 2/M"
_symmetry_group_IT_number 12
_symmetry_cell_setting 'monoclinic'
loop_
_space_group_symop_operation_xyz
x,y,z
-x,y,-z
-x,-y,-z
x,-y,z
1/2+x,1/2+y,z
1/2-x,1/2+y,-z
1/2-x,1/2-y,-z
1/2+x,1/2-y,z
loop_
_atom_site_type_symbol
_atom_site_label
_atom_site_fract_x
_atom_site_fract_y
_atom_site_fract_z
Si Si1 0.147202 0.113142 0.575924
Si Si2 0.991711 0.616421 0.839551
Si Si3 0.238976 0.331239 0.572332
Si Si4 0.365471 0.888149 0.681531
Si Si5 0.211710 0.884583 0.847492
Si Si6 0.205565 0.823334 0.323272
Si Si7 0.059803 0.736836 0.044167
O O1 0.247098 0.210737 0.564496
O O2 0.158190 0.123089 0.507222
O O3 0.964139 0.137819 0.648565
O O4 0.192707 0.000000 0.577337
O O5 0.979816 0.500000 0.838360
O O6 0.148937 0.648001 0.759261
O O7 0.833624 0.657427 0.856172
O O8 0.995278 0.647611 0.900588
O O9 0.280232 0.363286 0.620351
O O10 0.055678 0.367939 0.619467
O O11 0.303429 0.877441 0.762258
O O12 0.289374 0.795783 0.673777
O O13 0.328218 0.000000 0.674898
O O14 0.043277 0.828622 0.901196
O O15 0.182060 0.000000 0.866807
O O16 0.250000 0.750000 0.000000
O O17 0.000000 0.725292 0.000000
#
# Coordination Sequence:
#
# PCOD9197347 Si02
#       7
#     8   8   8   8   8   8   8
#     4  10  22  37  54  83 121 161 205 255 312 362
#     4  11  23  40  64  93 126 166 210 258 316 377
#     4  10  21  36  56  83 119 161 205 256 304 366
#     4  10  20  35  59  88 117 155 203 251 303 370
#     4  10  21  40  66  92 122 166 212 252 309 386
#     4  11  21  36  60  87 121 156 205 256 306 363
#     4  12  25  43  68  96 131 165 208 263 322 383
#
# _framework density 20.247638999999999
#
# number of rings (size 3 to 8) (size 9 to 14) (size 15 to 20)
#    0.000    1.429    4.286    1.286    0.000    4.000 
#    0.000    0.000    0.000    7.714    0.000    0.000 
#    0.000    0.000    0.000    0.000    0.000    0.000 
#
# Total GULP energy -156205.387491 kJ/mol
# GULP energy per Si atom -5578.763839 kJ/mol
# Density = 2.020155 g / cm^3
# Si number density = 20.247639 Si / 1000 Ang^3
#
#
#
# Elastic Constant Matrix: (Units=GPa)
#
#
# Indices 1 2 3 4 5 6 
#
# 1 51.2289 10.1897 41.0875 0.0000 -8.1678 0.0000
# 2 10.1897 91.4422 26.4334 0.0000 -11.1763 0.0000
# 3 41.0875 26.4334 102.5349 0.0000 -21.4467 0.0000
# 4 0.0000 0.0000 0.0000 -3.4585 0.0000 -0.8657
# 5 -8.1678 -11.1763 -21.4467 0.0000 31.2553 0.0000
# 6 0.0000 0.0000 0.0000 -0.8657 0.0000 17.3215
#
#
#
# Elastic Compliance Matrix: (Units=1/GPa)
#
#
# Indices 1 2 3 4 5 6 
#
# 1 0.028772 0.000108 -0.011648 0.000000 -0.000435 0.000000
# 2 0.000108 0.011986 -0.002605 0.000000 0.002527 0.000000
# 3 -0.011648 -0.002605 0.016650 0.000000 0.007450 0.000000
# 4 0.000000 0.000000 0.000000 -0.285566 0.000000 -0.014272
# 5 -0.000435 0.002527 0.007450 0.000000 0.037896 0.000000
# 6 0.000000 0.000000 0.000000 -0.014272 0.000000 0.057019
#
#
# Mechanical properties :
#
#
# Convention : Reuss Voigt Hill
#
# Bulk Modulus (GPa) = 34.34367 44.51414 39.42890
# Shear Modulus (GPa) = -52.49415 20.19000 -16.15207
#
# Velocity S-wave (km/s) = -5.09729 3.16120 -2.82747
# Velocity P-wave (km/s) = 4.20053 5.94616 2.97593
#
# Compressibility (1/GPa) = 0.02911745
#
# Stress axis : x y z
#
# Youngs Moduli (GPa) = 34.75645 83.43358 60.05986
#
# Poissons Ratio (x) = -0.00900 0.69959
# Poissons Ratio (y) = -0.00375 0.15643
# Poissons Ratio (z) = 0.40485 0.21731
#
# Static dielectric constant tensor:
#      x y z
#    x 1.759310 0.000000 0.012890 
#    y 0.000000 1.738400 0.000000 
#    z 0.012890 0.000000 1.696990 
# 
# From -- ./inp_files/357746.got.cif
#   From: 2010.05.17/outbox.cif.g08.bks.cpg/sg12_179_cif.got.tgz:357746.got - 2010.06.03 13:09:07.
