data_PCOD9197687
_publ_section_title
;
Structure prediction by ZEFSAII (Michael W. Deem and Ramdas Pophale) SiO2 
 PCOD9197687
Probable space group: C 2/M
;
_chemical_formula_sum "Si O2"
_cell_formula_units_Z 56
_cell_length_a 14.854988
_cell_length_b 15.352863
_cell_length_c 11.534881
_cell_angle_alpha 90.000000
_cell_angle_beta 86.135197
_cell_angle_gamma 90.000000
_cell_volume 2624.738446
_symmetry_space_group_name_H-M "C 2/M"
_symmetry_group_IT_number 12
_symmetry_cell_setting 'monoclinic'
loop_
_space_group_symop_operation_xyz
x,y,z
-x,y,-z
-x,-y,-z
x,-y,z
1/2+x,1/2+y,z
1/2-x,1/2+y,-z
1/2-x,1/2-y,-z
1/2+x,1/2-y,z
loop_
_atom_site_type_symbol
_atom_site_label
_atom_site_fract_x
_atom_site_fract_y
_atom_site_fract_z
Si Si1 0.604203 0.133319 0.977152
Si Si2 0.958802 0.100042 0.375758
Si Si3 0.818242 0.593823 0.275913
Si Si4 0.733391 0.899183 0.187491
Si Si5 0.396867 0.661561 0.026382
Si Si6 0.624002 0.600759 0.212577
Si Si7 0.206353 0.225861 0.626206
O O1 0.650810 0.092457 0.860389
O O2 0.500000 0.104939 0.000000
O O3 0.661908 0.115952 0.088709
O O4 0.601439 0.236303 0.949017
O O5 0.869026 0.153673 0.384244
O O6 0.000000 0.101127 0.500000
O O7 0.034341 0.135109 0.280928
O O8 0.941234 0.000000 0.345777
O O9 0.845422 0.500000 0.325940
O O10 0.709253 0.600121 0.289389
O O11 0.843956 0.686305 0.326416
O O12 0.728296 0.821945 0.284600
O O13 0.723265 0.000000 0.229147
O O14 0.833528 0.887241 0.122692
O O15 0.351993 0.651957 0.904446
O O16 0.500000 0.629746 0.000000
O O17 0.609298 0.500000 0.180094
O O18 0.250000 0.250000 0.500000
#
# Coordination Sequence:
#
# PCOD9197687 Si02
#       7
#     8   8   8   8   8   8   8
#     4  11  24  42  67  98 138 183 228 271 330 406
#     4  10  22  42  68  99 132 169 218 275 341 407
#     4  11  23  43  67  92 127 176 226 272 333 399
#     4  12  24  42  69 101 139 175 220 283 347 410
#     4  11  21  35  60  97 134 169 210 267 344 410
#     4  10  20  35  61  94 127 163 209 269 338 406
#     4  12  26  44  65  98 133 175 226 280 334 401
#
# _framework density 21.335457999999999
#
# number of rings (size 3 to 8) (size 9 to 14) (size 15 to 20)
#    0.000    1.000    2.857    4.286    2.000    5.714 
#    0.000    0.000    0.000    0.429    0.000    0.000 
#    0.000    0.000    0.000    0.000    0.000    0.000 
#
# Total GULP energy -156412.514632 kJ/mol
# GULP energy per Si atom -5586.161237 kJ/mol
# Density = 2.128690 g / cm^3
# Si number density = 21.335458 Si / 1000 Ang^3
#
#
#
# Elastic Constant Matrix: (Units=GPa)
#
#
# Indices 1 2 3 4 5 6 
#
# 1 92.4383 10.5942 21.6773 0.0000 -3.5799 0.0000
# 2 10.5942 94.0149 32.4574 0.0000 0.7812 0.0000
# 3 21.6773 32.4574 98.5893 0.0000 -16.4173 0.0000
# 4 0.0000 0.0000 0.0000 17.8197 0.0000 6.5875
# 5 -3.5799 0.7812 -16.4173 0.0000 29.7671 0.0000
# 6 0.0000 0.0000 0.0000 6.5875 0.0000 21.3396
#
#
#
# Elastic Compliance Matrix: (Units=1/GPa)
#
#
# Indices 1 2 3 4 5 6 
#
# 1 0.011425 -0.000481 -0.002337 0.000000 0.000098 0.000000
# 2 -0.000481 0.012228 -0.004386 0.000000 -0.002798 0.000000
# 3 -0.002337 -0.004386 0.013294 0.000000 0.007166 0.000000
# 4 0.000000 0.000000 0.000000 0.063347 0.000000 -0.019555
# 5 0.000098 -0.002798 0.007166 0.000000 0.037632 0.000000
# 6 0.000000 0.000000 0.000000 -0.019555 0.000000 0.052898
#
#
# Mechanical properties :
#
#
# Convention : Reuss Voigt Hill
#
# Bulk Modulus (GPa) = 44.36847 46.05560 45.21204
# Shear Modulus (GPa) = 23.50226 28.47283 25.98755
#
# Velocity S-wave (km/s) = 3.32257 3.65709 3.49384
# Velocity P-wave (km/s) = 5.96323 6.28217 6.12478
#
# Compressibility (1/GPa) = 0.02253853
#
# Stress axis : x y z
#
# Youngs Moduli (GPa) = 87.52657 81.77792 75.22065
#
# Poissons Ratio (x) = 0.03936 0.17582
# Poissons Ratio (y) = 0.04213 0.32990
# Poissons Ratio (z) = 0.20458 0.35866
#
# Static dielectric constant tensor:
#      x y z
#    x 1.783270 0.000000 0.033430 
#    y 0.000000 1.789180 0.000000 
#    z 0.033430 0.000000 1.799320 
# 
# From -- ./inp_files/143725.got.cif
#   From: 2010.05.17/outbox.cif.g08.bks.cpg/sg12_72_cif.got.tgz:143725.got - 2010.06.03 13:09:07.
