data_PCOD9197718
_publ_section_title
;
Structure prediction by ZEFSAII (Michael W. Deem and Ramdas Pophale) SiO2 
 PCOD9197718
Probable space group: C 2/M
;
_chemical_formula_sum "Si O2"
_cell_formula_units_Z 48
_cell_length_a 17.203955
_cell_length_b 15.287287
_cell_length_c 15.946321
_cell_angle_alpha 90.000000
_cell_angle_beta 145.661580
_cell_angle_gamma 90.000000
_cell_volume 2365.700809
_symmetry_space_group_name_H-M "C 2/M"
_symmetry_group_IT_number 12
_symmetry_cell_setting 'monoclinic'
loop_
_space_group_symop_operation_xyz
x,y,z
-x,y,-z
-x,-y,-z
x,-y,z
1/2+x,1/2+y,z
1/2-x,1/2+y,-z
1/2-x,1/2-y,-z
1/2+x,1/2-y,z
loop_
_atom_site_type_symbol
_atom_site_label
_atom_site_fract_x
_atom_site_fract_y
_atom_site_fract_z
Si Si1 0.363082 0.905306 0.612520
Si Si2 0.679137 0.312908 0.869371
Si Si3 0.427926 0.599324 0.742779
Si Si4 0.163402 0.597611 0.132076
Si Si5 0.809500 0.732559 0.698334
Si Si6 0.487057 0.806038 0.587095
O O1 0.206309 0.901629 0.437928
O O2 0.384405 0.826767 0.695758
O O3 0.463022 0.891169 0.622582
O O4 0.384674 0.000000 0.671885
O O5 0.561905 0.370365 0.810869
O O6 0.788044 0.372765 0.916573
O O7 0.604944 0.252166 0.733514
O O8 0.750000 0.250000 0.000000
O O9 0.443145 0.500000 0.788668
O O10 0.390387 0.675483 0.776446
O O11 0.219428 0.500000 0.199932
O O12 0.208046 0.672668 0.236432
O O13 0.000000 0.594387 0.000000
O O14 0.656771 0.754404 0.530639
O O15 0.500000 0.823620 0.500000
#
# Coordination Sequence:
#
# PCOD9197718 Si02
#       6
#     8   8   8   8   8   8
#     4  10  20  35  62  93 125 164 208 259 313 374
#     4  12  23  41  64  87 126 174 208 259 320 375
#     4  10  20  37  63  91 122 163 209 253 306 377
#     4  11  25  41  61  94 130 164 211 264 320 385
#     4  11  19  39  65  92 129 163 206 261 322 373
#     4  11  21  39  62  91 125 162 214 259 310 377
#
# _framework density 20.289971999999999
#
# number of rings (size 3 to 8) (size 9 to 14) (size 15 to 20)
#    0.000    1.167    5.000    3.000    0.000    0.333 
#    0.000    1.667    0.000    5.500    0.000    0.000 
#    0.000    0.000    0.000    0.000    0.000    0.000 
#
# Total GULP energy -133960.851034 kJ/mol
# GULP energy per Si atom -5581.702126 kJ/mol
# Density = 2.024379 g / cm^3
# Si number density = 20.289972 Si / 1000 Ang^3
#
#
#
# Elastic Constant Matrix: (Units=GPa)
#
#
# Indices 1 2 3 4 5 6 
#
# 1 117.3734 61.2152 21.6467 0.0000 4.4639 0.0000
# 2 61.2152 163.3566 27.3563 0.0001 -1.7477 0.0001
# 3 21.6467 27.3563 43.9388 0.0001 8.5566 0.0001
# 4 0.0000 0.0001 0.0001 6.3983 0.0001 -1.6853
# 5 4.4639 -1.7477 8.5566 0.0001 27.3366 0.0000
# 6 0.0000 0.0001 0.0001 -1.6853 0.0000 18.0956
#
#
#
# Elastic Compliance Matrix: (Units=1/GPa)
#
#
# Indices 1 2 3 4 5 6 
#
# 1 0.011004 -0.003644 -0.002936 0.000000 -0.001111 0.000000
# 2 -0.003644 0.008133 -0.003712 0.000000 0.002277 0.000000
# 3 -0.002936 -0.003712 0.028188 0.000000 -0.008581 0.000000
# 4 0.000000 0.000000 0.000000 0.160221 0.000000 0.014922
# 5 -0.001111 0.002277 -0.008581 0.000000 0.039594 0.000000
# 6 0.000000 0.000000 0.000000 0.014922 0.000000 0.056652
#
#
# Mechanical properties :
#
#
# Convention : Reuss Voigt Hill
#
# Bulk Modulus (GPa) = 37.39612 60.56722 48.98167
# Shear Modulus (GPa) = 15.00201 24.66281 19.83241
#
# Velocity S-wave (km/s) = 2.72211 3.49021 3.12981
# Velocity P-wave (km/s) = 5.32453 6.79395 6.10362
#
# Compressibility (1/GPa) = 0.02674074
#
# Stress axis : x y z
#
# Youngs Moduli (GPa) = 90.87664 122.95653 35.47664
#
# Poissons Ratio (x) = 0.44802 0.10417
# Poissons Ratio (y) = 0.33113 0.13168
# Poissons Ratio (z) = 0.26684 0.45640
#
# Static dielectric constant tensor:
#      x y z
#    x 1.743470 0.000000 -0.011080 
#    y 0.000000 1.756800 0.000000 
#    z -0.011080 0.000000 1.722820 
# 
# From -- ./inp_files/278234.got.cif
#   From: 2010.05.17/outbox.cif.g08.bks.cpg/sg12_140_cif.got.tgz:278234.got - 2010.06.03 13:09:07.
