data_PCOD9197389
_publ_section_title
;
Structure prediction by ZEFSAII (Michael W. Deem and Ramdas Pophale) SiO2 
 PCOD9197389
Probable space group: C 2/M
;
_chemical_formula_sum "Si O2"
_cell_formula_units_Z 48
_cell_length_a 32.017539
_cell_length_b 13.893437
_cell_length_c 9.387732
_cell_angle_alpha 90.000000
_cell_angle_beta 145.229855
_cell_angle_gamma 90.000000
_cell_volume 2381.500865
_symmetry_space_group_name_H-M "C 2/M"
_symmetry_group_IT_number 12
_symmetry_cell_setting 'monoclinic'
loop_
_space_group_symop_operation_xyz
x,y,z
-x,y,-z
-x,-y,-z
x,-y,z
1/2+x,1/2+y,z
1/2-x,1/2+y,-z
1/2-x,1/2-y,-z
1/2+x,1/2-y,z
loop_
_atom_site_type_symbol
_atom_site_label
_atom_site_fract_x
_atom_site_fract_y
_atom_site_fract_z
Si Si1 0.509048 0.107805 0.694047
Si Si2 0.319857 0.681754 0.523288
Si Si3 0.625590 0.612536 0.879112
Si Si4 0.831077 0.296377 0.831874
Si Si5 0.589253 0.724454 0.486831
Si Si6 0.542029 0.603339 0.932631
O O1 0.500000 0.101854 0.500000
O O2 0.439870 0.170367 0.553241
O O3 0.510461 0.000000 0.759246
O O4 0.587879 0.159580 0.932827
O O5 0.237409 0.641590 0.303803
O O6 0.320460 0.770072 0.636878
O O7 0.343829 0.714450 0.434248
O O8 0.383254 0.615524 0.769903
O O9 0.650830 0.500000 0.936330
O O10 0.603696 0.658522 0.666535
O O11 0.561657 0.608584 0.819403
O O12 0.673627 0.696879 0.088761
O O13 0.518321 0.681961 0.208025
O O14 0.508499 0.500000 0.865883
#
# Coordination Sequence:
#
# PCOD9197389 Si02
#       6
#     8   8   8   8   8   8
#     4  11  22  40  65  88 114 159 208 247 291 349
#     4  10  23  36  62  83 126 155 195 238 303 347
#     4  10  20  36  62  88 116 151 191 235 297 355
#     4  10  21  44  58  84 118 165 194 240 294 360
#     4  12  20  37  60  94 117 149 195 257 293 341
#     4  10  20  35  59  89 121 155 189 234 295 359
#
# _framework density 20.155355
#
# number of rings (size 3 to 8) (size 9 to 14) (size 15 to 20)
#    0.000    1.500    5.000    1.500    0.000    4.667 
#    0.000    5.000    0.000    0.000    0.000    0.000 
#    0.000    0.000    0.000    0.000    0.000    0.000 
#
# Total GULP energy -133647.921195 kJ/mol
# GULP energy per Si atom -5568.663383 kJ/mol
# Density = 2.010948 g / cm^3
# Si number density = 20.155355 Si / 1000 Ang^3
#
#
#
# Elastic Constant Matrix: (Units=GPa)
#
#
# Indices 1 2 3 4 5 6 
#
# 1 123.1711 21.8534 24.9991 0.0000 -16.3067 0.0000
# 2 21.8534 98.8149 9.0581 0.0000 -7.8633 0.0000
# 3 24.9991 9.0581 55.7491 0.0000 -17.0728 0.0000
# 4 0.0000 0.0000 0.0000 4.2449 0.0000 3.1368
# 5 -16.3067 -7.8633 -17.0728 0.0000 27.2524 0.0000
# 6 0.0000 0.0000 0.0000 3.1368 0.0000 -1.6048
#
#
#
# Elastic Compliance Matrix: (Units=1/GPa)
#
#
# Indices 1 2 3 4 5 6 
#
# 1 0.009437 -0.001550 -0.002954 0.000000 0.003349 0.000000
# 2 -0.001550 0.010653 -0.000469 0.000000 0.001853 0.000000
# 3 -0.002954 -0.000469 0.023208 0.000000 0.012636 0.000000
# 4 0.000000 0.000000 0.000000 0.096375 0.000000 0.188378
# 5 0.003349 0.001853 0.012636 0.000000 0.047148 0.000000
# 6 0.000000 0.000000 0.000000 0.188378 0.000000 -0.254929
#
#
# Mechanical properties :
#
#
# Convention : Reuss Voigt Hill
#
# Bulk Modulus (GPa) = 29.98244 43.28400 36.63322
# Shear Modulus (GPa) = -106.28112 20.76682 -42.75715
#
# Velocity S-wave (km/s) = -7.26949 3.21337 -4.61084
# Velocity P-wave (km/s) = 7.45336 5.94049 3.18301
#
# Compressibility (1/GPa) = 0.03335286
#
# Stress axis : x y z
#
# Youngs Moduli (GPa) = 105.96949 93.86985 43.08819
#
# Poissons Ratio (x) = 0.14547 0.12730
# Poissons Ratio (y) = 0.16422 0.02019
# Poissons Ratio (z) = 0.31307 0.04398
#
# Static dielectric constant tensor:
#      x y z
#    x 1.746410 0.000000 0.012440 
#    y 0.000000 1.753220 0.000000 
#    z 0.012440 0.000000 1.764380 
# 
# From -- ./inp_files/111769.got.cif
#   From: 2010.05.17/outbox.cif.g08.bks.cpg/sg12_56_cif.got.tgz:111769.got - 2010.06.03 13:09:07.
