data_PCOD9197235
_publ_section_title
;
Structure prediction by ZEFSAII (Michael W. Deem and Ramdas Pophale) SiO2 
 PCOD9197235
Probable space group: C 2/M
;
_chemical_formula_sum "Si O2"
_cell_formula_units_Z 40
_cell_length_a 25.652821
_cell_length_b 11.327158
_cell_length_c 8.376892
_cell_angle_alpha 90.000000
_cell_angle_beta 48.472585
_cell_angle_gamma 90.000000
_cell_volume 1822.263647
_symmetry_space_group_name_H-M "C 2/M"
_symmetry_group_IT_number 12
_symmetry_cell_setting 'monoclinic'
loop_
_space_group_symop_operation_xyz
x,y,z
-x,y,-z
-x,-y,-z
x,-y,z
1/2+x,1/2+y,z
1/2-x,1/2+y,-z
1/2-x,1/2-y,-z
1/2+x,1/2-y,z
loop_
_atom_site_type_symbol
_atom_site_label
_atom_site_fract_x
_atom_site_fract_y
_atom_site_fract_z
Si Si1 0.523552 0.000000 0.213526
Si Si2 0.232453 0.136938 0.307230
Si Si3 0.151285 0.254401 0.739668
Si Si4 0.398985 0.360974 0.604184
Si Si5 0.962624 0.239408 0.788129
Si Si6 0.388927 0.000000 0.294421
O O1 0.542578 0.876579 0.253466
O O2 0.442297 0.000000 0.332227
O O3 0.565295 0.000000 0.961220
O O4 0.184899 0.154474 0.562616
O O5 0.299429 0.215677 0.208939
O O6 0.179995 0.174921 0.273785
O O7 0.252847 0.000000 0.246118
O O8 0.151484 0.376611 0.637174
O O9 0.075857 0.227883 0.965003
O O10 0.403058 0.500000 0.562149
O O11 0.456514 0.296068 0.378100
O O12 0.423928 0.336825 0.732893
#
# Coordination Sequence:
#
# PCOD9197235 Si02
#       6
#     4   8   8   8   8   4
#     4   9  18  29  54  82 110 140 176 220 275 323
#     4  10  21  37  56  82 111 146 184 226 275 325
#     4  10  20  35  59  80 110 144 186 227 271 329
#     4  10  22  38  56  79 113 147 183 228 276 323
#     4  10  20  36  56  82 111 146 182 226 275 326
#     4   9  16  32  52  82 110 140 174 223 275 325
#
# _framework density 21.950718999999999
#
# number of rings (size 3 to 8) (size 9 to 14) (size 15 to 20)
#    0.000    2.200    1.000    2.400    0.000    6.400 
#    0.000    3.000    0.000    0.000    0.000    0.000 
#    0.000    0.000    0.000    0.000    0.000    0.000 
#
# Total GULP energy -111647.901238 kJ/mol
# GULP energy per Si atom -5582.395062 kJ/mol
# Density = 2.190076 g / cm^3
# Si number density = 21.950719 Si / 1000 Ang^3
#
#
#
# Elastic Constant Matrix: (Units=GPa)
#
#
# Indices 1 2 3 4 5 6 
#
# 1 78.0641 1.4141 -24.7539 0.0000 -7.3180 0.0000
# 2 1.4141 48.5260 -4.1396 0.0000 -5.1493 0.0000
# 3 -24.7539 -4.1396 43.9449 0.0000 -2.1367 0.0000
# 4 0.0000 0.0000 0.0000 18.2195 0.0000 -3.6812
# 5 -7.3180 -5.1493 -2.1367 0.0000 17.5645 0.0000
# 6 0.0000 0.0000 0.0000 -3.6812 0.0000 30.5546
#
#
#
# Elastic Compliance Matrix: (Units=1/GPa)
#
#
# Indices 1 2 3 4 5 6 
#
# 1 0.016752 0.001271 0.009973 0.000000 0.008566 0.000000
# 2 0.001271 0.021604 0.003103 0.000000 0.007241 0.000000
# 3 0.009973 0.003103 0.029084 0.000000 0.008603 0.000000
# 4 0.000000 0.000000 0.000000 0.056256 0.000000 0.006778
# 5 0.008566 0.007241 0.008603 0.000000 0.063671 0.000000
# 6 0.000000 0.000000 0.000000 0.006778 0.000000 0.033545
#
#
# Mechanical properties :
#
#
# Convention : Reuss Voigt Hill
#
# Bulk Modulus (GPa) = 10.40208 12.84181 11.62195
# Shear Modulus (GPa) = 22.29544 26.46868 24.38206
#
# Velocity S-wave (km/s) = 3.19047 3.47626 3.33643
# Velocity P-wave (km/s) = 4.28033 4.68781 4.48870
#
# Compressibility (1/GPa) = 0.09613459
#
# Stress axis : x y z
#
# Youngs Moduli (GPa) = 59.69359 46.28871 34.38328
#
# Poissons Ratio (x) = -0.05886 -0.34289
# Poissons Ratio (y) = -0.07590 -0.10670
# Poissons Ratio (z) = -0.59530 -0.14365
#
# Static dielectric constant tensor:
#      x y z
#    x 1.850030 0.000000 -0.000860 
#    y 0.000000 1.801000 0.000000 
#    z -0.000860 0.000000 1.782740 
# 
# From -- ./inp_files/83593.got.cif
#   From: 2010.05.17/outbox.cif.g08.bks.cpg/sg12_42_cif.got.tgz:83593.got - 2010.06.03 13:09:07.
