data_PCOD9197772
_publ_section_title
;
Structure prediction by ZEFSAII (Michael W. Deem and Ramdas Pophale) SiO2 
 PCOD9197772
Probable space group: C 2/M
;
_chemical_formula_sum "Si O2"
_cell_formula_units_Z 36
_cell_length_a 9.153398
_cell_length_b 23.035758
_cell_length_c 7.050597
_cell_angle_alpha 90.000000
_cell_angle_beta 103.579930
_cell_angle_gamma 90.000000
_cell_volume 1445.094874
_symmetry_space_group_name_H-M "C 2/M"
_symmetry_group_IT_number 12
_symmetry_cell_setting 'monoclinic'
loop_
_space_group_symop_operation_xyz
x,y,z
-x,y,-z
-x,-y,-z
x,-y,z
1/2+x,1/2+y,z
1/2-x,1/2+y,-z
1/2-x,1/2-y,-z
1/2+x,1/2-y,z
loop_
_atom_site_type_symbol
_atom_site_label
_atom_site_fract_x
_atom_site_fract_y
_atom_site_fract_z
Si Si1 0.449795 0.295656 0.200900
Si Si2 0.715099 0.500000 0.896935
Si Si3 0.671535 0.124873 0.027934
Si Si4 0.228417 0.875576 0.381248
Si Si5 0.374808 0.500000 0.681593
Si Si6 0.500000 0.804922 0.500000
O O1 0.295385 0.331202 0.147736
O O2 0.580418 0.335916 0.330248
O O3 0.437737 0.237623 0.318790
O O4 0.500000 0.284131 0.000000
O O5 0.802553 0.559601 0.886659
O O6 0.554849 0.500000 0.743055
O O7 0.673739 0.500000 0.110103
O O8 0.500000 0.142197 0.000000
O O9 0.711891 0.121613 0.816953
O O10 0.364344 0.844843 0.530654
O O11 0.187468 0.940724 0.424371
#
# Coordination Sequence:
#
# PCOD9197772 Si02
#       6
#     8   4   8   8   4   4
#     4  10  23  44  68  95 134 182 220 267 334 394
#     4   9  15  32  64  98 131 169 214 273 339 397
#     4  10  20  35  64 102 134 169 221 276 329 399
#     4  10  22  40  65  96 131 177 222 271 336 394
#     4   9  16  35  68  94 126 173 220 269 335 405
#     4  12  26  41  66  99 134 176 232 276 314 386
#
# _framework density 24.911859
#
# number of rings (size 3 to 8) (size 9 to 14) (size 15 to 20)
#    0.000    2.000    2.222    1.000    0.000    8.444 
#    0.000    0.000    0.000    5.333    0.000    5.444 
#    0.000    0.000    0.000    0.000    0.000    0.000 
#
# Total GULP energy -101018.412398 kJ/mol
# GULP energy per Si atom -5612.134022 kJ/mol
# Density = 2.485516 g / cm^3
# Si number density = 24.911859 Si / 1000 Ang^3
#
#
#
# Elastic Constant Matrix: (Units=GPa)
#
#
# Indices 1 2 3 4 5 6 
#
# 1 173.9756 75.2074 45.0590 0.0000 32.9570 0.0000
# 2 75.2074 213.4592 45.1708 0.0000 32.4131 0.0000
# 3 45.0590 45.1708 84.8012 0.0000 6.9459 0.0000
# 4 0.0000 0.0000 0.0000 53.9844 0.0000 69.2069
# 5 32.9570 32.4131 6.9459 0.0000 51.4654 0.0000
# 6 0.0000 0.0000 0.0000 69.2069 0.0000 84.4937
#
#
#
# Elastic Compliance Matrix: (Units=1/GPa)
#
#
# Indices 1 2 3 4 5 6 
#
# 1 0.007920 -0.001587 -0.003064 0.000000 -0.003659 0.000000
# 2 -0.001587 0.006092 -0.002195 0.000000 -0.002524 0.000000
# 3 -0.003064 -0.002195 0.014475 0.000000 0.001391 0.000000
# 4 0.000000 0.000000 0.000000 -0.370174 0.000000 0.303201
# 5 -0.003659 -0.002524 0.001391 0.000000 0.023176 0.000000
# 6 0.000000 0.000000 0.000000 0.303201 0.000000 -0.236510
#
#
# Mechanical properties :
#
#
# Convention : Reuss Voigt Hill
#
# Bulk Modulus (GPa) = 67.58150 89.23448 78.40799
# Shear Modulus (GPa) = -9.32144 58.44195 24.56025
#
# Velocity S-wave (km/s) = -1.93646 4.84875 3.14329
# Velocity P-wave (km/s) = 4.71034 8.20031 6.68702
#
# Compressibility (1/GPa) = 0.01479695
#
# Stress axis : x y z
#
# Youngs Moduli (GPa) = 126.25473 164.16270 69.08261
#
# Poissons Ratio (x) = 0.26047 0.21165
# Poissons Ratio (y) = 0.20032 0.15163
# Poissons Ratio (z) = 0.38680 0.36033
#
# Static dielectric constant tensor:
#      x y z
#    x 1.880760 0.000000 -0.043090 
#    y 0.000000 1.910130 0.000000 
#    z -0.043090 0.000000 2.035240 
# 
# From -- ./inp_files/39558.got.cif
#   From: 2010.05.17/outbox.cif.g08.bks.cpg/sg12_20_cif.got.tgz:39558.got - 2010.06.03 13:09:07.
