data_PCOD9197755
_publ_section_title
;
Structure prediction by ZEFSAII (Michael W. Deem and Ramdas Pophale) SiO2 
 PCOD9197755
Probable space group: C 2/M
;
_chemical_formula_sum "Si O2"
_cell_formula_units_Z 48
_cell_length_a 9.093879
_cell_length_b 29.817667
_cell_length_c 13.737594
_cell_angle_alpha 90.000000
_cell_angle_beta 144.463590
_cell_angle_gamma 90.000000
_cell_volume 2165.081252
_symmetry_space_group_name_H-M "C 2/M"
_symmetry_group_IT_number 12
_symmetry_cell_setting 'monoclinic'
loop_
_space_group_symop_operation_xyz
x,y,z
-x,y,-z
-x,-y,-z
x,-y,z
1/2+x,1/2+y,z
1/2-x,1/2+y,-z
1/2-x,1/2-y,-z
1/2+x,1/2-y,z
loop_
_atom_site_type_symbol
_atom_site_label
_atom_site_fract_x
_atom_site_fract_y
_atom_site_fract_z
Si Si1 0.173730 0.448691 0.692059
Si Si2 0.652802 0.550945 0.483231
Si Si3 0.523667 0.636129 0.901939
Si Si4 0.733641 0.212634 0.410184
Si Si5 0.528121 0.819052 0.120560
Si Si6 0.571698 0.356768 0.356798
O O1 0.265216 0.500000 0.738997
O O2 0.391965 0.412767 0.828760
O O3 0.000000 0.441881 0.500000
O O4 0.955689 0.444608 0.657122
O O5 0.500000 0.557523 0.500000
O O6 0.605797 0.500000 0.423509
O O7 0.570879 0.589940 0.366298
O O8 0.391412 0.658622 0.734960
O O9 0.500000 0.653234 0.000000
O O10 0.815021 0.643561 0.026622
O O11 0.750000 0.250000 0.500000
O O12 0.530775 0.213449 0.214891
O O13 0.000000 0.216191 0.500000
O O14 0.721390 0.165322 0.460975
O O15 0.802912 0.841399 0.255549
O O16 0.500000 0.796287 0.000000
#
# Coordination Sequence:
#
# PCOD9197755 Si02
#       6
#     8   8   8   8   8   8
#     4  10  21  39  59  86 129 171 221 277 321 378
#     4  10  20  35  63  93 120 165 224 269 310 376
#     4  11  24  36  58  92 125 171 214 265 335 379
#     4  10  22  42  69  98 125 168 219 267 319 387
#     4   9  21  42  62  91 136 170 206 259 333 386
#     4  10  21  41  64  88 127 174 217 265 315 393
#
# _framework density 22.170069999999999
#
# number of rings (size 3 to 8) (size 9 to 14) (size 15 to 20)
#    0.000    2.000    1.667    1.500    4.667    1.667 
#    0.000    9.167    0.000    3.000    0.000    0.000 
#    0.000    0.000    0.000    0.000    0.000    0.000 
#
# Total GULP energy -133672.246709 kJ/mol
# GULP energy per Si atom -5569.676946 kJ/mol
# Density = 2.211961 g / cm^3
# Si number density = 22.170070 Si / 1000 Ang^3
#
#
#
# Elastic Constant Matrix: (Units=GPa)
#
#
# Indices 1 2 3 4 5 6 
#
# 1 149.5155 34.2801 46.4864 0.0000 -28.8145 0.0000
# 2 34.2801 58.5289 30.1495 0.0000 -19.3532 0.0000
# 3 46.4864 30.1495 79.9267 0.0000 -29.9244 0.0000
# 4 0.0000 0.0000 0.0000 14.2733 0.0000 -9.2487
# 5 -28.8145 -19.3532 -29.9244 0.0000 34.4580 0.0000
# 6 0.0000 0.0000 0.0000 -9.2487 0.0000 15.1502
#
#
#
# Elastic Compliance Matrix: (Units=1/GPa)
#
#
# Indices 1 2 3 4 5 6 
#
# 1 0.008834 -0.002547 -0.002885 0.000000 0.003451 0.000000
# 2 -0.002547 0.023278 -0.004745 0.000000 0.006824 0.000000
# 3 -0.002885 -0.004745 0.020861 0.000000 0.013039 0.000000
# 4 0.000000 0.000000 0.000000 0.115913 0.000000 0.070761
# 5 0.003451 0.006824 0.013039 0.000000 0.047063 0.000000
# 6 0.000000 0.000000 0.000000 0.070761 0.000000 0.109203
#
#
# Mechanical properties :
#
#
# Convention : Reuss Voigt Hill
#
# Bulk Modulus (GPa) = 30.65628 56.64478 43.65053
# Shear Modulus (GPa) = 14.03002 24.57996 19.30499
#
# Velocity S-wave (km/s) = 2.51835 3.33333 2.95408
# Velocity P-wave (km/s) = 4.72376 6.35770 5.60064
#
# Compressibility (1/GPa) = 0.03261974
#
# Stress axis : x y z
#
# Youngs Moduli (GPa) = 113.19358 42.95975 47.93613
#
# Poissons Ratio (x) = 0.10941 0.13831
# Poissons Ratio (y) = 0.28827 0.22744
# Poissons Ratio (z) = 0.32660 0.20383
#
# Static dielectric constant tensor:
#      x y z
#    x 1.905760 0.000000 -0.088000 
#    y 0.000000 1.838860 0.000000 
#    z -0.088000 0.000000 1.909730 
# 
# From -- ./inp_files/200236.got.cif
#   From: 2010.05.17/outbox.cif.g08.bks.cpg/sg12_101_cif.got.tgz:200236.got - 2010.06.03 13:09:07.
