data_PCOD9197232
_publ_section_title
;
Structure prediction by ZEFSAII (Michael W. Deem and Ramdas Pophale) SiO2 
 PCOD9197232
Probable space group: C 2/M
;
_chemical_formula_sum "Si O2"
_cell_formula_units_Z 52
_cell_length_a 21.224783
_cell_length_b 19.553648
_cell_length_c 9.465732
_cell_angle_alpha 90.000000
_cell_angle_beta 138.309018
_cell_angle_gamma 90.000000
_cell_volume 2612.886719
_symmetry_space_group_name_H-M "C 2/M"
_symmetry_group_IT_number 12
_symmetry_cell_setting 'monoclinic'
loop_
_space_group_symop_operation_xyz
x,y,z
-x,y,-z
-x,-y,-z
x,-y,z
1/2+x,1/2+y,z
1/2-x,1/2+y,-z
1/2-x,1/2-y,-z
1/2+x,1/2-y,z
loop_
_atom_site_type_symbol
_atom_site_label
_atom_site_fract_x
_atom_site_fract_y
_atom_site_fract_z
Si Si1 0.827013 0.168788 0.410719
Si Si2 0.527765 0.208057 0.379734
Si Si3 0.600509 0.076089 0.590480
Si Si4 0.890667 0.111704 0.799894
Si Si5 0.291204 0.624557 0.035427
Si Si6 0.833952 0.000000 0.918142
Si Si7 0.149459 0.241466 0.081862
O O1 0.905816 0.227803 0.537080
O O2 0.857224 0.117100 0.583467
O O3 0.817883 0.136122 0.241101
O O4 0.728386 0.207724 0.272945
O O5 0.500000 0.210056 0.500000
O O6 0.582441 0.136266 0.448691
O O7 0.436503 0.216530 0.129676
O O8 0.500000 0.068274 0.500000
O O9 0.633574 0.000000 0.597971
O O10 0.681250 0.103587 0.830195
O O11 0.828593 0.060193 0.787140
O O12 0.883048 0.187314 0.855095
O O13 0.000000 0.088795 0.000000
O O14 0.345701 0.561250 0.057036
O O15 0.309223 0.693897 0.976256
#
# Coordination Sequence:
#
# PCOD9197232 Si02
#       7
#     8   8   8   8   8   4   8
#     4  12  22  37  65  97 121 163 215 263 315 370
#     4  11  20  35  62  96 130 158 208 268 316 368
#     4  10  20  35  58  94 131 167 200 254 325 377
#     4  11  24  43  63  87 128 170 208 255 325 391
#     4  11  21  39  65  91 124 164 213 266 318 368
#     4  10  25  44  62  86 127 168 208 263 320 387
#     4  11  22  39  62  96 128 164 208 266 321 369
#
# _framework density 19.901361000000001
#
# number of rings (size 3 to 8) (size 9 to 14) (size 15 to 20)
#    0.000    1.077    5.385    3.000    0.000    0.615 
#    0.000    0.769    1.692    0.000    0.000    5.385 
#    0.000    0.000    0.000    0.000    0.000    0.000 
#
# Total GULP energy -144735.842519 kJ/mol
# GULP energy per Si atom -5566.763174 kJ/mol
# Density = 1.985606 g / cm^3
# Si number density = 19.901361 Si / 1000 Ang^3
#
#
#
# Elastic Constant Matrix: (Units=GPa)
#
#
# Indices 1 2 3 4 5 6 
#
# 1 26.0094 9.5389 34.1367 0.0000 -7.9997 0.0000
# 2 9.5389 100.1326 34.8035 0.0000 -8.3721 0.0000
# 3 34.1367 34.8035 98.6585 0.0000 7.0799 0.0000
# 4 0.0000 0.0000 0.0000 15.5247 0.0000 6.5059
# 5 -7.9997 -8.3721 7.0799 0.0000 24.6278 0.0000
# 6 0.0000 0.0000 0.0000 6.5059 0.0000 16.2651
#
#
#
# Elastic Compliance Matrix: (Units=1/GPa)
#
#
# Indices 1 2 3 4 5 6 
#
# 1 0.110573 0.009613 -0.045399 0.000000 0.052236 0.000000
# 2 0.009613 0.012890 -0.008589 0.000000 0.009974 0.000000
# 3 -0.045399 -0.008589 0.030777 0.000000 -0.026514 0.000000
# 4 0.000000 0.000000 0.000000 0.077385 0.000000 -0.030954
# 5 0.052236 0.009974 -0.026514 0.000000 0.068585 0.000000
# 6 0.000000 0.000000 0.000000 -0.030954 0.000000 0.073863
#
#
# Mechanical properties :
#
#
# Convention : Reuss Voigt Hill
#
# Bulk Modulus (GPa) = 15.26933 42.41762 28.84348
# Shear Modulus (GPa) = 10.31665 21.03828 15.67747
#
# Velocity S-wave (km/s) = 2.27929 3.25488 2.80975
# Velocity P-wave (km/s) = 3.82309 5.95700 5.00509
#
# Compressibility (1/GPa) = 0.06549076
#
# Stress axis : x y z
#
# Youngs Moduli (GPa) = 9.04378 77.57766 32.49160
#
# Poissons Ratio (x) = -0.74579 1.47509
# Poissons Ratio (y) = -0.08694 0.27908
# Poissons Ratio (z) = 0.41058 0.66634
#
# Static dielectric constant tensor:
#      x y z
#    x 1.841380 0.000000 0.064840 
#    y 0.000000 1.612680 0.000000 
#    z 0.064840 0.000000 1.680610 
# 
# From -- ./inp_files/99167.got.cif
#   From: 2010.05.17/outbox.cif.g08.bks.cpg/sg12_50_cif.got.tgz:99167.got - 2010.06.03 13:09:07.
