data_PCOD9197831
_publ_section_title
;
Structure prediction by ZEFSAII (Michael W. Deem and Ramdas Pophale) SiO2 
 PCOD9197831
Probable space group: C 2/M
;
_chemical_formula_sum "Si O2"
_cell_formula_units_Z 56
_cell_length_a 18.152625
_cell_length_b 20.146390
_cell_length_c 16.950391
_cell_angle_alpha 90.000000
_cell_angle_beta 31.643479
_cell_angle_gamma 90.000000
_cell_volume 3252.155063
_symmetry_space_group_name_H-M "C 2/M"
_symmetry_group_IT_number 12
_symmetry_cell_setting 'monoclinic'
loop_
_space_group_symop_operation_xyz
x,y,z
-x,y,-z
-x,-y,-z
x,-y,z
1/2+x,1/2+y,z
1/2-x,1/2+y,-z
1/2-x,1/2-y,-z
1/2+x,1/2-y,z
loop_
_atom_site_type_symbol
_atom_site_label
_atom_site_fract_x
_atom_site_fract_y
_atom_site_fract_z
Si Si1 0.308343 0.649816 0.898398
Si Si2 0.871224 0.924531 0.568974
Si Si3 0.833617 0.263326 0.660453
Si Si4 0.163827 0.366619 0.867081
Si Si5 0.296590 0.809170 0.517460
Si Si6 0.375956 0.197643 0.790964
Si Si7 0.896650 0.920314 0.370257
O O1 0.209250 0.626195 0.916632
O O2 0.364290 0.723482 0.822831
O O3 0.441101 0.601452 0.786692
O O4 0.220263 0.659636 0.058491
O O5 0.736007 0.921692 0.746662
O O6 0.854495 0.896433 0.497498
O O7 0.000000 0.893992 0.500000
O O8 0.913512 0.000000 0.514119
O O9 0.740814 0.199634 0.765917
O O10 0.785140 0.288352 0.619480
O O11 0.825347 0.309161 0.746362
O O12 0.000000 0.249498 0.500000
O O13 0.000000 0.363331 0.000000
O O14 0.250000 0.750000 0.500000
O O15 0.461390 0.822120 0.351034
O O16 0.202201 0.874450 0.592519
O O17 0.878745 0.000000 0.376452
#
# Coordination Sequence:
#
# PCOD9197831 Si02
#       7
#     8   8   8   8   8   8   8
#     4  10  20  36  54  80 119 151 185 231 287 348
#     4  10  20  36  53  71 105 151 191 219 265 338
#     4   9  20  36  56  83 112 145 183 233 288 340
#     4  11  22  30  52  84 115 145 185 231 281 334
#     4  11  20  34  63  88 111 144 191 244 283 333
#     4   9  20  36  56  84 112 146 187 237 292 329
#     4  11  23  38  58  84 115 155 194 235 285 345
#
# _framework density 17.219351
#
# number of rings (size 3 to 8) (size 9 to 14) (size 15 to 20)
#    0.000    1.857    2.857    1.286    6.000    1.429 
#    0.000    0.714    0.000    5.571    0.000    0.000 
#    0.000    0.000    0.000    0.000    0.000    0.000 
#
# Total GULP energy -156056.319708 kJ/mol
# GULP energy per Si atom -5573.439990 kJ/mol
# Density = 1.718016 g / cm^3
# Si number density = 17.219351 Si / 1000 Ang^3
#
#
#
# Elastic Constant Matrix: (Units=GPa)
#
#
# Indices 1 2 3 4 5 6 
#
# 1 139.9222 50.6655 57.3898 -0.0007 6.1369 -0.0020
# 2 50.6655 66.3989 24.3874 -0.0027 -1.3339 -0.0012
# 3 57.3898 24.3874 94.7104 -0.0040 3.7364 -0.0034
# 4 -0.0007 -0.0027 -0.0040 12.4554 0.0015 -14.7376
# 5 6.1369 -1.3339 3.7364 0.0015 34.7156 0.0006
# 6 -0.0020 -0.0012 -0.0034 -14.7376 0.0006 -6.1589
#
#
#
# Elastic Compliance Matrix: (Units=1/GPa)
#
#
# Indices 1 2 3 4 5 6 
#
# 1 0.012059 -0.007269 -0.005363 -0.000001 -0.001834 0.000002
# 2 -0.007269 0.021057 -0.001105 0.000001 0.002213 -0.000002
# 3 -0.005363 -0.001105 0.014117 -0.000001 -0.000614 -0.000004
# 4 -0.000001 0.000001 -0.000001 0.020955 0.000000 -0.050144
# 5 -0.001834 0.002213 -0.000614 0.000000 0.029281 0.000003
# 6 0.000002 -0.000002 -0.000004 -0.050144 0.000003 -0.042379
#
#
# Mechanical properties :
#
#
# Convention : Reuss Voigt Hill
#
# Bulk Modulus (GPa) = 50.60823 62.87965 56.74394
# Shear Modulus (GPa) = 56.08521 19.44168 37.76344
#
# Velocity S-wave (km/s) = 5.71330 3.36379 4.68812
# Velocity P-wave (km/s) = 8.54263 7.18908 7.89492
#
# Compressibility (1/GPa) = 0.01975963
#
# Stress axis : x y z
#
# Youngs Moduli (GPa) = 82.92622 47.49003 70.83633
#
# Poissons Ratio (x) = 0.34518 0.37991
# Poissons Ratio (y) = 0.60275 0.07827
# Poissons Ratio (z) = 0.44475 0.05248
#
# Static dielectric constant tensor:
#      x y z
#    x 1.623240 0.000000 0.017010 
#    y 0.000000 1.596890 0.000000 
#    z 0.017010 0.000000 1.586860 
# 
# From -- ./inp_files/75863.got.cif
#   From: 2010.05.17/outbox.cif.g08.bks.cpg/sg12_38_cif.got.tgz:75863.got - 2010.06.03 13:09:07.
