data_PCOD9197058
_publ_section_title
;
Structure prediction by ZEFSAII (Michael W. Deem and Ramdas Pophale) SiO2 
 PCOD9197058
Probable space group: C 2/M
;
_chemical_formula_sum "Si O2"
_cell_formula_units_Z 48
_cell_length_a 24.185375
_cell_length_b 9.079124
_cell_length_c 10.823410
_cell_angle_alpha 90.000000
_cell_angle_beta 72.641874
_cell_angle_gamma 90.000000
_cell_volume 2268.391389
_symmetry_space_group_name_H-M "C 2/M"
_symmetry_group_IT_number 12
_symmetry_cell_setting 'monoclinic'
loop_
_space_group_symop_operation_xyz
x,y,z
-x,y,-z
-x,-y,-z
x,-y,z
1/2+x,1/2+y,z
1/2-x,1/2+y,-z
1/2-x,1/2-y,-z
1/2+x,1/2-y,z
loop_
_atom_site_type_symbol
_atom_site_label
_atom_site_fract_x
_atom_site_fract_y
_atom_site_fract_z
Si Si1 0.238017 0.671571 0.704934
Si Si2 0.468673 0.334976 0.155010
Si Si3 0.837891 0.670641 0.493809
Si Si4 0.575543 0.174628 0.187781
Si Si5 0.856480 0.176442 0.081404
Si Si6 0.431085 0.671354 0.553906
O O1 0.249683 0.500000 0.724117
O O2 0.195793 0.677940 0.613240
O O3 0.295145 0.756285 0.622970
O O4 0.203641 0.751366 0.837437
O O5 0.470735 0.500000 0.210380
O O6 0.509375 0.223711 0.201205
O O7 0.403705 0.294987 0.159236
O O8 0.500000 0.345730 0.000000
O O9 0.848922 0.500000 0.514114
O O10 0.897135 0.761866 0.460355
O O11 0.588713 0.237500 0.313594
O O12 0.581120 0.000000 0.177463
O O13 0.616609 0.251494 0.058978
O O14 0.852399 0.000000 0.070648
O O15 0.500000 0.685869 0.500000
O O16 0.416820 0.500000 0.577416
#
# Coordination Sequence:
#
# PCOD9197058 Si02
#       6
#     8   8   8   8   8   8
#     4  10  21  38  63  93 123 156 198 247 299 353
#     4   8  16  31  50  76 112 153 192 235 286 344
#     4  10  22  41  63  90 122 157 200 249 297 350
#     4  11  22  36  56  84 120 156 197 248 299 354
#     4  10  20  35  58  86 119 157 199 245 297 354
#     4  11  25  43  63  86 118 162 204 243 296 361
#
# _framework density 21.160368999999999
#
# number of rings (size 3 to 8) (size 9 to 14) (size 15 to 20)
#    0.000    2.000    0.000    4.500    2.333    7.000 
#    0.000    0.833    0.000    0.000    0.000    0.000 
#    0.000    0.000    0.000    0.000    0.000    0.000 
#
# Total GULP energy -134167.705002 kJ/mol
# GULP energy per Si atom -5590.321042 kJ/mol
# Density = 2.111221 g / cm^3
# Si number density = 21.160369 Si / 1000 Ang^3
#
#
#
# Elastic Constant Matrix: (Units=GPa)
#
#
# Indices 1 2 3 4 5 6 
#
# 1 46.3624 30.4994 -4.4823 0.0000 -3.0033 0.0000
# 2 30.4994 121.9341 39.5301 0.0000 -4.0483 0.0000
# 3 -4.4823 39.5301 71.0375 0.0000 -7.9042 0.0000
# 4 0.0000 0.0000 0.0000 25.2404 0.0000 2.4045
# 5 -3.0033 -4.0483 -7.9042 0.0000 34.0432 0.0000
# 6 0.0000 0.0000 0.0000 2.4045 0.0000 27.3909
#
#
#
# Elastic Compliance Matrix: (Units=1/GPa)
#
#
# Indices 1 2 3 4 5 6 
#
# 1 0.028742 -0.009500 0.007449 0.000000 0.003135 0.000000
# 2 -0.009500 0.013147 -0.008042 0.000000 -0.001142 0.000000
# 3 0.007449 -0.008042 0.019493 0.000000 0.004227 0.000000
# 4 0.000000 0.000000 0.000000 0.039953 0.000000 -0.003507
# 5 0.003135 -0.001142 0.004227 0.000000 0.030497 0.000000
# 6 0.000000 0.000000 0.000000 -0.003507 0.000000 0.036816
#
#
# Mechanical properties :
#
#
# Convention : Reuss Voigt Hill
#
# Bulk Modulus (GPa) = 24.27503 41.15871 32.71687
# Shear Modulus (GPa) = 24.68337 28.92070 26.80204
#
# Velocity S-wave (km/s) = 3.41910 3.70095 3.56281
# Velocity P-wave (km/s) = 5.20421 6.14458 5.69384
#
# Compressibility (1/GPa) = 0.04119459
#
# Stress axis : x y z
#
# Youngs Moduli (GPa) = 34.79230 76.06476 51.30152
#
# Poissons Ratio (x) = 0.72262 -0.38214
# Poissons Ratio (y) = 0.33053 0.41258
# Poissons Ratio (z) = -0.25916 0.61173
#
# Static dielectric constant tensor:
#      x y z
#    x 1.787160 0.000000 0.012600 
#    y 0.000000 1.705060 0.000000 
#    z 0.012600 0.000000 1.777810 
# 
# From -- ./inp_files/172904.got.cif
#   From: 2010.05.17/outbox.cif.g08.bks.cpg/sg12_87_cif.got.tgz:172904.got - 2010.06.03 13:09:07.
