data_PCOD9197936
_publ_section_title
;
Structure prediction by ZEFSAII (Michael W. Deem and Ramdas Pophale) SiO2 
 PCOD9197936
Probable space group: C 2/M
;
_chemical_formula_sum "Si O2"
_cell_formula_units_Z 64
_cell_length_a 10.002471
_cell_length_b 20.220454
_cell_length_c 26.277690
_cell_angle_alpha 90.000000
_cell_angle_beta 46.904577
_cell_angle_gamma 90.000000
_cell_volume 3880.942805
_symmetry_space_group_name_H-M "C 2/M"
_symmetry_group_IT_number 12
_symmetry_cell_setting 'monoclinic'
loop_
_space_group_symop_operation_xyz
x,y,z
-x,y,-z
-x,-y,-z
x,-y,z
1/2+x,1/2+y,z
1/2-x,1/2+y,-z
1/2-x,1/2-y,-z
1/2+x,1/2-y,z
loop_
_atom_site_type_symbol
_atom_site_label
_atom_site_fract_x
_atom_site_fract_y
_atom_site_fract_z
Si Si1 0.787215 0.423267 0.066832
Si Si2 0.266305 0.685086 0.180612
Si Si3 0.708208 0.577867 0.463202
Si Si4 0.086015 0.191310 0.176783
Si Si5 0.719255 0.074940 0.439666
Si Si6 0.024580 0.077322 0.934962
Si Si7 0.475403 0.815867 0.345130
Si Si8 0.701608 0.310097 0.659159
O O1 0.767856 0.500000 0.088719
O O2 0.706520 0.370917 0.127802
O O3 0.663777 0.416097 0.048046
O O4 0.000000 0.410982 0.000000
O O5 0.204458 0.744964 0.160724
O O6 0.441331 0.705582 0.169277
O O7 0.327646 0.622415 0.131807
O O8 0.103696 0.668949 0.262784
O O9 0.500000 0.586712 0.500000
O O10 0.757761 0.500000 0.445011
O O11 0.715185 0.594156 0.521201
O O12 0.847800 0.623935 0.396128
O O13 0.962213 0.176917 0.258421
O O14 0.500000 0.074044 0.500000
O O15 0.775685 0.127090 0.382834
O O16 0.782058 0.000000 0.411911
O O17 0.076789 0.000000 0.920176
O O18 0.000000 0.097023 0.000000
O O19 0.352493 0.753566 0.360225
O O20 0.615330 0.799382 0.354857
#
# Coordination Sequence:
#
# PCOD9197936 Si02
#       8
#     8   8   8   8   8   8   8   8
#     4   9  18  33  53  76 103 134 169 208 250 298
#     4   9  19  35  53  75 103 135 170 208 252 299
#     4  10  22  38  55  76 104 136 170 211 259 308
#     4   9  19  35  52  75 104 135 170 208 251 300
#     4  10  20  36  55  77 103 132 171 214 255 303
#     4   9  18  33  53  77 103 132 169 210 250 296
#     4  10  21  36  54  77 104 136 172 212 256 305
#     4  10  21  35  54  78 104 135 172 213 257 303
#
# _framework density 16.490839999999999
#
# number of rings (size 3 to 8) (size 9 to 14) (size 15 to 20)
#    0.000    2.500    1.250    0.000    1.750    3.500 
#    0.000    5.000    0.000    0.000    0.000    0.000 
#    0.000    0.000    0.000    0.000    0.000    0.000 
#
# Total GULP energy -178394.653437 kJ/mol
# GULP energy per Si atom -5574.832920 kJ/mol
# Density = 1.645331 g / cm^3
# Si number density = 16.490840 Si / 1000 Ang^3
#
#
#
# Elastic Constant Matrix: (Units=GPa)
#
#
# Indices 1 2 3 4 5 6 
#
# 1 82.6951 56.3207 53.9555 0.0003 10.3155 0.0000
# 2 56.3207 102.9223 78.9008 0.0004 7.2330 -0.0001
# 3 53.9555 78.9008 76.4259 0.0015 6.2612 0.0000
# 4 0.0003 0.0004 0.0015 44.1400 -0.0004 -0.8233
# 5 10.3155 7.2330 6.2612 -0.0004 25.9188 0.0000
# 6 0.0000 -0.0001 0.0000 -0.8233 0.0000 31.9870
#
#
#
# Elastic Compliance Matrix: (Units=1/GPa)
#
#
# Indices 1 2 3 4 5 6 
#
# 1 0.023134 -0.000474 -0.015404 0.000000 -0.005354 0.000000
# 2 -0.000474 0.046644 -0.047713 0.000001 -0.001302 0.000000
# 3 -0.015404 -0.047713 0.073071 -0.000002 0.001794 0.000000
# 4 0.000000 0.000001 -0.000002 0.022666 0.000000 0.000583
# 5 -0.005354 -0.001302 0.001794 0.000000 0.040643 0.000000
# 6 0.000000 0.000000 0.000000 0.000583 0.000000 0.031278
#
#
# Mechanical properties :
#
#
# Convention : Reuss Voigt Hill
#
# Bulk Modulus (GPa) = 63.83196 71.15523 67.49360
# Shear Modulus (GPa) = 13.51931 25.26692 19.39311
#
# Velocity S-wave (km/s) = 2.86633 3.91855 3.43300
# Velocity P-wave (km/s) = 7.05309 7.98219 7.53198
#
# Compressibility (1/GPa) = 0.01566613
#
# Stress axis : x y z
#
# Youngs Moduli (GPa) = 43.22650 21.43880 13.68529
#
# Poissons Ratio (x) = 0.01017 0.21081
# Poissons Ratio (y) = 0.02050 0.65297
# Poissons Ratio (z) = 0.66586 1.02292
#
# Static dielectric constant tensor:
#      x y z
#    x 1.445120 0.000000 0.007030 
#    y 0.000000 1.537800 0.000000 
#    z 0.007030 0.000000 1.526060 
# 
# From -- ./inp_files/333709.got.cif
#   From: 2010.05.17/outbox.cif.g08.bks.cpg/sg12_167_cif.got.tgz:333709.got - 2010.06.03 13:09:07.
