data_PCOD9197381
_publ_section_title
;
Structure prediction by ZEFSAII (Michael W. Deem and Ramdas Pophale) SiO2 
 PCOD9197381
Probable space group: C 2/M
;
_chemical_formula_sum "Si O2"
_cell_formula_units_Z 58
_cell_length_a 19.574501
_cell_length_b 12.279836
_cell_length_c 27.576901
_cell_angle_alpha 90.000000
_cell_angle_beta 26.675194
_cell_angle_gamma 90.000000
_cell_volume 2975.839188
_symmetry_space_group_name_H-M "C 2/M"
_symmetry_group_IT_number 12
_symmetry_cell_setting 'monoclinic'
loop_
_space_group_symop_operation_xyz
x,y,z
-x,y,-z
-x,-y,-z
x,-y,z
1/2+x,1/2+y,z
1/2-x,1/2+y,-z
1/2-x,1/2-y,-z
1/2+x,1/2-y,z
loop_
_atom_site_type_symbol
_atom_site_label
_atom_site_fract_x
_atom_site_fract_y
_atom_site_fract_z
Si Si1 0.060614 0.874056 0.669730
Si Si2 0.288783 0.623808 0.917052
Si Si3 0.843489 0.697598 0.551975
Si Si4 0.753505 0.371986 0.312150
Si Si5 0.866057 0.126207 0.123008
Si Si6 0.090031 0.228440 0.325421
Si Si7 0.471424 0.279410 0.890181
Si Si8 0.000000 0.500000 0.500000
O O1 0.904858 0.867401 0.799097
O O2 0.021117 0.828966 0.642021
O O3 0.191670 0.813398 0.616384
O O4 0.106999 0.000000 0.637148
O O5 0.230759 0.500000 0.956362
O O6 0.385408 0.652355 0.903815
O O7 0.153193 0.709991 0.001308
O O8 0.833553 0.807401 0.589941
O O9 0.872400 0.595960 0.568786
O O10 0.985631 0.695388 0.425151
O O11 0.767886 0.500000 0.312422
O O12 0.671727 0.351589 0.312092
O O13 0.913717 0.308026 0.206255
O O14 0.719253 0.203688 0.215235
O O15 0.935720 0.144900 0.132221
O O16 0.824127 0.000000 0.142175
O O17 0.000000 0.153588 0.000000
#
# Coordination Sequence:
#
# PCOD9197381 Si02
#       8
#     8   8   8   8   8   8   8   2
#     4  11  23  40  62  88 127 161 206 259 314 376
#     4  10  20  35  59  89 119 161 208 260 313 372
#     4  12  24  42  66  95 124 164 214 263 313 375
#     4  11  23  41  63  92 127 165 211 260 313 378
#     4  10  22  39  61  89 123 165 212 264 318 381
#     4  11  24  40  62  91 124 166 207 256 317 377
#     4  10  20  36  60  87 123 162 211 260 314 378
#     4  12  24  44  70  96 126 160 216 274 304 368
#
# _framework density 19.490300000000001
#
# number of rings (size 3 to 8) (size 9 to 14) (size 15 to 20)
#    0.000    1.241    3.448    2.483    0.966    1.655 
#    0.000    0.690    0.000    6.621    0.000    0.000 
#    0.000    0.000    0.000    0.000    0.000    0.000 
#
# Total GULP energy -161708.011796 kJ/mol
# GULP energy per Si atom -5576.138338 kJ/mol
# Density = 1.944594 g / cm^3
# Si number density = 19.490300 Si / 1000 Ang^3
#
#
#
# Elastic Constant Matrix: (Units=GPa)
#
#
# Indices 1 2 3 4 5 6 
#
# 1 66.4029 14.5307 -0.6357 0.0014 -2.0296 -0.0013
# 2 14.5307 74.8292 19.2768 0.0014 17.7885 0.0007
# 3 -0.6357 19.2768 70.8124 0.0004 6.7615 0.0011
# 4 0.0014 0.0014 0.0004 15.2919 0.0006 -3.5161
# 5 -2.0296 17.7885 6.7615 0.0006 24.8824 0.0003
# 6 -0.0013 0.0007 0.0011 -3.5161 0.0003 8.1179
#
#
#
# Elastic Compliance Matrix: (Units=1/GPa)
#
#
# Indices 1 2 3 4 5 6 
#
# 1 0.016154 -0.004374 0.000936 -0.000001 0.004190 0.000002
# 2 -0.004374 0.018108 -0.003797 -0.000001 -0.012271 -0.000002
# 3 0.000936 -0.003797 0.015294 0.000000 -0.001365 -0.000002
# 4 -0.000001 -0.000001 0.000000 0.072627 -0.000001 0.031457
# 5 0.004190 -0.012271 -0.001365 -0.000001 0.049674 -0.000001
# 6 0.000002 -0.000002 -0.000002 0.031457 -0.000001 0.136809
#
#
# Mechanical properties :
#
#
# Convention : Reuss Voigt Hill
#
# Bulk Modulus (GPa) = 28.50194 30.93200 29.71697
# Shear Modulus (GPa) = 14.93285 21.58331 18.25808
#
# Velocity S-wave (km/s) = 2.77098 3.33135 3.06400
# Velocity P-wave (km/s) = 4.98930 5.54095 5.27235
#
# Compressibility (1/GPa) = 0.03508533
#
# Stress axis : x y z
#
# Youngs Moduli (GPa) = 61.90514 55.22335 65.38408
#
# Poissons Ratio (x) = 0.24155 -0.06117
# Poissons Ratio (y) = 0.27077 0.24827
# Poissons Ratio (z) = -0.05792 0.20969
#
# Static dielectric constant tensor:
#      x y z
#    x 1.676680 0.000000 0.010710 
#    y 0.000000 1.624890 0.000000 
#    z 0.010710 0.000000 1.699070 
# 
# From -- ./inp_files/315988.got.cif
#   From: 2010.05.17/outbox.cif.g08.bks.cpg/sg12_158_cif.got.tgz:315988.got - 2010.06.03 13:09:07.
