data_PCOD9197444
_publ_section_title
;
Structure prediction by ZEFSAII (Michael W. Deem and Ramdas Pophale) SiO2 
 PCOD9197444
Probable space group: C 2/M
;
_chemical_formula_sum "Si O2"
_cell_formula_units_Z 58
_cell_length_a 23.830752
_cell_length_b 7.628485
_cell_length_c 30.724014
_cell_angle_alpha 90.000000
_cell_angle_beta 28.601173
_cell_angle_gamma 90.000000
_cell_volume 2673.784158
_symmetry_space_group_name_H-M "C 2/M"
_symmetry_group_IT_number 12
_symmetry_cell_setting 'monoclinic'
loop_
_space_group_symop_operation_xyz
x,y,z
-x,y,-z
-x,-y,-z
x,-y,z
1/2+x,1/2+y,z
1/2-x,1/2+y,-z
1/2-x,1/2-y,-z
1/2+x,1/2-y,z
loop_
_atom_site_type_symbol
_atom_site_label
_atom_site_fract_x
_atom_site_fract_y
_atom_site_fract_z
Si Si1 0.000000 0.000000 0.500000
Si Si2 0.561366 0.212663 0.828653
Si Si3 0.072299 0.714397 0.993053
Si Si4 0.165629 0.800013 0.183319
Si Si5 0.584281 0.202566 0.621776
Si Si6 0.632906 0.209477 0.107107
Si Si7 0.775540 0.295545 0.555543
Si Si8 0.317307 0.794262 0.625821
O O1 0.912117 0.157200 0.578609
O O2 0.493519 0.269982 0.918323
O O3 0.480405 0.266504 0.843069
O O4 0.692619 0.280551 0.734751
O O5 0.565758 0.000000 0.825816
O O6 0.077777 0.500000 0.991284
O O7 0.205529 0.778532 0.898827
O O8 0.000000 0.764285 0.000000
O O9 0.141711 0.794935 0.148063
O O10 0.054490 0.714813 0.281838
O O11 0.168709 0.000000 0.196634
O O12 0.646597 0.280574 0.622166
O O13 0.639794 0.280372 0.539803
O O14 0.619211 0.000000 0.599133
O O15 0.625566 0.000000 0.118367
O O16 0.750000 0.250000 0.000000
O O17 0.803582 0.500000 0.540595
O O18 0.792891 0.227406 0.592393
O O19 0.353018 0.000000 0.602053
#
# Coordination Sequence:
#
# PCOD9197444 Si02
#       8
#     2   8   8   8   8   8   8   8
#     4  12  26  48  68  94 126 168 222 276 322 380
#     4  10  20  39  63  92 125 164 214 260 323 390
#     4   9  19  38  60  83 118 163 211 258 303 370
#     4  11  21  36  55  87 123 160 207 253 307 374
#     4  10  20  35  59  91 126 162 201 252 314 386
#     4  11  21  34  58  90 126 162 201 259 316 377
#     4   9  20  39  61  89 126 163 203 253 317 387
#     4  11  24  44  69  97 128 167 214 275 330 383
#
# _framework density 21.692102999999999
#
# number of rings (size 3 to 8) (size 9 to 14) (size 15 to 20)
#    0.000    1.793    2.069    2.276    0.966    3.862 
#    2.483    0.000    0.000    2.897    0.000    0.000 
#    0.000    0.000    0.000    0.000    0.000    0.000 
#
# Total GULP energy -161745.057287 kJ/mol
# GULP energy per Si atom -5577.415769 kJ/mol
# Density = 2.164273 g / cm^3
# Si number density = 21.692103 Si / 1000 Ang^3
#
#
#
# Elastic Constant Matrix: (Units=GPa)
#
#
# Indices 1 2 3 4 5 6 
#
# 1 58.0752 0.2200 29.2305 -0.1573 -4.6627 0.2507
# 2 0.2200 80.7074 10.2372 -0.0890 -8.0563 0.1740
# 3 29.2305 10.2372 137.5137 -0.0503 -27.5975 0.0871
# 4 -0.1573 -0.0890 -0.0503 37.9013 0.0427 -18.2877
# 5 -4.6627 -8.0563 -27.5975 0.0427 28.6705 -0.0777
# 6 0.2507 0.1740 0.0871 -18.2877 -0.0777 33.7008
#
#
#
# Elastic Compliance Matrix: (Units=1/GPa)
#
#
# Indices 1 2 3 4 5 6 
#
# 1 0.019319 0.000405 -0.004317 0.000014 -0.000900 -0.000129
# 2 0.000405 0.012766 -0.000376 -0.000002 0.003291 -0.000062
# 3 -0.004317 -0.000376 0.009984 -0.000002 0.008803 0.000027
# 4 0.000014 -0.000002 -0.000002 0.035743 -0.000001 0.019396
# 5 -0.000900 0.003291 0.008803 -0.000001 0.044131 0.000068
# 6 -0.000129 -0.000062 0.000027 0.019396 0.000068 0.040199
#
#
# Mechanical properties :
#
#
# Convention : Reuss Voigt Hill
#
# Bulk Modulus (GPa) = 29.85702 39.51909 34.68805
# Shear Modulus (GPa) = 27.49031 35.82844 31.65937
#
# Velocity S-wave (km/s) = 3.56377 4.06850 3.82447
# Velocity P-wave (km/s) = 5.54327 6.35043 5.96053
#
# Compressibility (1/GPa) = 0.03349296
#
# Stress axis : x y z
#
# Youngs Moduli (GPa) = 51.76303 78.33518 100.15677
#
# Poissons Ratio (x) = -0.03175 0.43240
# Poissons Ratio (y) = -0.02098 0.03766
# Poissons Ratio (z) = 0.22348 0.02945
#
# Static dielectric constant tensor:
#      x y z
#    x 1.803910 -0.000020 0.010310 
#    y -0.000020 1.824140 0.000000 
#    z 0.010310 0.000000 1.790410 
# 
# From -- ./inp_files/382035.got.cif
#   From: 2010.05.17/outbox.cif.g08.bks.cpg/sg12_192_cif.got.tgz:382035.got - 2010.06.03 13:09:07.
