data_PCOD9197796
_publ_section_title
;
Structure prediction by ZEFSAII (Michael W. Deem and Ramdas Pophale) SiO2 
 PCOD9197796
Probable space group: C 2/M
;
_chemical_formula_sum "Si O2"
_cell_formula_units_Z 58
_cell_length_a 13.733066
_cell_length_b 22.999631
_cell_length_c 15.677628
_cell_angle_alpha 90.000000
_cell_angle_beta 149.721514
_cell_angle_gamma 90.000000
_cell_volume 2496.746753
_symmetry_space_group_name_H-M "C 2/M"
_symmetry_group_IT_number 12
_symmetry_cell_setting 'monoclinic'
loop_
_space_group_symop_operation_xyz
x,y,z
-x,y,-z
-x,-y,-z
x,-y,z
1/2+x,1/2+y,z
1/2-x,1/2+y,-z
1/2-x,1/2-y,-z
1/2+x,1/2-y,z
loop_
_atom_site_type_symbol
_atom_site_label
_atom_site_fract_x
_atom_site_fract_y
_atom_site_fract_z
Si Si1 0.533199 0.847011 0.694490
Si Si2 0.349225 0.373607 0.808235
Si Si3 0.486769 0.718297 0.352007
Si Si4 0.000000 0.000000 0.500000
Si Si5 0.713304 0.172435 0.997207
Si Si6 0.309964 0.403918 0.471523
Si Si7 0.562969 0.563498 0.821479
Si Si8 0.118981 0.256462 0.177103
O O1 0.638471 0.874945 0.692649
O O2 0.434350 0.784601 0.596502
O O3 0.400027 0.892457 0.644527
O O4 0.707574 0.827245 0.890397
O O5 0.416155 0.415538 0.783858
O O6 0.362128 0.309097 0.777153
O O7 0.500000 0.381900 0.000000
O O8 0.374352 0.704080 0.177359
O O9 0.615487 0.663282 0.474621
O O10 0.324779 0.721727 0.302540
O O11 0.151196 0.946865 0.578872
O O12 0.756378 0.106180 0.051110
O O13 0.506772 0.199048 0.864214
O O14 0.446181 0.433543 0.645688
O O15 0.632646 0.500000 0.894469
O O16 0.000000 0.251242 0.000000
#
# Coordination Sequence:
#
# PCOD9197796 Si02
#       8
#     8   8   8   2   8   8   8   8
#     4  11  22  40  66 107 132 169 229 276 345 417
#     4  10  20  39  65 100 135 165 208 276 346 401
#     4   9  20  39  66  98 136 170 214 283 352 404
#     4  12  28  56  68  84 144 192 240 272 340 406
#     4  10  20  35  66  97 135 171 217 273 339 410
#     4  11  26  46  68  91 129 185 226 281 335 397
#     4  11  24  45  64  90 129 182 229 275 334 384
#     4   8  17  32  59  98 130 164 205 263 342 407
#
# _framework density 23.230228
#
# number of rings (size 3 to 8) (size 9 to 14) (size 15 to 20)
#    0.000    1.931    2.069    1.655    5.793    0.828 
#    2.483    0.690    0.000    3.724    0.000    0.000 
#    0.000    0.000    0.000    0.000    0.000    0.000 
#
# Total GULP energy -161581.148882 kJ/mol
# GULP energy per Si atom -5571.763755 kJ/mol
# Density = 2.317735 g / cm^3
# Si number density = 23.230228 Si / 1000 Ang^3
#
#
#
# Elastic Constant Matrix: (Units=GPa)
#
#
# Indices 1 2 3 4 5 6 
#
# 1 81.7761 29.8239 1.3815 0.0000 27.9606 0.0000
# 2 29.8239 122.7195 10.3060 0.0000 25.7232 0.0000
# 3 1.3815 10.3060 60.3285 -0.0001 -2.8810 -0.0001
# 4 0.0000 0.0000 -0.0001 1.5264 -0.0001 -1.7538
# 5 27.9606 25.7232 -2.8810 -0.0001 43.1805 -0.0001
# 6 0.0000 0.0000 -0.0001 -1.7538 -0.0001 13.5608
#
#
#
# Elastic Compliance Matrix: (Units=1/GPa)
#
#
# Indices 1 2 3 4 5 6 
#
# 1 0.016128 -0.001923 -0.000486 -0.000001 -0.009330 0.000000
# 2 -0.001923 0.009754 -0.001846 -0.000001 -0.004688 0.000000
# 3 -0.000486 -0.001846 0.017024 0.000002 0.002551 0.000000
# 4 -0.000001 -0.000001 0.000002 0.769469 0.000003 0.099513
# 5 -0.009330 -0.004688 0.002551 0.000003 0.032164 0.000001
# 6 0.000000 0.000000 0.000000 0.099513 0.000001 0.086612
#
#
# Mechanical properties :
#
#
# Convention : Reuss Voigt Hill
#
# Bulk Modulus (GPa) = 29.07376 38.64968 33.86172
# Shear Modulus (GPa) = 5.25692 26.54104 15.89898
#
# Velocity S-wave (km/s) = 1.50595 3.38379 2.61896
# Velocity P-wave (km/s) = 3.94544 5.65159 4.87375
#
# Compressibility (1/GPa) = 0.03439527
#
# Stress axis : x y z
#
# Youngs Moduli (GPa) = 62.00289 102.52444 58.73976
#
# Poissons Ratio (x) = 0.19715 0.02857
# Poissons Ratio (y) = 0.11923 0.10844
# Poissons Ratio (z) = 0.03016 0.18927
#
# Static dielectric constant tensor:
#      x y z
#    x 1.927620 0.000000 0.008490 
#    y 0.000000 1.895130 0.000000 
#    z 0.008490 0.000000 1.959110 
# 
# From -- ./inp_files/272721.got.cif
#   From: 2010.05.17/outbox.cif.g08.bks.cpg/sg12_137_cif.got.tgz:272721.got - 2010.06.03 13:09:07.
