data_PCOD9197711
_publ_section_title
;
Structure prediction by ZEFSAII (Michael W. Deem and Ramdas Pophale) SiO2 
 PCOD9197711
Probable space group: C 2/M
;
_chemical_formula_sum "Si O2"
_cell_formula_units_Z 56
_cell_length_a 13.996159
_cell_length_b 12.937526
_cell_length_c 16.694738
_cell_angle_alpha 90.000000
_cell_angle_beta 60.727778
_cell_angle_gamma 90.000000
_cell_volume 2636.991836
_symmetry_space_group_name_H-M "C 2/M"
_symmetry_group_IT_number 12
_symmetry_cell_setting 'monoclinic'
loop_
_space_group_symop_operation_xyz
x,y,z
-x,y,-z
-x,-y,-z
x,-y,z
1/2+x,1/2+y,z
1/2-x,1/2+y,-z
1/2-x,1/2-y,-z
1/2+x,1/2-y,z
loop_
_atom_site_type_symbol
_atom_site_label
_atom_site_fract_x
_atom_site_fract_y
_atom_site_fract_z
Si Si1 0.233668 0.381475 0.772691
Si Si2 0.710754 0.179853 0.160085
Si Si3 0.795539 0.183908 0.578094
Si Si4 0.571633 0.767760 0.605982
Si Si5 0.090786 0.885835 0.031499
Si Si6 0.009962 0.275769 0.804995
Si Si7 0.650261 0.882934 0.353841
O O1 0.228211 0.500000 0.800952
O O2 0.282192 0.300987 0.817155
O O3 0.300119 0.374096 0.660958
O O4 0.113606 0.335403 0.799111
O O5 0.801467 0.154468 0.057892
O O6 0.592194 0.150798 0.174262
O O7 0.719389 0.124047 0.242689
O O8 0.680196 0.164337 0.581461
O O9 0.892373 0.182544 0.473713
O O10 0.796397 0.304295 0.605789
O O11 0.540944 0.726984 0.706451
O O12 0.469863 0.834843 0.615901
O O13 0.111155 0.000000 0.056997
O O14 0.000000 0.893377 0.000000
O O15 0.040130 0.807768 0.115454
O O16 0.642336 0.000000 0.384319
#
# Coordination Sequence:
#
# PCOD9197711 Si02
#       7
#     8   8   8   8   8   8   8
#     4  10  21  39  61  85 115 155 198 239 285 341
#     4  10  21  39  60  86 122 153 189 240 295 346
#     4   9  19  35  55  83 121 154 186 237 294 339
#     4   9  19  35  54  81 120 154 185 235 290 337
#     4  11  22  38  61  85 116 153 188 233 299 362
#     4  10  21  39  61  85 116 151 195 245 288 341
#     4  10  20  35  62  92 117 152 200 245 286 340
#
# _framework density 21.236318000000001
#
# number of rings (size 3 to 8) (size 9 to 14) (size 15 to 20)
#    0.000    2.143    1.429    1.286    0.000    7.429 
#    0.000    5.714    0.000   14.571    0.000    0.000 
#    0.000    0.000    0.000    0.000    0.000    0.000 
#
# Total GULP energy -156212.510701 kJ/mol
# GULP energy per Si atom -5579.018239 kJ/mol
# Density = 2.118798 g / cm^3
# Si number density = 21.236318 Si / 1000 Ang^3
#
#
#
# Elastic Constant Matrix: (Units=GPa)
#
#
# Indices 1 2 3 4 5 6 
#
# 1 58.7443 16.3065 -4.8665 0.0000 -12.0195 0.0000
# 2 16.3065 54.9839 9.7417 0.0000 -3.5535 0.0000
# 3 -4.8665 9.7417 106.8626 0.0000 -21.7999 0.0000
# 4 0.0000 0.0000 0.0000 5.6818 0.0000 -4.0903
# 5 -12.0195 -3.5535 -21.7999 0.0000 30.0063 0.0000
# 6 0.0000 0.0000 0.0000 -4.0903 0.0000 3.7821
#
#
#
# Elastic Compliance Matrix: (Units=1/GPa)
#
#
# Indices 1 2 3 4 5 6 
#
# 1 0.021193 -0.006261 0.003659 0.000000 0.010406 0.000000
# 2 -0.006261 0.020368 -0.002538 0.000000 -0.001939 0.000000
# 3 0.003659 -0.002538 0.011732 0.000000 0.009689 0.000000
# 4 0.000000 0.000000 0.000000 0.794728 0.000000 0.859476
# 5 0.010406 -0.001939 0.009689 0.000000 0.044304 0.000000
# 6 0.000000 0.000000 0.000000 0.859476 0.000000 1.193901
#
#
# Mechanical properties :
#
#
# Convention : Reuss Voigt Hill
#
# Bulk Modulus (GPa) = 23.24829 29.21714 26.23272
# Shear Modulus (GPa) = 2.36872 21.18797 11.77835
#
# Velocity S-wave (km/s) = 1.05728 3.16210 2.35762
# Velocity P-wave (km/s) = 3.53010 5.20767 4.44868
#
# Compressibility (1/GPa) = 0.04301391
#
# Stress axis : x y z
#
# Youngs Moduli (GPa) = 47.18530 49.09622 85.23532
#
# Poissons Ratio (x) = 0.30739 -0.31185
# Poissons Ratio (y) = 0.29542 0.21629
# Poissons Ratio (z) = -0.17263 0.12458
#
# Static dielectric constant tensor:
#      x y z
#    x 1.798600 0.000000 -0.008000 
#    y 0.000000 1.745160 0.000000 
#    z -0.008000 0.000000 1.834270 
# 
# From -- ./inp_files/269206.got.cif
#   From: 2010.05.17/outbox.cif.g08.bks.cpg/sg12_135_cif.got.tgz:269206.got - 2010.06.03 13:09:07.
