data_PCOD9197150
_publ_section_title
;
Structure prediction by ZEFSAII (Michael W. Deem and Ramdas Pophale) SiO2 
 PCOD9197150
Probable space group: C 2/M
;
_chemical_formula_sum "Si O2"
_cell_formula_units_Z 52
_cell_length_a 17.678260
_cell_length_b 14.395904
_cell_length_c 21.853733
_cell_angle_alpha 90.000000
_cell_angle_beta 149.322983
_cell_angle_gamma 90.000000
_cell_volume 2837.545366
_symmetry_space_group_name_H-M "C 2/M"
_symmetry_group_IT_number 12
_symmetry_cell_setting 'monoclinic'
loop_
_space_group_symop_operation_xyz
x,y,z
-x,y,-z
-x,-y,-z
x,-y,z
1/2+x,1/2+y,z
1/2-x,1/2+y,-z
1/2-x,1/2-y,-z
1/2+x,1/2-y,z
loop_
_atom_site_type_symbol
_atom_site_label
_atom_site_fract_x
_atom_site_fract_y
_atom_site_fract_z
Si Si1 0.774067 0.390782 0.397509
Si Si2 0.500000 0.681100 0.000000
Si Si3 0.164300 0.253339 0.230856
Si Si4 0.822889 0.107749 0.530805
Si Si5 0.034350 0.740998 0.617094
Si Si6 0.693508 0.893615 0.823689
Si Si7 0.545577 0.892069 0.248985
O O1 0.801475 0.500000 0.407210
O O2 0.680123 0.344821 0.277678
O O3 0.696748 0.378595 0.410186
O O4 0.922628 0.329970 0.506526
O O5 0.573036 0.740648 0.105205
O O6 0.631737 0.621493 0.061293
O O7 0.333500 0.281555 0.332413
O O8 0.089569 0.325152 0.224886
O O9 0.664843 0.122664 0.386955
O O10 0.938302 0.178743 0.581810
O O11 0.864336 0.000000 0.549331
O O12 0.117843 0.677931 0.724955
O O13 0.617301 0.875993 0.836197
O O14 0.654616 0.000000 0.780243
O O15 0.557060 0.000000 0.238810
#
# Coordination Sequence:
#
# PCOD9197150 Si02
#       7
#     8   4   8   8   8   8   8
#     4  11  21  34  55  86 117 147 185 230 285 343
#     4  10  25  42  57  78 114 152 197 240 281 328
#     4  11  24  38  56  83 114 153 193 234 282 330
#     4  10  20  35  58  88 121 152 182 225 284 347
#     4  11  20  34  56  86 121 150 182 231 282 341
#     4  10  20  37  62  85 111 150 190 232 284 339
#     4  10  20  37  61  86 113 149 190 230 283 345
#
# _framework density 18.325697000000002
#
# number of rings (size 3 to 8) (size 9 to 14) (size 15 to 20)
#    0.000    1.538    3.077    2.538    0.000    5.538 
#    0.000    1.923    0.000    4.615    0.000    0.000 
#    0.000    0.000    0.000    0.000    0.000    0.000 
#
# Total GULP energy -145157.576192 kJ/mol
# GULP energy per Si atom -5582.983700 kJ/mol
# Density = 1.828399 g / cm^3
# Si number density = 18.325697 Si / 1000 Ang^3
#
#
#
# Elastic Constant Matrix: (Units=GPa)
#
#
# Indices 1 2 3 4 5 6 
#
# 1 128.6387 57.8821 47.3147 -0.0003 24.9786 -0.0003
# 2 57.8821 61.4541 38.6234 -0.0013 21.5257 -0.0005
# 3 47.3147 38.6234 82.9084 -0.0014 0.0789 -0.0015
# 4 -0.0003 -0.0013 -0.0014 16.3794 -0.0002 6.6237
# 5 24.9786 21.5257 0.0789 -0.0002 33.4432 -0.0004
# 6 -0.0003 -0.0005 -0.0015 6.6237 -0.0004 -3.3779
#
#
#
# Elastic Compliance Matrix: (Units=1/GPa)
#
#
# Indices 1 2 3 4 5 6 
#
# 1 0.014326 -0.009575 -0.003711 -0.000001 -0.004529 0.000000
# 2 -0.009575 0.040123 -0.013209 0.000000 -0.018642 0.000003
# 3 -0.003711 -0.013209 0.020322 0.000002 0.011226 -0.000003
# 4 -0.000001 0.000000 0.000002 0.034051 0.000001 0.066770
# 5 -0.004529 -0.018642 0.011226 0.000001 0.045256 -0.000003
# 6 0.000000 0.000003 -0.000003 0.066770 -0.000003 -0.165114
#
#
# Mechanical properties :
#
#
# Convention : Reuss Voigt Hill
#
# Bulk Modulus (GPa) = 45.91249 62.29354 54.10301
# Shear Modulus (GPa) = 101.59382 17.90102 59.74742
#
# Velocity S-wave (km/s) = 7.45374 3.12881 5.71611
# Velocity P-wave (km/s) = 9.95920 6.86432 8.55291
#
# Compressibility (1/GPa) = 0.02178057
#
# Stress axis : x y z
#
# Youngs Moduli (GPa) = 69.80125 24.92359 49.20729
#
# Poissons Ratio (x) = 0.23865 0.18260
# Poissons Ratio (y) = 0.66836 0.64999
# Poissons Ratio (z) = 0.25903 0.32922
#
# Static dielectric constant tensor:
#      x y z
#    x 1.660300 0.000000 0.005130 
#    y 0.000000 1.610610 0.000000 
#    z 0.005130 0.000000 1.630730 
# 
# From -- ./inp_files/316539.got.cif
#   From: 2010.05.17/outbox.cif.g08.bks.cpg/sg12_159_cif.got.tgz:316539.got - 2010.06.03 13:09:07.
