data_PCOD9197490
_publ_section_title
;
Structure prediction by ZEFSAII (Michael W. Deem and Ramdas Pophale) SiO2 
 PCOD9197490
Probable space group: C 2/M
;
_chemical_formula_sum "Si O2"
_cell_formula_units_Z 40
_cell_length_a 19.100764
_cell_length_b 19.775287
_cell_length_c 7.883763
_cell_angle_alpha 90.000000
_cell_angle_beta 137.480302
_cell_angle_gamma 90.000000
_cell_volume 2012.580800
_symmetry_space_group_name_H-M "C 2/M"
_symmetry_group_IT_number 12
_symmetry_cell_setting 'monoclinic'
loop_
_space_group_symop_operation_xyz
x,y,z
-x,y,-z
-x,-y,-z
x,-y,z
1/2+x,1/2+y,z
1/2-x,1/2+y,-z
1/2-x,1/2-y,-z
1/2+x,1/2-y,z
loop_
_atom_site_type_symbol
_atom_site_label
_atom_site_fract_x
_atom_site_fract_y
_atom_site_fract_z
Si Si1 0.544457 0.850355 0.886084
Si Si2 0.104712 0.817438 0.471641
Si Si3 0.673677 0.173923 0.548760
Si Si4 0.621959 0.291314 0.900003
Si Si5 0.729998 0.921633 0.335524
O O1 0.438761 0.852350 0.588936
O O2 0.609088 0.784945 0.944380
O O3 0.500000 0.842626 0.000000
O O4 0.626430 0.910723 0.037509
O O5 0.148765 0.752024 0.449204
O O6 0.115652 0.794090 0.686283
O O7 0.171183 0.884241 0.566713
O O8 0.982916 0.826763 0.218348
O O9 0.707380 0.122970 0.461887
O O10 0.769981 0.178310 0.847067
O O11 0.746566 0.000000 0.399156
#
# Coordination Sequence:
#
# PCOD9197490 Si02
#       5
#     8   8   8   8   8
#     4   9  20  33  57  89 113 147 183 240 287 331
#     4  10  21  37  59  90 115 149 187 240 290 334
#     4  10  20  35  60  85 113 145 194 238 276 333
#     4  10  20  35  61  90 114 140 192 246 285 327
#     4  11  23  39  57  82 119 158 190 227 285 346
#
# _framework density 19.874977000000001
#
# number of rings (size 3 to 8) (size 9 to 14) (size 15 to 20)
#    0.000    2.000    2.000    1.200    5.600    3.600 
#    0.000    5.000    0.000    1.200    0.000    0.000 
#    0.000    0.000    0.000    0.000    0.000    0.000 
#
# Total GULP energy -111546.441649 kJ/mol
# GULP energy per Si atom -5577.322082 kJ/mol
# Density = 1.982974 g / cm^3
# Si number density = 19.874977 Si / 1000 Ang^3
#
#
#
# Elastic Constant Matrix: (Units=GPa)
#
#
# Indices 1 2 3 4 5 6 
#
# 1 67.0341 49.0245 20.5272 0.0000 17.7356 0.0000
# 2 49.0245 115.7483 27.9619 0.0000 14.4651 0.0000
# 3 20.5272 27.9619 119.4692 0.0000 40.8801 0.0000
# 4 0.0000 0.0000 0.0000 16.1842 0.0000 4.6589
# 5 17.7356 14.4651 40.8801 0.0000 25.4957 0.0000
# 6 0.0000 0.0000 0.0000 4.6589 0.0000 1.8882
#
#
#
# Elastic Compliance Matrix: (Units=1/GPa)
#
#
# Indices 1 2 3 4 5 6 
#
# 1 0.025739 -0.009530 0.004619 0.000000 -0.019904 0.000000
# 2 -0.009530 0.012864 -0.002536 0.000000 0.003397 0.000000
# 3 0.004619 -0.002536 0.019447 0.000000 -0.032956 0.000000
# 4 0.000000 0.000000 0.000000 0.213261 0.000000 -0.526193
# 5 -0.019904 0.003397 -0.032956 0.000000 0.103983 0.000000
# 6 0.000000 0.000000 0.000000 -0.526193 0.000000 1.827910
#
#
# Mechanical properties :
#
#
# Convention : Reuss Voigt Hill
#
# Bulk Modulus (GPa) = 23.17169 55.25320 39.21244
# Shear Modulus (GPa) = 2.23966 22.36284 12.30125
#
# Velocity S-wave (km/s) = 1.06269 3.35800 2.49053
# Velocity P-wave (km/s) = 3.63178 6.54948 5.29554
#
# Compressibility (1/GPa) = 0.04315612
#
# Stress axis : x y z
#
# Youngs Moduli (GPa) = 38.85138 77.73699 51.42140
#
# Poissons Ratio (x) = 0.74084 -0.23750
# Poissons Ratio (y) = 0.37026 0.13039
# Poissons Ratio (z) = -0.17944 0.19711
#
# Static dielectric constant tensor:
#      x y z
#    x 1.762100 0.000000 0.001110 
#    y 0.000000 1.642660 0.000000 
#    z 0.001110 0.000000 1.793890 
# 
# From -- ./inp_files/60260.got.cif
#   From: 2010.05.17/outbox.cif.g08.bks.cpg/sg12_31_cif.got.tgz:60260.got - 2010.06.03 13:09:07.
