data_PCOD9197286
_publ_section_title
;
Structure prediction by ZEFSAII (Michael W. Deem and Ramdas Pophale) SiO2 
 PCOD9197286
Probable space group: C 2/M
;
_chemical_formula_sum "Si O2"
_cell_formula_units_Z 56
_cell_length_a 17.416139
_cell_length_b 17.827682
_cell_length_c 13.825639
_cell_angle_alpha 90.000000
_cell_angle_beta 41.973499
_cell_angle_gamma 90.000000
_cell_volume 2870.910621
_symmetry_space_group_name_H-M "C 2/M"
_symmetry_group_IT_number 12
_symmetry_cell_setting 'monoclinic'
loop_
_space_group_symop_operation_xyz
x,y,z
-x,y,-z
-x,-y,-z
x,-y,z
1/2+x,1/2+y,z
1/2-x,1/2+y,-z
1/2-x,1/2-y,-z
1/2+x,1/2-y,z
loop_
_atom_site_type_symbol
_atom_site_label
_atom_site_fract_x
_atom_site_fract_y
_atom_site_fract_z
Si Si1 0.309188 0.156830 0.860070
Si Si2 0.534037 0.090064 0.574715
Si Si3 0.129437 0.589626 0.843582
Si Si4 0.521534 0.588789 0.683797
Si Si5 0.917727 0.911454 0.995081
Si Si6 0.781838 0.409325 0.450426
Si Si7 0.303141 0.669794 0.823857
O O1 0.426244 0.111556 0.741756
O O2 0.324520 0.241598 0.809722
O O3 0.208367 0.122199 0.889640
O O4 0.262295 0.153082 0.013405
O O5 0.500000 0.118577 0.500000
O O6 0.649506 0.118248 0.519278
O O7 0.543794 0.000000 0.559177
O O8 0.151341 0.500000 0.838591
O O9 0.145980 0.605050 0.714273
O O10 0.221332 0.638355 0.816922
O O11 0.000000 0.605155 0.000000
O O12 0.520995 0.500000 0.661925
O O13 0.477606 0.598237 0.835157
O O14 0.651712 0.617932 0.557674
O O15 0.426294 0.629162 0.708374
O O16 0.904823 0.000000 0.024574
O O17 0.000000 0.878903 0.000000
O O18 0.772682 0.500000 0.469074
#
# Coordination Sequence:
#
# PCOD9197286 Si02
#       7
#     8   8   8   8   8   8   8
#     4  10  21  37  54  79 112 145 187 231 272 335
#     4  10  21  37  60  83 110 147 186 234 287 335
#     4  10  20  35  59  86 110 142 190 234 275 330
#     4   9  18  34  55  80 111 142 181 225 274 331
#     4   9  18  31  54  81 105 140 184 230 275 325
#     4   9  19  35  56  85 113 138 177 234 281 326
#     4  10  21  37  56  78 112 153 183 227 281 329
#
# _framework density 19.506005999999999
#
# number of rings (size 3 to 8) (size 9 to 14) (size 15 to 20)
#    0.000    2.429    0.000    1.714    2.000    4.000 
#    2.571    4.286    0.000    0.000    0.000    0.000 
#    0.000    0.000    0.000    0.000    0.000    0.000 
#
# Total GULP energy -156205.022586 kJ/mol
# GULP energy per Si atom -5578.750807 kJ/mol
# Density = 1.946161 g / cm^3
# Si number density = 19.506006 Si / 1000 Ang^3
#
#
#
# Elastic Constant Matrix: (Units=GPa)
#
#
# Indices 1 2 3 4 5 6 
#
# 1 129.7955 18.7629 35.8915 0.0000 -16.1428 0.0000
# 2 18.7629 -22.8513 28.7570 0.0000 10.9373 0.0000
# 3 35.8915 28.7570 59.4265 0.0000 -31.4544 0.0000
# 4 0.0000 0.0000 0.0000 8.4251 0.0000 11.7050
# 5 -16.1428 10.9373 -31.4544 0.0000 24.3812 0.0000
# 6 0.0000 0.0000 0.0000 11.7050 0.0000 -3.4823
#
#
#
# Elastic Compliance Matrix: (Units=1/GPa)
#
#
# Indices 1 2 3 4 5 6 
#
# 1 0.009293 -0.000613 -0.006034 0.000000 -0.001357 0.000000
# 2 -0.000613 -0.007943 0.018556 0.000000 0.027097 0.000000
# 3 -0.006034 0.018556 0.015676 0.000000 0.007904 0.000000
# 4 0.000000 0.000000 0.000000 0.020934 0.000000 0.070366
# 5 -0.001357 0.027097 0.007904 0.000000 0.038159 0.000000
# 6 0.000000 0.000000 0.000000 0.070366 0.000000 -0.050648
#
#
# Mechanical properties :
#
#
# Convention : Reuss Voigt Hill
#
# Bulk Modulus (GPa) = 24.48316 37.02150 30.75233
# Shear Modulus (GPa) = 327.50226 11.39543 169.44884
#
# Velocity S-wave (km/s) = 12.97161 2.41965 9.33052
# Velocity P-wave (km/s) = 15.39250 5.17948 11.48382
#
# Compressibility (1/GPa) = 0.04084440
#
# Stress axis : x y z
#
# Youngs Moduli (GPa) = 107.60944 -125.89692 63.79072
#
# Poissons Ratio (x) = -0.07717 0.38493
# Poissons Ratio (y) = 0.06596 -1.18372
# Poissons Ratio (z) = 0.64934 2.33618
#
# Static dielectric constant tensor:
#      x y z
#    x 1.695720 0.000000 0.008930 
#    y 0.000000 1.681250 0.000000 
#    z 0.008930 0.000000 1.676340 
# 
# From -- ./inp_files/226555.got.cif
#   From: 2010.05.17/outbox.cif.g08.bks.cpg/sg12_114_cif.got.tgz:226555.got - 2010.06.03 13:09:07.
