data_PCOD9197601
_publ_section_title
;
Structure prediction by ZEFSAII (Michael W. Deem and Ramdas Pophale) SiO2 
 PCOD9197601
Probable space group: C 2/M
;
_chemical_formula_sum "Si O2"
_cell_formula_units_Z 48
_cell_length_a 31.876742
_cell_length_b 8.365578
_cell_length_c 8.983780
_cell_angle_alpha 90.000000
_cell_angle_beta 80.786329
_cell_angle_gamma 90.000000
_cell_volume 2364.772136
_symmetry_space_group_name_H-M "C 2/M"
_symmetry_group_IT_number 12
_symmetry_cell_setting 'monoclinic'
loop_
_space_group_symop_operation_xyz
x,y,z
-x,y,-z
-x,-y,-z
x,-y,z
1/2+x,1/2+y,z
1/2-x,1/2+y,-z
1/2-x,1/2-y,-z
1/2+x,1/2-y,z
loop_
_atom_site_type_symbol
_atom_site_label
_atom_site_fract_x
_atom_site_fract_y
_atom_site_fract_z
Si Si1 0.680281 0.000000 0.688895
Si Si2 0.199313 0.174079 0.133765
Si Si3 0.991305 0.174892 0.681698
Si Si4 0.889523 0.500000 0.515306
Si Si5 0.896958 0.500000 0.029441
Si Si6 0.533922 0.000000 0.763810
Si Si7 0.104603 0.753161 0.230092
Si Si8 0.723763 0.683784 0.777538
O O1 0.706400 0.166601 0.691853
O O2 0.653990 0.000000 0.551129
O O3 0.643387 0.000000 0.837392
O O4 0.150197 0.164927 0.200086
O O5 0.225954 0.296057 0.218629
O O6 0.219869 0.000000 0.145787
O O7 0.204408 0.207907 0.955178
O O8 0.940973 0.165598 0.737259
O O9 0.000000 0.194792 0.500000
O O10 0.008122 0.335307 0.752810
O O11 0.010065 0.000000 0.715321
O O12 0.928866 0.500000 0.380574
O O13 0.893693 0.648494 0.622130
O O14 0.895409 0.648977 0.919876
O O15 0.940731 0.500000 0.096087
O O16 0.714390 0.500000 0.734361
#
# Coordination Sequence:
#
# PCOD9197601 Si02
#       8
#     4   8   8   4   4   4   8   8
#     4  11  20  44  60  91 124 167 199 257 302 369
#     4  10  20  35  60  93 122 155 200 255 305 359
#     4  11  23  40  65  92 125 166 209 246 306 370
#     4  10  23  37  67  87 125 164 212 245 310 359
#     4  10  23  36  68  92 126 156 210 251 315 356
#     4  11  21  46  63  92 124 170 196 258 307 366
#     4  11  21  39  62  95 118 163 204 262 295 371
#     4  10  21  36  62  91 121 159 200 247 310 367
#
# _framework density 20.297937999999998
#
# number of rings (size 3 to 8) (size 9 to 14) (size 15 to 20)
#    0.000    1.500    4.167    1.750    3.500    1.333 
#    0.000    8.333    0.000    0.000    0.000    0.000 
#    0.000    0.000    0.000    0.000    0.000    0.000 
#
# Total GULP energy -133838.543954 kJ/mol
# GULP energy per Si atom -5576.605998 kJ/mol
# Density = 2.025174 g / cm^3
# Si number density = 20.297938 Si / 1000 Ang^3
#
#
#
# Elastic Constant Matrix: (Units=GPa)
#
#
# Indices 1 2 3 4 5 6 
#
# 1 116.1026 58.0275 22.1347 0.0000 7.4758 0.0000
# 2 58.0275 164.7314 32.4997 0.0000 32.9458 0.0000
# 3 22.1347 32.4997 55.2837 0.0000 16.6302 0.0000
# 4 0.0000 0.0000 0.0000 -17.8538 0.0000 3.4583
# 5 7.4758 32.9458 16.6302 0.0000 33.4133 0.0000
# 6 0.0000 0.0000 0.0000 3.4583 0.0000 26.5715
#
#
#
# Elastic Compliance Matrix: (Units=1/GPa)
#
#
# Indices 1 2 3 4 5 6 
#
# 1 0.010905 -0.003816 -0.002965 0.000000 0.002799 0.000000
# 2 -0.003816 0.009226 -0.001666 0.000000 -0.007414 0.000000
# 3 -0.002965 -0.001666 0.023005 0.000000 -0.009145 0.000000
# 4 0.000000 0.000000 0.000000 -0.054633 0.000000 0.007111
# 5 0.002799 -0.007414 -0.009145 0.000000 0.041164 0.000000
# 6 0.000000 0.000000 0.000000 0.007111 0.000000 0.036709
#
#
# Mechanical properties :
#
#
# Convention : Reuss Voigt Hill
#
# Bulk Modulus (GPa) = 38.10375 62.38239 50.24307
# Shear Modulus (GPa) = 54.33723 23.32325 38.83024
#
# Velocity S-wave (km/s) = 5.17957 3.39343 4.37855
# Velocity P-wave (km/s) = 7.38807 6.79367 7.09709
#
# Compressibility (1/GPa) = 0.02624414
#
# Stress axis : x y z
#
# Youngs Moduli (GPa) = 91.69724 108.38665 43.46792
#
# Poissons Ratio (x) = 0.41364 0.12887
# Poissons Ratio (y) = 0.34994 0.07240
# Poissons Ratio (z) = 0.27186 0.18052
#
# Static dielectric constant tensor:
#      x y z
#    x 1.719260 0.000000 -0.015750 
#    y 0.000000 1.769080 0.000000 
#    z -0.015750 0.000000 1.684040 
# 
# From -- ./inp_files/108882.got.cif
#   From: 2010.05.17/outbox.cif.g08.bks.cpg/sg12_55_cif.got.tgz:108882.got - 2010.06.03 13:09:07.
