data_PCOD9197735
_publ_section_title
;
Structure prediction by ZEFSAII (Michael W. Deem and Ramdas Pophale) SiO2 
 PCOD9197735
Probable space group: C 2/M
;
_chemical_formula_sum "Si O2"
_cell_formula_units_Z 64
_cell_length_a 17.706150
_cell_length_b 30.964131
_cell_length_c 11.776266
_cell_angle_alpha 90.000000
_cell_angle_beta 29.307205
_cell_angle_gamma 90.000000
_cell_volume 3160.358420
_symmetry_space_group_name_H-M "C 2/M"
_symmetry_group_IT_number 12
_symmetry_cell_setting 'monoclinic'
loop_
_space_group_symop_operation_xyz
x,y,z
-x,y,-z
-x,-y,-z
x,-y,z
1/2+x,1/2+y,z
1/2-x,1/2+y,-z
1/2-x,1/2-y,-z
1/2+x,1/2-y,z
loop_
_atom_site_type_symbol
_atom_site_label
_atom_site_fract_x
_atom_site_fract_y
_atom_site_fract_z
Si Si1 0.658578 0.451160 0.859648
Si Si2 0.044184 0.951416 0.267769
Si Si3 0.287503 0.371984 0.834042
Si Si4 0.339397 0.866221 0.643435
Si Si5 0.198786 0.885852 0.445995
Si Si6 0.424519 0.325674 0.853739
Si Si7 0.449892 0.150871 0.267213
Si Si8 0.932175 0.746675 0.216404
O O1 0.706316 0.500000 0.764743
O O2 0.782622 0.413800 0.680361
O O3 0.500000 0.441539 0.000000
O O4 0.622044 0.450934 0.041751
O O5 0.130159 0.915990 0.232399
O O6 0.871742 0.933468 0.473274
O O7 0.048807 0.000000 0.305775
O O8 0.294736 0.367646 0.689917
O O9 0.368349 0.333880 0.798779
O O10 0.107787 0.371396 0.097948
O O11 0.500000 0.868039 0.500000
O O12 0.356580 0.840246 0.504455
O O13 0.210971 0.844312 0.890291
O O14 0.356550 0.879818 0.304733
O O15 0.072201 0.856825 0.676876
O O16 0.474444 0.278112 0.821850
O O17 0.476284 0.196657 0.173760
O O18 0.750000 0.750000 0.500000
O O19 0.000000 0.758524 0.000000
#
# Coordination Sequence:
#
# PCOD9197735 Si02
#       8
#     8   8   8   8   8   8   8   8
#     4  10  20  35  62  97 130 169 222 278 334 407
#     4  10  20  39  65  95 130 171 222 274 333 406
#     4  11  23  43  62  96 133 174 220 270 336 401
#     4  12  23  43  64  96 138 172 220 275 345 409
#     4  11  22  40  68  94 128 174 224 272 332 398
#     4  11  23  42  67  96 125 175 222 275 332 406
#     4  12  25  43  67  95 133 179 219 280 342 407
#     4  12  26  46  70 105 137 180 236 288 348 411
#
# _framework density 20.250868000000001
#
# number of rings (size 3 to 8) (size 9 to 14) (size 15 to 20)
#    0.000    0.875    5.000    4.125    0.000    1.750 
#    0.000    1.250    0.000    1.500    0.000    0.000 
#    0.000    0.000    0.000    0.000    0.000    0.000 
#
# Total GULP energy -178659.222667 kJ/mol
# GULP energy per Si atom -5583.100708 kJ/mol
# Density = 2.020478 g / cm^3
# Si number density = 20.250868 Si / 1000 Ang^3
#
#
#
# Elastic Constant Matrix: (Units=GPa)
#
#
# Indices 1 2 3 4 5 6 
#
# 1 108.5665 36.3126 23.5247 -0.0002 -9.8511 0.0001
# 2 36.3126 83.3403 19.1108 -0.0005 -15.1380 0.0002
# 3 23.5247 19.1108 72.3459 -0.0009 4.4292 -0.0011
# 4 -0.0002 -0.0005 -0.0009 16.5474 0.0010 -2.5080
# 5 -9.8511 -15.1380 4.4292 0.0010 38.5253 0.0014
# 6 0.0001 0.0002 -0.0011 -2.5080 0.0014 19.6835
#
#
#
# Elastic Compliance Matrix: (Units=1/GPa)
#
#
# Indices 1 2 3 4 5 6 
#
# 1 0.011284 -0.003999 -0.002712 0.000000 0.001626 0.000000
# 2 -0.003999 0.015435 -0.003107 0.000000 0.005400 -0.000001
# 3 -0.002712 -0.003107 0.015753 0.000001 -0.003726 0.000001
# 4 0.000000 0.000000 0.000001 0.061623 -0.000002 0.007852
# 5 0.001626 0.005400 -0.003726 -0.000002 0.028923 -0.000003
# 6 0.000000 -0.000001 0.000001 0.007852 -0.000003 0.051804
#
#
# Mechanical properties :
#
#
# Convention : Reuss Voigt Hill
#
# Bulk Modulus (GPa) = 43.79392 46.90544 45.34968
# Shear Modulus (GPa) = 23.57701 27.30488 25.44094
#
# Velocity S-wave (km/s) = 3.41581 3.67595 3.54826
# Velocity P-wave (km/s) = 6.10161 6.42100 6.26334
#
# Compressibility (1/GPa) = 0.02283422
#
# Stress axis : x y z
#
# Youngs Moduli (GPa) = 88.62258 64.78833 63.47855
#
# Poissons Ratio (x) = 0.25911 0.17217
# Poissons Ratio (y) = 0.35443 0.19725
# Poissons Ratio (z) = 0.24036 0.20132
#
# Static dielectric constant tensor:
#      x y z
#    x 1.721370 0.000000 0.023310 
#    y 0.000000 1.700330 0.000000 
#    z 0.023310 0.000000 1.774990 
# 
# From -- ./inp_files/161196.got.cif
#   From: 2010.05.17/outbox.cif.g08.bks.cpg/sg12_81_cif.got.tgz:161196.got - 2010.06.03 13:09:07.
