data_PCOD9197873
_publ_section_title
;
Structure prediction by ZEFSAII (Michael W. Deem and Ramdas Pophale) SiO2 
 PCOD9197873
Probable space group: C 2/M
;
_chemical_formula_sum "Si O2"
_cell_formula_units_Z 48
_cell_length_a 19.996198
_cell_length_b 8.464587
_cell_length_c 20.608290
_cell_angle_alpha 90.000000
_cell_angle_beta 130.135990
_cell_angle_gamma 90.000000
_cell_volume 2666.748782
_symmetry_space_group_name_H-M "C 2/M"
_symmetry_group_IT_number 12
_symmetry_cell_setting 'monoclinic'
loop_
_space_group_symop_operation_xyz
x,y,z
-x,y,-z
-x,-y,-z
x,-y,z
1/2+x,1/2+y,z
1/2-x,1/2+y,-z
1/2-x,1/2-y,-z
1/2+x,1/2-y,z
loop_
_atom_site_type_symbol
_atom_site_label
_atom_site_fract_x
_atom_site_fract_y
_atom_site_fract_z
Si Si1 0.487625 0.690413 0.135708
Si Si2 0.822114 0.311231 0.738408
Si Si3 0.297648 0.308805 0.219468
Si Si4 0.980477 0.808210 0.282578
Si Si5 0.802279 0.189929 0.969697
Si Si6 0.324453 0.688809 0.594066
O O1 0.496051 0.500000 0.138293
O O2 0.580925 0.763725 0.176916
O O3 0.468464 0.733096 0.199077
O O4 0.403910 0.738023 0.041269
O O5 0.817397 0.500000 0.730320
O O6 0.750071 0.255194 0.744933
O O7 0.809763 0.240193 0.659195
O O8 0.298868 0.500000 0.220996
O O9 0.397293 0.252438 0.271345
O O10 0.242051 0.255833 0.122494
O O11 0.077382 0.754006 0.363043
O O12 0.980582 0.000000 0.285476
O O13 0.799136 0.000000 0.967210
O O14 0.750000 0.250000 0.000000
O O15 0.325207 0.500000 0.592173
O O16 0.250000 0.750000 0.500000
#
# Coordination Sequence:
#
# PCOD9197873 Si02
#       6
#     8   8   8   8   8   8
#     4   9  18  34  53  72 104 147 186 222 263 317
#     4  10  21  35  55  81 110 140 175 223 273 317
#     4  10  20  36  54  77 110 144 180 223 269 317
#     4   8  15  32  55  75 100 138 178 213 258 315
#     4  11  21  33  52  78 107 144 188 230 267 310
#     4  10  20  37  61  83 106 135 174 218 264 327
#
# _framework density 17.999445000000001
#
# number of rings (size 3 to 8) (size 9 to 14) (size 15 to 20)
#    0.000    2.333    1.667    2.500    0.000    3.333 
#    0.000    5.000    0.000    5.000    0.000    0.000 
#    0.000    0.000    0.000    0.000    0.000    0.000 
#
# Total GULP energy -133884.054761 kJ/mol
# GULP energy per Si atom -5578.502282 kJ/mol
# Density = 1.795848 g / cm^3
# Si number density = 17.999445 Si / 1000 Ang^3
#
#
#
# Elastic Constant Matrix: (Units=GPa)
#
#
# Indices 1 2 3 4 5 6 
#
# 1 168.0862 25.1828 82.6647 0.0000 22.2627 0.0000
# 2 25.1828 21.2826 19.8740 0.0000 4.1549 0.0000
# 3 82.6647 19.8740 140.4816 0.0000 25.4847 0.0000
# 4 0.0000 0.0000 0.0000 30.8241 0.0000 1.0691
# 5 22.2627 4.1549 25.4847 0.0000 21.3460 0.0000
# 6 0.0000 0.0000 0.0000 1.0691 0.0000 22.9899
#
#
#
# Elastic Compliance Matrix: (Units=1/GPa)
#
#
# Indices 1 2 3 4 5 6 
#
# 1 0.009366 -0.006725 -0.003862 0.000000 -0.003849 0.000000
# 2 -0.006725 0.059020 -0.004571 0.000000 0.000983 0.000000
# 3 -0.003862 -0.004571 0.011674 0.000000 -0.009020 0.000000
# 4 0.000000 0.000000 0.000000 0.032495 0.000000 -0.001511
# 5 -0.003849 0.000983 -0.009020 0.000000 0.061439 0.000000
# 6 0.000000 0.000000 0.000000 -0.001511 0.000000 0.043568
#
#
# Mechanical properties :
#
#
# Convention : Reuss Voigt Hill
#
# Bulk Modulus (GPa) = 20.10239 65.03260 42.56750
# Shear Modulus (GPa) = 18.90672 28.50725 23.70698
#
# Velocity S-wave (km/s) = 3.24451 3.98400 3.63312
# Velocity P-wave (km/s) = 5.02279 7.57441 6.42651
#
# Compressibility (1/GPa) = 0.04974532
#
# Stress axis : x y z
#
# Youngs Moduli (GPa) = 106.77252 16.94337 85.66327
#
# Poissons Ratio (x) = 0.11394 0.33080
# Poissons Ratio (y) = 0.71801 0.39155
# Poissons Ratio (z) = 0.41231 0.07744
#
# Static dielectric constant tensor:
#      x y z
#    x 1.629330 0.000000 0.026390 
#    y 0.000000 1.622360 0.000000 
#    z 0.026390 0.000000 1.593510 
# 
# From -- ./inp_files/249365.got.cif
#   From: 2010.05.17/outbox.cif.g08.bks.cpg/sg12_125_cif.got.tgz:249365.got - 2010.06.03 13:09:07.
