data_PCOD9197023
_publ_section_title
;
Structure prediction by ZEFSAII (Michael W. Deem and Ramdas Pophale) SiO2 
 PCOD9197023
Probable space group: C 2/M
;
_chemical_formula_sum "Si O2"
_cell_formula_units_Z 64
_cell_length_a 16.981597
_cell_length_b 8.914369
_cell_length_c 29.788042
_cell_angle_alpha 90.000000
_cell_angle_beta 139.233768
_cell_angle_gamma 90.000000
_cell_volume 2944.470543
_symmetry_space_group_name_H-M "C 2/M"
_symmetry_group_IT_number 12
_symmetry_cell_setting 'monoclinic'
loop_
_space_group_symop_operation_xyz
x,y,z
-x,y,-z
-x,-y,-z
x,-y,z
1/2+x,1/2+y,z
1/2-x,1/2+y,-z
1/2-x,1/2-y,-z
1/2+x,1/2-y,z
loop_
_atom_site_type_symbol
_atom_site_label
_atom_site_fract_x
_atom_site_fract_y
_atom_site_fract_z
Si Si1 0.959022 0.823725 0.410093
Si Si2 0.129315 0.822838 0.966389
Si Si3 0.367640 0.320926 0.847959
Si Si4 0.607518 0.823648 0.707393
Si Si5 0.192412 0.323372 0.082843
Si Si6 0.217687 0.822236 0.342418
Si Si7 0.794553 0.677197 0.473098
Si Si8 0.452307 0.678613 0.223788
O O1 0.959007 0.776191 0.357857
O O2 0.830933 0.767945 0.373011
O O3 0.072888 0.740464 0.480764
O O4 0.972779 0.000000 0.421715
O O5 0.001130 0.780366 0.889016
O O6 0.142124 0.000000 0.968030
O O7 0.250000 0.750000 0.000000
O O8 0.124555 0.771725 0.016162
O O9 0.368535 0.500000 0.858845
O O10 0.252348 0.298263 0.766486
O O11 0.342416 0.229228 0.882482
O O12 0.572740 0.774346 0.742387
O O13 0.583254 0.000000 0.689580
O O14 0.168399 0.500000 0.066484
O O15 0.337511 0.298666 0.142089
O O16 0.212417 0.794828 0.393929
O O17 0.086863 0.786215 0.265513
O O18 0.241183 0.000000 0.345653
O O19 0.801516 0.500000 0.482836
O O20 0.750000 0.750000 0.500000
O O21 0.451646 0.500000 0.234948
#
# Coordination Sequence:
#
# PCOD9197023 Si02
#       8
#     8   8   8   8   8   8   8   8
#     4  12  25  39  57  84 119 154 189 231 281 336
#     4  11  23  38  55  78 112 149 188 234 285 340
#     4   9  20  38  59  82 109 146 188 233 284 335
#     4  10  20  37  61  85 111 145 189 236 282 335
#     4  10  20  35  58  86 114 146 185 229 279 338
#     4  10  22  40  60  83 114 151 188 229 280 333
#     4  11  23  40  64  90 116 149 191 237 283 333
#     4   9  19  37  60  86 116 147 183 231 284 337
#
# _framework density 21.735655000000001
#
# number of rings (size 3 to 8) (size 9 to 14) (size 15 to 20)
#    0.000    1.750    0.000    4.125    0.000    8.500 
#    0.000    5.000    0.000    0.000    0.000    0.000 
#    0.000    0.000    0.000    0.000    0.000    0.000 
#
# Total GULP energy -178923.611801 kJ/mol
# GULP energy per Si atom -5591.362869 kJ/mol
# Density = 2.168618 g / cm^3
# Si number density = 21.735655 Si / 1000 Ang^3
#
#
#
# Elastic Constant Matrix: (Units=GPa)
#
#
# Indices 1 2 3 4 5 6 
#
# 1 60.9769 14.0332 6.4733 0.0000 21.1439 0.0000
# 2 14.0332 37.2495 18.5625 0.0000 11.7450 0.0000
# 3 6.4733 18.5625 72.7732 0.0000 26.8578 0.0000
# 4 0.0000 0.0000 0.0000 23.7187 0.0000 0.6860
# 5 21.1439 11.7450 26.8578 0.0000 39.4548 0.0000
# 6 0.0000 0.0000 0.0000 0.6860 0.0000 36.2666
#
#
#
# Elastic Compliance Matrix: (Units=1/GPa)
#
#
# Indices 1 2 3 4 5 6 
#
# 1 0.021843 -0.006390 0.004414 0.000000 -0.012808 0.000000
# 2 -0.006390 0.033411 -0.007408 0.000000 -0.001479 0.000000
# 3 0.004414 -0.007408 0.020430 0.000000 -0.014067 0.000000
# 4 0.000000 0.000000 0.000000 0.042184 0.000000 -0.000798
# 5 -0.012808 -0.001479 -0.014067 0.000000 0.042226 0.000000
# 6 0.000000 0.000000 0.000000 -0.000798 0.000000 0.027589
#
#
# Mechanical properties :
#
#
# Convention : Reuss Voigt Hill
#
# Bulk Modulus (GPa) = 17.56988 27.68194 22.62591
# Shear Modulus (GPa) = 22.18050 28.68338 25.43194
#
# Velocity S-wave (km/s) = 3.19794 3.63663 3.42432
# Velocity P-wave (km/s) = 4.66227 5.51334 5.10557
#
# Compressibility (1/GPa) = 0.05691560
#
# Stress axis : x y z
#
# Youngs Moduli (GPa) = 45.78130 29.92995 48.94744
#
# Poissons Ratio (x) = 0.19126 -0.21605
# Poissons Ratio (y) = 0.29255 0.36261
# Poissons Ratio (z) = -0.20208 0.22173
#
# Static dielectric constant tensor:
#      x y z
#    x 1.828720 0.000000 0.018330 
#    y 0.000000 1.719760 0.000000 
#    z 0.018330 0.000000 1.821650 
# 
# From -- ./inp_files/378444.got.cif
#   From: 2010.05.17/outbox.cif.g08.bks.cpg/sg12_190_cif.got.tgz:378444.got - 2010.06.03 13:09:07.
