data_PCOD9197378
_publ_section_title
;
Structure prediction by ZEFSAII (Michael W. Deem and Ramdas Pophale) SiO2 
 PCOD9197378
Probable space group: C 2/M
;
_chemical_formula_sum "Si O2"
_cell_formula_units_Z 56
_cell_length_a 16.115760
_cell_length_b 8.905153
_cell_length_c 26.258832
_cell_angle_alpha 90.000000
_cell_angle_beta 47.845267
_cell_angle_gamma 90.000000
_cell_volume 2793.715150
_symmetry_space_group_name_H-M "C 2/M"
_symmetry_group_IT_number 12
_symmetry_cell_setting 'monoclinic'
loop_
_space_group_symop_operation_xyz
x,y,z
-x,y,-z
-x,-y,-z
x,-y,z
1/2+x,1/2+y,z
1/2-x,1/2+y,-z
1/2-x,1/2-y,-z
1/2+x,1/2-y,z
loop_
_atom_site_type_symbol
_atom_site_label
_atom_site_fract_x
_atom_site_fract_y
_atom_site_fract_z
Si Si1 0.832269 0.817246 0.329228
Si Si2 0.865118 0.669593 0.964207
Si Si3 0.869138 0.833524 0.060088
Si Si4 0.503804 0.818467 0.337120
Si Si5 0.573148 0.182415 0.422027
Si Si6 0.012099 0.823117 0.172280
Si Si7 0.690932 0.321489 0.188566
O O1 0.895329 0.746161 0.352047
O O2 0.703216 0.772649 0.374899
O O3 0.905518 0.772971 0.249318
O O4 0.839318 0.000000 0.330607
O O5 0.863477 0.500000 0.949378
O O6 0.962530 0.747623 0.891890
O O7 0.750000 0.750000 0.000000
O O8 0.863773 0.691471 0.024730
O O9 0.803871 0.774885 0.136252
O O10 0.819886 0.000000 0.067043
O O11 0.000000 0.858090 0.000000
O O12 0.517447 0.776609 0.390916
O O13 0.610663 0.746610 0.264606
O O14 0.505253 0.000000 0.332019
O O15 0.500000 0.235273 0.500000
O O16 0.574048 0.000000 0.422579
O O17 0.119144 0.799901 0.165646
O O18 0.001368 0.000000 0.167770
O O19 0.708284 0.500000 0.188446
#
# Coordination Sequence:
#
# PCOD9197378 Si02
#       7
#     8   8   8   8   8   8   8
#     4   9  19  37  60  85 117 157 201 244 293 358
#     4  12  23  35  55  80 109 147 190 239 290 341
#     4  11  24  39  55  78 110 148 191 240 293 351
#     4  10  20  35  59  89 119 153 195 245 295 349
#     4   9  19  37  61  89 121 158 197 239 293 359
#     4   9  18  33  54  80 109 146 191 238 287 346
#     4  10  20  36  58  81 111 150 189 235 290 350
#
# _framework density 20.044992000000001
#
# number of rings (size 3 to 8) (size 9 to 14) (size 15 to 20)
#    0.000    2.000    1.429    3.429    0.000    5.143 
#    0.000    4.286    0.000    3.000    0.000    0.000 
#    0.000    0.000    0.000    0.000    0.000    0.000 
#
# Total GULP energy -155984.322842 kJ/mol
# GULP energy per Si atom -5570.868673 kJ/mol
# Density = 1.999937 g / cm^3
# Si number density = 20.044992 Si / 1000 Ang^3
#
#
#
# Elastic Constant Matrix: (Units=GPa)
#
#
# Indices 1 2 3 4 5 6 
#
# 1 45.9631 11.6070 36.3838 0.0000 -9.1412 0.0000
# 2 11.6070 55.6881 22.3460 0.0000 -3.3776 0.0000
# 3 36.3838 22.3460 120.9523 0.0000 -5.0400 0.0000
# 4 0.0000 0.0000 0.0000 25.0195 0.0000 2.9418
# 5 -9.1412 -3.3776 -5.0400 0.0000 30.7636 0.0000
# 6 0.0000 0.0000 0.0000 2.9418 0.0000 21.6683
#
#
#
# Elastic Compliance Matrix: (Units=1/GPa)
#
#
# Indices 1 2 3 4 5 6 
#
# 1 0.030525 -0.002540 -0.008404 0.000000 0.007415 0.000000
# 2 -0.002540 0.019680 -0.002833 0.000000 0.000942 0.000000
# 3 -0.008404 -0.002833 0.011279 0.000000 -0.000960 0.000000
# 4 0.000000 0.000000 0.000000 0.040617 0.000000 -0.005514
# 5 0.007415 0.000942 -0.000960 0.000000 0.034655 0.000000
# 6 0.000000 0.000000 0.000000 -0.005514 0.000000 0.046899
#
#
# Mechanical properties :
#
#
# Convention : Reuss Voigt Hill
#
# Bulk Modulus (GPa) = 29.47173 40.36412 34.91793
# Shear Modulus (GPa) = 22.46986 25.64140 24.05563
#
# Velocity S-wave (km/s) = 3.35172 3.58046 3.46798
# Velocity P-wave (km/s) = 5.45100 6.10519 5.78735
#
# Compressibility (1/GPa) = 0.03393082
#
# Stress axis : x y z
#
# Youngs Moduli (GPa) = 32.75974 50.81197 88.65990
#
# Poissons Ratio (x) = 0.12908 0.74510
# Poissons Ratio (y) = 0.08322 0.25113
# Poissons Ratio (z) = 0.27531 0.14393
#
# Static dielectric constant tensor:
#      x y z
#    x 1.742360 0.000000 -0.015120 
#    y 0.000000 1.698290 0.000000 
#    z -0.015120 0.000000 1.694540 
# 
# From -- ./inp_files/362909.got.cif
#   From: 2010.05.17/outbox.cif.g08.bks.cpg/sg12_182_cif.got.tgz:362909.got - 2010.06.03 13:09:07.
