data_PCOD9197480
_publ_section_title
;
Structure prediction by ZEFSAII (Michael W. Deem and Ramdas Pophale) SiO2 
 PCOD9197480
Probable space group: C 2/M
;
_chemical_formula_sum "Si O2"
_cell_formula_units_Z 64
_cell_length_a 27.645813
_cell_length_b 18.731673
_cell_length_c 12.396503
_cell_angle_alpha 90.000000
_cell_angle_beta 148.435547
_cell_angle_gamma 90.000000
_cell_volume 3360.365007
_symmetry_space_group_name_H-M "C 2/M"
_symmetry_group_IT_number 12
_symmetry_cell_setting 'monoclinic'
loop_
_space_group_symop_operation_xyz
x,y,z
-x,y,-z
-x,-y,-z
x,-y,z
1/2+x,1/2+y,z
1/2-x,1/2+y,-z
1/2-x,1/2-y,-z
1/2+x,1/2-y,z
loop_
_atom_site_type_symbol
_atom_site_label
_atom_site_fract_x
_atom_site_fract_y
_atom_site_fract_z
Si Si1 0.863883 0.751351 0.447515
Si Si2 0.677393 0.164086 0.066110
Si Si3 0.890864 0.307297 0.284964
Si Si4 0.639795 0.378487 0.308819
Si Si5 0.163232 0.420931 0.242769
Si Si6 0.569590 0.296818 0.808517
Si Si7 0.540782 0.418330 0.905829
Si Si8 0.601118 0.222797 0.240024
O O1 0.779129 0.806310 0.286330
O O2 0.846088 0.694851 0.317198
O O3 0.884680 0.718796 0.603961
O O4 0.959825 0.787136 0.593625
O O5 0.839883 0.350737 0.093421
O O6 0.652143 0.100099 0.096517
O O7 0.610096 0.232455 0.959468
O O8 0.888496 0.226975 0.226804
O O9 0.000000 0.326969 0.500000
O O10 0.728346 0.417046 0.523711
O O11 0.555527 0.384074 0.234254
O O12 0.658389 0.294763 0.320440
O O13 0.605777 0.413802 0.134007
O O14 0.127082 0.500000 0.198219
O O15 0.123588 0.353784 0.232893
O O16 0.584491 0.371649 0.893485
O O17 0.524641 0.500000 0.845097
O O18 0.500000 0.240952 0.000000
#
# Coordination Sequence:
#
# PCOD9197480 Si02
#       8
#     8   8   8   8   8   8   8   8
#     4  11  18  36  57  88 109 142 195 244 275 334
#     4  10  20  35  60  80 111 152 191 232 288 333
#     4   8  19  33  59  85 108 138 191 249 284 320
#     4  11  20  36  53  83 115 153 199 230 268 342
#     4  12  25  37  53  86 123 151 186 234 292 348
#     4   9  19  34  52  85 110 138 191 237 279 337
#     4  11  19  31  54  81 118 157 183 227 285 339
#     4  12  23  37  63  83 116 152 198 236 286 333
#
# _framework density 19.045549999999999
#
# number of rings (size 3 to 8) (size 9 to 14) (size 15 to 20)
#    0.750    0.750    3.750    3.750    1.750    0.250 
#    0.000    0.000    0.000    5.250    0.000    0.000 
#    0.000    0.000    0.000    0.000    0.000    0.000 
#
# Total GULP energy -178239.405183 kJ/mol
# GULP energy per Si atom -5569.981412 kJ/mol
# Density = 1.900220 g / cm^3
# Si number density = 19.045550 Si / 1000 Ang^3
#
#
#
# Elastic Constant Matrix: (Units=GPa)
#
#
# Indices 1 2 3 4 5 6 
#
# 1 49.1261 5.8560 12.1290 0.0000 -26.6864 0.0000
# 2 5.8560 100.8331 9.9023 0.0000 -2.1660 0.0000
# 3 12.1290 9.9023 68.4884 0.0000 -15.9437 0.0000
# 4 0.0000 0.0000 0.0000 12.5298 0.0000 0.5501
# 5 -26.6864 -2.1660 -15.9437 0.0000 27.7204 0.0000
# 6 0.0000 0.0000 0.0000 0.5501 0.0000 6.3421
#
#
#
# Elastic Compliance Matrix: (Units=1/GPa)
#
#
# Indices 1 2 3 4 5 6 
#
# 1 0.043328 -0.001849 0.002622 0.000000 0.043076 0.000000
# 2 -0.001849 0.010139 -0.001580 0.000000 -0.001896 0.000000
# 3 0.002622 -0.001580 0.017231 0.000000 0.012311 0.000000
# 4 0.000000 0.000000 0.000000 0.080115 0.000000 -0.006948
# 5 0.043076 -0.001896 0.012311 0.000000 0.084476 0.000000
# 6 0.000000 0.000000 0.000000 -0.006948 0.000000 0.158279
#
#
# Mechanical properties :
#
#
# Convention : Reuss Voigt Hill
#
# Bulk Modulus (GPa) = 14.47487 30.46913 22.47200
# Shear Modulus (GPa) = 11.95571 22.02250 16.98911
#
# Velocity S-wave (km/s) = 2.50820 3.40414 2.98992
# Velocity P-wave (km/s) = 4.00059 5.61103 4.87280
#
# Compressibility (1/GPa) = 0.06908526
#
# Stress axis : x y z
#
# Youngs Moduli (GPa) = 23.07951 98.62747 58.03459
#
# Poissons Ratio (x) = 0.18231 -0.15215
# Poissons Ratio (y) = 0.04266 0.09169
# Poissons Ratio (z) = -0.06051 0.15583
#
# Static dielectric constant tensor:
#      x y z
#    x 1.725000 0.000000 -0.009490 
#    y 0.000000 1.654180 0.000000 
#    z -0.009490 0.000000 1.707600 
# 
# From -- ./inp_files/251654.got.cif
#   From: 2010.05.17/outbox.cif.g08.bks.cpg/sg12_126_cif.got.tgz:251654.got - 2010.06.03 13:09:07.
