data_PCOD9197688
_publ_section_title
;
Structure prediction by ZEFSAII (Michael W. Deem and Ramdas Pophale) SiO2 
 PCOD9197688
Probable space group: C 2/M
;
_chemical_formula_sum "Si O2"
_cell_formula_units_Z 56
_cell_length_a 27.253611
_cell_length_b 12.545856
_cell_length_c 21.347440
_cell_angle_alpha 90.000000
_cell_angle_beta 160.411603
_cell_angle_gamma 90.000000
_cell_volume 2447.106734
_symmetry_space_group_name_H-M "C 2/M"
_symmetry_group_IT_number 12
_symmetry_cell_setting 'monoclinic'
loop_
_space_group_symop_operation_xyz
x,y,z
-x,y,-z
-x,-y,-z
x,-y,z
1/2+x,1/2+y,z
1/2-x,1/2+y,-z
1/2-x,1/2-y,-z
1/2+x,1/2-y,z
loop_
_atom_site_type_symbol
_atom_site_label
_atom_site_fract_x
_atom_site_fract_y
_atom_site_fract_z
Si Si1 0.841690 0.876472 0.953777
Si Si2 0.733688 0.795589 0.378703
Si Si3 0.964748 0.695662 0.752851
Si Si4 0.517055 0.160031 0.588367
Si Si5 0.456757 0.388107 0.552566
Si Si6 0.213126 0.881864 0.260576
Si Si7 0.762525 0.621885 0.993300
O O1 0.688200 0.853361 0.805636
O O2 0.817154 0.857562 0.849450
O O3 0.878976 0.000000 0.005294
O O4 0.960701 0.801683 0.128415
O O5 0.848777 0.731052 0.560705
O O6 0.622985 0.851096 0.293446
O O7 0.659655 0.709053 0.243068
O O8 0.827640 0.871511 0.447300
O O9 0.093677 0.628130 0.877315
O O10 0.500000 0.109745 0.500000
O O11 0.467015 0.282383 0.524546
O O12 0.391275 0.115326 0.481522
O O13 0.436071 0.500000 0.494068
O O14 0.609662 0.387765 0.773054
O O15 0.157782 0.000000 0.208996
O O16 0.773038 0.500000 0.037278
O O17 0.750000 0.750000 0.000000
#
# Coordination Sequence:
#
# PCOD9197688 Si02
#       7
#     8   8   8   8   8   8   8
#     4  10  20  35  61  94 130 167 212 270 331 390
#     4  10  23  40  58  84 128 168 213 260 318 390
#     4  11  23  40  59  90 125 169 213 259 323 383
#     4   9  17  33  57  89 122 159 204 262 323 385
#     4  10  20  37  59  83 115 157 208 262 315 376
#     4   9  19  37  60  91 128 169 212 265 331 396
#     4  11  23  42  65  92 125 164 214 270 328 390
#
# _framework density 22.884167000000001
#
# number of rings (size 3 to 8) (size 9 to 14) (size 15 to 20)
#    0.000    2.000    2.857    0.429    0.000    5.429 
#    0.000    4.286    0.000    0.000    0.000    4.000 
#    0.000    0.000    0.000    0.000    0.000    0.000 
#
# Total GULP energy -156056.216339 kJ/mol
# GULP energy per Si atom -5573.436298 kJ/mol
# Density = 2.283208 g / cm^3
# Si number density = 22.884167 Si / 1000 Ang^3
#
#
#
# Elastic Constant Matrix: (Units=GPa)
#
#
# Indices 1 2 3 4 5 6 
#
# 1 103.5122 46.0718 29.0165 0.0000 11.5786 0.0000
# 2 46.0718 149.1786 13.7639 0.0001 -3.2006 0.0001
# 3 29.0165 13.7639 61.9803 0.0003 18.6296 0.0001
# 4 0.0000 0.0001 0.0003 10.4087 0.0001 -4.1354
# 5 11.5786 -3.2006 18.6296 0.0001 39.1446 0.0000
# 6 0.0000 0.0001 0.0001 -4.1354 0.0000 18.6759
#
#
#
# Elastic Compliance Matrix: (Units=1/GPa)
#
#
# Indices 1 2 3 4 5 6 
#
# 1 0.012743 -0.003549 -0.004618 0.000000 -0.001862 0.000000
# 2 -0.003549 0.007908 -0.000705 0.000000 0.002032 0.000000
# 3 -0.004618 -0.000705 0.021074 0.000000 -0.008721 0.000000
# 4 0.000000 0.000000 0.000000 0.105341 0.000000 0.023325
# 5 -0.001862 0.002032 -0.008721 0.000000 0.030414 0.000000
# 6 0.000000 0.000000 0.000000 0.023325 0.000000 0.058710
#
#
# Mechanical properties :
#
#
# Convention : Reuss Voigt Hill
#
# Bulk Modulus (GPa) = 41.70130 54.70840 48.20485
# Shear Modulus (GPa) = 19.08918 28.70045 23.89481
#
# Velocity S-wave (km/s) = 2.89133 3.54526 3.23486
# Velocity P-wave (km/s) = 5.42298 6.38099 5.92139
#
# Compressibility (1/GPa) = 0.02398007
#
# Stress axis : x y z
#
# Youngs Moduli (GPa) = 78.47265 126.45029 47.45160
#
# Poissons Ratio (x) = 0.44883 0.21913
# Poissons Ratio (y) = 0.27854 0.03347
# Poissons Ratio (z) = 0.36239 0.08918
#
# Static dielectric constant tensor:
#      x y z
#    x 2.012790 0.000000 -0.047330 
#    y 0.000000 1.861220 0.000000 
#    z -0.047330 0.000000 1.886520 
# 
# From -- ./inp_files/353980.got.cif
#   From: 2010.05.17/outbox.cif.g08.bks.cpg/sg12_177_cif.got.tgz:353980.got - 2010.06.03 13:09:07.
