data_PCOD9197895
_publ_section_title
;
Structure prediction by ZEFSAII (Michael W. Deem and Ramdas Pophale) SiO2 
 PCOD9197895
Probable space group: C 2/M
;
_chemical_formula_sum "Si O2"
_cell_formula_units_Z 48
_cell_length_a 18.135399
_cell_length_b 25.385211
_cell_length_c 4.872382
_cell_angle_alpha 90.000000
_cell_angle_beta 118.621643
_cell_angle_gamma 90.000000
_cell_volume 1969.000533
_symmetry_space_group_name_H-M "C 2/M"
_symmetry_group_IT_number 12
_symmetry_cell_setting 'monoclinic'
loop_
_space_group_symop_operation_xyz
x,y,z
-x,y,-z
-x,-y,-z
x,-y,z
1/2+x,1/2+y,z
1/2-x,1/2+y,-z
1/2-x,1/2-y,-z
1/2+x,1/2-y,z
loop_
_atom_site_type_symbol
_atom_site_label
_atom_site_fract_x
_atom_site_fract_y
_atom_site_fract_z
Si Si1 0.377870 0.558621 0.407407
Si Si2 0.360071 0.627755 0.847241
Si Si3 0.297422 0.083646 0.677090
Si Si4 0.841925 0.243735 0.031143
Si Si5 0.082325 0.704808 0.319521
Si Si6 0.408755 0.089127 0.408590
O O1 0.415194 0.500000 0.497466
O O2 0.408336 0.605309 0.666038
O O3 0.377810 0.583452 0.107086
O O4 0.280119 0.553460 0.322456
O O5 0.260813 0.626083 0.587072
O O6 0.370112 0.686020 0.979589
O O7 0.346709 0.218277 0.776805
O O8 0.353094 0.058955 0.534564
O O9 0.902715 0.261572 0.383661
O O10 0.857702 0.401863 0.036737
O O11 0.750000 0.250000 0.000000
O O12 0.077033 0.644964 0.413261
O O13 0.000000 0.717849 0.000000
O O14 0.500000 0.066581 0.500000
#
# Coordination Sequence:
#
# PCOD9197895 Si02
#       6
#     8   8   8   8   8   8
#     4  10  20  37  61  83 116 150 188 244 325 380
#     4  10  21  36  58  88 115 145 194 240 310 370
#     4  10  20  36  54  82 115 139 197 249 312 346
#     4  12  25  39  62  91 129 160 205 262 304 349
#     4  12  26  41  58  83 128 173 215 241 297 365
#     4  12  22  35  55  78 109 161 214 247 277 348
#
# _framework density 24.377848
#
# number of rings (size 3 to 8) (size 9 to 14) (size 15 to 20)
#    1.000    0.000    1.667    7.000    2.333    0.000 
#    0.000    0.000    0.000    3.000    0.000    0.000 
#    0.000   46.667    0.000    0.000    0.000    0.000 
#
# Total GULP energy -134023.002946 kJ/mol
# GULP energy per Si atom -5584.291789 kJ/mol
# Density = 2.432236 g / cm^3
# Si number density = 24.377848 Si / 1000 Ang^3
#
#
#
# Elastic Constant Matrix: (Units=GPa)
#
#
# Indices 1 2 3 4 5 6 
#
# 1 91.7634 -2.0089 14.3295 0.0000 -18.4583 0.0000
# 2 -2.0089 120.4677 42.3290 0.0000 -0.9305 0.0000
# 3 14.3295 42.3290 154.9726 0.0000 -27.1841 0.0000
# 4 0.0000 0.0000 0.0000 -105.8851 0.0000 75.4865
# 5 -18.4583 -0.9305 -27.1841 0.0000 40.3978 0.0000
# 6 0.0000 0.0000 0.0000 75.4865 0.0000 -68.5495
#
#
#
# Elastic Compliance Matrix: (Units=1/GPa)
#
#
# Indices 1 2 3 4 5 6 
#
# 1 0.012017 0.000336 -0.000270 0.000000 0.005316 0.000000
# 2 0.000336 0.009293 -0.002840 0.000000 -0.001543 0.000000
# 3 -0.000270 -0.002840 0.008187 0.000000 0.005320 0.000000
# 4 0.000000 0.000000 0.000000 -0.043937 0.000000 -0.048384
# 5 0.005316 -0.001543 0.005320 0.000000 0.030727 0.000000
# 6 0.000000 0.000000 0.000000 -0.048384 0.000000 -0.067868
#
#
# Mechanical properties :
#
#
# Convention : Reuss Voigt Hill
#
# Bulk Modulus (GPa) = 41.75745 52.94479 47.35112
# Shear Modulus (GPa) = -131.39921 -5.97043 -68.68482
#
# Velocity S-wave (km/s) = -7.34970 -1.56667 -5.31378
# Velocity P-wave (km/s) = 7.40660 4.30034 4.26408
#
# Compressibility (1/GPa) = 0.02394782
#
# Stress axis : x y z
#
# Youngs Moduli (GPa) = 83.21841 107.61298 122.15025
#
# Poissons Ratio (x) = -0.03621 0.03304
# Poissons Ratio (y) = -0.02800 0.34690
# Poissons Ratio (z) = 0.02251 0.30562
#
# Static dielectric constant tensor:
#      x y z
#    x 2.044500 0.000000 0.031430 
#    y 0.000000 1.960790 0.000000 
#    z 0.031430 0.000000 1.891360 
# 
# From -- ./inp_files/25971.got.cif
#   From: 2010.05.17/outbox.cif.g08.bks.cpg/sg12_13_cif.got.tgz:25971.got - 2010.06.03 13:09:07.
