data_PCOD9197855
_publ_section_title
;
Structure prediction by ZEFSAII (Michael W. Deem and Ramdas Pophale) SiO2 
 PCOD9197855
Probable space group: C 2/M
;
_chemical_formula_sum "Si O2"
_cell_formula_units_Z 48
_cell_length_a 19.874142
_cell_length_b 7.440500
_cell_length_c 25.976115
_cell_angle_alpha 90.000000
_cell_angle_beta 151.065399
_cell_angle_gamma 90.000000
_cell_volume 1858.405305
_symmetry_space_group_name_H-M "C 2/M"
_symmetry_group_IT_number 12
_symmetry_cell_setting 'monoclinic'
loop_
_space_group_symop_operation_xyz
x,y,z
-x,y,-z
-x,-y,-z
x,-y,z
1/2+x,1/2+y,z
1/2-x,1/2+y,-z
1/2-x,1/2-y,-z
1/2+x,1/2-y,z
loop_
_atom_site_type_symbol
_atom_site_label
_atom_site_fract_x
_atom_site_fract_y
_atom_site_fract_z
Si Si1 0.048657 0.207608 0.478442
Si Si2 0.658844 0.285850 0.051302
Si Si3 0.084580 0.783997 0.391697
Si Si4 0.337498 0.281333 0.834233
Si Si5 0.566491 0.285834 0.812642
Si Si6 0.319149 0.717676 0.711033
O O1 0.023089 0.286953 0.404888
O O2 0.215012 0.214059 0.598094
O O3 0.000000 0.293115 0.500000
O O4 0.004337 0.000000 0.448605
O O5 0.648762 0.500000 0.048285
O O6 0.711655 0.217790 0.142716
O O7 0.770427 0.249253 0.082223
O O8 0.500197 0.226649 0.938923
O O9 0.250000 0.750000 0.500000
O O10 0.005333 0.715779 0.288061
O O11 0.068540 0.000000 0.382257
O O12 0.330501 0.500000 0.829586
O O13 0.273406 0.221210 0.737318
O O14 0.551445 0.500000 0.802000
O O15 0.474288 0.224294 0.799017
O O16 0.314216 0.500000 0.707571
#
# Coordination Sequence:
#
# PCOD9197855 Si02
#       6
#     8   8   8   8   8   8
#     4  10  22  37  53  76 106 138 172 213 259 303
#     4   9  18  35  57  78 101 134 174 210 254 308
#     4  10  20  36  54  74 105 140 171 208 254 304
#     4   8  17  35  56  77 103 134 170 215 256 299
#     4  10  21  34  51  78 108 135 167 211 259 302
#     4  10  20  36  55  76 104 137 173 212 255 303
#
# _framework density 25.828593999999999
#
# number of rings (size 3 to 8) (size 9 to 14) (size 15 to 20)
#    0.000    2.500    1.667    1.000    2.333    2.333 
#    0.000    2.500    0.000    0.000    0.000    0.000 
#    0.000    0.000    0.000    0.000    0.000    0.000 
#
# Total GULP energy -134120.441681 kJ/mol
# GULP energy per Si atom -5588.351737 kJ/mol
# Density = 2.576981 g / cm^3
# Si number density = 25.828594 Si / 1000 Ang^3
#
#
#
# Elastic Constant Matrix: (Units=GPa)
#
#
# Indices 1 2 3 4 5 6 
#
# 1 121.0064 10.2065 -5.0115 -0.0001 1.8548 0.0000
# 2 10.2065 88.7866 -1.0359 -0.0002 -5.9029 0.0000
# 3 -5.0115 -1.0359 42.9865 -0.0001 -1.4346 -0.0001
# 4 -0.0001 -0.0002 -0.0001 11.6276 -0.0001 12.1104
# 5 1.8548 -5.9029 -1.4346 -0.0001 49.4783 0.0000
# 6 0.0000 0.0000 -0.0001 12.1104 0.0000 13.3214
#
#
#
# Elastic Compliance Matrix: (Units=1/GPa)
#
#
# Indices 1 2 3 4 5 6 
#
# 1 0.008392 -0.000981 0.000941 0.000001 -0.000404 -0.000001
# 2 -0.000981 0.011472 0.000209 0.000004 0.001411 -0.000004
# 3 0.000941 0.000209 0.023400 0.000002 0.000668 -0.000002
# 4 0.000001 0.000004 0.000002 1.617798 0.000004 -1.470727
# 5 -0.000404 0.001411 0.000668 0.000004 0.020414 -0.000003
# 6 -0.000001 -0.000004 -0.000002 -1.470727 -0.000003 1.412094
#
#
# Mechanical properties :
#
#
# Convention : Reuss Voigt Hill
#
# Bulk Modulus (GPa) = 22.93377 29.01085 25.97231
# Shear Modulus (GPa) = 1.60887 31.46017 16.53452
#
# Velocity S-wave (km/s) = 0.79010 3.49382 2.53289
# Velocity P-wave (km/s) = 3.11943 5.24711 4.31642
#
# Compressibility (1/GPa) = 0.04360383
#
# Stress axis : x y z
#
# Youngs Moduli (GPa) = 119.16230 87.16907 42.73471
#
# Poissons Ratio (x) = 0.08548 -0.04022
# Poissons Ratio (y) = 0.11685 -0.00894
# Poissons Ratio (z) = -0.11216 -0.01824
#
# Static dielectric constant tensor:
#      x y z
#    x 2.067780 0.000000 0.024390 
#    y 0.000000 1.972280 0.000000 
#    z 0.024390 0.000000 2.059200 
# 
# From -- ./inp_files/229298.got.cif
#   From: 2010.05.17/outbox.cif.g08.bks.cpg/sg12_115_cif.got.tgz:229298.got - 2010.06.03 13:09:07.
