data_PCOD9197950
_publ_section_title
;
Structure prediction by ZEFSAII (Michael W. Deem and Ramdas Pophale) SiO2 
 PCOD9197950
Probable space group: C 2/M
;
_chemical_formula_sum "Si O2"
_cell_formula_units_Z 56
_cell_length_a 29.568910
_cell_length_b 8.427244
_cell_length_c 14.821871
_cell_angle_alpha 90.000000
_cell_angle_beta 59.759008
_cell_angle_gamma 90.000000
_cell_volume 3190.764677
_symmetry_space_group_name_H-M "C 2/M"
_symmetry_group_IT_number 12
_symmetry_cell_setting 'monoclinic'
loop_
_space_group_symop_operation_xyz
x,y,z
-x,y,-z
-x,-y,-z
x,-y,z
1/2+x,1/2+y,z
1/2-x,1/2+y,-z
1/2-x,1/2-y,-z
1/2+x,1/2-y,z
loop_
_atom_site_type_symbol
_atom_site_label
_atom_site_fract_x
_atom_site_fract_y
_atom_site_fract_z
Si Si1 0.783350 0.307977 0.736675
Si Si2 0.402147 0.692382 0.934075
Si Si3 0.490298 0.189299 0.114213
Si Si4 0.666678 0.692164 0.833530
Si Si5 0.702280 0.811052 0.484463
Si Si6 0.380946 0.690029 0.302314
Si Si7 0.805778 0.810848 0.904378
O O1 0.787046 0.500000 0.736384
O O2 0.722941 0.259221 0.811925
O O3 0.795812 0.256153 0.621913
O O4 0.812647 0.238662 0.793356
O O5 0.406207 0.500000 0.926896
O O6 0.459705 0.764383 0.875224
O O7 0.357141 0.742217 0.908834
O O8 0.378746 0.742970 0.054384
O O9 0.438656 0.261151 0.212474
O O10 0.484444 0.000000 0.116391
O O11 0.500000 0.245926 0.000000
O O12 0.666531 0.500000 0.833173
O O13 0.656063 0.744232 0.743287
O O14 0.750000 0.750000 0.500000
O O15 0.646553 0.763777 0.583133
O O16 0.708074 0.000000 0.476587
O O17 0.378748 0.500000 0.312177
O O18 0.803695 0.000000 0.914749
O O19 0.750000 0.750000 0.000000
#
# Coordination Sequence:
#
# PCOD9197950 Si02
#       7
#     8   8   8   8   8   8   8
#     4  10  20  37  55  78 114 152 186 224 276 333
#     4  10  20  36  55  77 110 150 187 223 270 333
#     4  11  23  36  53  83 115 143 183 233 279 328
#     4   9  16  30  52  78 110 146 183 218 263 329
#     4  11  22  36  56  83 115 150 188 232 280 332
#     4  11  21  36  57  80 111 152 189 225 277 334
#     4  11  22  35  55  83 113 147 188 231 277 330
#
# _framework density 17.550651999999999
#
# number of rings (size 3 to 8) (size 9 to 14) (size 15 to 20)
#    0.000    1.571    4.286    1.714    0.000    2.857 
#    0.000    0.000    0.000    0.857    0.000    6.000 
#    0.000    0.000    0.000    0.000    0.000    0.000 
#
# Total GULP energy -156143.467509 kJ/mol
# GULP energy per Si atom -5576.552411 kJ/mol
# Density = 1.751071 g / cm^3
# Si number density = 17.550652 Si / 1000 Ang^3
#
#
#
# Elastic Constant Matrix: (Units=GPa)
#
#
# Indices 1 2 3 4 5 6 
#
# 1 90.5313 11.1003 33.8609 0.0000 5.4193 0.0000
# 2 11.1003 25.5858 12.1970 0.0000 4.3269 0.0000
# 3 33.8609 12.1970 94.0631 0.0000 3.9670 0.0000
# 4 0.0000 0.0000 0.0000 24.9957 0.0000 -1.1406
# 5 5.4193 4.3269 3.9670 0.0000 27.1507 0.0000
# 6 0.0000 0.0000 0.0000 -1.1406 0.0000 25.1291
#
#
#
# Elastic Compliance Matrix: (Units=1/GPa)
#
#
# Indices 1 2 3 4 5 6 
#
# 1 0.013133 -0.003440 -0.004220 0.000000 -0.001457 0.000000
# 2 -0.003440 0.043517 -0.004167 0.000000 -0.005640 0.000000
# 3 -0.004220 -0.004167 0.012705 0.000000 -0.000350 0.000000
# 4 0.000000 0.000000 0.000000 0.040090 0.000000 0.001820
# 5 -0.001457 -0.005640 -0.000350 0.000000 0.038072 0.000000
# 6 0.000000 0.000000 0.000000 0.001820 0.000000 0.039877
#
#
# Mechanical properties :
#
#
# Convention : Reuss Voigt Hill
#
# Bulk Modulus (GPa) = 21.88083 36.05516 28.96799
# Shear Modulus (GPa) = 22.09634 25.65656 23.87645
#
# Velocity S-wave (km/s) = 3.55209 3.82757 3.69240
# Velocity P-wave (km/s) = 5.41456 6.33418 5.89234
#
# Compressibility (1/GPa) = 0.04570212
#
# Stress axis : x y z
#
# Youngs Moduli (GPa) = 76.14211 22.97976 78.70652
#
# Poissons Ratio (x) = 0.07904 0.33216
# Poissons Ratio (y) = 0.26190 0.32794
# Poissons Ratio (z) = 0.32134 0.09575
#
# Static dielectric constant tensor:
#      x y z
#    x 1.600020 0.000000 0.010050 
#    y 0.000000 1.605000 0.000000 
#    z 0.010050 0.000000 1.600470 
# 
# From -- ./inp_files/243658.got.cif
#   From: 2010.05.17/outbox.cif.g08.bks.cpg/sg12_122_cif.got.tgz:243658.got - 2010.06.03 13:09:07.
