data_PCOD9197697
_publ_section_title
;
Structure prediction by ZEFSAII (Michael W. Deem and Ramdas Pophale) SiO2 
 PCOD9197697
Probable space group: C 2/M
;
_chemical_formula_sum "Si O2"
_cell_formula_units_Z 56
_cell_length_a 14.717685
_cell_length_b 13.889846
_cell_length_c 24.581206
_cell_angle_alpha 90.000000
_cell_angle_beta 28.133478
_cell_angle_gamma 90.000000
_cell_volume 2369.446445
_symmetry_space_group_name_H-M "C 2/M"
_symmetry_group_IT_number 12
_symmetry_cell_setting 'monoclinic'
loop_
_space_group_symop_operation_xyz
x,y,z
-x,y,-z
-x,-y,-z
x,-y,z
1/2+x,1/2+y,z
1/2-x,1/2+y,-z
1/2-x,1/2-y,-z
1/2+x,1/2-y,z
loop_
_atom_site_type_symbol
_atom_site_label
_atom_site_fract_x
_atom_site_fract_y
_atom_site_fract_z
Si Si1 0.126540 0.156640 0.606601
Si Si2 0.206755 0.605741 0.855270
Si Si3 0.196499 0.108875 0.071946
Si Si4 0.198256 0.828234 0.868362
Si Si5 0.035669 0.614862 0.172162
Si Si6 0.475023 0.846841 0.629489
Si Si7 0.308700 0.717722 0.305926
O O1 0.316084 0.104433 0.484008
O O2 0.191955 0.203378 0.629408
O O3 0.934285 0.099997 0.722314
O O4 0.046257 0.240673 0.610374
O O5 0.132805 0.500000 0.874054
O O6 0.194052 0.609283 0.927903
O O7 0.158192 0.718485 0.868032
O O8 0.006229 0.171954 0.177944
O O9 0.131020 0.000000 0.096260
O O10 0.340228 0.134400 0.947557
O O11 0.348905 0.837339 0.838449
O O12 0.312676 0.878787 0.758636
O O13 0.000000 0.865490 0.000000
O O14 0.020474 0.500000 0.187225
O O15 0.832106 0.669961 0.277983
O O16 0.366282 0.835698 0.630264
#
# Coordination Sequence:
#
# PCOD9197697 Si02
#       7
#     8   8   8   8   8   8   8
#     4   9  19  38  58  85 116 155 196 245 303 345
#     4   9  18  35  58  86 119 153 194 248 303 353
#     4   9  18  32  55  83 114 150 192 240 295 356
#     4  11  22  37  57  88 122 163 198 244 300 358
#     4  11  22  37  56  84 122 163 202 244 294 356
#     4  10  20  35  62  86 114 158 203 239 295 361
#     4  11  19  36  62  83 114 157 196 250 299 351
#
# _framework density 23.634211000000001
#
# number of rings (size 3 to 8) (size 9 to 14) (size 15 to 20)
#    0.000    2.000    4.286    1.714    2.000    0.571 
#    0.000    5.000    0.000    5.143    0.000    0.000 
#    0.000    0.000    0.000    0.000    0.000    0.000 
#
# Total GULP energy -156206.276949 kJ/mol
# GULP energy per Si atom -5578.795605 kJ/mol
# Density = 2.358042 g / cm^3
# Si number density = 23.634211 Si / 1000 Ang^3
#
#
#
# Elastic Constant Matrix: (Units=GPa)
#
#
# Indices 1 2 3 4 5 6 
#
# 1 53.6472 -7.2075 -16.7266 -0.0010 10.4212 0.0001
# 2 -7.2075 93.0948 18.8392 -0.0042 7.3873 -0.0001
# 3 -16.7266 18.8392 122.0145 -0.0101 4.5971 0.0008
# 4 -0.0010 -0.0042 -0.0101 -13.9108 -0.0002 -11.7590
# 5 10.4212 7.3873 4.5971 -0.0002 27.1965 -0.0002
# 6 0.0001 -0.0001 0.0008 -11.7590 -0.0002 5.2908
#
#
#
# Elastic Compliance Matrix: (Units=1/GPa)
#
#
# Indices 1 2 3 4 5 6 
#
# 1 0.021634 0.001797 0.003038 -0.000001 -0.009292 -0.000004
# 2 0.001797 0.011444 -0.001386 -0.000001 -0.003563 -0.000002
# 3 0.003038 -0.001386 0.008913 -0.000002 -0.002294 -0.000005
# 4 -0.000001 -0.000001 -0.000002 -0.024972 0.000000 -0.055500
# 5 -0.009292 -0.003563 -0.002294 0.000000 0.041685 0.000003
# 6 -0.000004 -0.000002 -0.000005 -0.055500 0.000003 0.065656
#
#
# Mechanical properties :
#
#
# Convention : Reuss Voigt Hill
#
# Bulk Modulus (GPa) = 20.45424 28.72963 24.59194
# Shear Modulus (GPa) = 37.38078 21.97206 29.67642
#
# Velocity S-wave (km/s) = 3.98130 3.05236 3.54737
# Velocity P-wave (km/s) = 5.45963 4.96033 5.21596
#
# Compressibility (1/GPa) = 0.04888962
#
# Stress axis : x y z
#
# Youngs Moduli (GPa) = 46.22345 87.38076 112.19873
#
# Poissons Ratio (x) = -0.15706 -0.34089
# Poissons Ratio (y) = -0.08308 0.15555
# Poissons Ratio (z) = -0.14044 0.12114
#
# Static dielectric constant tensor:
#      x y z
#    x 1.892640 0.000000 -0.028800 
#    y 0.000000 2.180000 0.000010 
#    z -0.028800 0.000010 1.993980 
# 
# From -- ./inp_files/240900.got.cif
#   From: 2010.05.17/outbox.cif.g08.bks.cpg/sg12_121_cif.got.tgz:240900.got - 2010.06.03 13:09:07.
