data_PCOD9197562
_publ_section_title
;
Structure prediction by ZEFSAII (Michael W. Deem and Ramdas Pophale) SiO2 
 PCOD9197562
Probable space group: C 2/M
;
_chemical_formula_sum "Si O2"
_cell_formula_units_Z 40
_cell_length_a 20.909196
_cell_length_b 14.464713
_cell_length_c 17.674986
_cell_angle_alpha 90.000000
_cell_angle_beta 160.635718
_cell_angle_gamma 90.000000
_cell_volume 1772.496873
_symmetry_space_group_name_H-M "C 2/M"
_symmetry_group_IT_number 12
_symmetry_cell_setting 'monoclinic'
loop_
_space_group_symop_operation_xyz
x,y,z
-x,y,-z
-x,-y,-z
x,-y,z
1/2+x,1/2+y,z
1/2-x,1/2+y,-z
1/2-x,1/2-y,-z
1/2+x,1/2-y,z
loop_
_atom_site_type_symbol
_atom_site_label
_atom_site_fract_x
_atom_site_fract_y
_atom_site_fract_z
Si Si1 0.861959 0.393266 0.073244
Si Si2 0.022512 0.887278 0.435994
Si Si3 0.475128 0.891181 0.361865
Si Si4 0.562094 0.154188 0.147291
Si Si5 0.669651 0.344128 0.140900
O O1 0.820051 0.500000 0.045267
O O2 0.945222 0.354521 0.243778
O O3 0.007176 0.390087 0.165087
O O4 0.664320 0.354792 0.818453
O O5 0.210255 0.844444 0.607868
O O6 0.000000 0.863855 0.500000
O O7 0.035193 0.000000 0.447091
O O8 0.273222 0.884470 0.182299
O O9 0.646271 0.839713 0.597407
O O10 0.531375 0.000000 0.424291
O O11 0.500000 0.103627 0.000000
O O12 0.439890 0.249721 0.006096
O O13 0.500000 0.393302 0.000000
#
# Coordination Sequence:
#
# PCOD9197562 Si02
#       5
#     8   8   8   8   8
#     4  10  22  40  66  98 130 167 214 271 318 371
#     4  10  20  35  60  90 127 174 217 256 307 371
#     4  10  23  45  70  96 124 161 221 278 323 378
#     4  11  22  37  61  93 132 171 210 254 314 393
#     4  10  23  41  64  94 126 171 213 260 329 388
#
# _framework density 22.567036000000002
#
# number of rings (size 3 to 8) (size 9 to 14) (size 15 to 20)
#    0.000    1.800    2.000    1.800    0.000   11.200 
#    0.000    9.000    0.000    0.000    0.000    0.000 
#    0.000    0.000    0.000    0.000    0.000    0.000 
#
# Total GULP energy -111611.213105 kJ/mol
# GULP energy per Si atom -5580.560655 kJ/mol
# Density = 2.251567 g / cm^3
# Si number density = 22.567036 Si / 1000 Ang^3
#
#
#
# Elastic Constant Matrix: (Units=GPa)
#
#
# Indices 1 2 3 4 5 6 
#
# 1 164.4396 7.8102 81.4994 -0.0017 -4.7261 -0.0022
# 2 7.8102 82.5257 22.2703 -0.0026 0.0985 -0.0024
# 3 81.4994 22.2703 136.3205 -0.0092 19.3989 -0.0035
# 4 -0.0017 -0.0026 -0.0092 13.9598 0.0010 3.6192
# 5 -4.7261 0.0985 19.3989 0.0010 49.9786 -0.0008
# 6 -0.0022 -0.0024 -0.0035 3.6192 -0.0008 32.4694
#
#
#
# Elastic Compliance Matrix: (Units=1/GPa)
#
#
# Indices 1 2 3 4 5 6 
#
# 1 0.009130 0.000762 -0.006039 -0.000003 0.003206 0.000000
# 2 0.000762 0.012772 -0.002698 0.000000 0.001094 0.000001
# 3 -0.006039 -0.002698 0.012138 0.000007 -0.005277 0.000000
# 4 -0.000003 0.000000 0.000007 0.073766 -0.000005 -0.008222
# 5 0.003206 0.001094 -0.005277 -0.000005 0.022358 0.000001
# 6 0.000000 0.000001 0.000000 -0.008222 0.000001 0.031715
#
#
# Mechanical properties :
#
#
# Convention : Reuss Voigt Hill
#
# Bulk Modulus (GPa) = 55.27897 67.38284 61.33090
# Shear Modulus (GPa) = 27.19470 37.39529 32.29500
#
# Velocity S-wave (km/s) = 3.47517 4.07514 3.78705
# Velocity P-wave (km/s) = 6.37581 7.21568 6.80871
#
# Compressibility (1/GPa) = 0.01809006
#
# Stress axis : x y z
#
# Youngs Moduli (GPa) = 109.52386 78.29611 82.38633
#
# Poissons Ratio (x) = -0.05965 0.49756
# Poissons Ratio (y) = -0.08344 0.22225
# Poissons Ratio (z) = 0.66145 0.21122
#
# Static dielectric constant tensor:
#      x y z
#    x 1.848790 0.000000 -0.017400 
#    y 0.000000 1.927100 0.000000 
#    z -0.017400 0.000000 1.852160 
# 
# From -- ./inp_files/284643.got.cif
#   From: 2010.05.17/outbox.cif.g08.bks.cpg/sg12_143_cif.got.tgz:284643.got - 2010.06.03 13:09:07.
