data_PCOD9197570
_publ_section_title
;
Structure prediction by ZEFSAII (Michael W. Deem and Ramdas Pophale) SiO2 
 PCOD9197570
Probable space group: C 2/M
;
_chemical_formula_sum "Si O2"
_cell_formula_units_Z 56
_cell_length_a 18.284374
_cell_length_b 11.391443
_cell_length_c 14.778232
_cell_angle_alpha 90.000000
_cell_angle_beta 61.868731
_cell_angle_gamma 90.000000
_cell_volume 2714.474270
_symmetry_space_group_name_H-M "C 2/M"
_symmetry_group_IT_number 12
_symmetry_cell_setting 'monoclinic'
loop_
_space_group_symop_operation_xyz
x,y,z
-x,y,-z
-x,-y,-z
x,-y,z
1/2+x,1/2+y,z
1/2-x,1/2+y,-z
1/2-x,1/2-y,-z
1/2+x,1/2-y,z
loop_
_atom_site_type_symbol
_atom_site_label
_atom_site_fract_x
_atom_site_fract_y
_atom_site_fract_z
Si Si1 0.129828 0.244304 0.258111
Si Si2 0.865801 0.133889 0.547085
Si Si3 0.385809 0.362062 0.239502
Si Si4 0.679961 0.868864 0.618264
Si Si5 0.969572 0.672247 0.419638
Si Si6 0.703956 0.633996 0.901045
Si Si7 0.075424 0.866432 0.118005
O O1 0.144751 0.202459 0.351979
O O2 0.210799 0.302026 0.169510
O O3 0.105576 0.142329 0.203146
O O4 0.049879 0.330538 0.309616
O O5 0.778709 0.141023 0.543945
O O6 0.942030 0.192322 0.450298
O O7 0.883250 0.000000 0.556351
O O8 0.381695 0.500000 0.278605
O O9 0.344455 0.251994 0.316221
O O10 0.344913 0.368088 0.164967
O O11 0.481364 0.324123 0.171960
O O12 0.615414 0.876044 0.572353
O O13 0.671695 0.000000 0.669139
O O14 0.000000 0.628777 0.500000
O O15 0.723608 0.500000 0.916839
O O16 0.643544 0.689635 0.011898
O O17 0.068808 0.000000 0.089691
#
# Coordination Sequence:
#
# PCOD9197570 Si02
#       7
#     8   8   8   8   8   8   8
#     4  11  20  36  59  86 125 157 197 248 304 360
#     4  10  22  39  62  88 119 158 203 251 302 355
#     4  10  20  39  65  89 118 162 211 254 298 353
#     4  11  22  41  64  89 124 158 198 253 307 364
#     4  10  23  39  60  87 118 158 200 244 301 365
#     4  10  21  37  59  88 122 160 206 253 299 355
#     4  10  20  35  60  91 119 157 208 258 298 345
#
# _framework density 20.630144999999999
#
# number of rings (size 3 to 8) (size 9 to 14) (size 15 to 20)
#    0.000    1.714    2.857    1.714    0.000    6.286 
#    0.000    2.857    0.000    2.571    0.000    0.000 
#    0.000    0.000    0.000    0.000    0.000    0.000 
#
# Total GULP energy -156005.402850 kJ/mol
# GULP energy per Si atom -5571.621530 kJ/mol
# Density = 2.058319 g / cm^3
# Si number density = 20.630145 Si / 1000 Ang^3
#
#
#
# Elastic Constant Matrix: (Units=GPa)
#
#
# Indices 1 2 3 4 5 6 
#
# 1 115.2185 10.4822 19.0844 0.0000 -10.2957 0.0000
# 2 10.4822 75.4177 21.2808 0.0000 -5.9746 0.0000
# 3 19.0844 21.2808 66.4807 0.0000 -15.1324 0.0000
# 4 0.0000 0.0000 0.0000 23.5678 0.0000 0.9520
# 5 -10.2957 -5.9746 -15.1324 0.0000 32.9950 0.0000
# 6 0.0000 0.0000 0.0000 0.9520 0.0000 -0.2774
#
#
#
# Elastic Compliance Matrix: (Units=1/GPa)
#
#
# Indices 1 2 3 4 5 6 
#
# 1 0.009234 -0.000558 -0.002054 0.000000 0.001839 0.000000
# 2 -0.000558 0.014619 -0.004418 0.000000 0.000447 0.000000
# 3 -0.002054 -0.004418 0.018666 0.000000 0.007120 0.000000
# 4 0.000000 0.000000 0.000000 0.037265 0.000000 0.127886
# 5 0.001839 0.000447 0.007120 0.000000 0.034228 0.000000
# 6 0.000000 0.000000 0.000000 0.127886 0.000000 -3.166010
#
#
# Mechanical properties :
#
#
# Convention : Reuss Voigt Hill
#
# Bulk Modulus (GPa) = 35.13647 39.86797 37.50222
# Shear Modulus (GPa) = -1.65101 25.00837 11.67868
#
# Velocity S-wave (km/s) = -0.89556 3.48548 2.38186
# Velocity P-wave (km/s) = 3.99990 5.96365 5.07762
#
# Compressibility (1/GPa) = 0.02846045
#
# Stress axis : x y z
#
# Youngs Moduli (GPa) = 108.29067 68.40394 53.57241
#
# Poissons Ratio (x) = 0.03819 0.11002
# Poissons Ratio (y) = 0.06046 0.23666
# Poissons Ratio (z) = 0.22239 0.30218
#
# Static dielectric constant tensor:
#      x y z
#    x 1.753810 0.000000 0.001070 
#    y 0.000000 1.779780 0.000000 
#    z 0.001070 0.000000 1.756700 
# 
# From -- ./inp_files/223708.got.cif
#   From: 2010.05.17/outbox.cif.g08.bks.cpg/sg12_112_cif.got.tgz:223708.got - 2010.06.03 13:09:07.
