data_PCOD9197455
_publ_section_title
;
Structure prediction by ZEFSAII (Michael W. Deem and Ramdas Pophale) SiO2 
 PCOD9197455
Probable space group: C 2/M
;
_chemical_formula_sum "Si O2"
_cell_formula_units_Z 58
_cell_length_a 9.165484
_cell_length_b 18.757428
_cell_length_c 17.471003
_cell_angle_alpha 90.000000
_cell_angle_beta 73.746163
_cell_angle_gamma 90.000000
_cell_volume 2883.578892
_symmetry_space_group_name_H-M "C 2/M"
_symmetry_group_IT_number 12
_symmetry_cell_setting 'monoclinic'
loop_
_space_group_symop_operation_xyz
x,y,z
-x,y,-z
-x,-y,-z
x,-y,z
1/2+x,1/2+y,z
1/2-x,1/2+y,-z
1/2-x,1/2-y,-z
1/2+x,1/2-y,z
loop_
_atom_site_type_symbol
_atom_site_label
_atom_site_fract_x
_atom_site_fract_y
_atom_site_fract_z
Si Si1 0.922879 0.214939 0.358539
Si Si2 0.010444 0.921822 0.264381
Si Si3 0.500000 0.000000 0.000000
Si Si4 0.678750 0.916398 0.248341
Si Si5 0.296146 0.894909 0.120564
Si Si6 0.985333 0.706269 0.194986
Si Si7 0.877403 0.803321 0.952368
Si Si8 0.406129 0.159216 0.583959
O O1 0.015211 0.143785 0.322273
O O2 0.908106 0.259164 0.280971
O O3 0.762189 0.186455 0.411672
O O4 0.005016 0.269977 0.401707
O O5 0.862141 0.909253 0.231383
O O6 0.167509 0.924865 0.195452
O O7 0.983632 0.000000 0.304066
O O8 0.563733 0.060190 0.930167
O O9 0.602887 0.856509 0.204282
O O10 0.613750 0.894444 0.341614
O O11 0.645861 0.000000 0.234412
O O12 0.364884 0.828064 0.155281
O O13 0.203635 0.876091 0.057603
O O14 0.060640 0.769333 0.135254
O O15 0.750000 0.750000 0.000000
O O16 0.000000 0.811019 0.000000
O O17 0.500000 0.127567 0.500000
#
# Coordination Sequence:
#
# PCOD9197455 Si02
#       8
#     8   8   2   8   8   8   8   8
#     4  10  20  36  61  89 120 155 206 251 301 364
#     4  10  20  38  61  85 114 158 207 255 301 368
#     4  12  28  48  54  92 124 164 202 252 344 374
#     4   9  22  39  61  93 122 160 209 253 307 370
#     4  12  24  42  62  82 121 161 200 255 313 379
#     4  11  23  39  64  88 119 158 207 263 307 365
#     4  12  25  41  60  91 120 156 205 264 319 369
#     4  10  20  35  59  92 128 162 197 248 307 366
#
# _framework density 20.113894999999999
#
# number of rings (size 3 to 8) (size 9 to 14) (size 15 to 20)
#    0.000    1.379    3.448    2.069    6.759    0.276 
#    0.000    0.345    0.000    0.414    0.000    0.000 
#    0.000    0.000    0.000    0.000    0.000    0.000 
#
# Total GULP energy -161556.096686 kJ/mol
# GULP energy per Si atom -5570.899886 kJ/mol
# Density = 2.006811 g / cm^3
# Si number density = 20.113895 Si / 1000 Ang^3
#
#
#
# Elastic Constant Matrix: (Units=GPa)
#
#
# Indices 1 2 3 4 5 6 
#
# 1 34.7336 -3.9873 11.2542 0.0000 -4.5561 0.0000
# 2 -3.9873 66.7709 -5.2902 0.0000 4.4834 0.0000
# 3 11.2542 -5.2902 66.8777 0.0000 -19.5541 0.0000
# 4 0.0000 0.0000 0.0000 -57.1943 0.0000 53.7629
# 5 -4.5561 4.4834 -19.5541 0.0000 31.1195 0.0000
# 6 0.0000 0.0000 0.0000 53.7629 0.0000 -34.9942
#
#
#
# Elastic Compliance Matrix: (Units=1/GPa)
#
#
# Indices 1 2 3 4 5 6 
#
# 1 0.030633 0.001369 -0.004647 0.000000 0.001368 0.000000
# 2 0.001369 0.015210 0.000479 0.000000 -0.001690 0.000000
# 3 -0.004647 0.000479 0.019054 0.000000 0.011223 0.000000
# 4 0.000000 0.000000 0.000000 0.039365 0.000000 0.060477
# 5 0.001368 -0.001690 0.011223 0.000000 0.039630 0.000000
# 6 0.000000 0.000000 0.000000 0.060477 0.000000 0.064337
#
#
# Mechanical properties :
#
#
# Convention : Reuss Voigt Hill
#
# Bulk Modulus (GPa) = 16.86372 19.14839 18.00606
# Shear Modulus (GPa) = 21.40477 -1.12010 10.14233
#
# Velocity S-wave (km/s) = 3.26571 -0.74705 2.24798
# Velocity P-wave (km/s) = 4.75628 2.96589 3.96350
#
# Compressibility (1/GPa) = 0.05929889
#
# Stress axis : x y z
#
# Youngs Moduli (GPa) = 32.64484 65.74733 52.48238
#
# Poissons Ratio (x) = -0.09003 0.24387
# Poissons Ratio (y) = -0.04470 -0.02512
# Poissons Ratio (z) = 0.15169 -0.03146
#
# Static dielectric constant tensor:
#      x y z
#    x 1.741370 0.000000 -0.006760 
#    y 0.000000 1.719600 0.000000 
#    z -0.006760 0.000000 1.697050 
# 
# From -- ./inp_files/258037.got.cif
#   From: 2010.05.17/outbox.cif.g08.bks.cpg/sg12_130_cif.got.tgz:258037.got - 2010.06.03 13:09:07.
