data_PCOD9197366
_publ_section_title
;
Structure prediction by ZEFSAII (Michael W. Deem and Ramdas Pophale) SiO2 
 PCOD9197366
Probable space group: C 2/M
;
_chemical_formula_sum "Si O2"
_cell_formula_units_Z 44
_cell_length_a 27.950064
_cell_length_b 7.480075
_cell_length_c 8.576608
_cell_angle_alpha 90.000000
_cell_angle_beta 78.461658
_cell_angle_gamma 90.000000
_cell_volume 1756.862595
_symmetry_space_group_name_H-M "C 2/M"
_symmetry_group_IT_number 12
_symmetry_cell_setting 'monoclinic'
loop_
_space_group_symop_operation_xyz
x,y,z
-x,y,-z
-x,-y,-z
x,-y,z
1/2+x,1/2+y,z
1/2-x,1/2+y,-z
1/2-x,1/2-y,-z
1/2+x,1/2-y,z
loop_
_atom_site_type_symbol
_atom_site_label
_atom_site_fract_x
_atom_site_fract_y
_atom_site_fract_z
Si Si1 0.428797 0.703925 0.189733
Si Si2 0.518207 0.281795 0.320473
Si Si3 0.842663 0.696641 0.450913
Si Si4 0.787125 0.297114 0.792004
Si Si5 0.283003 0.000000 0.226020
Si Si6 0.382986 0.716378 0.902305
O O1 0.439496 0.500000 0.135799
O O2 0.479680 0.782036 0.215350
O O3 0.390390 0.705166 0.357059
O O4 0.401240 0.783534 0.059034
O O5 0.500000 0.220765 0.500000
O O6 0.515671 0.500000 0.321283
O O7 0.573374 0.236238 0.243730
O O8 0.859556 0.500000 0.496264
O O9 0.811594 0.775302 0.612305
O O10 0.807889 0.653954 0.326635
O O11 0.770132 0.500000 0.775685
O O12 0.745639 0.156075 0.852769
O O13 0.832475 0.296227 0.880334
O O14 0.377300 0.500000 0.908732
#
# Coordination Sequence:
#
# PCOD9197366 Si02
#       6
#     8   8   8   8   4   8
#     4  10  20  35  59  88 124 168 207 248 309 372
#     4   9  17  31  57  92 123 161 209 253 305 365
#     4   9  22  37  59  87 118 154 205 256 311 362
#     4  11  22  38  65  92 122 160 209 258 317 366
#     4  10  22  42  64  90 124 158 208 268 314 362
#     4  10  20  36  58  87 129 168 204 252 306 373
#
# _framework density 25.044647000000001
#
# number of rings (size 3 to 8) (size 9 to 14) (size 15 to 20)
#    0.545    1.636    0.909    2.182    1.273    5.091 
#    0.000    1.818    0.000    5.455    0.000    0.000 
#    0.000    0.000    0.000    0.000    0.000    0.000 
#
# Total GULP energy -122590.995094 kJ/mol
# GULP energy per Si atom -5572.317959 kJ/mol
# Density = 2.498764 g / cm^3
# Si number density = 25.044647 Si / 1000 Ang^3
#
#
#
# Elastic Constant Matrix: (Units=GPa)
#
#
# Indices 1 2 3 4 5 6 
#
# 1 139.0155 27.9456 53.0162 0.0000 8.6151 0.0000
# 2 27.9456 103.3484 7.6504 0.0000 -0.1566 0.0000
# 3 53.0162 7.6504 85.2956 0.0000 -10.6747 0.0000
# 4 0.0000 0.0000 0.0000 -1.1732 0.0000 16.9007
# 5 8.6151 -0.1566 -10.6747 0.0000 48.2915 0.0000
# 6 0.0000 0.0000 0.0000 16.9007 0.0000 2.7608
#
#
#
# Elastic Compliance Matrix: (Units=1/GPa)
#
#
# Indices 1 2 3 4 5 6 
#
# 1 0.010418 -0.002327 -0.006685 0.000000 -0.003344 0.000000
# 2 -0.002327 0.010262 0.000599 0.000000 0.000581 0.000000
# 3 -0.006685 0.000599 0.016429 0.000000 0.004826 0.000000
# 4 0.000000 0.000000 0.000000 -0.009557 0.000000 0.058506
# 5 -0.003344 0.000581 0.004826 0.000000 0.022373 0.000000
# 6 0.000000 0.000000 0.000000 0.058506 0.000000 0.004061
#
#
# Mechanical properties :
#
#
# Convention : Reuss Voigt Hill
#
# Bulk Modulus (GPa) = 49.30455 56.09822 52.70138
# Shear Modulus (GPa) = 64.45446 25.91231 45.18339
#
# Velocity S-wave (km/s) = 5.07855 3.22008 4.25209
# Velocity P-wave (km/s) = 7.35652 6.02272 6.72278
#
# Compressibility (1/GPa) = 0.02028211
#
# Stress axis : x y z
#
# Youngs Moduli (GPa) = 95.98771 97.44824 60.86641
#
# Poissons Ratio (x) = 0.22679 0.40690
# Poissons Ratio (y) = 0.22339 -0.03645
# Poissons Ratio (z) = 0.64169 -0.05835
#
# Static dielectric constant tensor:
#      x y z
#    x 1.947110 0.000000 -0.033300 
#    y 0.000000 1.962030 0.000000 
#    z -0.033300 0.000000 2.036660 
# 
# From -- ./inp_files/108097.got.cif
#   From: 2010.05.17/outbox.cif.g08.bks.cpg/sg12_55_cif.got.tgz:108097.got - 2010.06.03 13:09:07.
