data_PCOD9197419
_publ_section_title
;
Structure prediction by ZEFSAII (Michael W. Deem and Ramdas Pophale) SiO2 
 PCOD9197419
Probable space group: C 2/M
;
_chemical_formula_sum "Si O2"
_cell_formula_units_Z 48
_cell_length_a 18.254714
_cell_length_b 14.419784
_cell_length_c 19.358003
_cell_angle_alpha 90.000000
_cell_angle_beta 152.510546
_cell_angle_gamma 90.000000
_cell_volume 2352.048908
_symmetry_space_group_name_H-M "C 2/M"
_symmetry_group_IT_number 12
_symmetry_cell_setting 'monoclinic'
loop_
_space_group_symop_operation_xyz
x,y,z
-x,y,-z
-x,-y,-z
x,-y,z
1/2+x,1/2+y,z
1/2-x,1/2+y,-z
1/2-x,1/2-y,-z
1/2+x,1/2-y,z
loop_
_atom_site_type_symbol
_atom_site_label
_atom_site_fract_x
_atom_site_fract_y
_atom_site_fract_z
Si Si1 0.928306 0.606251 0.623935
Si Si2 0.504037 0.271362 0.086592
Si Si3 0.518721 0.392782 0.590318
Si Si4 0.572598 0.390202 0.269579
Si Si5 0.353036 0.274965 0.190977
Si Si6 0.657405 0.895552 0.292471
O O1 0.967131 0.500000 0.636700
O O2 0.750218 0.625740 0.447959
O O3 0.936048 0.611915 0.713931
O O4 0.047931 0.685552 0.701174
O O5 0.567461 0.357100 0.185704
O O6 0.607144 0.182193 0.196515
O O7 0.500000 0.283508 0.000000
O O8 0.327807 0.252872 0.969502
O O9 0.500000 0.348339 0.500000
O O10 0.561215 0.500000 0.617620
O O11 0.643460 0.346084 0.743022
O O12 0.340379 0.387053 0.469810
O O13 0.537157 0.500000 0.247597
O O14 0.448435 0.327919 0.209846
O O15 0.638636 0.000000 0.248673
#
# Coordination Sequence:
#
# PCOD9197419 Si02
#       6
#     8   8   8   8   8   8
#     4  10  21  39  67  95 117 148 204 267 313 353
#     4  12  27  42  58  90 132 173 205 246 311 372
#     4  10  20  35  59  90 122 159 202 252 310 367
#     4  11  23  42  67  93 122 162 211 260 304 363
#     4  12  22  39  64  94 123 161 209 254 307 367
#     4  10  20  38  61  88 123 158 197 254 311 363
#
# _framework density 20.40774
#
# number of rings (size 3 to 8) (size 9 to 14) (size 15 to 20)
#    0.000    1.167    3.333    3.500    0.000    2.667 
#    0.000    0.000    0.000    2.500    0.000    0.000 
#    0.000    0.000    0.000    0.000    0.000    0.000 
#
# Total GULP energy -133969.231898 kJ/mol
# GULP energy per Si atom -5582.051329 kJ/mol
# Density = 2.036129 g / cm^3
# Si number density = 20.407740 Si / 1000 Ang^3
#
#
#
# Elastic Constant Matrix: (Units=GPa)
#
#
# Indices 1 2 3 4 5 6 
#
# 1 32.2075 27.8300 31.0501 -0.0009 -11.1614 -0.0004
# 2 27.8300 89.7680 45.4224 0.0004 -2.0708 0.0004
# 3 31.0501 45.4224 83.9373 -0.0007 -16.7269 -0.0001
# 4 -0.0009 0.0004 -0.0007 -11.2466 -0.0003 -29.2248
# 5 -11.1614 -2.0708 -16.7269 -0.0003 36.1280 0.0000
# 6 -0.0004 0.0004 -0.0001 -29.2248 0.0000 1.0920
#
#
#
# Elastic Compliance Matrix: (Units=1/GPa)
#
#
# Indices 1 2 3 4 5 6 
#
# 1 0.056580 -0.010735 -0.012956 -0.000001 0.010866 -0.000001
# 2 -0.010735 0.017735 -0.006703 0.000000 -0.005403 0.000001
# 3 -0.012956 -0.006703 0.021437 0.000000 0.005538 0.000000
# 4 -0.000001 0.000000 0.000000 -0.001260 0.000000 -0.033732
# 5 0.010866 -0.005403 0.005538 0.000000 0.033291 -0.000001
# 6 -0.000001 0.000001 0.000000 -0.033732 -0.000001 0.012981
#
#
# Mechanical properties :
#
#
# Convention : Reuss Voigt Hill
#
# Bulk Modulus (GPa) = 28.59962 46.05752 37.32857
# Shear Modulus (GPa) = 23.45151 11.96869 17.71010
#
# Velocity S-wave (km/s) = 3.39359 2.42436 2.94906
# Velocity P-wave (km/s) = 5.42215 5.51854 5.47056
#
# Compressibility (1/GPa) = 0.03496550
#
# Stress axis : x y z
#
# Youngs Moduli (GPa) = 17.67402 56.38612 46.64806
#
# Poissons Ratio (x) = 0.60530 0.60435
# Poissons Ratio (y) = 0.18973 0.31268
# Poissons Ratio (z) = 0.22898 0.37795
#
# Static dielectric constant tensor:
#      x y z
#    x 1.769570 0.000000 0.015050 
#    y 0.000000 1.726480 0.000000 
#    z 0.015050 0.000000 1.712720 
# 
# From -- ./inp_files/104929.got.cif
#   From: 2010.05.17/outbox.cif.g08.bks.cpg/sg12_53_cif.got.tgz:104929.got - 2010.06.03 13:09:07.
