data_PCOD9197960
_publ_section_title
;
Structure prediction by ZEFSAII (Michael W. Deem and Ramdas Pophale) SiO2 
 PCOD9197960
Probable space group: C 2/M
;
_chemical_formula_sum "Si O2"
_cell_formula_units_Z 44
_cell_length_a 11.733679
_cell_length_b 25.195023
_cell_length_c 13.380414
_cell_angle_alpha 90.000000
_cell_angle_beta 33.079541
_cell_angle_gamma 90.000000
_cell_volume 2159.008089
_symmetry_space_group_name_H-M "C 2/M"
_symmetry_group_IT_number 12
_symmetry_cell_setting 'monoclinic'
loop_
_space_group_symop_operation_xyz
x,y,z
-x,y,-z
-x,-y,-z
x,-y,z
1/2+x,1/2+y,z
1/2-x,1/2+y,-z
1/2-x,1/2-y,-z
1/2+x,1/2-y,z
loop_
_atom_site_type_symbol
_atom_site_label
_atom_site_fract_x
_atom_site_fract_y
_atom_site_fract_z
Si Si1 0.632386 0.440207 0.499132
Si Si2 0.789617 0.164455 0.462964
Si Si3 0.500000 0.204164 0.500000
Si Si4 0.930134 0.558341 0.935276
Si Si5 0.310283 0.740216 0.811212
Si Si6 0.591178 0.170506 0.114365
O O1 0.500000 0.422913 0.500000
O O2 0.565612 0.500000 0.576743
O O3 0.620928 0.395001 0.590983
O O4 0.864491 0.444560 0.284716
O O5 0.633260 0.171908 0.484263
O O6 0.643660 0.170055 0.669390
O O7 0.971651 0.208405 0.326677
O O8 0.663454 0.240947 0.320631
O O9 0.828465 0.500000 0.004486
O O10 0.826801 0.611365 0.967727
O O11 0.000000 0.566453 0.000000
O O12 0.290666 0.794362 0.889684
O O13 0.133104 0.702276 0.982701
#
# Coordination Sequence:
#
# PCOD9197960 Si02
#       6
#     8   8   4   8   8   8
#     4   9  19  35  55  79 106 139 180 225 272 324
#     4  10  21  37  55  79 111 143 179 230 273 321
#     4  10  20  36  55  78 111 144 184 222 274 326
#     4   9  18  30  48  77 105 134 171 219 274 317
#     4  10  21  35  54  79 106 145 186 219 268 322
#     4   9  19  35  51  74 109 142 182 218 266 325
#
# _framework density 20.379729000000001
#
# number of rings (size 3 to 8) (size 9 to 14) (size 15 to 20)
#    0.000    2.545    0.000    2.182    3.818    2.909 
#    0.000   11.364    0.000    1.091    0.000    0.000 
#    0.000   23.273    0.000    0.000    0.000    0.000 
#
# Total GULP energy -122581.285442 kJ/mol
# GULP energy per Si atom -5571.876611 kJ/mol
# Density = 2.033334 g / cm^3
# Si number density = 20.379729 Si / 1000 Ang^3
#
#
#
# Elastic Constant Matrix: (Units=GPa)
#
#
# Indices 1 2 3 4 5 6 
#
# 1 81.4743 61.1843 25.8596 0.0001 12.6962 0.0001
# 2 61.1843 165.2365 36.0755 0.0000 24.8256 0.0000
# 3 25.8596 36.0755 114.9653 0.0000 14.5073 0.0000
# 4 0.0001 0.0000 0.0000 0.7865 0.0000 -8.4637
# 5 12.6962 24.8256 14.5073 0.0000 19.5282 0.0000
# 6 0.0001 0.0000 0.0000 -8.4637 0.0000 11.0999
#
#
#
# Elastic Compliance Matrix: (Units=1/GPa)
#
#
# Indices 1 2 3 4 5 6 
#
# 1 0.017555 -0.005677 -0.001807 0.000000 -0.002854 0.000000
# 2 -0.005677 0.009487 -0.000711 0.000000 -0.007842 0.000000
# 3 -0.001807 -0.000711 0.010003 0.000000 -0.005353 0.000000
# 4 0.000000 0.000000 0.000000 -0.176456 0.000000 -0.134549
# 5 -0.002854 -0.007842 -0.005353 0.000000 0.067010 0.000000
# 6 0.000000 0.000000 0.000000 -0.134549 0.000000 -0.012503
#
#
# Mechanical properties :
#
#
# Convention : Reuss Voigt Hill
#
# Bulk Modulus (GPa) = 48.41128 67.54608 57.97868
# Shear Modulus (GPa) = -81.13209 22.18668 -29.47270
#
# Velocity S-wave (km/s) = -6.31638 3.30307 -3.80699
# Velocity P-wave (km/s) = 5.42119 6.91106 3.03096
#
# Compressibility (1/GPa) = 0.02065634
#
# Stress axis : x y z
#
# Youngs Moduli (GPa) = 56.96227 105.40225 99.96759
#
# Poissons Ratio (x) = 0.59839 0.18067
# Poissons Ratio (y) = 0.32338 0.07103
# Poissons Ratio (z) = 0.10294 0.07489
#
# Static dielectric constant tensor:
#      x y z
#    x 1.721940 0.000000 -0.037520 
#    y 0.000000 1.796100 0.000000 
#    z -0.037520 0.000000 1.771890 
# 
# From -- ./inp_files/136870.got.cif
#   From: 2010.05.17/outbox.cif.g08.bks.cpg/sg12_69_cif.got.tgz:136870.got - 2010.06.03 13:09:07.
