data_PCOD9197336
_publ_section_title
;
Structure prediction by ZEFSAII (Michael W. Deem and Ramdas Pophale) SiO2 
 PCOD9197336
Probable space group: C 2/M
;
_chemical_formula_sum "Si O2"
_cell_formula_units_Z 56
_cell_length_a 19.807276
_cell_length_b 8.675232
_cell_length_c 18.951550
_cell_angle_alpha 90.000000
_cell_angle_beta 115.819690
_cell_angle_gamma 90.000000
_cell_volume 2931.397486
_symmetry_space_group_name_H-M "C 2/M"
_symmetry_group_IT_number 12
_symmetry_cell_setting 'monoclinic'
loop_
_space_group_symop_operation_xyz
x,y,z
-x,y,-z
-x,-y,-z
x,-y,z
1/2+x,1/2+y,z
1/2-x,1/2+y,-z
1/2-x,1/2-y,-z
1/2+x,1/2-y,z
loop_
_atom_site_type_symbol
_atom_site_label
_atom_site_fract_x
_atom_site_fract_y
_atom_site_fract_z
Si Si1 0.764471 0.315232 0.428406
Si Si2 0.332552 0.314849 0.022502
Si Si3 0.932896 0.685292 0.519935
Si Si4 0.640769 0.183357 0.265958
Si Si5 0.807102 0.185162 0.857779
Si Si6 0.981755 0.815555 0.690465
Si Si7 0.858629 0.813729 0.188008
O O1 0.754638 0.500000 0.424427
O O2 0.750000 0.250000 0.500000
O O3 0.851275 0.278803 0.451517
O O4 0.707893 0.242716 0.346860
O O5 0.330042 0.500000 0.019913
O O6 0.376308 0.272487 0.113795
O O7 0.250000 0.250000 0.000000
O O8 0.349200 0.266362 0.949836
O O9 0.937042 0.500000 0.529772
O O10 0.943523 0.758298 0.601421
O O11 0.000000 0.736819 0.500000
O O12 0.656238 0.243204 0.194544
O O13 0.564885 0.248626 0.265560
O O14 0.639352 0.000000 0.266568
O O15 0.720147 0.238784 0.825430
O O16 0.808499 0.000000 0.853025
O O17 0.069035 0.767809 0.733842
O O18 0.978821 0.000000 0.692368
O O19 0.849719 0.000000 0.188019
#
# Coordination Sequence:
#
# PCOD9197336 Si02
#       7
#     8   8   8   8   8   8   8
#     4  11  22  39  62  86 113 149 188 232 280 336
#     4   8  15  31  55  82 114 147 184 228 280 337
#     4  10  23  41  60  84 114 148 185 229 280 334
#     4  12  25  40  58  81 115 155 193 239 285 333
#     4  10  20  35  59  88 114 149 192 235 280 338
#     4  11  23  39  59  84 115 150 190 235 285 341
#     4   9  19  36  58  87 118 149 185 233 288 341
#
# _framework density 19.103515999999999
#
# number of rings (size 3 to 8) (size 9 to 14) (size 15 to 20)
#    0.000    1.857    1.429    2.571    2.000    2.571 
#    0.000    0.714    0.000    4.286    0.000    0.000 
#    0.000    0.000    0.000    0.000    0.000    0.000 
#
# Total GULP energy -156267.148930 kJ/mol
# GULP energy per Si atom -5580.969605 kJ/mol
# Density = 1.906004 g / cm^3
# Si number density = 19.103516 Si / 1000 Ang^3
#
#
#
# Elastic Constant Matrix: (Units=GPa)
#
#
# Indices 1 2 3 4 5 6 
#
# 1 70.5172 15.7409 -6.6584 0.0000 -16.3436 0.0000
# 2 15.7409 26.0544 -0.7524 0.0000 -1.5874 0.0000
# 3 -6.6584 -0.7524 32.2886 0.0000 -16.6447 0.0000
# 4 0.0000 0.0000 0.0000 26.3642 0.0000 -5.1781
# 5 -16.3436 -1.5874 -16.6447 0.0000 37.2958 0.0000
# 6 0.0000 0.0000 0.0000 -5.1781 0.0000 26.7942
#
#
#
# Elastic Compliance Matrix: (Units=1/GPa)
#
#
# Indices 1 2 3 4 5 6 
#
# 1 0.020959 -0.011511 0.011087 0.000000 0.013642 0.000000
# 2 -0.011511 0.044931 -0.003820 0.000000 -0.004837 0.000000
# 3 0.011087 -0.003820 0.046222 0.000000 0.025324 0.000000
# 4 0.000000 0.000000 0.000000 0.039427 0.000000 0.007619
# 5 0.013642 -0.004837 0.025324 0.000000 0.043887 0.000000
# 6 0.000000 0.000000 0.000000 0.007619 0.000000 0.038794
#
#
# Mechanical properties :
#
#
# Convention : Reuss Voigt Hill
#
# Bulk Modulus (GPa) = 9.65042 16.16893 12.90967
# Shear Modulus (GPa) = 18.03420 26.12618 22.08019
#
# Velocity S-wave (km/s) = 3.07583 3.70213 3.40342
# Velocity P-wave (km/s) = 4.20440 5.17268 4.71347
#
# Compressibility (1/GPa) = 0.10362244
#
# Stress axis : x y z
#
# Youngs Moduli (GPa) = 47.71180 22.25648 21.63450
#
# Poissons Ratio (x) = 0.25620 -0.23985
# Poissons Ratio (y) = 0.54922 0.08265
# Poissons Ratio (z) = -0.52896 0.08503
#
# Static dielectric constant tensor:
#      x y z
#    x 1.648520 0.000000 -0.007010 
#    y 0.000000 1.645840 0.000000 
#    z -0.007010 0.000000 1.675980 
# 
# From -- ./inp_files/275669.got.cif
#   From: 2010.05.17/outbox.cif.g08.bks.cpg/sg12_138_cif.got.tgz:275669.got - 2010.06.03 13:09:07.
