data_PCOD9197622
_publ_section_title
;
Structure prediction by ZEFSAII (Michael W. Deem and Ramdas Pophale) SiO2 
 PCOD9197622
Probable space group: C 2/M
;
_chemical_formula_sum "Si O2"
_cell_formula_units_Z 32
_cell_length_a 5.767687
_cell_length_b 25.146122
_cell_length_c 10.502480
_cell_angle_alpha 90.000000
_cell_angle_beta 73.907990
_cell_angle_gamma 90.000000
_cell_volume 1463.543426
_symmetry_space_group_name_H-M "C 2/M"
_symmetry_group_IT_number 12
_symmetry_cell_setting 'monoclinic'
loop_
_space_group_symop_operation_xyz
x,y,z
-x,y,-z
-x,-y,-z
x,-y,z
1/2+x,1/2+y,z
1/2-x,1/2+y,-z
1/2-x,1/2-y,-z
1/2+x,1/2-y,z
loop_
_atom_site_type_symbol
_atom_site_label
_atom_site_fract_x
_atom_site_fract_y
_atom_site_fract_z
Si Si1 0.111894 0.862619 0.761613
Si Si2 0.000000 0.780013 0.000000
Si Si3 0.961374 0.559041 0.344943
Si Si4 0.235432 0.441297 0.906530
Si Si5 0.500000 0.388416 0.500000
O O1 0.370501 0.889359 0.697548
O O2 0.079269 0.813290 0.861065
O O3 0.975950 0.908408 0.863024
O O4 0.999998 0.856789 0.635124
O O5 0.750000 0.750000 0.000000
O O6 0.069890 0.500000 0.353855
O O7 0.833158 0.552917 0.229317
O O8 0.739127 0.574790 0.469981
O O9 0.257938 0.500000 0.962414
O O10 0.000000 0.413055 0.000000
#
# Coordination Sequence:
#
# PCOD9197622 Si02
#       5
#     8   4   8   8   4
#     4  11  23  42  70  96 139 181 233 287 356 420
#     4  12  32  54  81 104 131 178 246 318 380 424
#     4  10  20  35  61 102 148 191 226 267 333 422
#     4   9  18  32  57  96 139 180 224 272 334 417
#     4  10  23  38  66 102 150 184 226 276 345 420
#
# _framework density 21.864742
#
# number of rings (size 3 to 8) (size 9 to 14) (size 15 to 20)
#    0.000    1.750    0.000    3.375    8.750    4.000 
#    0.000    6.250    0.000    0.000    0.000    0.000 
#    0.000    0.000    0.000    0.000    0.000    0.000 
#
# Total GULP energy -89092.456339 kJ/mol
# GULP energy per Si atom -5568.278521 kJ/mol
# Density = 2.181498 g / cm^3
# Si number density = 21.864742 Si / 1000 Ang^3
#
#
#
# Elastic Constant Matrix: (Units=GPa)
#
#
# Indices 1 2 3 4 5 6 
#
# 1 99.6310 58.8872 30.7360 0.0000 -19.0505 0.0000
# 2 58.8872 93.6616 49.4088 0.0000 1.9252 0.0000
# 3 30.7360 49.4088 139.2115 0.0000 6.1185 0.0000
# 4 0.0000 0.0000 0.0000 -8.5068 0.0000 -15.4463
# 5 -19.0505 1.9252 6.1185 0.0000 55.1634 0.0000
# 6 0.0000 0.0000 0.0000 -15.4463 0.0000 43.9983
#
#
#
# Elastic Compliance Matrix: (Units=1/GPa)
#
#
# Indices 1 2 3 4 5 6 
#
# 1 0.018136 -0.011409 -0.000249 0.000000 0.006689 0.000000
# 2 -0.011409 0.020313 -0.004508 0.000000 -0.004149 0.000000
# 3 -0.000249 -0.004508 0.008879 0.000000 -0.000913 0.000000
# 4 0.000000 0.000000 0.000000 -0.071790 0.000000 -0.025203
# 5 0.006689 -0.004149 -0.000913 0.000000 0.020684 0.000000
# 6 0.000000 0.000000 0.000000 -0.025203 0.000000 0.013880
#
#
# Mechanical properties :
#
#
# Convention : Reuss Voigt Hill
#
# Bulk Modulus (GPa) = 66.68575 67.84093 67.26334
# Shear Modulus (GPa) = 105.41296 31.02909 68.22103
#
# Velocity S-wave (km/s) = 6.95098 3.77123 5.59188
# Velocity P-wave (km/s) = 9.74612 7.07516 8.51600
#
# Compressibility (1/GPa) = 0.01499571
#
# Stress axis : x y z
#
# Youngs Moduli (GPa) = 55.13902 49.22928 112.63135
#
# Poissons Ratio (x) = 0.56164 0.02805
# Poissons Ratio (y) = 0.62906 0.50778
# Poissons Ratio (z) = 0.01373 0.22194
#
# Static dielectric constant tensor:
#      x y z
#    x 1.874540 0.000000 0.058300 
#    y 0.000000 1.821060 0.000000 
#    z 0.058300 0.000000 1.877220 
# 
# From -- ./inp_files/114951.got.cif
#   From: 2010.05.17/outbox.cif.g08.bks.cpg/sg12_58_cif.got.tgz:114951.got - 2010.06.03 13:09:07.
