data_PCOD9197979
_publ_section_title
;
Structure prediction by ZEFSAII (Michael W. Deem and Ramdas Pophale) SiO2 
 PCOD9197979
Probable space group: C 2/M
;
_chemical_formula_sum "Si O2"
_cell_formula_units_Z 40
_cell_length_a 16.278737
_cell_length_b 19.044294
_cell_length_c 13.828758
_cell_angle_alpha 90.000000
_cell_angle_beta 148.157121
_cell_angle_gamma 90.000000
_cell_volume 2261.865141
_symmetry_space_group_name_H-M "C 2/M"
_symmetry_group_IT_number 12
_symmetry_cell_setting 'monoclinic'
loop_
_space_group_symop_operation_xyz
x,y,z
-x,y,-z
-x,-y,-z
x,-y,z
1/2+x,1/2+y,z
1/2-x,1/2+y,-z
1/2-x,1/2-y,-z
1/2+x,1/2-y,z
loop_
_atom_site_type_symbol
_atom_site_label
_atom_site_fract_x
_atom_site_fract_y
_atom_site_fract_z
Si Si1 0.936107 0.213945 0.330454
Si Si2 0.562265 0.000000 0.453592
Si Si3 0.436107 0.213945 0.041759
Si Si4 0.562424 0.353342 0.266240
Si Si5 0.062424 0.353342 0.358608
Si Si6 0.062265 0.000000 0.170939
O O1 0.000000 0.196398 0.500000
O O2 0.000436 0.162715 0.311497
O O3 0.995898 0.291344 0.359494
O O4 0.750000 0.213460 0.143591
O O5 0.500000 0.000000 0.500000
O O6 0.514110 0.070891 0.350304
O O7 0.750000 0.000000 0.644763
O O8 0.495898 0.291344 0.132301
O O9 0.500436 0.162715 0.189376
O O10 0.500000 0.196398 0.000000
O O11 0.750000 0.348551 0.453747
O O12 0.514110 0.429109 0.177915
O O13 0.000000 0.000000 0.000000
#
# Coordination Sequence:
#
# PCOD9197979 Si02
#       6
#     8   4   8   8   8   4
#     4  11  21  35  55  80 106 140 179 219 263 312
#     4  10  22  36  55  80 109 140 173 212 262 314
#     4  11  21  35  55  80 106 140 179 219 263 312
#     4  10  20  36  55  80 109 139 175 219 262 312
#     4  10  20  36  55  80 109 139 175 219 262 312
#     4  10  22  36  55  80 109 140 173 212 262 314
#
# _framework density 17.684519999999999
#
# number of rings (size 3 to 8) (size 9 to 14) (size 15 to 20)
#    0.000    1.600    0.000    8.400    0.000    6.400 
#    0.000    1.000    0.000    0.000    0.000    0.000 
#    0.000    0.000    0.000    0.000    0.000    0.000 
#
# Total GULP energy -111758.607834 kJ/mol
# GULP energy per Si atom -5587.930392 kJ/mol
# Density = 1.764427 g / cm^3
# Si number density = 17.684520 Si / 1000 Ang^3
#
#
#
# Elastic Constant Matrix: (Units=GPa)
#
#
# Indices 1 2 3 4 5 6 
#
# 1 144.9109 83.1337 47.9892 0.0000 -12.7048 0.0000
# 2 83.1337 154.5318 50.2073 0.0000 -17.2701 0.0000
# 3 47.9892 50.2073 108.1491 0.0000 -6.5770 0.0000
# 4 0.0000 0.0000 0.0000 19.5826 0.0000 3.9558
# 5 -12.7048 -17.2701 -6.5770 0.0000 39.5637 0.0000
# 6 0.0000 0.0000 0.0000 3.9558 0.0000 12.0407
#
#
#
# Elastic Compliance Matrix: (Units=1/GPa)
#
#
# Indices 1 2 3 4 5 6 
#
# 1 0.010513 -0.004779 -0.002392 0.000000 0.000892 0.000000
# 2 -0.004779 0.010105 -0.002420 0.000000 0.002474 0.000000
# 3 -0.002392 -0.002420 0.011436 0.000000 0.000077 0.000000
# 4 0.000000 0.000000 0.000000 0.054696 0.000000 -0.017969
# 5 0.000892 0.002474 0.000077 0.000000 0.026655 0.000000
# 6 0.000000 0.000000 0.000000 -0.017969 0.000000 0.088955
#
#
# Mechanical properties :
#
#
# Convention : Reuss Voigt Hill
#
# Bulk Modulus (GPa) = 77.68938 85.58356 81.63647
# Shear Modulus (GPa) = 22.14038 29.32149 25.73093
#
# Velocity S-wave (km/s) = 3.54215 4.07631 3.81858
# Velocity P-wave (km/s) = 7.79456 8.40564 8.10586
#
# Compressibility (1/GPa) = 0.01287177
#
# Stress axis : x y z
#
# Youngs Moduli (GPa) = 95.12383 98.96394 87.44208
#
# Poissons Ratio (x) = 0.47291 0.20917
# Poissons Ratio (y) = 0.45456 0.21162
# Poissons Ratio (z) = 0.22755 0.23951
#
# Static dielectric constant tensor:
#      x y z
#    x 1.582880 0.000000 0.005110 
#    y 0.000000 1.590210 0.000000 
#    z 0.005110 0.000000 1.592620 
# 
# From -- ./inp_files/74990.got.cif
#   From: 2010.05.17/outbox.cif.g08.bks.cpg/sg12_38_cif.got.tgz:74990.got - 2010.06.03 13:09:07.
