data_PCOD9197530
_publ_section_title
;
Structure prediction by ZEFSAII (Michael W. Deem and Ramdas Pophale) SiO2 
 PCOD9197530
Probable space group: C 2/M
;
_chemical_formula_sum "Si O2"
_cell_formula_units_Z 44
_cell_length_a 19.229566
_cell_length_b 7.690033
_cell_length_c 13.342319
_cell_angle_alpha 90.000000
_cell_angle_beta 120.913442
_cell_angle_gamma 90.000000
_cell_volume 1692.731791
_symmetry_space_group_name_H-M "C 2/M"
_symmetry_group_IT_number 12
_symmetry_cell_setting 'monoclinic'
loop_
_space_group_symop_operation_xyz
x,y,z
-x,y,-z
-x,-y,-z
x,-y,z
1/2+x,1/2+y,z
1/2-x,1/2+y,-z
1/2-x,1/2-y,-z
1/2+x,1/2-y,z
loop_
_atom_site_type_symbol
_atom_site_label
_atom_site_fract_x
_atom_site_fract_y
_atom_site_fract_z
Si Si1 0.110370 0.000000 0.198425
Si Si2 0.647175 0.792310 0.856936
Si Si3 0.730842 0.195377 0.212891
Si Si4 0.673893 0.300660 0.512062
Si Si5 0.998727 0.300497 0.391032
Si Si6 0.487193 0.801787 0.109100
O O1 0.169747 0.847234 0.195706
O O2 0.047216 0.846765 0.189764
O O3 0.724657 0.709618 0.861667
O O4 0.569849 0.732237 0.732641
O O5 0.606631 0.757401 0.934754
O O6 0.660553 0.000000 0.860574
O O7 0.799069 0.213958 0.352112
O O8 0.695826 0.000000 0.197290
O O9 0.655797 0.500000 0.473808
O O10 0.750000 0.250000 0.500000
O O11 0.592127 0.199615 0.428103
O O12 0.972365 0.500000 0.385956
O O13 0.000000 0.210424 0.500000
O O14 0.501018 0.000000 0.158066
O O15 0.500000 0.802965 0.000000
#
# Coordination Sequence:
#
# PCOD9197530 Si02
#       6
#     4   8   8   8   8   8
#     4  12  25  44  74  99 136 180 223 274 352 409
#     4  10  21  41  68  98 132 182 226 279 347 409
#     4  11  25  42  64  99 140 180 227 279 338 406
#     4  11  25  38  56  87 132 176 224 276 329 389
#     4  10  20  35  60  88 122 166 219 262 316 388
#     4  10  24  47  76 104 135 170 228 288 342 415
#
# _framework density 25.993486999999998
#
# number of rings (size 3 to 8) (size 9 to 14) (size 15 to 20)
#    0.000    1.455    2.727    1.364    6.364    1.091 
#    0.000    0.909    0.000    0.000    0.000    0.000 
#    0.000    0.000    0.000    0.000    0.000    0.000 
#
# Total GULP energy -122596.443930 kJ/mol
# GULP energy per Si atom -5572.565633 kJ/mol
# Density = 2.593433 g / cm^3
# Si number density = 25.993487 Si / 1000 Ang^3
#
#
#
# Elastic Constant Matrix: (Units=GPa)
#
#
# Indices 1 2 3 4 5 6 
#
# 1 189.7944 49.5951 20.7068 0.0000 -0.7065 0.0000
# 2 49.5951 168.3427 13.9023 0.0000 8.4852 0.0000
# 3 20.7068 13.9023 55.5043 0.0000 -5.3416 0.0000
# 4 0.0000 0.0000 0.0000 6.8830 0.0000 -2.2513
# 5 -0.7065 8.4852 -5.3416 0.0000 34.9162 0.0000
# 6 0.0000 0.0000 0.0000 -2.2513 0.0000 45.1890
#
#
#
# Elastic Compliance Matrix: (Units=1/GPa)
#
#
# Indices 1 2 3 4 5 6 
#
# 1 0.005881 -0.001598 -0.001771 0.000000 0.000236 0.000000
# 2 -0.001598 0.006605 -0.001234 0.000000 -0.001826 0.000000
# 3 -0.001771 -0.001234 0.019296 0.000000 0.003216 0.000000
# 4 0.000000 0.000000 0.000000 0.147692 0.000000 0.007358
# 5 0.000236 -0.001826 0.003216 0.000000 0.029581 0.000000
# 6 0.000000 0.000000 0.000000 0.007358 0.000000 0.022496
#
#
# Mechanical properties :
#
#
# Convention : Reuss Voigt Hill
#
# Bulk Modulus (GPa) = 44.29546 64.67223 54.48384
# Shear Modulus (GPa) = 20.13847 39.36011 29.74929
#
# Velocity S-wave (km/s) = 2.78645 3.89553 3.38670
# Velocity P-wave (km/s) = 5.23741 6.72069 6.02487
#
# Compressibility (1/GPa) = 0.02257568
#
# Stress axis : x y z
#
# Youngs Moduli (GPa) = 170.05234 151.39955 51.82476
#
# Poissons Ratio (x) = 0.24196 0.09177
# Poissons Ratio (y) = 0.27177 0.06395
# Poissons Ratio (z) = 0.30113 0.18682
#
# Static dielectric constant tensor:
#      x y z
#    x 2.027530 0.000000 -0.028830 
#    y 0.000000 1.980460 0.000000 
#    z -0.028830 0.000000 2.205270 
# 
# From -- ./inp_files/221040.got.cif
#   From: 2010.05.17/outbox.cif.g08.bks.cpg/sg12_111_cif.got.tgz:221040.got - 2010.06.03 13:09:07.
