data_PCOD9197029
_publ_section_title
;
Structure prediction by ZEFSAII (Michael W. Deem and Ramdas Pophale) SiO2 
 PCOD9197029
Probable space group: C 2/M
;
_chemical_formula_sum "Si O2"
_cell_formula_units_Z 64
_cell_length_a 19.372224
_cell_length_b 8.728822
_cell_length_c 33.205448
_cell_angle_alpha 90.000000
_cell_angle_beta 37.945301
_cell_angle_gamma 90.000000
_cell_volume 3452.671353
_symmetry_space_group_name_H-M "C 2/M"
_symmetry_group_IT_number 12
_symmetry_cell_setting 'monoclinic'
loop_
_space_group_symop_operation_xyz
x,y,z
-x,y,-z
-x,-y,-z
x,-y,z
1/2+x,1/2+y,z
1/2-x,1/2+y,-z
1/2-x,1/2-y,-z
1/2+x,1/2-y,z
loop_
_atom_site_type_symbol
_atom_site_label
_atom_site_fract_x
_atom_site_fract_y
_atom_site_fract_z
Si Si1 0.823117 0.319968 0.348086
Si Si2 0.730012 0.814350 0.715870
Si Si3 0.332404 0.681530 0.428826
Si Si4 0.581861 0.816248 0.313495
Si Si5 0.307866 0.681482 0.906795
Si Si6 0.549656 0.813204 0.019970
Si Si7 0.907402 0.679335 0.781792
Si Si8 0.007872 0.315275 0.866281
O O1 0.798544 0.500000 0.366160
O O2 0.768183 0.267886 0.331698
O O3 0.793856 0.228483 0.401616
O O4 0.957383 0.308876 0.279211
O O5 0.833487 0.748262 0.692782
O O6 0.613921 0.764312 0.790778
O O7 0.731873 0.000000 0.715979
O O8 0.337064 0.500000 0.430419
O O9 0.250000 0.750000 0.500000
O O10 0.457239 0.750257 0.376161
O O11 0.624405 0.774387 0.248924
O O12 0.575378 0.000000 0.317758
O O13 0.309540 0.500000 0.912908
O O14 0.353569 0.720839 0.841356
O O15 0.392327 0.758670 0.899517
O O16 0.178804 0.734521 0.967205
O O17 0.483946 0.766945 0.090740
O O18 0.548588 0.000000 0.019056
O O19 0.500000 0.759656 0.000000
O O20 0.879204 0.500000 0.801439
O O21 0.006177 0.500000 0.866019
#
# Coordination Sequence:
#
# PCOD9197029 Si02
#       8
#     8   8   8   8   8   8   8   8
#     4   9  18  36  58  84 117 150 189 232 278 334
#     4  10  20  35  58  86 114 150 191 234 289 346
#     4  11  22  39  64  91 119 155 194 229 273 329
#     4  10  22  38  57  84 120 153 187 235 284 331
#     4  11  21  32  54  82 106 138 189 243 284 338
#     4   9  20  36  53  76 106 143 189 240 290 343
#     4   9  18  35  55  77 109 150 185 225 285 342
#     4  10  20  37  58  76 107 152 188 229 291 352
#
# _framework density 18.536373000000001
#
# number of rings (size 3 to 8) (size 9 to 14) (size 15 to 20)
#    0.000    2.125    1.250    3.000    1.750    3.500 
#    0.000    1.250    0.000    5.625    0.000    0.000 
#    0.000    0.000    0.000    0.000    0.000    0.000 
#
# Total GULP energy -178634.607407 kJ/mol
# GULP energy per Si atom -5582.331481 kJ/mol
# Density = 1.849418 g / cm^3
# Si number density = 18.536373 Si / 1000 Ang^3
#
#
#
# Elastic Constant Matrix: (Units=GPa)
#
#
# Indices 1 2 3 4 5 6 
#
# 1 156.8659 26.6452 50.9732 0.0009 22.7582 0.0073
# 2 26.6452 23.7551 22.0527 0.0185 8.6889 0.0033
# 3 50.9732 22.0527 87.1288 0.0053 22.6794 -0.0026
# 4 0.0009 0.0185 0.0053 17.9240 0.0000 -1.3018
# 5 22.7582 8.6889 22.6794 0.0000 22.9002 0.0020
# 6 0.0073 0.0033 -0.0026 -1.3018 0.0020 30.8137
#
#
#
# Elastic Compliance Matrix: (Units=1/GPa)
#
#
# Indices 1 2 3 4 5 6 
#
# 1 0.008814 -0.006037 -0.002620 0.000006 -0.003874 -0.000001
# 2 -0.006037 0.060754 -0.009979 -0.000060 -0.007169 -0.000008
# 3 -0.002620 -0.009979 0.018691 0.000005 -0.012120 0.000004
# 4 0.000006 -0.000060 0.000005 0.055963 0.000011 0.002364
# 5 -0.003874 -0.007169 -0.012120 0.000011 0.062241 -0.000003
# 6 -0.000001 -0.000008 0.000004 0.002364 -0.000003 0.032553
#
#
# Mechanical properties :
#
#
# Convention : Reuss Voigt Hill
#
# Bulk Modulus (GPa) = 19.61310 51.89910 35.75610
# Shear Modulus (GPa) = 17.04840 25.53283 21.29061
#
# Velocity S-wave (km/s) = 3.03599 3.71542 3.39276
# Velocity P-wave (km/s) = 4.78471 6.81653 5.88891
#
# Compressibility (1/GPa) = 0.05098632
#
# Stress axis : x y z
#
# Youngs Moduli (GPa) = 113.46026 16.45984 53.50247
#
# Poissons Ratio (x) = 0.09936 0.14018
# Poissons Ratio (y) = 0.68494 0.53391
# Poissons Ratio (z) = 0.29727 0.16426
#
# Static dielectric constant tensor:
#      x y z
#    x 1.638000 0.000000 0.017720 
#    y 0.000000 1.628310 0.000010 
#    z 0.017720 0.000010 1.627030 
# 
# From -- ./inp_files/378061.got.cif
#   From: 2010.05.17/outbox.cif.g08.bks.cpg/sg12_190_cif.got.tgz:378061.got - 2010.06.03 13:09:07.
