data_PCOD9197438
_publ_section_title
;
Structure prediction by ZEFSAII (Michael W. Deem and Ramdas Pophale) SiO2 
 PCOD9197438
Probable space group: C 2/M
;
_chemical_formula_sum "Si O2"
_cell_formula_units_Z 64
_cell_length_a 11.276690
_cell_length_b 21.048168
_cell_length_c 20.515922
_cell_angle_alpha 90.000000
_cell_angle_beta 41.565901
_cell_angle_gamma 90.000000
_cell_volume 3230.840410
_symmetry_space_group_name_H-M "C 2/M"
_symmetry_group_IT_number 12
_symmetry_cell_setting 'monoclinic'
loop_
_space_group_symop_operation_xyz
x,y,z
-x,y,-z
-x,-y,-z
x,-y,z
1/2+x,1/2+y,z
1/2-x,1/2+y,-z
1/2-x,1/2-y,-z
1/2+x,1/2-y,z
loop_
_atom_site_type_symbol
_atom_site_label
_atom_site_fract_x
_atom_site_fract_y
_atom_site_fract_z
Si Si1 0.940522 0.922799 0.788448
Si Si2 0.158202 0.427535 0.390139
Si Si3 0.038319 0.752064 0.563199
Si Si4 0.876886 0.884514 0.679593
Si Si5 0.518163 0.132615 0.328772
Si Si6 0.011983 0.575641 0.197507
Si Si7 0.631990 0.923219 0.004404
Si Si8 0.161092 0.930689 0.483969
O O1 0.837868 0.889221 0.771706
O O2 0.833509 0.908230 0.898402
O O3 0.143830 0.899687 0.697317
O O4 0.932676 0.000000 0.784603
O O5 0.177773 0.500000 0.404540
O O6 0.000000 0.398699 0.500000
O O7 0.087455 0.423682 0.346061
O O8 0.250000 0.750000 0.500000
O O9 0.947274 0.696115 0.644116
O O10 0.000000 0.745928 0.500000
O O11 0.940427 0.816862 0.626288
O O12 0.702679 0.913870 0.717489
O O13 0.055133 0.926697 0.595100
O O14 0.578557 0.118661 0.230499
O O15 0.304535 0.123323 0.417433
O O16 0.046933 0.500000 0.192670
O O17 0.086638 0.597020 0.096475
O O18 0.612929 0.000000 0.014138
O O19 0.500000 0.901896 0.000000
O O20 0.000000 0.922955 0.500000
O O21 0.242168 0.000000 0.441627
#
# Coordination Sequence:
#
# PCOD9197438 Si02
#       8
#     8   8   8   8   8   8   8   8
#     4  10  20  35  59  91 123 158 199 249 319 382
#     4  10  21  36  54  83 120 159 200 241 299 377
#     4  12  27  45  60  83 125 175 227 260 309 384
#     4  12  21  35  57  87 118 158 203 257 315 373
#     4  12  23  38  56  81 121 168 208 254 306 375
#     4  11  21  36  63  99 127 152 203 272 336 381
#     4   9  17  33  58  92 129 156 191 257 332 391
#     4  11  20  31  52  85 122 154 195 257 324 377
#
# _framework density 19.809087999999999
#
# number of rings (size 3 to 8) (size 9 to 14) (size 15 to 20)
#    0.000    1.125    3.750    4.500    1.750    1.000 
#    0.000    0.625    0.000    3.750    3.250    0.000 
#    0.000    0.000    0.000    0.000    0.000    0.000 
#
# Total GULP energy -178269.188592 kJ/mol
# GULP energy per Si atom -5570.912144 kJ/mol
# Density = 1.976400 g / cm^3
# Si number density = 19.809088 Si / 1000 Ang^3
#
#
#
# Elastic Constant Matrix: (Units=GPa)
#
#
# Indices 1 2 3 4 5 6 
#
# 1 97.9694 15.7656 48.0303 -0.0005 23.6346 -0.0001
# 2 15.7656 86.4149 20.5670 -0.0005 10.9763 -0.0004
# 3 48.0303 20.5670 137.0520 -0.0037 30.1062 0.0017
# 4 -0.0005 -0.0005 -0.0037 18.5616 0.0011 5.8279
# 5 23.6346 10.9763 30.1062 0.0011 37.9667 -0.0002
# 6 -0.0001 -0.0004 0.0017 5.8279 -0.0002 20.2002
#
#
#
# Elastic Compliance Matrix: (Units=1/GPa)
#
#
# Indices 1 2 3 4 5 6 
#
# 1 0.013288 -0.000950 -0.003339 0.000000 -0.005349 0.000000
# 2 -0.000950 0.012263 -0.001040 0.000000 -0.002130 0.000000
# 3 -0.003339 -0.001040 0.009809 0.000003 -0.005399 -0.000002
# 4 0.000000 0.000000 0.000003 0.059241 -0.000004 -0.017091
# 5 -0.005349 -0.002130 -0.005399 -0.000004 0.034566 0.000002
# 6 0.000000 0.000000 -0.000002 -0.017091 0.000002 0.054435
#
#
# Mechanical properties :
#
#
# Convention : Reuss Voigt Hill
#
# Bulk Modulus (GPa) = 40.48207 54.46246 47.47227
# Shear Modulus (GPa) = 24.69221 31.15060 27.92141
#
# Velocity S-wave (km/s) = 3.53442 3.96983 3.75844
# Velocity P-wave (km/s) = 6.09399 6.96894 6.54610
#
# Compressibility (1/GPa) = 0.02470229
#
# Stress axis : x y z
#
# Youngs Moduli (GPa) = 75.25795 81.54397 101.95109
#
# Poissons Ratio (x) = 0.07747 0.34042
# Poissons Ratio (y) = 0.07150 0.10598
# Poissons Ratio (z) = 0.25129 0.08477
#
# Static dielectric constant tensor:
#      x y z
#    x 1.835820 0.000000 0.013470 
#    y 0.000000 1.712050 0.000000 
#    z 0.013470 0.000000 1.757890 
# 
# From -- ./inp_files/306791.got.cif
#   From: 2010.05.17/outbox.cif.g08.bks.cpg/sg12_154_cif.got.tgz:306791.got - 2010.06.03 13:09:07.
