data_PCOD9197867
_publ_section_title
;
Structure prediction by ZEFSAII (Michael W. Deem and Ramdas Pophale) SiO2 
 PCOD9197867
Probable space group: C 2/M
;
_chemical_formula_sum "Si O2"
_cell_formula_units_Z 56
_cell_length_a 17.061227
_cell_length_b 25.369112
_cell_length_c 9.389228
_cell_angle_alpha 90.000000
_cell_angle_beta 48.007092
_cell_angle_gamma 90.000000
_cell_volume 3020.419511
_symmetry_space_group_name_H-M "C 2/M"
_symmetry_group_IT_number 12
_symmetry_cell_setting 'monoclinic'
loop_
_space_group_symop_operation_xyz
x,y,z
-x,y,-z
-x,-y,-z
x,-y,z
1/2+x,1/2+y,z
1/2-x,1/2+y,-z
1/2-x,1/2-y,-z
1/2+x,1/2-y,z
loop_
_atom_site_type_symbol
_atom_site_label
_atom_site_fract_x
_atom_site_fract_y
_atom_site_fract_z
Si Si1 0.578195 0.198070 0.273581
Si Si2 0.926837 0.667626 0.199089
Si Si3 0.216670 0.855702 0.893601
Si Si4 0.189482 0.138464 0.491263
Si Si5 0.334064 0.274074 0.287221
Si Si6 0.613955 0.319218 0.290105
Si Si7 0.119960 0.062370 0.801963
O O1 0.500000 0.193230 0.500000
O O2 0.500792 0.186088 0.237392
O O3 0.670355 0.154992 0.172316
O O4 0.625755 0.257603 0.229416
O O5 0.814898 0.641879 0.377855
O O6 0.894234 0.722899 0.164549
O O7 0.000000 0.636116 0.000000
O O8 0.205276 0.806417 0.799030
O O9 0.195130 0.906118 0.821276
O O10 0.133863 0.851804 0.122890
O O11 0.118957 0.181472 0.665903
O O12 0.184698 0.156832 0.332839
O O13 0.144702 0.084851 0.613210
O O14 0.250000 0.250000 0.500000
O O15 0.500000 0.323648 0.500000
O O16 0.136286 0.000000 0.787359
O O17 0.000000 0.073549 0.000000
#
# Coordination Sequence:
#
# PCOD9197867 Si02
#       7
#     8   8   8   8   8   8   8
#     4  11  20  31  49  79 116 149 180 211 255 319
#     4  11  20  31  50  78 114 153 184 209 251 323
#     4  11  21  35  55  79 113 147 180 230 277 319
#     4  10  20  36  54  76 110 145 184 227 271 324
#     4   9  17  31  48  73 107 150 189 216 252 306
#     4  11  21  33  50  81 116 148 183 220 270 328
#     4  10  22  41  63  82  98 130 183 236 287 336
#
# _framework density 18.540471
#
# number of rings (size 3 to 8) (size 9 to 14) (size 15 to 20)
#    0.000    1.571    0.000    9.000    0.000    3.429 
#    0.000    0.714    0.000    6.857    0.000    0.000 
#    0.000    0.000    0.000    0.000    0.000    0.000 
#
# Total GULP energy -155886.815269 kJ/mol
# GULP energy per Si atom -5567.386260 kJ/mol
# Density = 1.849827 g / cm^3
# Si number density = 18.540471 Si / 1000 Ang^3
#
#
#
# Elastic Constant Matrix: (Units=GPa)
#
#
# Indices 1 2 3 4 5 6 
#
# 1 96.9107 37.5081 25.6039 0.0000 9.8254 0.0000
# 2 37.5081 76.0617 21.3837 0.0000 -7.6738 0.0000
# 3 25.6039 21.3837 97.1617 0.0000 5.0186 0.0000
# 4 0.0000 0.0000 0.0000 17.4946 0.0000 0.7205
# 5 9.8254 -7.6738 5.0186 0.0000 33.8782 0.0000
# 6 0.0000 0.0000 0.0000 0.7205 0.0000 14.2727
#
#
#
# Elastic Compliance Matrix: (Units=1/GPa)
#
#
# Indices 1 2 3 4 5 6 
#
# 1 0.014048 -0.006935 -0.001899 0.000000 -0.005364 0.000000
# 2 -0.006935 0.017903 -0.002445 0.000000 0.006429 0.000000
# 3 -0.001899 -0.002445 0.011418 0.000000 -0.001695 0.000000
# 4 0.000000 0.000000 0.000000 0.057279 0.000000 -0.002892
# 5 -0.005364 0.006429 -0.001695 0.000000 0.032780 0.000000
# 6 0.000000 0.000000 0.000000 -0.002892 0.000000 0.070210
#
#
# Mechanical properties :
#
#
# Convention : Reuss Voigt Hill
#
# Bulk Modulus (GPa) = 48.04786 48.79172 48.41979
# Shear Modulus (GPa) = 21.44697 25.50500 23.47598
#
# Velocity S-wave (km/s) = 3.40481 3.71298 3.56223
# Velocity P-wave (km/s) = 6.43649 6.68993 6.56443
#
# Compressibility (1/GPa) = 0.02081258
#
# Stress axis : x y z
#
# Youngs Moduli (GPa) = 71.18277 55.85681 87.58086
#
# Poissons Ratio (x) = 0.38737 0.16629
# Poissons Ratio (y) = 0.49365 0.21411
# Poissons Ratio (z) = 0.13515 0.13655
#
# Static dielectric constant tensor:
#      x y z
#    x 1.711030 0.000000 -0.018070 
#    y 0.000000 1.648730 0.000000 
#    z -0.018070 0.000000 1.682870 
# 
# From -- ./inp_files/79054.got.cif
#   From: 2010.05.17/outbox.cif.g08.bks.cpg/sg12_40_cif.got.tgz:79054.got - 2010.06.03 13:09:07.
