data_PCOD9197196
_publ_section_title
;
Structure prediction by ZEFSAII (Michael W. Deem and Ramdas Pophale) SiO2 
 PCOD9197196
Probable space group: C 2/M
;
_chemical_formula_sum "Si O2"
_cell_formula_units_Z 58
_cell_length_a 20.658985
_cell_length_b 7.709742
_cell_length_c 21.801921
_cell_angle_alpha 90.000000
_cell_angle_beta 50.580089
_cell_angle_gamma 90.000000
_cell_volume 2682.559450
_symmetry_space_group_name_H-M "C 2/M"
_symmetry_group_IT_number 12
_symmetry_cell_setting 'monoclinic'
loop_
_space_group_symop_operation_xyz
x,y,z
-x,y,-z
-x,-y,-z
x,-y,z
1/2+x,1/2+y,z
1/2-x,1/2+y,-z
1/2-x,1/2-y,-z
1/2+x,1/2-y,z
loop_
_atom_site_type_symbol
_atom_site_label
_atom_site_fract_x
_atom_site_fract_y
_atom_site_fract_z
Si Si1 0.498948 0.708150 0.831683
Si Si2 0.827635 0.800452 0.222696
Si Si3 0.266455 0.201354 0.389114
Si Si4 0.000000 0.500000 0.000000
Si Si5 0.727372 0.698862 0.166171
Si Si6 0.873391 0.295763 0.440911
Si Si7 0.538299 0.710032 0.281720
Si Si8 0.886949 0.801397 0.008648
O O1 0.511202 0.500000 0.819627
O O2 0.579667 0.775465 0.820312
O O3 0.493132 0.773609 0.766117
O O4 0.416616 0.737893 0.921440
O O5 0.782165 0.794398 0.315773
O O6 0.774637 0.706857 0.202885
O O7 0.836456 0.000000 0.196839
O O8 0.173387 0.215290 0.472842
O O9 0.326707 0.271603 0.407197
O O10 0.287300 0.000000 0.366447
O O11 0.932064 0.654429 0.021674
O O12 0.718796 0.500000 0.151055
O O13 0.633791 0.769771 0.231139
O O14 0.788597 0.791029 0.081485
O O15 0.856407 0.500000 0.454066
O O16 0.971419 0.266237 0.372672
O O17 0.537859 0.500000 0.282198
O O18 0.915053 0.000000 0.004798
#
# Coordination Sequence:
#
# PCOD9197196 Si02
#       8
#     8   8   8   2   8   8   8   8
#     4   9  20  38  63  91 119 159 212 262 311 369
#     4  11  21  37  62  89 122 159 201 259 315 366
#     4  10  20  35  58  90 124 156 198 254 311 369
#     4  12  22  40  64  94 128 160 212 262 314 390
#     4  11  24  41  61  89 127 170 209 255 315 381
#     4  10  20  35  58  91 122 156 200 251 309 373
#     4  10  21  41  64  87 123 165 208 256 312 373
#     4  11  23  41  63  92 128 171 211 264 321 372
#
# _framework density 21.621141999999999
#
# number of rings (size 3 to 8) (size 9 to 14) (size 15 to 20)
#    0.000    1.655    2.069    2.690    0.000    3.862 
#    2.483    0.690    0.000    4.138    0.000    0.000 
#    0.000    0.000    0.000    0.000    0.000    0.000 
#
# Total GULP energy -161783.680208 kJ/mol
# GULP energy per Si atom -5578.747593 kJ/mol
# Density = 2.157193 g / cm^3
# Si number density = 21.621142 Si / 1000 Ang^3
#
#
#
# Elastic Constant Matrix: (Units=GPa)
#
#
# Indices 1 2 3 4 5 6 
#
# 1 33.0984 -10.1312 15.7823 0.0001 -13.0794 0.0000
# 2 -10.1312 79.7818 -8.4729 -0.0006 -4.4277 0.0008
# 3 15.7823 -8.4729 142.2149 -0.0002 -14.1308 0.0000
# 4 0.0001 -0.0006 -0.0002 26.4957 0.0001 -5.2447
# 5 -13.0794 -4.4277 -14.1308 0.0001 34.0380 0.0000
# 6 0.0000 0.0008 0.0000 -5.2447 0.0000 8.2770
#
#
#
# Elastic Compliance Matrix: (Units=1/GPa)
#
#
# Indices 1 2 3 4 5 6 
#
# 1 0.038866 0.005476 -0.002537 0.000000 0.014594 -0.000001
# 2 0.005476 0.013522 0.000607 0.000000 0.004115 -0.000001
# 3 -0.002537 0.000607 0.007573 0.000000 0.002248 0.000000
# 4 0.000000 0.000000 0.000000 0.043155 0.000000 0.027345
# 5 0.014594 0.004115 0.002248 0.000000 0.036455 0.000000
# 6 -0.000001 -0.000001 0.000000 0.027345 0.000000 0.138145
#
#
# Mechanical properties :
#
#
# Convention : Reuss Voigt Hill
#
# Bulk Modulus (GPa) = 14.91368 27.71684 21.31526
# Shear Modulus (GPa) = 17.06634 30.95659 24.01147
#
# Velocity S-wave (km/s) = 2.81256 3.78798 3.33611
# Velocity P-wave (km/s) = 4.17852 5.65499 4.97187
#
# Compressibility (1/GPa) = 0.06705255
#
# Stress axis : x y z
#
# Youngs Moduli (GPa) = 25.72966 73.95146 132.05428
#
# Poissons Ratio (x) = -0.40495 0.33500
# Poissons Ratio (y) = -0.14089 -0.08013
# Poissons Ratio (z) = 0.06527 -0.04488
#
# Static dielectric constant tensor:
#      x y z
#    x 1.775170 0.000000 -0.014760 
#    y 0.000000 1.799220 0.000000 
#    z -0.014760 0.000000 1.806070 
# 
# From -- ./inp_files/346494.got.cif
#   From: 2010.05.17/outbox.cif.g08.bks.cpg/sg12_174_cif.got.tgz:346494.got - 2010.06.03 13:09:07.
