data_PCOD9197859
_publ_section_title
;
Structure prediction by ZEFSAII (Michael W. Deem and Ramdas Pophale) SiO2 
 PCOD9197859
Probable space group: C 2/M
;
_chemical_formula_sum "Si O2"
_cell_formula_units_Z 56
_cell_length_a 26.213636
_cell_length_b 8.184023
_cell_length_c 14.141145
_cell_angle_alpha 90.000000
_cell_angle_beta 73.582694
_cell_angle_gamma 90.000000
_cell_volume 2910.052493
_symmetry_space_group_name_H-M "C 2/M"
_symmetry_group_IT_number 12
_symmetry_cell_setting 'monoclinic'
loop_
_space_group_symop_operation_xyz
x,y,z
-x,y,-z
-x,-y,-z
x,-y,z
1/2+x,1/2+y,z
1/2-x,1/2+y,-z
1/2-x,1/2-y,-z
1/2+x,1/2-y,z
loop_
_atom_site_type_symbol
_atom_site_label
_atom_site_fract_x
_atom_site_fract_y
_atom_site_fract_z
Si Si1 0.945067 0.199403 0.912406
Si Si2 0.780773 0.693880 0.714408
Si Si3 0.828098 0.694161 0.289722
Si Si4 0.939518 0.197940 0.545837
Si Si5 0.880083 0.196188 0.767499
Si Si6 0.838202 0.303706 0.494877
Si Si7 0.565324 0.697546 0.865536
O O1 0.905356 0.257577 0.851796
O O2 0.006417 0.247530 0.861949
O O3 0.944461 0.000000 0.912651
O O4 0.930399 0.249177 0.026676
O O5 0.786416 0.500000 0.710426
O O6 0.719137 0.737867 0.750208
O O7 0.819553 0.758627 0.775512
O O8 0.803639 0.759880 0.601611
O O9 0.822423 0.500000 0.295667
O O10 0.822370 0.760212 0.400124
O O11 0.885989 0.736917 0.220208
O O12 0.915218 0.253012 0.659210
O O13 0.898973 0.259865 0.487554
O O14 0.000000 0.251920 0.500000
O O15 0.938781 0.000000 0.544516
O O16 0.883554 0.000000 0.767229
O O17 0.833088 0.500000 0.495927
O O18 0.567108 0.500000 0.861914
#
# Coordination Sequence:
#
# PCOD9197859 Si02
#       7
#     8   8   8   8   8   8   8
#     4   8  16  33  57  80 104 135 172 210 256 307
#     4  10  20  36  54  75 101 136 178 215 252 305
#     4  11  22  35  52  77 106 136 172 215 263 307
#     4   9  18  29  46  76 107 134 170 209 246 299
#     4   9  17  32  53  75 104 138 168 208 259 305
#     4   9  20  35  50  71 103 139 173 208 254 305
#     4   9  18  34  56  81 104 133 173 215 254 304
#
# _framework density 19.243638000000001
#
# number of rings (size 3 to 8) (size 9 to 14) (size 15 to 20)
#    0.000    2.714    0.000    2.143    2.000    2.000 
#    0.000    3.571    0.000    0.000    0.000    0.000 
#    0.000    0.000    0.000    0.000    0.000    0.000 
#
# Total GULP energy -156184.027432 kJ/mol
# GULP energy per Si atom -5578.000980 kJ/mol
# Density = 1.919984 g / cm^3
# Si number density = 19.243638 Si / 1000 Ang^3
#
#
#
# Elastic Constant Matrix: (Units=GPa)
#
#
# Indices 1 2 3 4 5 6 
#
# 1 103.6614 0.5339 37.1951 0.0000 26.7106 0.0000
# 2 0.5339 6.2195 3.7957 0.0000 6.9469 0.0000
# 3 37.1951 3.7957 40.3549 0.0000 19.4928 0.0000
# 4 0.0000 0.0000 0.0000 16.5738 0.0000 -2.7715
# 5 26.7106 6.9469 19.4928 0.0000 31.5100 0.0000
# 6 0.0000 0.0000 0.0000 -2.7715 0.0000 24.2486
#
#
#
# Elastic Compliance Matrix: (Units=1/GPa)
#
#
# Indices 1 2 3 4 5 6 
#
# 1 0.016502 0.017592 -0.011743 0.000000 -0.010602 0.000000
# 2 0.017592 0.232474 -0.008729 0.000000 -0.060766 0.000000
# 3 -0.011743 -0.008729 0.043764 0.000000 -0.015195 0.000000
# 4 0.000000 0.000000 0.000000 0.061512 0.000000 0.007031
# 5 -0.010602 -0.060766 -0.015195 0.000000 0.063520 0.000000
# 6 0.000000 0.000000 0.000000 0.007031 0.000000 0.042043
#
#
# Mechanical properties :
#
#
# Convention : Reuss Voigt Hill
#
# Bulk Modulus (GPa) = 3.48455 25.92059 14.70257
# Shear Modulus (GPa) = 8.90893 21.71389 15.31141
#
# Velocity S-wave (km/s) = 2.15397 3.36276 2.82381
# Velocity P-wave (km/s) = 2.82857 5.34570 4.27652
#
# Compressibility (1/GPa) = 0.28698136
#
# Stress axis : x y z
#
# Youngs Moduli (GPa) = 60.60009 4.30155 22.84968
#
# Poissons Ratio (x) = -0.07567 0.26832
# Poissons Ratio (y) = -1.06609 0.19945
# Poissons Ratio (z) = 0.71163 0.03755
#
# Static dielectric constant tensor:
#      x y z
#    x 1.663330 0.000000 0.014040 
#    y 0.000000 1.673620 0.000000 
#    z 0.014040 0.000000 1.673110 
# 
# From -- ./inp_files/237303.got.cif
#   From: 2010.05.17/outbox.cif.g08.bks.cpg/sg12_119_cif.got.tgz:237303.got - 2010.06.03 13:09:07.
