data_PCOD9197820
_publ_section_title
;
Structure prediction by ZEFSAII (Michael W. Deem and Ramdas Pophale) SiO2 
 PCOD9197820
Probable space group: C 2/M
;
_chemical_formula_sum "Si O2"
_cell_formula_units_Z 44
_cell_length_a 10.511043
_cell_length_b 28.401006
_cell_length_c 8.457506
_cell_angle_alpha 90.000000
_cell_angle_beta 65.735620
_cell_angle_gamma 90.000000
_cell_volume 2301.729283
_symmetry_space_group_name_H-M "C 2/M"
_symmetry_group_IT_number 12
_symmetry_cell_setting 'monoclinic'
loop_
_space_group_symop_operation_xyz
x,y,z
-x,y,-z
-x,-y,-z
x,-y,z
1/2+x,1/2+y,z
1/2-x,1/2+y,-z
1/2-x,1/2-y,-z
1/2+x,1/2-y,z
loop_
_atom_site_type_symbol
_atom_site_label
_atom_site_fract_x
_atom_site_fract_y
_atom_site_fract_z
Si Si1 0.997985 0.801839 0.754311
Si Si2 0.500000 0.920884 0.500000
Si Si3 0.770082 0.345809 0.968947
Si Si4 0.000000 0.722994 0.000000
Si Si5 0.712320 0.839249 0.414130
Si Si6 0.000000 0.264266 0.500000
Si Si7 0.395219 0.948279 0.901930
O O1 0.885341 0.834108 0.896218
O O2 0.924511 0.770806 0.657705
O O3 0.050996 0.760476 0.843090
O O4 0.128406 0.831152 0.620361
O O5 0.631344 0.887828 0.483603
O O6 0.459383 0.945111 0.688920
O O7 0.877717 0.311325 0.002932
O O8 0.786849 0.334720 0.775975
O O9 0.805504 0.400895 0.968718
O O10 0.611182 0.798156 0.526517
O O11 0.325381 0.000000 0.946010
O O12 0.500000 0.946950 0.000000
#
# Coordination Sequence:
#
# PCOD9197820 Si02
#       7
#     8   4   8   4   8   4   8
#     4  12  22  34  53  78 120 150 185 223 277 331
#     4   9  21  36  61  84 114 140 185 236 286 334
#     4  11  21  36  57  82 110 148 189 233 274 330
#     4  12  20  34  55  76 111 152 188 216 264 332
#     4  10  20  36  52  80 112 153 185 226 274 330
#     4  11  22  32  47  80 112 154 193 224 261 326
#     4  10  21  39  63  86 108 142 190 242 286 329
#
# _framework density 19.116061999999999
#
# number of rings (size 3 to 8) (size 9 to 14) (size 15 to 20)
#    0.000    1.273    4.545    2.455    0.000    1.455 
#    0.000    0.000    0.000    9.818    0.000    3.182 
#    0.000    0.000    0.000    0.000    0.000    0.000 
#
# Total GULP energy -122553.162015 kJ/mol
# GULP energy per Si atom -5570.598273 kJ/mol
# Density = 1.907255 g / cm^3
# Si number density = 19.116062 Si / 1000 Ang^3
#
#
#
# Elastic Constant Matrix: (Units=GPa)
#
#
# Indices 1 2 3 4 5 6 
#
# 1 65.0277 40.0731 1.7305 0.0000 -17.0644 0.0000
# 2 40.0731 145.0799 31.6016 0.0000 -10.7677 0.0000
# 3 1.7305 31.6016 50.9552 0.0000 -2.4302 0.0000
# 4 0.0000 0.0000 0.0000 20.6072 0.0000 0.5046
# 5 -17.0644 -10.7677 -2.4302 0.0000 34.1508 0.0000
# 6 0.0000 0.0000 0.0000 0.5046 0.0000 7.7431
#
#
#
# Elastic Compliance Matrix: (Units=1/GPa)
#
#
# Indices 1 2 3 4 5 6 
#
# 1 0.021329 -0.005964 0.003404 0.000000 0.009020 0.000000
# 2 -0.005964 0.009800 -0.005890 0.000000 -0.000309 0.000000
# 3 0.003404 -0.005890 0.023234 0.000000 0.001497 0.000000
# 4 0.000000 0.000000 0.000000 0.048604 0.000000 -0.003168
# 5 0.009020 -0.000309 0.001497 0.000000 0.033798 0.000000
# 6 0.000000 0.000000 0.000000 -0.003168 0.000000 0.129353
#
#
# Mechanical properties :
#
#
# Convention : Reuss Voigt Hill
#
# Bulk Modulus (GPa) = 26.69183 45.31926 36.00555
# Shear Modulus (GPa) = 16.92015 25.01072 20.96544
#
# Velocity S-wave (km/s) = 2.97834 3.62105 3.31531
# Velocity P-wave (km/s) = 5.08140 6.42196 5.79061
#
# Compressibility (1/GPa) = 0.03746464
#
# Stress axis : x y z
#
# Youngs Moduli (GPa) = 46.88350 102.04056 43.04083
#
# Poissons Ratio (x) = 0.60853 -0.14652
# Poissons Ratio (y) = 0.27959 0.25351
# Poissons Ratio (z) = -0.15961 0.60102
#
# Static dielectric constant tensor:
#      x y z
#    x 1.685600 0.000000 0.041690 
#    y 0.000000 1.647080 0.000000 
#    z 0.041690 0.000000 1.744370 
# 
# From -- ./inp_files/51925.got.cif
#   From: 2010.05.17/outbox.cif.g08.bks.cpg/sg12_26_cif.got.tgz:51925.got - 2010.06.03 13:09:07.
