data_PCOD9197020
_publ_section_title
;
Structure prediction by ZEFSAII (Michael W. Deem and Ramdas Pophale) SiO2 
 PCOD9197020
Probable space group: C 2/M
;
_chemical_formula_sum "Si O2"
_cell_formula_units_Z 56
_cell_length_a 24.683115
_cell_length_b 7.711988
_cell_length_c 16.240242
_cell_angle_alpha 90.000000
_cell_angle_beta 58.438000
_cell_angle_gamma 90.000000
_cell_volume 2634.124259
_symmetry_space_group_name_H-M "C 2/M"
_symmetry_group_IT_number 12
_symmetry_cell_setting 'monoclinic'
loop_
_space_group_symop_operation_xyz
x,y,z
-x,y,-z
-x,-y,-z
x,-y,z
1/2+x,1/2+y,z
1/2-x,1/2+y,-z
1/2-x,1/2-y,-z
1/2+x,1/2-y,z
loop_
_atom_site_type_symbol
_atom_site_label
_atom_site_fract_x
_atom_site_fract_y
_atom_site_fract_z
Si Si1 0.708851 0.706073 0.113108
Si Si2 0.158625 0.706500 0.516821
Si Si3 0.818655 0.793716 0.146923
Si Si4 0.935351 0.791159 0.795246
Si Si5 0.951279 0.212257 0.966598
Si Si6 0.705092 0.710029 0.653198
Si Si7 0.976358 0.290850 0.430449
O O1 0.703972 0.500000 0.122476
O O2 0.751561 0.765628 0.155619
O O3 0.636947 0.774694 0.161923
O O4 0.750000 0.750000 0.000000
O O5 0.159407 0.500000 0.502949
O O6 0.224055 0.774711 0.425716
O O7 0.161131 0.739106 0.612168
O O8 0.094232 0.777772 0.530607
O O9 0.816830 0.724546 0.240997
O O10 0.827753 0.000000 0.145017
O O11 0.879747 0.730341 0.047707
O O12 0.962036 0.731663 0.863250
O O13 0.978513 0.748700 0.682632
O O14 0.931786 0.000000 0.803601
O O15 0.953615 0.000000 0.964621
O O16 0.000000 0.267996 0.000000
O O17 0.706830 0.500000 0.654345
O O18 0.972999 0.500000 0.438077
O O19 0.000000 0.226302 0.500000
#
# Coordination Sequence:
#
# PCOD9197020 Si02
#       7
#     8   8   8   8   8   8   8
#     4  11  22  38  58  83 115 148 185 230 279 330
#     4   9  19  37  55  79 114 145 185 238 285 334
#     4  10  20  35  58  86 112 145 189 230 277 338
#     4  10  22  39  59  85 114 147 191 236 280 334
#     4   9  18  34  56  83 116 149 183 226 275 333
#     4   9  19  34  58  85 108 145 190 231 280 337
#     4  10  23  40  59  82 112 152 193 234 289 345
#
# _framework density 21.259437999999999
#
# number of rings (size 3 to 8) (size 9 to 14) (size 15 to 20)
#    0.000    2.286    1.429    0.429    4.000    2.571 
#    0.000    0.000    0.000    0.857    0.000    0.000 
#    0.000    0.000    0.000    0.000    0.000    0.000 
#
# Total GULP energy -156312.887416 kJ/mol
# GULP energy per Si atom -5582.603122 kJ/mol
# Density = 2.121105 g / cm^3
# Si number density = 21.259438 Si / 1000 Ang^3
#
#
#
# Elastic Constant Matrix: (Units=GPa)
#
#
# Indices 1 2 3 4 5 6 
#
# 1 172.3135 2.7139 67.7076 0.0000 20.5130 0.0002
# 2 2.7139 26.4297 5.7101 0.0002 -1.5910 0.0009
# 3 67.7076 5.7101 116.6799 -0.0001 31.9752 0.0000
# 4 0.0000 0.0002 -0.0001 20.2839 0.0000 0.4806
# 5 20.5130 -1.5910 31.9752 0.0000 25.1994 0.0001
# 6 0.0002 0.0009 0.0000 0.4806 0.0001 17.7914
#
#
#
# Elastic Compliance Matrix: (Units=1/GPa)
#
#
# Indices 1 2 3 4 5 6 
#
# 1 0.007531 0.000066 -0.004131 0.000000 -0.000885 0.000000
# 2 0.000066 0.039148 -0.004012 0.000000 0.007508 -0.000002
# 3 -0.004131 -0.004012 0.015809 0.000000 -0.016950 0.000000
# 4 0.000000 0.000000 0.000000 0.049332 0.000000 -0.001333
# 5 -0.000885 0.007508 -0.016950 0.000000 0.062386 -0.000001
# 6 0.000000 -0.000002 0.000000 -0.001333 -0.000001 0.056243
#
#
# Mechanical properties :
#
#
# Convention : Reuss Voigt Hill
#
# Bulk Modulus (GPa) = 21.58205 51.96514 36.77359
# Shear Modulus (GPa) = 19.08060 28.60772 23.84416
#
# Velocity S-wave (km/s) = 2.99910 3.67229 3.35263
# Velocity P-wave (km/s) = 4.70814 6.51746 5.68524
#
# Compressibility (1/GPa) = 0.04633480
#
# Stress axis : x y z
#
# Youngs Moduli (GPa) = 132.78852 25.54395 63.25523
#
# Poissons Ratio (x) = -0.00168 0.26130
# Poissons Ratio (y) = -0.00875 0.25376
# Poissons Ratio (z) = 0.54853 0.10247
#
# Static dielectric constant tensor:
#      x y z
#    x 1.769250 0.000000 0.000040 
#    y 0.000000 1.793420 0.000000 
#    z 0.000040 0.000000 1.744780 
# 
# From -- ./inp_files/238327.got.cif
#   From: 2010.05.17/outbox.cif.g08.bks.cpg/sg12_120_cif.got.tgz:238327.got - 2010.06.03 13:09:07.
