data_PCOD9197734
_publ_section_title
;
Structure prediction by ZEFSAII (Michael W. Deem and Ramdas Pophale) SiO2 
 PCOD9197734
Probable space group: C 2/M
;
_chemical_formula_sum "Si O2"
_cell_formula_units_Z 58
_cell_length_a 19.917955
_cell_length_b 16.450269
_cell_length_c 24.709892
_cell_angle_alpha 90.000000
_cell_angle_beta 158.105746
_cell_angle_gamma 90.000000
_cell_volume 3019.081557
_symmetry_space_group_name_H-M "C 2/M"
_symmetry_group_IT_number 12
_symmetry_cell_setting 'monoclinic'
loop_
_space_group_symop_operation_xyz
x,y,z
-x,y,-z
-x,-y,-z
x,-y,z
1/2+x,1/2+y,z
1/2-x,1/2+y,-z
1/2-x,1/2-y,-z
1/2+x,1/2-y,z
loop_
_atom_site_type_symbol
_atom_site_label
_atom_site_fract_x
_atom_site_fract_y
_atom_site_fract_z
Si Si1 0.158740 0.846634 0.064853
Si Si2 0.458703 0.909164 0.076639
Si Si3 0.000000 0.000000 0.000000
Si Si4 0.644766 0.172816 0.894105
Si Si5 0.846359 0.205373 0.661279
Si Si6 0.543902 0.743110 0.651212
Si Si7 0.320890 0.253298 0.768798
Si Si8 0.554727 0.405012 0.734156
O O1 0.137194 0.928577 0.081406
O O2 0.231293 0.863299 0.059057
O O3 0.303831 0.785199 0.198238
O O4 0.964567 0.804830 0.911066
O O5 0.402644 0.892812 0.096584
O O6 0.598707 0.837765 0.169890
O O7 0.527705 0.000000 0.119180
O O8 0.270837 0.899138 0.904262
O O9 0.463334 0.213979 0.735841
O O10 0.750000 0.250000 0.000000
O O11 0.645672 0.211288 0.488651
O O12 0.828035 0.209825 0.713305
O O13 0.954845 0.133245 0.712387
O O14 0.629380 0.749149 0.655173
O O15 0.512562 0.653026 0.651714
O O16 0.509036 0.500000 0.693465
#
# Coordination Sequence:
#
# PCOD9197734 Si02
#       8
#     8   8   2   8   8   8   8   8
#     4  12  22  41  62  88 127 161 219 250 313 368
#     4  10  20  35  62  97 122 153 213 261 316 363
#     4  12  28  40  60 102 126 176 202 276 310 364
#     4  11  18  38  64  89 117 162 210 262 304 366
#     4  11  22  41  64  94 121 171 215 249 326 374
#     4  12  23  40  65  91 128 172 204 254 321 390
#     4  11  21  42  65  87 127 170 209 260 306 389
#     4  11  22  39  62  97 127 159 209 266 313 372
#
# _framework density 19.211141000000001
#
# number of rings (size 3 to 8) (size 9 to 14) (size 15 to 20)
#    0.000    0.828    8.276    0.828    0.966    0.552 
#    2.483    4.138    0.000    5.793    0.000    0.000 
#    0.000    0.000    0.000    0.000    0.000    0.000 
#
# Total GULP energy -161533.480011 kJ/mol
# GULP energy per Si atom -5570.120000 kJ/mol
# Density = 1.916742 g / cm^3
# Si number density = 19.211141 Si / 1000 Ang^3
#
#
#
# Elastic Constant Matrix: (Units=GPa)
#
#
# Indices 1 2 3 4 5 6 
#
# 1 61.3061 8.2529 2.4636 -0.0019 9.3888 0.0027
# 2 8.2529 96.9800 10.7527 -0.0715 -6.1900 -0.0024
# 3 2.4636 10.7527 61.5746 -0.1176 6.0051 -0.0151
# 4 -0.0019 -0.0715 -0.1176 13.6065 -0.0018 0.5880
# 5 9.3888 -6.1900 6.0051 -0.0018 25.9519 0.0077
# 6 0.0027 -0.0024 -0.0151 0.5880 0.0077 14.2024
#
#
#
# Elastic Compliance Matrix: (Units=1/GPa)
#
#
# Indices 1 2 3 4 5 6 
#
# 1 0.017625 -0.001976 0.000315 -0.000006 -0.006921 0.000001
# 2 -0.001976 0.010970 -0.002211 0.000039 0.003843 -0.000004
# 3 0.000315 -0.002211 0.017062 0.000135 -0.004589 0.000015
# 4 -0.000006 0.000039 0.000135 0.073627 -0.000014 -0.003048
# 5 -0.006921 0.003843 -0.004589 -0.000014 0.043015 -0.000026
# 6 0.000001 -0.000004 0.000015 -0.003048 -0.000026 0.070537
#
#
# Mechanical properties :
#
#
# Convention : Reuss Voigt Hill
#
# Bulk Modulus (GPa) = 26.37760 29.19988 27.78874
# Shear Modulus (GPa) = 19.74577 23.97829 21.86203
#
# Velocity S-wave (km/s) = 3.20946 3.53674 3.37707
# Velocity P-wave (km/s) = 5.24350 5.64894 5.44999
#
# Compressibility (1/GPa) = 0.03791095
#
# Stress axis : x y z
#
# Youngs Moduli (GPa) = 56.73804 91.15665 58.61024
#
# Poissons Ratio (x) = 0.18017 -0.01846
# Poissons Ratio (y) = 0.11214 0.12961
# Poissons Ratio (z) = -0.01787 0.20158
#
# Static dielectric constant tensor:
#      x y z
#    x 1.777170 -0.000020 -0.015620 
#    y -0.000020 1.628770 0.000000 
#    z -0.015620 0.000000 1.679860 
# 
# From -- ./inp_files/366578.got.cif
#   From: 2010.05.17/outbox.cif.g08.bks.cpg/sg12_184_cif.got.tgz:366578.got - 2010.06.03 13:09:07.
