data_PCOD9197459
_publ_section_title
;
Structure prediction by ZEFSAII (Michael W. Deem and Ramdas Pophale) SiO2 
 PCOD9197459
Probable space group: C 2/M
;
_chemical_formula_sum "Si O2"
_cell_formula_units_Z 52
_cell_length_a 12.478934
_cell_length_b 33.810380
_cell_length_c 7.611394
_cell_angle_alpha 90.000000
_cell_angle_beta 131.323581
_cell_angle_gamma 90.000000
_cell_volume 2411.722337
_symmetry_space_group_name_H-M "C 2/M"
_symmetry_group_IT_number 12
_symmetry_cell_setting 'monoclinic'
loop_
_space_group_symop_operation_xyz
x,y,z
-x,y,-z
-x,-y,-z
x,-y,z
1/2+x,1/2+y,z
1/2-x,1/2+y,-z
1/2-x,1/2-y,-z
1/2+x,1/2-y,z
loop_
_atom_site_type_symbol
_atom_site_label
_atom_site_fract_x
_atom_site_fract_y
_atom_site_fract_z
Si Si1 0.000000 0.394550 0.000000
Si Si2 0.424641 0.954035 0.604257
Si Si3 0.162661 0.196491 0.469547
Si Si4 0.912718 0.042261 0.727703
Si Si5 0.516602 0.373894 0.725831
Si Si6 0.712080 0.166583 0.044798
Si Si7 0.472901 0.776219 0.759861
O O1 0.034740 0.423137 0.200605
O O2 0.124366 0.365298 0.067212
O O3 0.500000 0.944849 0.500000
O O4 0.253451 0.952424 0.407399
O O5 0.463348 0.000000 0.690343
O O6 0.200582 0.192112 0.717004
O O7 0.315987 0.206261 0.551551
O O8 0.046965 0.231004 0.317884
O O9 0.099456 0.156178 0.323451
O O10 0.978098 0.080990 0.713031
O O11 0.926744 0.000000 0.645338
O O12 0.000000 0.039057 0.000000
O O13 0.500000 0.368400 0.500000
O O14 0.674024 0.358331 0.943960
O O15 0.600187 0.195820 0.828636
O O16 0.500000 0.776523 0.000000
#
# Coordination Sequence:
#
# PCOD9197459 Si02
#       7
#     4   8   8   8   8   8   8
#     4  12  21  40  70  92 134 174 218 280 325 386
#     4  10  23  42  67  98 131 173 224 272 331 400
#     4   9  17  33  53  81 120 155 201 260 318 371
#     4  10  23  43  62  89 130 168 206 266 332 390
#     4  10  21  36  59  89 120 160 210 266 318 384
#     4  10  20  35  59  93 118 164 216 263 318 387
#     4   9  17  32  55  83 117 166 203 253 325 380
#
# _framework density 21.561354000000001
#
# number of rings (size 3 to 8) (size 9 to 14) (size 15 to 20)
#    0.000    2.154    2.308    2.077    2.154    1.538 
#    0.000    0.769    0.000    2.769    0.000    0.000 
#    0.000    0.000    0.000    0.000    0.000    0.000 
#
# Total GULP energy -145032.140767 kJ/mol
# GULP energy per Si atom -5578.159260 kJ/mol
# Density = 2.151228 g / cm^3
# Si number density = 21.561354 Si / 1000 Ang^3
#
#
#
# Elastic Constant Matrix: (Units=GPa)
#
#
# Indices 1 2 3 4 5 6 
#
# 1 45.4923 39.9445 38.8802 0.0000 18.7053 0.0000
# 2 39.9445 153.9927 58.8977 0.0000 22.8592 0.0000
# 3 38.8802 58.8977 73.7137 0.0000 15.4393 0.0000
# 4 0.0000 0.0000 0.0000 21.9962 0.0000 19.9412
# 5 18.7053 22.8592 15.4393 0.0000 25.5826 0.0000
# 6 0.0000 0.0000 0.0000 19.9412 0.0000 22.7335
#
#
#
# Elastic Compliance Matrix: (Units=1/GPa)
#
#
# Indices 1 2 3 4 5 6 
#
# 1 0.050393 -0.001930 -0.020240 0.000000 -0.022907 0.000000
# 2 -0.001930 0.009880 -0.006093 0.000000 -0.003740 0.000000
# 3 -0.020240 -0.006093 0.028468 0.000000 0.003062 0.000000
# 4 0.000000 0.000000 0.000000 0.222008 0.000000 -0.194739
# 5 -0.022907 -0.003740 0.003062 0.000000 0.057331 0.000000
# 6 0.000000 0.000000 0.000000 -0.194739 0.000000 0.214808
#
#
# Mechanical properties :
#
#
# Convention : Reuss Voigt Hill
#
# Bulk Modulus (GPa) = 31.04054 60.96039 46.00047
# Shear Modulus (GPa) = 7.69050 23.09422 15.39236
#
# Velocity S-wave (km/s) = 1.89065 3.27631 2.67476
# Velocity P-wave (km/s) = 4.38106 6.53044 5.56059
#
# Compressibility (1/GPa) = 0.03221593
#
# Stress axis : x y z
#
# Youngs Moduli (GPa) = 19.84388 101.21520 35.12674
#
# Poissons Ratio (x) = 0.19536 0.71096
# Poissons Ratio (y) = 0.03830 0.21402
# Poissons Ratio (z) = 0.40164 0.61668
#
# Static dielectric constant tensor:
#      x y z
#    x 1.746060 0.000000 0.020740 
#    y 0.000000 1.905370 0.000000 
#    z 0.020740 0.000000 1.774960 
# 
# From -- ./inp_files/68667.got.cif
#   From: 2010.05.17/outbox.cif.g08.bks.cpg/sg12_35_cif.got.tgz:68667.got - 2010.06.03 13:09:07.
