data_PCOD9197940
_publ_section_title
;
Structure prediction by ZEFSAII (Michael W. Deem and Ramdas Pophale) SiO2 
 PCOD9197940
Probable space group: C 2/M
;
_chemical_formula_sum "Si O2"
_cell_formula_units_Z 64
_cell_length_a 23.578345
_cell_length_b 9.367581
_cell_length_c 17.963231
_cell_angle_alpha 90.000000
_cell_angle_beta 69.935520
_cell_angle_gamma 90.000000
_cell_volume 3726.772176
_symmetry_space_group_name_H-M "C 2/M"
_symmetry_group_IT_number 12
_symmetry_cell_setting 'monoclinic'
loop_
_space_group_symop_operation_xyz
x,y,z
-x,y,-z
-x,-y,-z
x,-y,z
1/2+x,1/2+y,z
1/2-x,1/2+y,-z
1/2-x,1/2-y,-z
1/2+x,1/2-y,z
loop_
_atom_site_type_symbol
_atom_site_label
_atom_site_fract_x
_atom_site_fract_y
_atom_site_fract_z
Si Si1 0.796907 0.668902 0.425394
Si Si2 0.731331 0.670388 0.712639
Si Si3 0.939130 0.664002 0.976741
Si Si4 0.418199 0.833683 0.464301
Si Si5 0.981631 0.829918 0.667022
Si Si6 0.991465 0.169937 0.175676
Si Si7 0.372728 0.830757 0.652159
Si Si8 0.373997 0.330685 0.129891
O O1 0.782962 0.500000 0.428908
O O2 0.750000 0.750000 0.500000
O O3 0.792135 0.740500 0.347014
O O4 0.863001 0.684477 0.431683
O O5 0.725779 0.500000 0.698672
O O6 0.801931 0.701155 0.692584
O O7 0.689598 0.700666 0.802580
O O8 0.923404 0.500000 0.969357
O O9 0.958017 0.746517 0.893790
O O10 0.889440 0.743242 0.049029
O O11 0.000000 0.666608 0.000000
O O12 0.473341 0.736875 0.413917
O O13 0.392629 0.802343 0.557823
O O14 0.437251 0.000000 0.454689
O O15 0.006166 0.794360 0.738444
O O16 0.916308 0.760724 0.684244
O O17 0.979203 0.000000 0.660655
O O18 0.926723 0.201171 0.166840
O O19 0.001442 0.000000 0.163394
O O20 0.381352 0.000000 0.661741
O O21 0.377558 0.500000 0.112331
#
# Coordination Sequence:
#
# PCOD9197940 Si02
#       8
#     8   8   8   8   8   8   8   8
#     4  11  21  34  53  77 105 137 172 213 261 310
#     4  10  20  36  55  77 106 141 179 213 256 315
#     4   9  17  29  49  78 109 135 162 201 249 307
#     4  10  21  37  54  74 102 138 175 214 265 317
#     4  11  23  36  53  78 102 131 178 228 262 300
#     4   9  18  33  51  75 106 135 165 206 257 308
#     4  10  21  38  54  70 101 142 179 216 261 313
#     4   9  17  31  54  79 105 137 167 202 253 311
#
# _framework density 17.173037000000001
#
# number of rings (size 3 to 8) (size 9 to 14) (size 15 to 20)
#    0.000    2.125    1.250    2.250    0.000    7.500 
#    0.000    2.500    0.000    0.750    0.000    0.000 
#    0.000    0.000    0.000    0.000    0.000    0.000 
#
# Total GULP energy -178612.487755 kJ/mol
# GULP energy per Si atom -5581.640242 kJ/mol
# Density = 1.713395 g / cm^3
# Si number density = 17.173037 Si / 1000 Ang^3
#
#
#
# Elastic Constant Matrix: (Units=GPa)
#
#
# Indices 1 2 3 4 5 6 
#
# 1 56.1593 35.0418 32.4415 0.0000 -10.8632 0.0000
# 2 35.0418 47.0278 47.2029 0.0000 -13.0755 0.0000
# 3 32.4415 47.2029 104.1793 0.0000 -25.7604 0.0000
# 4 0.0000 0.0000 0.0000 24.7274 0.0000 1.6324
# 5 -10.8632 -13.0755 -25.7604 0.0000 15.3555 0.0000
# 6 0.0000 0.0000 0.0000 1.6324 0.0000 25.7594
#
#
#
# Elastic Compliance Matrix: (Units=1/GPa)
#
#
# Indices 1 2 3 4 5 6 
#
# 1 0.033804 -0.026461 0.003084 0.000000 0.006556 0.000000
# 2 -0.026461 0.060050 -0.018718 0.000000 0.001013 0.000000
# 3 0.003084 -0.018718 0.023442 0.000000 0.025569 0.000000
# 4 0.000000 0.000000 0.000000 0.040611 0.000000 -0.002573
# 5 0.006556 0.001013 0.025569 0.000000 0.113518 0.000000
# 6 0.000000 0.000000 0.000000 -0.002573 0.000000 0.038984
#
#
# Mechanical properties :
#
#
# Convention : Reuss Voigt Hill
#
# Bulk Modulus (GPa) = 30.20586 48.52652 39.36619
# Shear Modulus (GPa) = 12.32640 19.34714 15.83677
#
# Velocity S-wave (km/s) = 2.68204 3.36013 3.04005
# Velocity P-wave (km/s) = 5.21713 6.58579 5.94101
#
# Compressibility (1/GPa) = 0.03310616
#
# Stress axis : x y z
#
# Youngs Moduli (GPa) = 29.58233 16.65289 42.65865
#
# Poissons Ratio (x) = 0.44065 -0.13154
# Poissons Ratio (y) = 0.78277 0.79847
# Poissons Ratio (z) = -0.09122 0.31170
#
# Static dielectric constant tensor:
#      x y z
#    x 1.571610 0.000000 -0.002370 
#    y 0.000000 1.572950 0.000000 
#    z -0.002370 0.000000 1.565030 
# 
# From -- ./inp_files/323611.got.cif
#   From: 2010.05.17/outbox.cif.g08.bks.cpg/sg12_162_cif.got.tgz:323611.got - 2010.06.03 13:09:07.
