data_PCOD9197531
_publ_section_title
;
Structure prediction by ZEFSAII (Michael W. Deem and Ramdas Pophale) SiO2 
 PCOD9197531
Probable space group: C 2/M
;
_chemical_formula_sum "Si O2"
_cell_formula_units_Z 56
_cell_length_a 15.889854
_cell_length_b 24.410672
_cell_length_c 8.329789
_cell_angle_alpha 90.000000
_cell_angle_beta 137.013340
_cell_angle_gamma 90.000000
_cell_volume 2202.969653
_symmetry_space_group_name_H-M "C 2/M"
_symmetry_group_IT_number 12
_symmetry_cell_setting 'monoclinic'
loop_
_space_group_symop_operation_xyz
x,y,z
-x,y,-z
-x,-y,-z
x,-y,z
1/2+x,1/2+y,z
1/2-x,1/2+y,-z
1/2-x,1/2-y,-z
1/2+x,1/2-y,z
loop_
_atom_site_type_symbol
_atom_site_label
_atom_site_fract_x
_atom_site_fract_y
_atom_site_fract_z
Si Si1 0.190825 0.084118 0.487168
Si Si2 0.939359 0.924015 0.247194
Si Si3 0.596134 0.063275 0.987462
Si Si4 0.203849 0.442820 0.707774
Si Si5 0.390033 0.840522 0.256392
Si Si6 0.122451 0.194432 0.937928
Si Si7 0.142971 0.794565 0.346495
O O1 0.050732 0.064755 0.282184
O O2 0.267318 0.063762 0.745636
O O3 0.252644 0.063516 0.412390
O O4 0.185644 0.150039 0.493384
O O5 0.000000 0.940564 0.500000
O O6 0.919135 0.858909 0.217747
O O7 0.813772 0.944031 0.992383
O O8 0.577401 0.000000 0.899926
O O9 0.500000 0.070028 0.000000
O O10 0.589339 0.118864 0.868730
O O11 0.135927 0.500000 0.627332
O O12 0.133794 0.387839 0.646151
O O13 0.500000 0.808661 0.500000
O O14 0.266352 0.803011 0.077126
O O15 0.989354 0.226873 0.766660
O O16 0.135184 0.186238 0.148701
O O17 0.250000 0.750000 0.500000
#
# Coordination Sequence:
#
# PCOD9197531 Si02
#       7
#     8   8   8   8   8   8   8
#     4  11  20  38  62  91 129 179 226 292 363 425
#     4  10  20  35  60  88 131 182 221 278 346 414
#     4  11  25  41  60  97 139 185 248 303 353 429
#     4  11  22  35  57  93 132 180 236 287 346 422
#     4  11  22  40  66  93 135 190 232 286 354 434
#     4   9  20  41  64 101 135 172 231 283 350 441
#     4  10  20  40  73 103 131 175 227 299 363 431
#
# _framework density 25.420231000000001
#
# number of rings (size 3 to 8) (size 9 to 14) (size 15 to 20)
#    0.000    1.571    2.857    3.857    0.000    4.286 
#    2.571    0.000    0.000   16.286    0.000    0.000 
#    0.000    0.000    0.000    0.000    0.000    0.000 
#
# Total GULP energy -155995.716562 kJ/mol
# GULP energy per Si atom -5571.275592 kJ/mol
# Density = 2.536237 g / cm^3
# Si number density = 25.420231 Si / 1000 Ang^3
#
#
#
# Elastic Constant Matrix: (Units=GPa)
#
#
# Indices 1 2 3 4 5 6 
#
# 1 117.4721 26.9531 45.6872 0.0000 11.4798 0.0000
# 2 26.9531 98.5680 42.7433 0.0000 8.9430 0.0000
# 3 45.6872 42.7433 169.3542 0.0000 15.7086 0.0000
# 4 0.0000 0.0000 0.0000 0.5002 0.0000 8.6820
# 5 11.4798 8.9430 15.7086 0.0000 55.4925 0.0000
# 6 0.0000 0.0000 0.0000 8.6820 0.0000 25.4073
#
#
#
# Elastic Compliance Matrix: (Units=1/GPa)
#
#
# Indices 1 2 3 4 5 6 
#
# 1 0.009834 -0.001662 -0.002126 0.000000 -0.001165 0.000000
# 2 -0.001662 0.011733 -0.002433 0.000000 -0.000858 0.000000
# 3 -0.002126 -0.002433 0.007204 0.000000 -0.001208 0.000000
# 4 0.000000 0.000000 0.000000 -0.405416 0.000000 0.138536
# 5 -0.001165 -0.000858 -0.001208 0.000000 0.018742 0.000000
# 6 0.000000 0.000000 0.000000 0.138536 0.000000 -0.007981
#
#
# Mechanical properties :
#
#
# Convention : Reuss Voigt Hill
#
# Bulk Modulus (GPa) = 61.23620 68.46237 64.84928
# Shear Modulus (GPa) = -14.36787 34.28071 9.95642
#
# Velocity S-wave (km/s) = -2.38000 3.67626 1.98122
# Velocity P-wave (km/s) = 4.07300 6.70899 5.54977
#
# Compressibility (1/GPa) = 0.01633021
#
# Stress axis : x y z
#
# Youngs Moduli (GPa) = 101.68317 85.23159 138.80479
#
# Poissons Ratio (x) = 0.14163 0.29504
# Poissons Ratio (y) = 0.16897 0.33776
# Poissons Ratio (z) = 0.21614 0.20740
#
# Static dielectric constant tensor:
#      x y z
#    x 2.126230 0.000000 0.045610 
#    y 0.000000 2.003150 0.000000 
#    z 0.045610 0.000000 1.987280 
# 
# From -- ./inp_files/80504.got.cif
#   From: 2010.05.17/outbox.cif.g08.bks.cpg/sg12_41_cif.got.tgz:80504.got - 2010.06.03 13:09:07.
