data_PCOD9197607
_publ_section_title
;
Structure prediction by ZEFSAII (Michael W. Deem and Ramdas Pophale) SiO2 
 PCOD9197607
Probable space group: C 2/M
;
_chemical_formula_sum "Si O2"
_cell_formula_units_Z 64
_cell_length_a 15.044634
_cell_length_b 8.803502
_cell_length_c 28.870439
_cell_angle_alpha 90.000000
_cell_angle_beta 129.958319
_cell_angle_gamma 90.000000
_cell_volume 2930.956378
_symmetry_space_group_name_H-M "C 2/M"
_symmetry_group_IT_number 12
_symmetry_cell_setting 'monoclinic'
loop_
_space_group_symop_operation_xyz
x,y,z
-x,y,-z
-x,-y,-z
x,-y,z
1/2+x,1/2+y,z
1/2-x,1/2+y,-z
1/2-x,1/2-y,-z
1/2+x,1/2-y,z
loop_
_atom_site_type_symbol
_atom_site_label
_atom_site_fract_x
_atom_site_fract_y
_atom_site_fract_z
Si Si1 0.152363 0.319907 0.362255
Si Si2 0.275993 0.319479 0.256754
Si Si3 0.434292 0.178190 0.231525
Si Si4 0.868421 0.675760 0.938533
Si Si5 0.850366 0.320003 0.099138
Si Si6 0.880726 0.184878 0.391027
Si Si7 0.374634 0.320048 0.551636
Si Si8 0.072416 0.821230 0.135953
O O1 0.153200 0.500000 0.374681
O O2 0.283285 0.269365 0.395108
O O3 0.101007 0.224161 0.387032
O O4 0.069506 0.304185 0.289960
O O5 0.257064 0.500000 0.252079
O O6 0.362184 0.276752 0.243806
O O7 0.331936 0.271022 0.324148
O O8 0.155287 0.239244 0.204300
O O9 0.402041 0.212036 0.167992
O O10 0.405132 0.000000 0.229900
O O11 0.842797 0.500000 0.918962
O O12 0.773362 0.737558 0.942510
O O13 0.865160 0.775255 0.890946
O O14 0.000000 0.685534 0.000000
O O15 0.836110 0.500000 0.088774
O O16 0.947790 0.258831 0.097254
O O17 0.013684 0.235636 0.439999
O O18 0.882395 0.000000 0.392692
O O19 0.366784 0.500000 0.543091
O O20 0.250000 0.250000 0.500000
O O21 0.058052 0.000000 0.134042
#
# Coordination Sequence:
#
# PCOD9197607 Si02
#       8
#     8   8   8   8   8   8   8   8
#     4  10  20  38  62  87 118 156 196 241 296 358
#     4  11  20  36  63  91 124 163 202 247 302 364
#     4  10  20  35  60  93 126 157 195 245 306 368
#     4  11  25  45  67  92 123 162 210 262 314 369
#     4  11  23  41  66  95 128 166 207 254 309 368
#     4   9  20  38  61  87 118 158 198 239 297 366
#     4  11  23  41  60  84 115 153 203 250 301 356
#     4  12  25  41  63  94 129 166 208 253 308 371
#
# _framework density 21.835875000000001
#
# number of rings (size 3 to 8) (size 9 to 14) (size 15 to 20)
#    0.000    1.375    2.500    3.375    0.000    4.500 
#    0.000    6.250    0.000    0.000    0.000    0.000 
#    0.000    0.000    0.000    0.000    0.000    0.000 
#
# Total GULP energy -178971.096968 kJ/mol
# GULP energy per Si atom -5592.846780 kJ/mol
# Density = 2.178618 g / cm^3
# Si number density = 21.835875 Si / 1000 Ang^3
#
#
#
# Elastic Constant Matrix: (Units=GPa)
#
#
# Indices 1 2 3 4 5 6 
#
# 1 108.2606 12.5470 1.2464 0.0000 35.9282 0.0000
# 2 12.5470 50.8238 14.0264 0.0000 16.6544 0.0000
# 3 1.2464 14.0264 49.8332 0.0000 23.2321 0.0000
# 4 0.0000 0.0000 0.0000 23.5892 0.0000 4.8440
# 5 35.9282 16.6544 23.2321 0.0000 37.8055 0.0000
# 6 0.0000 0.0000 0.0000 4.8440 0.0000 33.1877
#
#
#
# Elastic Compliance Matrix: (Units=1/GPa)
#
#
# Indices 1 2 3 4 5 6 
#
# 1 0.016159 0.000397 0.009425 0.000000 -0.021323 0.000000
# 2 0.000397 0.023221 -0.002244 0.000000 -0.009228 0.000000
# 3 0.009425 -0.002244 0.033885 0.000000 -0.028792 0.000000
# 4 0.000000 0.000000 0.000000 0.043702 0.000000 -0.006379
# 5 -0.021323 -0.009228 -0.028792 0.000000 0.068474 0.000000
# 6 0.000000 0.000000 0.000000 -0.006379 0.000000 0.031063
#
#
# Mechanical properties :
#
#
# Convention : Reuss Voigt Hill
#
# Bulk Modulus (GPa) = 11.30943 29.39523 20.35233
# Shear Modulus (GPa) = 21.66179 30.98966 26.32573
#
# Velocity S-wave (km/s) = 3.15306 3.77133 3.47597
# Velocity P-wave (km/s) = 4.29491 5.69693 5.04486
#
# Compressibility (1/GPa) = 0.08842175
#
# Stress axis : x y z
#
# Youngs Moduli (GPa) = 61.88522 43.06461 29.51132
#
# Poissons Ratio (x) = -0.01710 -0.27814
# Poissons Ratio (y) = -0.02458 0.06622
# Poissons Ratio (z) = -0.58326 0.09663
#
# Static dielectric constant tensor:
#      x y z
#    x 1.798130 0.000000 0.013970 
#    y 0.000000 1.728350 0.000000 
#    z 0.013970 0.000000 1.841150 
# 
# From -- ./inp_files/375555.got.cif
#   From: 2010.05.17/outbox.cif.g08.bks.cpg/sg12_188_cif.got.tgz:375555.got - 2010.06.03 13:09:07.
