data_PCOD9197505
_publ_section_title
;
Structure prediction by ZEFSAII (Michael W. Deem and Ramdas Pophale) SiO2 
 PCOD9197505
Probable space group: C 2/M
;
_chemical_formula_sum "Si O2"
_cell_formula_units_Z 56
_cell_length_a 14.810750
_cell_length_b 10.860286
_cell_length_c 16.262975
_cell_angle_alpha 90.000000
_cell_angle_beta 87.567089
_cell_angle_gamma 90.000000
_cell_volume 2613.525028
_symmetry_space_group_name_H-M "C 2/M"
_symmetry_group_IT_number 12
_symmetry_cell_setting 'monoclinic'
loop_
_space_group_symop_operation_xyz
x,y,z
-x,y,-z
-x,-y,-z
x,-y,z
1/2+x,1/2+y,z
1/2-x,1/2+y,-z
1/2-x,1/2-y,-z
1/2+x,1/2-y,z
loop_
_atom_site_type_symbol
_atom_site_label
_atom_site_fract_x
_atom_site_fract_y
_atom_site_fract_z
Si Si1 0.194698 0.137607 0.965241
Si Si2 0.390398 0.638495 0.205589
Si Si3 0.357103 0.139212 0.768888
Si Si4 0.442685 0.137945 0.315707
Si Si5 0.408209 0.365358 0.874841
Si Si6 0.597158 0.278137 0.523223
Si Si7 0.274740 0.137979 0.603882
O O1 0.175028 0.152007 0.869935
O O2 0.234520 0.000000 0.976115
O O3 0.250000 0.250000 0.000000
O O4 0.105912 0.140006 0.026866
O O5 0.379363 0.500000 0.242657
O O6 0.394953 0.754777 0.265461
O O7 0.489248 0.637731 0.158669
O O8 0.452741 0.142242 0.715992
O O9 0.361415 0.249068 0.833403
O O10 0.282543 0.157967 0.701163
O O11 0.349388 0.000000 0.803174
O O12 0.430952 0.170528 0.411921
O O13 0.408443 0.000000 0.300412
O O14 0.370706 0.500000 0.849725
O O15 0.500000 0.334722 0.500000
O O16 0.656156 0.229273 0.444515
O O17 0.673909 0.352114 0.570954
O O18 0.308123 0.000000 0.587162
#
# Coordination Sequence:
#
# PCOD9197505 Si02
#       7
#     8   8   8   8   8   8   8
#     4  10  21  36  55  80 111 149 189 232 282 339
#     4   9  19  37  59  82 111 148 190 232 286 346
#     4   9  18  35  58  84 114 149 191 237 291 351
#     4  10  20  35  60  87 112 148 194 242 291 349
#     4   9  18  35  59  83 110 146 188 235 282 336
#     4  11  22  38  61  86 117 156 201 249 299 357
#     4  10  22  39  59  85 118 158 201 246 299 358
#
# _framework density 21.427001000000001
#
# number of rings (size 3 to 8) (size 9 to 14) (size 15 to 20)
#    0.000    2.286    1.429    0.857    0.000    5.429 
#    0.000    7.857    0.000    4.286    0.000    0.000 
#    0.000    0.000    0.000    0.000    0.000    0.000 
#
# Total GULP energy -156212.555306 kJ/mol
# GULP energy per Si atom -5579.019832 kJ/mol
# Density = 2.137823 g / cm^3
# Si number density = 21.427001 Si / 1000 Ang^3
#
#
#
# Elastic Constant Matrix: (Units=GPa)
#
#
# Indices 1 2 3 4 5 6 
#
# 1 100.5360 41.2466 6.9398 0.0000 11.3108 0.0000
# 2 41.2466 140.4934 52.6397 0.0000 25.3691 0.0000
# 3 6.9398 52.6397 82.6813 0.0000 6.7743 0.0000
# 4 0.0000 0.0000 0.0000 23.2283 0.0000 4.2920
# 5 11.3108 25.3691 6.7743 0.0000 40.0512 0.0000
# 6 0.0000 0.0000 0.0000 4.2920 0.0000 22.0874
#
#
#
# Elastic Compliance Matrix: (Units=1/GPa)
#
#
# Indices 1 2 3 4 5 6 
#
# 1 0.011504 -0.003736 0.001506 0.000000 -0.001137 0.000000
# 2 -0.003736 0.011657 -0.006682 0.000000 -0.005198 0.000000
# 3 0.001506 -0.006682 0.016134 0.000000 0.001078 0.000000
# 4 0.000000 0.000000 0.000000 0.044654 0.000000 -0.008677
# 5 -0.001137 -0.005198 0.001078 0.000000 0.028399 0.000000
# 6 0.000000 0.000000 0.000000 -0.008677 0.000000 0.046961
#
#
# Mechanical properties :
#
#
# Convention : Reuss Voigt Hill
#
# Bulk Modulus (GPa) = 46.57545 58.37366 52.47455
# Shear Modulus (GPa) = 27.13118 31.93235 29.53176
#
# Velocity S-wave (km/s) = 3.56225 3.86461 3.71651
# Velocity P-wave (km/s) = 6.22121 6.87137 6.55436
#
# Compressibility (1/GPa) = 0.02147054
#
# Stress axis : x y z
#
# Youngs Moduli (GPa) = 86.93000 85.78556 61.98093
#
# Poissons Ratio (x) = 0.32053 -0.09337
# Poissons Ratio (y) = 0.32480 0.41416
# Poissons Ratio (z) = -0.13095 0.57322
#
# Static dielectric constant tensor:
#      x y z
#    x 1.838620 0.000000 -0.032210 
#    y 0.000000 1.746960 0.000000 
#    z -0.032210 0.000000 1.765930 
# 
# From -- ./inp_files/213384.got.cif
#   From: 2010.05.17/outbox.cif.g08.bks.cpg/sg12_107_cif.got.tgz:213384.got - 2010.06.03 13:09:07.
