data_PCOD9197074
_publ_section_title
;
Structure prediction by ZEFSAII (Michael W. Deem and Ramdas Pophale) SiO2 
 PCOD9197074
Probable space group: C 2/M
;
_chemical_formula_sum "Si O2"
_cell_formula_units_Z 64
_cell_length_a 24.348128
_cell_length_b 7.792689
_cell_length_c 29.641928
_cell_angle_alpha 90.000000
_cell_angle_beta 147.416860
_cell_angle_gamma 90.000000
_cell_volume 3028.750590
_symmetry_space_group_name_H-M "C 2/M"
_symmetry_group_IT_number 12
_symmetry_cell_setting 'monoclinic'
loop_
_space_group_symop_operation_xyz
x,y,z
-x,y,-z
-x,-y,-z
x,-y,z
1/2+x,1/2+y,z
1/2-x,1/2+y,-z
1/2-x,1/2-y,-z
1/2+x,1/2-y,z
loop_
_atom_site_type_symbol
_atom_site_label
_atom_site_fract_x
_atom_site_fract_y
_atom_site_fract_z
Si Si1 0.102665 0.709171 0.597846
Si Si2 0.898500 0.707338 0.903421
Si Si3 0.469709 0.705324 0.854511
Si Si4 0.294292 0.710424 0.670797
Si Si5 0.800707 0.706666 0.487887
Si Si6 0.531829 0.796334 0.644356
Si Si7 0.701001 0.704577 0.013971
Si Si8 0.793981 0.797681 0.172797
O O1 0.106355 0.500000 0.600181
O O2 0.203128 0.765819 0.641079
O O3 0.091754 0.770142 0.641714
O O4 0.000000 0.757603 0.500000
O O5 0.897468 0.500000 0.904596
O O6 0.910094 0.759662 0.859667
O O7 0.798227 0.773143 0.859783
O O8 0.000000 0.766645 0.000000
O O9 0.477851 0.500000 0.855378
O O10 0.401421 0.769204 0.765661
O O11 0.584941 0.774372 0.936898
O O12 0.295575 0.500000 0.671665
O O13 0.264766 0.767750 0.600261
O O14 0.805089 0.500000 0.487314
O O15 0.750000 0.750000 0.500000
O O16 0.916986 0.773003 0.566452
O O17 0.598581 0.769570 0.734949
O O18 0.522218 0.000000 0.630866
O O19 0.696244 0.500000 0.014127
O O20 0.766438 0.765741 0.101894
O O21 0.750000 0.750000 0.000000
O O22 0.796635 0.000000 0.181745
#
# Coordination Sequence:
#
# PCOD9197074 Si02
#       8
#     8   8   8   8   8   8   8   8
#     4   9  14  26  53  85 112 141 176 222 280 334
#     4  10  20  36  58  84 118 155 186 226 290 354
#     4  10  21  36  59  89 115 145 190 237 282 337
#     4   9  17  32  54  82 113 142 176 225 279 331
#     4  10  21  37  57  81 113 151 191 232 280 338
#     4  10  20  35  58  87 115 145 189 240 287 340
#     4  11  24  41  60  84 115 152 196 243 291 341
#     4  11  23  39  60  85 116 155 194 235 291 351
#
# _framework density 21.130824
#
# number of rings (size 3 to 8) (size 9 to 14) (size 15 to 20)
#    0.000    2.000    2.500    1.500    0.000    4.250 
#    0.000    1.875    0.000    1.125    0.000    0.000 
#    0.000    0.000    0.000    0.000    0.000    0.000 
#
# Total GULP energy -178768.887824 kJ/mol
# GULP energy per Si atom -5586.527745 kJ/mol
# Density = 2.108273 g / cm^3
# Si number density = 21.130824 Si / 1000 Ang^3
#
#
#
# Elastic Constant Matrix: (Units=GPa)
#
#
# Indices 1 2 3 4 5 6 
#
# 1 110.9743 -11.1117 38.4683 0.0004 -31.4969 0.0003
# 2 -11.1117 23.1749 -6.4741 0.0014 3.6152 0.0010
# 3 38.4683 -6.4741 127.0746 -0.0005 -42.2197 -0.0002
# 4 0.0004 0.0014 -0.0005 2.8179 0.0001 -3.3575
# 5 -31.4969 3.6152 -42.2197 0.0001 19.8903 0.0004
# 6 0.0003 0.0010 -0.0002 -3.3575 0.0004 25.5258
#
#
#
# Elastic Compliance Matrix: (Units=1/GPa)
#
#
# Indices 1 2 3 4 5 6 
#
# 1 0.025845 0.005148 0.019422 -0.000008 0.081217 -0.000003
# 2 0.005148 0.045511 0.002444 -0.000031 0.005068 -0.000006
# 3 0.019422 0.002444 0.041338 -0.000002 0.118056 -0.000002
# 4 -0.000008 -0.000031 -0.000002 0.420830 -0.000015 0.055353
# 5 0.081217 0.005068 0.118056 -0.000015 0.428554 -0.000009
# 6 -0.000003 -0.000006 -0.000002 0.055353 -0.000009 0.046457
#
#
# Mechanical properties :
#
#
# Convention : Reuss Voigt Hill
#
# Bulk Modulus (GPa) = 5.99798 33.66543 19.83171
# Shear Modulus (GPa) = 4.95010 25.66956 15.30983
#
# Velocity S-wave (km/s) = 1.53222 3.48917 2.69462
# Velocity P-wave (km/s) = 2.44436 5.67441 4.36885
#
# Compressibility (1/GPa) = 0.16672273
#
# Stress axis : x y z
#
# Youngs Moduli (GPa) = 38.69180 21.97290 24.19095
#
# Poissons Ratio (x) = -0.11312 -0.46984
# Poissons Ratio (y) = -0.19919 -0.05912
# Poissons Ratio (z) = -0.75148 -0.05370
#
# Static dielectric constant tensor:
#      x y z
#    x 1.733630 0.000000 0.007410 
#    y 0.000000 1.777180 0.000000 
#    z 0.007410 0.000000 1.765280 
# 
# From -- ./inp_files/382440.got.cif
#   From: 2010.05.17/outbox.cif.g08.bks.cpg/sg12_192_cif.got.tgz:382440.got - 2010.06.03 13:09:07.
