data_PCOD9197786
_publ_section_title
;
Structure prediction by ZEFSAII (Michael W. Deem and Ramdas Pophale) SiO2 
 PCOD9197786
Probable space group: C 2/M
;
_chemical_formula_sum "Si O2"
_cell_formula_units_Z 58
_cell_length_a 8.587106
_cell_length_b 29.875546
_cell_length_c 11.514530
_cell_angle_alpha 90.000000
_cell_angle_beta 88.867987
_cell_angle_gamma 90.000000
_cell_volume 2953.412584
_symmetry_space_group_name_H-M "C 2/M"
_symmetry_group_IT_number 12
_symmetry_cell_setting 'monoclinic'
loop_
_space_group_symop_operation_xyz
x,y,z
-x,y,-z
-x,-y,-z
x,-y,z
1/2+x,1/2+y,z
1/2-x,1/2+y,-z
1/2-x,1/2-y,-z
1/2+x,1/2-y,z
loop_
_atom_site_type_symbol
_atom_site_label
_atom_site_fract_x
_atom_site_fract_y
_atom_site_fract_z
Si Si1 0.689489 0.353961 0.989566
Si Si2 0.204824 0.293893 0.797328
Si Si3 0.413532 0.653286 0.612205
Si Si4 0.630622 0.426933 0.683347
Si Si5 0.666581 0.805076 0.230654
Si Si6 0.500000 0.500000 0.500000
Si Si7 0.174306 0.048280 0.949232
Si Si8 0.834721 0.631537 0.559563
O O1 0.754590 0.320232 0.085285
O O2 0.500000 0.352153 0.000000
O O3 0.759178 0.338199 0.865635
O O4 0.740730 0.405869 0.002760
O O5 0.319300 0.314915 0.698630
O O6 0.248961 0.241792 0.796009
O O7 0.020456 0.300067 0.778469
O O8 0.500000 0.676163 0.500000
O O9 0.524917 0.618478 0.677324
O O10 0.284574 0.625702 0.544067
O O11 0.555947 0.461242 0.593957
O O12 0.649639 0.444624 0.812287
O O13 0.801748 0.411236 0.639518
O O14 0.694052 0.825263 0.358465
O O15 0.251940 0.000000 0.970957
O O16 0.000000 0.045781 0.000000
O O17 0.000000 0.635010 0.500000
#
# Coordination Sequence:
#
# PCOD9197786 Si02
#       8
#     8   8   8   8   8   2   8   8
#     4  11  23  43  66  91 128 166 213 271 326 381
#     4  12  26  42  63  92 126 166 222 266 330 392
#     4  10  22  38  62  89 125 171 203 263 321 383
#     4  11  21  39  67  94 136 166 218 267 320 388
#     4  12  26  41  65  92 125 171 216 275 322 393
#     4  12  20  36  68 104 120 176 218 266 310 378
#     4  10  20  35  65 101 126 162 211 267 321 378
#     4  11  22  42  61  92 131 173 214 261 337 386
#
# _framework density 19.638299
#
# number of rings (size 3 to 8) (size 9 to 14) (size 15 to 20)
#    0.000    0.966    5.517    3.310    5.793    1.103 
#    0.000    0.345    0.000    1.655    0.000    0.000 
#    0.000    0.000    0.000    0.000    0.000    0.000 
#
# Total GULP energy -161464.409048 kJ/mol
# GULP energy per Si atom -5567.738243 kJ/mol
# Density = 1.959360 g / cm^3
# Si number density = 19.638299 Si / 1000 Ang^3
#
#
#
# Elastic Constant Matrix: (Units=GPa)
#
#
# Indices 1 2 3 4 5 6 
#
# 1 77.2133 33.7086 14.6507 0.0000 -5.7787 0.0000
# 2 33.7086 128.2251 21.1773 0.0000 -12.0398 0.0000
# 3 14.6507 21.1773 74.0583 0.0000 -18.7400 0.0000
# 4 0.0000 0.0000 0.0000 225.1389 0.0000 -156.6950
# 5 -5.7787 -12.0398 -18.7400 0.0000 33.7902 0.0000
# 6 0.0000 0.0000 0.0000 -156.6950 0.0000 144.2056
#
#
#
# Elastic Compliance Matrix: (Units=1/GPa)
#
#
# Indices 1 2 3 4 5 6 
#
# 1 0.014886 -0.003584 -0.001860 0.000000 0.000237 0.000000
# 2 -0.003584 0.009152 -0.001440 0.000000 0.001849 0.000000
# 3 -0.001860 -0.001440 0.016370 0.000000 0.008247 0.000000
# 4 0.000000 0.000000 0.000000 0.018224 0.000000 0.019802
# 5 0.000237 0.001849 0.008247 0.000000 0.034868 0.000000
# 6 0.000000 0.000000 0.000000 0.019802 0.000000 0.028452
#
#
# Mechanical properties :
#
#
# Convention : Reuss Voigt Hill
#
# Bulk Modulus (GPa) = 37.53735 46.50775 42.02255
# Shear Modulus (GPa) = 34.57795 94.62427 64.60111
#
# Velocity S-wave (km/s) = 4.20067 6.94897 5.74168
# Velocity P-wave (km/s) = 6.53325 9.38711 8.08706
#
# Compressibility (1/GPa) = 0.02664013
#
# Stress axis : x y z
#
# Youngs Moduli (GPa) = 67.17516 109.26006 61.08877
#
# Poissons Ratio (x) = 0.39158 0.11363
# Poissons Ratio (y) = 0.24075 0.08798
# Poissons Ratio (z) = 0.12495 0.15736
#
# Static dielectric constant tensor:
#      x y z
#    x 1.708810 0.000000 -0.027240 
#    y 0.000000 1.728290 0.000000 
#    z -0.027240 0.000000 1.719200 
# 
# From -- ./inp_files/125271.got.cif
#   From: 2010.05.17/outbox.cif.g08.bks.cpg/sg12_63_cif.got.tgz:125271.got - 2010.06.03 13:09:07.
