data_PCOD9197210
_publ_section_title
;
Structure prediction by ZEFSAII (Michael W. Deem and Ramdas Pophale) SiO2 
 PCOD9197210
Probable space group: C 2/M
;
_chemical_formula_sum "Si O2"
_cell_formula_units_Z 56
_cell_length_a 13.902226
_cell_length_b 24.126972
_cell_length_c 13.881512
_cell_angle_alpha 90.000000
_cell_angle_beta 142.018537
_cell_angle_gamma 90.000000
_cell_volume 2865.404998
_symmetry_space_group_name_H-M "C 2/M"
_symmetry_group_IT_number 12
_symmetry_cell_setting 'monoclinic'
loop_
_space_group_symop_operation_xyz
x,y,z
-x,y,-z
-x,-y,-z
x,-y,z
1/2+x,1/2+y,z
1/2-x,1/2+y,-z
1/2-x,1/2-y,-z
1/2+x,1/2-y,z
loop_
_atom_site_type_symbol
_atom_site_label
_atom_site_fract_x
_atom_site_fract_y
_atom_site_fract_z
Si Si1 0.095283 0.435894 0.675414
Si Si2 0.131640 0.265889 0.823159
Si Si3 0.488452 0.562540 0.328570
Si Si4 0.887421 0.830290 0.653326
Si Si5 0.259311 0.937577 0.708355
Si Si6 0.080052 0.367601 0.303890
Si Si7 0.677985 0.667488 0.176972
O O1 0.142989 0.500000 0.729026
O O2 0.234488 0.390980 0.775344
O O3 0.000000 0.433491 0.500000
O O4 0.979279 0.414775 0.668423
O O5 0.224227 0.285084 0.801208
O O6 0.004336 0.217401 0.710067
O O7 0.047060 0.320471 0.795185
O O8 0.250000 0.250000 0.000000
O O9 0.481522 0.500000 0.283713
O O10 0.523641 0.610551 0.281265
O O11 0.331995 0.574639 0.265628
O O12 0.627265 0.562659 0.518720
O O13 0.737081 0.838676 0.467635
O O14 0.828707 0.820453 0.714860
O O15 0.385805 0.894516 0.771997
O O16 0.321533 0.000000 0.762923
O O17 0.500000 0.666067 0.000000
#
# Coordination Sequence:
#
# PCOD9197210 Si02
#       7
#     8   8   8   8   8   8   8
#     4  10  20  35  58  91 123 154 193 237 291 354
#     4  11  24  40  57  79 113 156 199 243 294 350
#     4   8  16  30  53  85 119 146 181 231 286 346
#     4  11  21  38  60  89 112 151 196 242 297 350
#     4   8  14  29  53  84 118 148 179 229 286 338
#     4  10  20  35  60  89 117 150 196 242 292 343
#     4  11  23  41  61  80 119 157 201 248 296 353
#
# _framework density 19.543485
#
# number of rings (size 3 to 8) (size 9 to 14) (size 15 to 20)
#    0.000    2.143    2.857    1.714    0.000    2.571 
#    0.000    2.857    0.000    0.000    0.000    2.000 
#    0.000    0.000    0.000    0.000    0.000    0.000 
#
# Total GULP energy -156257.234734 kJ/mol
# GULP energy per Si atom -5580.615526 kJ/mol
# Density = 1.949900 g / cm^3
# Si number density = 19.543485 Si / 1000 Ang^3
#
#
#
# Elastic Constant Matrix: (Units=GPa)
#
#
# Indices 1 2 3 4 5 6 
#
# 1 125.2868 83.3117 26.9444 0.0000 4.8383 0.0000
# 2 83.3117 111.6503 22.9047 0.0000 -0.5078 0.0000
# 3 26.9444 22.9047 26.1292 0.0000 6.4106 0.0000
# 4 0.0000 0.0000 0.0000 3.2365 0.0000 -7.2642
# 5 4.8383 -0.5078 6.4106 0.0000 21.6918 0.0000
# 6 0.0000 0.0000 0.0000 -7.2642 0.0000 30.6578
#
#
#
# Elastic Compliance Matrix: (Units=1/GPa)
#
#
# Indices 1 2 3 4 5 6 
#
# 1 0.017141 -0.011303 -0.007294 0.000000 -0.001932 0.000000
# 2 -0.011303 0.018601 -0.005795 0.000000 0.004669 0.000000
# 3 -0.007294 -0.005795 0.054455 0.000000 -0.014602 0.000000
# 4 0.000000 0.000000 0.000000 0.659949 0.000000 0.156370
# 5 -0.001932 0.004669 -0.014602 0.000000 0.050956 0.000000
# 6 0.000000 0.000000 0.000000 0.156370 0.000000 0.069669
#
#
# Mechanical properties :
#
#
# Convention : Reuss Voigt Hill
#
# Bulk Modulus (GPa) = 24.14683 58.82089 41.48386
# Shear Modulus (GPa) = 5.35700 19.77758 12.56729
#
# Velocity S-wave (km/s) = 1.65741 3.18461 2.53858
# Velocity P-wave (km/s) = 4.00561 6.60947 5.46489
#
# Compressibility (1/GPa) = 0.04141331
#
# Stress axis : x y z
#
# Youngs Moduli (GPa) = 58.34007 53.76168 18.36367
#
# Poissons Ratio (x) = 0.60766 0.13394
# Poissons Ratio (y) = 0.65940 0.10642
# Poissons Ratio (z) = 0.42551 0.31157
#
# Static dielectric constant tensor:
#      x y z
#    x 1.696410 0.000000 0.023860 
#    y 0.000000 1.690760 0.000000 
#    z 0.023860 0.000000 1.720030 
# 
# From -- ./inp_files/137025.got.cif
#   From: 2010.05.17/outbox.cif.g08.bks.cpg/sg12_69_cif.got.tgz:137025.got - 2010.06.03 13:09:07.
