data_PCOD9197206
_publ_section_title
;
Structure prediction by ZEFSAII (Michael W. Deem and Ramdas Pophale) SiO2 
 PCOD9197206
Probable space group: C 2/M
;
_chemical_formula_sum "Si O2"
_cell_formula_units_Z 56
_cell_length_a 22.714874
_cell_length_b 21.793765
_cell_length_c 18.926304
_cell_angle_alpha 90.000000
_cell_angle_beta 162.913112
_cell_angle_gamma 90.000000
_cell_volume 2752.910593
_symmetry_space_group_name_H-M "C 2/M"
_symmetry_group_IT_number 12
_symmetry_cell_setting 'monoclinic'
loop_
_space_group_symop_operation_xyz
x,y,z
-x,y,-z
-x,-y,-z
x,-y,z
1/2+x,1/2+y,z
1/2-x,1/2+y,-z
1/2-x,1/2-y,-z
1/2+x,1/2-y,z
loop_
_atom_site_type_symbol
_atom_site_label
_atom_site_fract_x
_atom_site_fract_y
_atom_site_fract_z
Si Si1 0.240911 0.571357 0.861539
Si Si2 0.489845 0.748997 0.778420
Si Si3 0.522728 0.337039 0.946668
Si Si4 0.159931 0.568673 0.514049
Si Si5 0.035511 0.613759 0.224615
Si Si6 0.869192 0.927179 0.283163
Si Si7 0.497242 0.370959 0.711578
O O1 0.270423 0.500000 0.878396
O O2 0.016556 0.579432 0.632542
O O3 0.297548 0.615391 0.861868
O O4 0.389118 0.591110 0.096076
O O5 0.250000 0.750000 0.500000
O O6 0.544660 0.717028 0.915440
O O7 0.543942 0.819940 0.839697
O O8 0.552059 0.700398 0.789811
O O9 0.325752 0.378450 0.705688
O O10 0.500000 0.314661 0.000000
O O11 0.243809 0.500000 0.621195
O O12 0.059505 0.572227 0.321557
O O13 0.257496 0.621167 0.446959
O O14 0.866742 0.587106 0.979904
O O15 0.000000 0.906530 0.500000
O O16 0.939942 0.894908 0.292355
O O17 0.896452 0.000000 0.306159
#
# Coordination Sequence:
#
# PCOD9197206 Si02
#       7
#     8   8   8   8   8   8   8
#     4  10  20  35  58  91 121 154 203 245 288 362
#     4   9  19  41  64  89 115 156 206 254 288 357
#     4  11  23  40  59  88 125 161 194 248 310 352
#     4  11  21  35  62  92 120 159 203 246 297 361
#     4  11  21  40  66  90 117 159 210 249 302 360
#     4  11  25  42  59  91 131 158 197 261 316 357
#     4  10  20  37  64  91 116 158 204 249 299 362
#
# _framework density 20.342106999999999
#
# number of rings (size 3 to 8) (size 9 to 14) (size 15 to 20)
#    0.000    1.571    5.714    1.286    0.000    4.571 
#    5.143    2.857    0.000    0.000    0.000    0.000 
#    0.000    0.000    0.000    0.000    0.000    0.000 
#
# Total GULP energy -156375.533668 kJ/mol
# GULP energy per Si atom -5584.840488 kJ/mol
# Density = 2.029581 g / cm^3
# Si number density = 20.342107 Si / 1000 Ang^3
#
#
#
# Elastic Constant Matrix: (Units=GPa)
#
#
# Indices 1 2 3 4 5 6 
#
# 1 75.5279 18.3059 16.5898 0.0007 0.9217 0.0003
# 2 18.3059 79.1572 -1.8240 0.0006 4.1517 0.0002
# 3 16.5898 -1.8240 69.0771 0.0016 3.9335 0.0011
# 4 0.0007 0.0006 0.0016 -6.8545 0.0008 -11.3710
# 5 0.9217 4.1517 3.9335 0.0008 35.0296 0.0004
# 6 0.0003 0.0002 0.0011 -11.3710 0.0004 7.5065
#
#
#
# Elastic Compliance Matrix: (Units=1/GPa)
#
#
# Indices 1 2 3 4 5 6 
#
# 1 0.014909 -0.003557 -0.003700 0.000000 0.000445 0.000000
# 2 -0.003557 0.013573 0.001307 0.000000 -0.001662 0.000000
# 3 -0.003700 0.001307 0.015502 0.000002 -0.001798 0.000001
# 4 0.000000 0.000000 0.000002 -0.041529 0.000002 -0.062909
# 5 0.000445 -0.001662 -0.001798 0.000002 0.028934 0.000001
# 6 0.000000 0.000000 0.000001 -0.062909 0.000001 0.037922
#
#
# Mechanical properties :
#
#
# Convention : Reuss Voigt Hill
#
# Bulk Modulus (GPa) = 31.16645 32.21172 31.68908
# Shear Modulus (GPa) = 54.40368 19.84902 37.12635
#
# Velocity S-wave (km/s) = 5.17711 3.12711 4.27675
# Velocity P-wave (km/s) = 7.14780 5.37659 6.32451
#
# Compressibility (1/GPa) = 0.03208579
#
# Stress axis : x y z
#
# Youngs Moduli (GPa) = 67.07171 73.67645 64.50748
#
# Poissons Ratio (x) = 0.26203 0.23867
# Poissons Ratio (y) = 0.23854 -0.08432
# Poissons Ratio (z) = 0.24816 -0.09631
#
# Static dielectric constant tensor:
#      x y z
#    x 1.727710 0.000000 -0.004460 
#    y 0.000000 1.264360 0.000000 
#    z -0.004460 0.000000 1.751160 
# 
# From -- ./inp_files/286050.got.cif
#   From: 2010.05.17/outbox.cif.g08.bks.cpg/sg12_144_cif.got.tgz:286050.got - 2010.06.03 13:09:07.
