data_PCOD9197319
_publ_section_title
;
Structure prediction by ZEFSAII (Michael W. Deem and Ramdas Pophale) SiO2 
 PCOD9197319
Probable space group: C 2/M
;
_chemical_formula_sum "Si O2"
_cell_formula_units_Z 56
_cell_length_a 19.796105
_cell_length_b 14.688939
_cell_length_c 11.841507
_cell_angle_alpha 90.000000
_cell_angle_beta 65.390767
_cell_angle_gamma 90.000000
_cell_volume 3130.558173
_symmetry_space_group_name_H-M "C 2/M"
_symmetry_group_IT_number 12
_symmetry_cell_setting 'monoclinic'
loop_
_space_group_symop_operation_xyz
x,y,z
-x,y,-z
-x,-y,-z
x,-y,z
1/2+x,1/2+y,z
1/2-x,1/2+y,-z
1/2-x,1/2-y,-z
1/2+x,1/2-y,z
loop_
_atom_site_type_symbol
_atom_site_label
_atom_site_fract_x
_atom_site_fract_y
_atom_site_fract_z
Si Si1 0.460689 0.601131 0.146151
Si Si2 0.380440 0.190699 0.409886
Si Si3 0.895651 0.500000 0.680338
Si Si4 0.563115 0.000000 0.614077
Si Si5 0.078556 0.393281 0.009369
Si Si6 0.666508 0.751000 0.792926
Si Si7 0.458367 0.252943 0.767347
Si Si8 0.331160 0.804757 0.702655
O O1 0.440717 0.500000 0.203371
O O2 0.390989 0.666707 0.169521
O O3 0.519057 0.655361 0.183639
O O4 0.500000 0.591365 0.000000
O O5 0.330841 0.227248 0.342755
O O6 0.464475 0.229794 0.349952
O O7 0.347353 0.199527 0.557259
O O8 0.397085 0.087100 0.366018
O O9 0.920799 0.500000 0.531328
O O10 0.849539 0.408128 0.728572
O O11 0.974377 0.500000 0.690898
O O12 0.101387 0.500000 0.015423
O O13 0.133103 0.334683 0.889430
O O14 0.062495 0.327112 0.128206
O O15 0.000000 0.398108 0.000000
O O16 0.746781 0.722980 0.782099
O O17 0.390375 0.256765 0.728289
#
# Coordination Sequence:
#
# PCOD9197319 Si02
#       8
#     8   8   4   4   8   8   8   8
#     4  10  20  40  62  80 106 150 207 242 269 334
#     4  10  20  35  59  87 115 160 194 236 289 347
#     4   9  18  32  50  87 117 150 185 239 291 337
#     4   9  16  30  56  84 113 143 202 233 277 343
#     4  11  22  38  61  90 117 153 199 242 295 352
#     4  11  22  39  59  85 122 154 196 236 297 349
#     4  11  20  37  62  86 117 152 199 238 291 343
#     4  11  23  35  56  88 128 152 188 240 301 356
#
# _framework density 17.888183000000001
#
# number of rings (size 3 to 8) (size 9 to 14) (size 15 to 20)
#    0.000    1.571    5.714    0.857    4.000    0.571 
#    0.000    0.714    0.000    7.714    0.000    0.000 
#    0.000    0.000    0.000    0.000    0.000    0.000 
#
# Total GULP energy -156033.848331 kJ/mol
# GULP energy per Si atom -5572.637440 kJ/mol
# Density = 1.784747 g / cm^3
# Si number density = 17.888183 Si / 1000 Ang^3
#
#
#
# Elastic Constant Matrix: (Units=GPa)
#
#
# Indices 1 2 3 4 5 6 
#
# 1 98.6759 38.2415 11.4511 0.0000 -18.8019 0.0000
# 2 38.2415 120.8163 28.0951 0.0000 -11.5444 0.0000
# 3 11.4511 28.0951 53.4160 0.0000 -6.2088 0.0000
# 4 0.0000 0.0000 0.0000 17.0598 0.0000 -0.3214
# 5 -18.8019 -11.5444 -6.2088 0.0000 13.5903 0.0000
# 6 0.0000 0.0000 0.0000 -0.3214 0.0000 15.7639
#
#
#
# Elastic Compliance Matrix: (Units=1/GPa)
#
#
# Indices 1 2 3 4 5 6 
#
# 1 0.014677 -0.003057 0.000549 0.000000 0.017960 0.000000
# 2 -0.003057 0.010566 -0.004594 0.000000 0.002647 0.000000
# 3 0.000549 -0.004594 0.021813 0.000000 0.006822 0.000000
# 4 0.000000 0.000000 0.000000 0.058640 0.000000 0.001196
# 5 0.017960 0.002647 0.006822 0.000000 0.103794 0.000000
# 6 0.000000 0.000000 0.000000 0.001196 0.000000 0.063460
#
#
# Mechanical properties :
#
#
# Convention : Reuss Voigt Hill
#
# Bulk Modulus (GPa) = 30.44044 47.60927 39.02486
# Shear Modulus (GPa) = 16.77256 22.29083 19.53169
#
# Velocity S-wave (km/s) = 3.06540 3.53387 3.30794
# Velocity P-wave (km/s) = 5.43902 6.58208 6.03766
#
# Compressibility (1/GPa) = 0.03285103
#
# Stress axis : x y z
#
# Youngs Moduli (GPa) = 68.13186 94.64275 45.84480
#
# Poissons Ratio (x) = 0.28936 -0.02517
# Poissons Ratio (y) = 0.20830 0.21063
# Poissons Ratio (z) = -0.03741 0.43482
#
# Static dielectric constant tensor:
#      x y z
#    x 1.591940 0.000000 0.025630 
#    y 0.000000 1.678650 0.000000 
#    z 0.025630 0.000000 1.639120 
# 
# From -- ./inp_files/156578.got.cif
#   From: 2010.05.17/outbox.cif.g08.bks.cpg/sg12_79_cif.got.tgz:156578.got - 2010.06.03 13:09:07.
