data_PCOD9197799
_publ_section_title
;
Structure prediction by ZEFSAII (Michael W. Deem and Ramdas Pophale) SiO2 
 PCOD9197799
Probable space group: C 2/M
;
_chemical_formula_sum "Si O2"
_cell_formula_units_Z 52
_cell_length_a 14.397103
_cell_length_b 22.633126
_cell_length_c 8.552295
_cell_angle_alpha 90.000000
_cell_angle_beta 113.532473
_cell_angle_gamma 90.000000
_cell_volume 2555.012351
_symmetry_space_group_name_H-M "C 2/M"
_symmetry_group_IT_number 12
_symmetry_cell_setting 'monoclinic'
loop_
_space_group_symop_operation_xyz
x,y,z
-x,y,-z
-x,-y,-z
x,-y,z
1/2+x,1/2+y,z
1/2-x,1/2+y,-z
1/2-x,1/2-y,-z
1/2+x,1/2-y,z
loop_
_atom_site_type_symbol
_atom_site_label
_atom_site_fract_x
_atom_site_fract_y
_atom_site_fract_z
Si Si1 0.000000 0.671180 0.500000
Si Si2 0.694339 0.259813 0.626403
Si Si3 0.458434 0.850424 0.136577
Si Si4 0.770904 0.174217 0.937546
Si Si5 0.909016 0.129106 0.544008
Si Si6 0.024569 0.215237 0.844738
Si Si7 0.385186 0.567197 0.850547
O O1 0.095392 0.716436 0.566370
O O2 0.008176 0.631488 0.664105
O O3 0.750000 0.250000 0.500000
O O4 0.762572 0.225665 0.800783
O O5 0.671912 0.331153 0.606374
O O6 0.336515 0.842418 0.058212
O O7 0.499878 0.783508 0.168028
O O8 0.500000 0.876975 0.000000
O O9 0.815864 0.114697 0.892493
O O10 0.858302 0.201081 0.105784
O O11 0.879454 0.084179 0.661979
O O12 0.000000 0.103291 0.500000
O O13 0.961385 0.181490 0.676502
O O14 0.000000 0.192272 0.000000
O O15 0.350133 0.500000 0.849148
O O16 0.500000 0.569204 0.000000
#
# Coordination Sequence:
#
# PCOD9197799 Si02
#       7
#     4   8   8   8   8   8   8
#     4  10  20  36  44  78 122 152 188 224 296 368
#     4  11  19  31  55  82 118 156 187 236 305 366
#     4  10  22  33  52  80 120 156 191 239 295 372
#     4  11  20  36  57  83 114 161 201 242 296 357
#     4  12  20  35  55  86 127 155 186 243 306 355
#     4  11  18  34  53  81 123 157 188 228 289 372
#     4  11  23  41  62  82 112 162 210 243 285 346
#
# _framework density 20.352152
#
# number of rings (size 3 to 8) (size 9 to 14) (size 15 to 20)
#    0.000    1.077    6.923    1.385    2.154    0.308 
#    0.000    0.000    0.000    0.462    0.000    8.615 
#    0.000    0.000    0.000    0.923    0.000    0.000 
#
# Total GULP energy -144888.350159 kJ/mol
# GULP energy per Si atom -5572.628852 kJ/mol
# Density = 2.030583 g / cm^3
# Si number density = 20.352152 Si / 1000 Ang^3
#
#
#
# Elastic Constant Matrix: (Units=GPa)
#
#
# Indices 1 2 3 4 5 6 
#
# 1 62.9856 6.6581 10.1674 0.0000 -16.6372 0.0000
# 2 6.6581 81.4700 10.2856 0.0000 -3.0034 0.0000
# 3 10.1674 10.2856 97.2209 0.0000 -11.1086 0.0000
# 4 0.0000 0.0000 0.0000 12.5022 0.0000 1.5844
# 5 -16.6372 -3.0034 -11.1086 0.0000 37.9413 0.0000
# 6 0.0000 0.0000 0.0000 1.5844 0.0000 14.5483
#
#
#
# Elastic Compliance Matrix: (Units=1/GPa)
#
#
# Indices 1 2 3 4 5 6 
#
# 1 0.018148 -0.001087 -0.000914 0.000000 0.007604 0.000000
# 2 -0.001087 0.012520 -0.001192 0.000000 0.000165 0.000000
# 3 -0.000914 -0.001192 0.010813 0.000000 0.002671 0.000000
# 4 0.000000 0.000000 0.000000 0.081105 0.000000 -0.008833
# 5 0.007604 0.000165 0.002671 0.000000 0.030486 0.000000
# 6 0.000000 0.000000 0.000000 -0.008833 0.000000 0.069699
#
#
# Mechanical properties :
#
#
# Convention : Reuss Voigt Hill
#
# Bulk Modulus (GPa) = 28.49522 32.87762 30.68642
# Shear Modulus (GPa) = 20.75943 27.30273 24.03108
#
# Velocity S-wave (km/s) = 3.19723 3.66664 3.43995
# Velocity P-wave (km/s) = 5.25939 5.84082 5.55771
#
# Compressibility (1/GPa) = 0.03509360
#
# Stress axis : x y z
#
# Youngs Moduli (GPa) = 55.10344 79.87280 92.48388
#
# Poissons Ratio (x) = 0.08685 0.08453
# Poissons Ratio (y) = 0.05992 0.11024
# Poissons Ratio (z) = 0.05036 0.09520
#
# Static dielectric constant tensor:
#      x y z
#    x 1.878250 0.000000 -0.006600 
#    y 0.000000 1.683680 0.000000 
#    z -0.006600 0.000000 1.953950 
# 
# From -- ./inp_files/65462.got.cif
#   From: 2010.05.17/outbox.cif.g08.bks.cpg/sg12_33_cif.got.tgz:65462.got - 2010.06.03 13:09:07.
