data_PCOD9197854
_publ_section_title
;
Structure prediction by ZEFSAII (Michael W. Deem and Ramdas Pophale) SiO2 
 PCOD9197854
Probable space group: C 2/M
;
_chemical_formula_sum "Si O2"
_cell_formula_units_Z 56
_cell_length_a 23.043095
_cell_length_b 7.642703
_cell_length_c 16.479362
_cell_angle_alpha 90.000000
_cell_angle_beta 119.560936
_cell_angle_gamma 90.000000
_cell_volume 2524.429901
_symmetry_space_group_name_H-M "C 2/M"
_symmetry_group_IT_number 12
_symmetry_cell_setting 'monoclinic'
loop_
_space_group_symop_operation_xyz
x,y,z
-x,y,-z
-x,-y,-z
x,-y,z
1/2+x,1/2+y,z
1/2-x,1/2+y,-z
1/2-x,1/2-y,-z
1/2+x,1/2-y,z
loop_
_atom_site_type_symbol
_atom_site_label
_atom_site_fract_x
_atom_site_fract_y
_atom_site_fract_z
Si Si1 0.425029 0.212900 0.307340
Si Si2 0.563726 0.703199 0.204579
Si Si3 0.832249 0.286381 0.392110
Si Si4 0.698830 0.715730 0.222125
Si Si5 0.423096 0.212269 0.601300
Si Si6 0.586554 0.797975 0.884806
Si Si7 0.287106 0.693777 0.944435
O O1 0.376209 0.270413 0.344825
O O2 0.502091 0.262166 0.375503
O O3 0.406543 0.269605 0.203178
O O4 0.423237 0.000000 0.304354
O O5 0.554021 0.500000 0.177624
O O6 0.624921 0.775171 0.194607
O O7 0.584983 0.718934 0.313450
O O8 0.491345 0.789347 0.147309
O O9 0.833945 0.500000 0.393588
O O10 0.756070 0.233525 0.325085
O O11 0.868022 0.228586 0.499111
O O12 0.696304 0.500000 0.219938
O O13 0.720013 0.781950 0.147710
O O14 0.421838 0.000000 0.604653
O O15 0.608110 0.000000 0.901462
O O16 0.634940 0.698339 0.978743
O O17 0.261348 0.500000 0.912005
O O18 0.250000 0.750000 0.000000
#
# Coordination Sequence:
#
# PCOD9197854 Si02
#       7
#     8   8   8   8   8   8   8
#     4   8  14  26  48  77 104 130 168 218 265 316
#     4  10  20  36  54  74 104 142 183 222 265 316
#     4   9  15  27  49  75 102 136 178 219 261 314
#     4   9  20  35  52  75 105 144 185 220 256 316
#     4   9  17  29  50  79 105 132 173 225 272 314
#     4  10  20  36  58  82 107 138 178 223 270 316
#     4  11  22  38  59  84 112 140 174 215 263 317
#
# _framework density 22.183225
#
# number of rings (size 3 to 8) (size 9 to 14) (size 15 to 20)
#    0.000    2.571    0.000    3.429    0.000    5.143 
#    0.000    5.714    0.000   12.000    0.000    0.000 
#    0.000    0.000    0.000    0.000    0.000    0.000 
#
# Total GULP energy -156336.450189 kJ/mol
# GULP energy per Si atom -5583.444650 kJ/mol
# Density = 2.213273 g / cm^3
# Si number density = 22.183225 Si / 1000 Ang^3
#
#
#
# Elastic Constant Matrix: (Units=GPa)
#
#
# Indices 1 2 3 4 5 6 
#
# 1 84.1062 -2.9346 6.9932 0.0000 -3.8351 0.0000
# 2 -2.9346 41.8388 -10.5506 0.0000 -1.5581 0.0000
# 3 6.9932 -10.5506 61.5661 0.0000 20.8631 0.0000
# 4 0.0000 0.0000 0.0000 14.9996 0.0000 -0.6807
# 5 -3.8351 -1.5581 20.8631 0.0000 21.4191 0.0000
# 6 0.0000 0.0000 0.0000 -0.6807 0.0000 13.1926
#
#
#
# Elastic Compliance Matrix: (Units=1/GPa)
#
#
# Indices 1 2 3 4 5 6 
#
# 1 0.012405 0.000270 -0.003168 0.000000 0.005326 0.000000
# 2 0.000270 0.025165 0.005441 0.000000 -0.003421 0.000000
# 3 -0.003168 0.005441 0.026261 0.000000 -0.025751 0.000000
# 4 0.000000 0.000000 0.000000 0.066825 0.000000 0.003448
# 5 0.005326 -0.003421 -0.025751 0.000000 0.072475 0.000000
# 6 0.000000 0.000000 0.000000 0.003448 0.000000 0.075978
#
#
# Mechanical properties :
#
#
# Convention : Reuss Voigt Hill
#
# Bulk Modulus (GPa) = 14.51009 19.39190 16.95099
# Shear Modulus (GPa) = 16.83522 22.85579 19.84551
#
# Velocity S-wave (km/s) = 2.75783 3.21334 2.99426
# Velocity P-wave (km/s) = 4.08608 4.74638 4.42855
#
# Compressibility (1/GPa) = 0.06891756
#
# Stress axis : x y z
#
# Youngs Moduli (GPa) = 80.60997 39.73787 38.07873
#
# Poissons Ratio (x) = -0.01071 0.12063
# Poissons Ratio (y) = -0.02173 -0.20719
# Poissons Ratio (z) = 0.25537 -0.21622
#
# Static dielectric constant tensor:
#      x y z
#    x 1.808290 0.000000 -0.004800 
#    y 0.000000 1.876580 0.000000 
#    z -0.004800 0.000000 1.789000 
# 
# From -- ./inp_files/238914.got.cif
#   From: 2010.05.17/outbox.cif.g08.bks.cpg/sg12_120_cif.got.tgz:238914.got - 2010.06.03 13:09:07.
