data_PCOD9197714
_publ_section_title
;
Structure prediction by ZEFSAII (Michael W. Deem and Ramdas Pophale) SiO2 
 PCOD9197714
Probable space group: C 2/M
;
_chemical_formula_sum "Si O2"
_cell_formula_units_Z 58
_cell_length_a 26.571048
_cell_length_b 9.113244
_cell_length_c 12.254539
_cell_angle_alpha 90.000000
_cell_angle_beta 87.187816
_cell_angle_gamma 90.000000
_cell_volume 2963.843966
_symmetry_space_group_name_H-M "C 2/M"
_symmetry_group_IT_number 12
_symmetry_cell_setting 'monoclinic'
loop_
_space_group_symop_operation_xyz
x,y,z
-x,y,-z
-x,-y,-z
x,-y,z
1/2+x,1/2+y,z
1/2-x,1/2+y,-z
1/2-x,1/2-y,-z
1/2+x,1/2-y,z
loop_
_atom_site_type_symbol
_atom_site_label
_atom_site_fract_x
_atom_site_fract_y
_atom_site_fract_z
Si Si1 0.310778 0.321590 0.745648
Si Si2 0.530684 0.735337 0.338737
Si Si3 0.380794 0.826550 0.108863
Si Si4 0.402055 0.173740 0.861638
Si Si5 0.418454 0.666703 0.311362
Si Si6 0.772661 0.176816 0.107268
Si Si7 0.000000 0.500000 0.500000
Si Si8 0.127982 0.165711 0.462831
O O1 0.307284 0.500000 0.749020
O O2 0.354061 0.266019 0.824285
O O3 0.260107 0.243497 0.790209
O O4 0.330204 0.271464 0.623622
O O5 0.551247 0.776704 0.217023
O O6 0.477033 0.658241 0.336870
O O7 0.519962 0.875289 0.413142
O O8 0.577101 0.659304 0.395855
O O9 0.411972 0.769898 0.208388
O O10 0.329512 0.733166 0.111844
O O11 0.369429 0.000000 0.119570
O O12 0.408106 0.804229 0.989883
O O13 0.392337 0.000000 0.843964
O O14 0.401218 0.500000 0.289267
O O15 0.387570 0.730698 0.418708
O O16 0.769213 0.000000 0.102647
O O17 0.750000 0.250000 0.000000
O O18 0.144120 0.000000 0.485153
#
# Coordination Sequence:
#
# PCOD9197714 Si02
#       8
#     8   8   8   8   8   8   2   8
#     4  10  20  35  62  92 119 148 192 250 303 352
#     4  11  21  35  59  89 120 155 203 249 297 353
#     4  11  25  41  60  85 119 159 201 247 298 354
#     4  10  21  37  56  85 120 155 198 246 298 350
#     4  11  23  40  60  84 120 164 204 247 300 359
#     4  12  23  40  64  91 120 153 196 242 295 358
#     4  12  20  32  58  94 120 156 202 252 298 360
#     4   9  19  37  60  88 117 153 197 248 298 353
#
# _framework density 19.569181
#
# number of rings (size 3 to 8) (size 9 to 14) (size 15 to 20)
#    0.000    1.379    3.448    2.483    0.966    2.759 
#    0.000    2.759    0.000    0.000    0.000    0.000 
#    0.000    0.000    0.000    0.000    0.000    0.000 
#
# Total GULP energy -161524.205311 kJ/mol
# GULP energy per Si atom -5569.800183 kJ/mol
# Density = 1.952464 g / cm^3
# Si number density = 19.569181 Si / 1000 Ang^3
#
#
#
# Elastic Constant Matrix: (Units=GPa)
#
#
# Indices 1 2 3 4 5 6 
#
# 1 37.6899 10.6142 21.5963 0.0000 -28.7314 0.0000
# 2 10.6142 105.3722 36.9876 0.0000 -17.0117 0.0000
# 3 21.5963 36.9876 126.1944 0.0000 -42.8656 0.0000
# 4 0.0000 0.0000 0.0000 28.3854 0.0000 7.2501
# 5 -28.7314 -17.0117 -42.8656 0.0000 33.8824 0.0000
# 6 0.0000 0.0000 0.0000 7.2501 0.0000 35.4365
#
#
#
# Elastic Compliance Matrix: (Units=1/GPa)
#
#
# Indices 1 2 3 4 5 6 
#
# 1 0.097108 0.000666 0.019764 0.000000 0.107684 0.000000
# 2 0.000666 0.010699 -0.002163 0.000000 0.003200 0.000000
# 3 0.019764 -0.002163 0.018412 0.000000 0.038968 0.000000
# 4 0.000000 0.000000 0.000000 0.037172 0.000000 -0.007605
# 5 0.107684 0.003200 0.038968 0.000000 0.171733 0.000000
# 6 0.000000 0.000000 0.000000 -0.007605 0.000000 0.029775
#
#
# Mechanical properties :
#
#
# Convention : Reuss Voigt Hill
#
# Bulk Modulus (GPa) = 6.14426 45.29474 25.71950
# Shear Modulus (GPa) = 13.06789 32.87808 22.97299
#
# Velocity S-wave (km/s) = 2.58695 4.10334 3.42999
# Velocity P-wave (km/s) = 3.47414 6.75619 5.37195
#
# Compressibility (1/GPa) = 0.16275345
#
# Stress axis : x y z
#
# Youngs Moduli (GPa) = 10.29776 93.46740 54.31144
#
# Poissons Ratio (x) = -0.06220 -1.07342
# Poissons Ratio (y) = -0.00685 0.11747
# Poissons Ratio (z) = -0.20353 0.20216
#
# Static dielectric constant tensor:
#      x y z
#    x 1.683670 0.000000 -0.017830 
#    y 0.000000 1.697130 0.000000 
#    z -0.017830 0.000000 1.709230 
# 
# From -- ./inp_files/180939.got.cif
#   From: 2010.05.17/outbox.cif.g08.bks.cpg/sg12_91_cif.got.tgz:180939.got - 2010.06.03 13:09:07.
