data_PCOD9197703
_publ_section_title
;
Structure prediction by ZEFSAII (Michael W. Deem and Ramdas Pophale) SiO2 
 PCOD9197703
Probable space group: C 2/M
;
_chemical_formula_sum "Si O2"
_cell_formula_units_Z 64
_cell_length_a 8.998323
_cell_length_b 21.005724
_cell_length_c 20.679979
_cell_angle_alpha 90.000000
_cell_angle_beta 51.160725
_cell_angle_gamma 90.000000
_cell_volume 3044.637802
_symmetry_space_group_name_H-M "C 2/M"
_symmetry_group_IT_number 12
_symmetry_cell_setting 'monoclinic'
loop_
_space_group_symop_operation_xyz
x,y,z
-x,y,-z
-x,-y,-z
x,-y,z
1/2+x,1/2+y,z
1/2-x,1/2+y,-z
1/2-x,1/2-y,-z
1/2+x,1/2-y,z
loop_
_atom_site_type_symbol
_atom_site_label
_atom_site_fract_x
_atom_site_fract_y
_atom_site_fract_z
Si Si1 0.643968 0.664946 0.145502
Si Si2 0.071266 0.335573 0.246986
Si Si3 0.802959 0.926991 0.094720
Si Si4 0.502279 0.926457 0.383603
Si Si5 0.853389 0.274270 0.196150
Si Si6 0.815274 0.569531 0.006424
Si Si7 0.091893 0.923387 0.542312
Si Si8 0.437743 0.424970 0.306464
O O1 0.827519 0.688782 0.135875
O O2 0.528846 0.725741 0.152585
O O3 0.688188 0.623510 0.071385
O O4 0.529992 0.620746 0.227708
O O5 0.238668 0.374937 0.163911
O O6 0.001191 0.380200 0.323091
O O7 0.165688 0.270864 0.249517
O O8 0.902212 0.319257 0.243171
O O9 0.800015 0.000000 0.120667
O O10 0.647844 0.922670 0.079158
O O11 0.000000 0.917549 0.000000
O O12 0.318810 0.911413 0.477094
O O13 0.708577 0.921682 0.360539
O O14 0.479746 0.000000 0.368463
O O15 0.721240 0.500000 0.039178
O O16 0.000000 0.568637 0.000000
O O17 0.014443 0.902934 0.633504
O O18 0.000000 0.899513 0.500000
O O19 0.065917 0.000000 0.549706
O O20 0.491958 0.500000 0.282729
#
# Coordination Sequence:
#
# PCOD9197703 Si02
#       8
#     8   8   8   8   8   8   8   8
#     4  11  21  41  59  84 112 159 199 243 285 349
#     4  11  21  41  57  84 112 157 199 240 284 345
#     4  10  21  36  59  87 118 147 183 241 297 346
#     4  10  20  35  62  90 118 151 188 237 291 353
#     4  10  24  38  58  79 116 154 204 246 283 322
#     4  10  21  38  59  87 120 149 185 243 302 348
#     4   9  19  35  55  92 129 147 177 232 296 350
#     4  10  20  35  62  91 117 151 189 235 293 354
#
# _framework density 21.020564
#
# number of rings (size 3 to 8) (size 9 to 14) (size 15 to 20)
#    0.000    1.875    1.250    2.625    1.750    1.500 
#    0.000   13.750    0.000    4.500    0.000    0.000 
#    0.000    0.000    0.000    0.000    0.000    0.000 
#
# Total GULP energy -178589.479812 kJ/mol
# GULP energy per Si atom -5580.921244 kJ/mol
# Density = 2.097272 g / cm^3
# Si number density = 21.020564 Si / 1000 Ang^3
#
#
#
# Elastic Constant Matrix: (Units=GPa)
#
#
# Indices 1 2 3 4 5 6 
#
# 1 92.2875 24.4824 1.0557 0.0000 9.5787 0.0000
# 2 24.4824 74.0886 34.0490 0.0000 8.9656 0.0000
# 3 1.0557 34.0490 46.8577 0.0000 10.2611 0.0000
# 4 0.0000 0.0000 0.0000 -15.2635 0.0000 -13.5243
# 5 9.5787 8.9656 10.2611 0.0000 24.9814 0.0000
# 6 0.0000 0.0000 0.0000 -13.5243 0.0000 23.3977
#
#
#
# Elastic Compliance Matrix: (Units=1/GPa)
#
#
# Indices 1 2 3 4 5 6 
#
# 1 0.012888 -0.006044 0.005174 0.000000 -0.004898 0.000000
# 2 -0.006044 0.023140 -0.016886 0.000000 0.000949 0.000000
# 3 0.005174 -0.016886 0.035825 0.000000 -0.010639 0.000000
# 4 0.000000 0.000000 0.000000 -0.043326 0.000000 -0.025043
# 5 -0.004898 0.000949 -0.010639 0.000000 0.045937 0.000000
# 6 0.000000 0.000000 0.000000 -0.025043 0.000000 0.028264
#
#
# Mechanical properties :
#
#
# Convention : Reuss Voigt Hill
#
# Bulk Modulus (GPa) = 27.51747 36.93423 32.22585
# Shear Modulus (GPa) = 33.25478 16.86625 25.06052
#
# Velocity S-wave (km/s) = 3.98177 2.83568 3.45656
# Velocity P-wave (km/s) = 5.85307 5.32261 5.59413
#
# Compressibility (1/GPa) = 0.03634056
#
# Stress axis : x y z
#
# Youngs Moduli (GPa) = 77.58985 43.21459 27.91365
#
# Poissons Ratio (x) = 0.26119 -0.14443
# Poissons Ratio (y) = 0.46896 0.47136
# Poissons Ratio (z) = -0.40146 0.72974
#
# Static dielectric constant tensor:
#      x y z
#    x 1.842750 0.000000 -0.014960 
#    y 0.000000 1.748280 0.000000 
#    z -0.014960 0.000000 1.728960 
# 
# From -- ./inp_files/302296.got.cif
#   From: 2010.05.17/outbox.cif.g08.bks.cpg/sg12_152_cif.got.tgz:302296.got - 2010.06.03 13:09:07.
