data_PCOD9197862
_publ_section_title
;
Structure prediction by ZEFSAII (Michael W. Deem and Ramdas Pophale) SiO2 
 PCOD9197862
Probable space group: C 2/M
;
_chemical_formula_sum "Si O2"
_cell_formula_units_Z 60
_cell_length_a 11.786269
_cell_length_b 17.368874
_cell_length_c 25.552461
_cell_angle_alpha 90.000000
_cell_angle_beta 35.803846
_cell_angle_gamma 90.000000
_cell_volume 3060.170391
_symmetry_space_group_name_H-M "C 2/M"
_symmetry_group_IT_number 12
_symmetry_cell_setting 'monoclinic'
loop_
_space_group_symop_operation_xyz
x,y,z
-x,y,-z
-x,-y,-z
x,-y,z
1/2+x,1/2+y,z
1/2-x,1/2+y,-z
1/2-x,1/2-y,-z
1/2+x,1/2-y,z
loop_
_atom_site_type_symbol
_atom_site_label
_atom_site_fract_x
_atom_site_fract_y
_atom_site_fract_z
Si Si1 0.898172 0.406967 0.236728
Si Si2 0.142671 0.140357 0.689238
Si Si3 0.546493 0.587548 0.614392
Si Si4 0.409762 0.183607 0.329353
Si Si5 0.023362 0.593441 0.075531
Si Si6 0.946461 0.329993 0.435267
Si Si7 0.187429 0.907078 0.118973
Si Si8 0.000000 0.197895 0.500000
O O1 0.905697 0.500000 0.237518
O O2 0.669847 0.383685 0.318190
O O3 0.995029 0.367250 0.250890
O O4 0.995624 0.381935 0.145551
O O5 0.059898 0.091119 0.672378
O O6 0.117324 0.229242 0.680894
O O7 0.369348 0.122920 0.612078
O O8 0.018613 0.126033 0.787426
O O9 0.559623 0.500000 0.590979
O O10 0.737583 0.631740 0.522874
O O11 0.491128 0.184926 0.357524
O O12 0.192080 0.150480 0.418617
O O13 0.023569 0.500000 0.075948
O O14 0.840195 0.615288 0.107662
O O15 0.215604 0.617624 0.972008
O O16 0.951524 0.253553 0.469136
O O17 0.175206 0.000000 0.123358
#
# Coordination Sequence:
#
# PCOD9197862 Si02
#       8
#     8   8   8   8   8   8   8   4
#     4  10  21  37  57  81 107 144 184 229 271 310
#     4  11  22  33  54  83 110 146 179 218 280 321
#     4  11  21  35  56  81 111 141 182 230 268 311
#     4  11  23  35  57  74 111 147 189 223 260 331
#     4   8  15  30  56  82 108 139 174 225 276 313
#     4  11  22  37  49  78 108 151 183 210 270 328
#     4   9  16  30  54  85 111 136 178 226 271 319
#     4  10  20  36  54  76 100 148 188 226 262 312
#
# _framework density 19.606753000000001
#
# number of rings (size 3 to 8) (size 9 to 14) (size 15 to 20)
#    0.000    1.867    4.000    2.400    3.733    2.133 
#    0.000    2.333    0.000    0.800    0.000    2.800 
#    0.000    0.000    0.000    0.000    0.000    0.000 
#
# Total GULP energy -167283.809726 kJ/mol
# GULP energy per Si atom -5576.126991 kJ/mol
# Density = 1.956213 g / cm^3
# Si number density = 19.606753 Si / 1000 Ang^3
#
#
#
# Elastic Constant Matrix: (Units=GPa)
#
#
# Indices 1 2 3 4 5 6 
#
# 1 68.4828 13.0873 41.5146 0.0000 33.6266 -0.0001
# 2 13.0873 20.1131 12.4030 0.0009 9.5548 -0.0002
# 3 41.5146 12.4030 117.5724 0.0032 21.2554 -0.0007
# 4 0.0000 0.0009 0.0032 21.9859 -0.0004 8.9420
# 5 33.6266 9.5548 21.2554 -0.0004 37.6477 0.0003
# 6 -0.0001 -0.0002 -0.0007 8.9420 0.0003 16.8703
#
#
#
# Elastic Compliance Matrix: (Units=1/GPa)
#
#
# Indices 1 2 3 4 5 6 
#
# 1 0.030214 -0.005364 -0.006092 0.000001 -0.022186 0.000000
# 2 -0.005364 0.059015 -0.002773 -0.000003 -0.008621 0.000002
# 3 -0.006092 -0.002773 0.010956 -0.000002 -0.000041 0.000001
# 4 0.000001 -0.000003 -0.000002 0.057984 0.000002 -0.030734
# 5 -0.022186 -0.008621 -0.000041 0.000002 0.048590 -0.000002
# 6 0.000000 0.000002 0.000001 -0.030734 -0.000002 0.075566
#
#
# Mechanical properties :
#
#
# Convention : Reuss Voigt Hill
#
# Bulk Modulus (GPa) = 13.94155 37.79756 25.86956
# Shear Modulus (GPa) = 14.93916 24.57833 19.75875
#
# Velocity S-wave (km/s) = 2.76332 3.54441 3.17796
# Velocity P-wave (km/s) = 4.16020 6.00584 5.16611
#
# Compressibility (1/GPa) = 0.07172803
#
# Stress axis : x y z
#
# Youngs Moduli (GPa) = 33.09720 16.94497 91.27162
#
# Poissons Ratio (x) = 0.09089 0.55600
# Poissons Ratio (y) = 0.17752 0.25311
# Poissons Ratio (z) = 0.20162 0.04699
#
# Static dielectric constant tensor:
#      x y z
#    x 1.712130 0.000000 0.016790 
#    y 0.000000 1.693200 0.000000 
#    z 0.016790 0.000000 1.739110 
# 
# From -- ./inp_files/336445.got.cif
#   From: 2010.05.17/outbox.cif.g08.bks.cpg/sg12_169_cif.got.tgz:336445.got - 2010.06.03 13:09:07.
