data_PCOD9197961
_publ_section_title
;
Structure prediction by ZEFSAII (Michael W. Deem and Ramdas Pophale) SiO2 
 PCOD9197961
Probable space group: C 2/M
;
_chemical_formula_sum "Si O2"
_cell_formula_units_Z 36
_cell_length_a 24.266828
_cell_length_b 14.453326
_cell_length_c 17.047151
_cell_angle_alpha 90.000000
_cell_angle_beta 19.016035
_cell_angle_gamma 90.000000
_cell_volume 1948.172294
_symmetry_space_group_name_H-M "C 2/M"
_symmetry_group_IT_number 12
_symmetry_cell_setting 'monoclinic'
loop_
_space_group_symop_operation_xyz
x,y,z
-x,y,-z
-x,-y,-z
x,-y,z
1/2+x,1/2+y,z
1/2-x,1/2+y,-z
1/2-x,1/2-y,-z
1/2+x,1/2-y,z
loop_
_atom_site_type_symbol
_atom_site_label
_atom_site_fract_x
_atom_site_fract_y
_atom_site_fract_z
Si Si1 0.000000 0.668524 0.500000
Si Si2 0.687627 0.605077 0.832310
Si Si3 0.906728 0.238320 0.475790
Si Si4 0.376353 0.894190 0.091117
Si Si5 0.950096 0.763183 0.240517
O O1 0.834279 0.610460 0.701757
O O2 0.025352 0.731086 0.388311
O O3 0.665660 0.500000 0.835603
O O4 0.767274 0.677136 0.662159
O O5 0.522916 0.651450 0.091947
O O6 0.985272 0.225740 0.285375
O O7 0.801588 0.148579 0.642716
O O8 0.454091 0.826632 0.921583
O O9 0.363661 0.000000 0.082580
O O10 0.500000 0.889733 0.000000
O O11 0.750000 0.750000 0.500000
#
# Coordination Sequence:
#
# PCOD9197961 Si02
#       5
#     4   8   8   8   8
#     4   8  19  38  63  72 114 148 185 222 279 314
#     4   9  20  37  59  82 110 146 184 225 276 324
#     4   9  20  36  58  78 112 144 181 227 275 323
#     4  10  20  36  55  78 111 147 180 225 277 326
#     4  11  21  35  58  84 112 141 184 228 278 327
#
# _framework density 18.478859
#
# number of rings (size 3 to 8) (size 9 to 14) (size 15 to 20)
#    1.333    1.111    2.222    0.333    0.000    3.556 
#    0.000    1.667    0.000    0.000    0.000    0.000 
#    0.000    0.000    0.000    0.000    0.000    0.000 
#
# Total GULP energy -100220.100519 kJ/mol
# GULP energy per Si atom -5567.783362 kJ/mol
# Density = 1.843680 g / cm^3
# Si number density = 18.478859 Si / 1000 Ang^3
#
#
#
# Elastic Constant Matrix: (Units=GPa)
#
#
# Indices 1 2 3 4 5 6 
#
# 1 42.8114 -18.0360 -6.8838 -0.0001 0.1158 0.0001
# 2 -18.0360 89.4905 10.0496 0.0000 3.3114 0.0000
# 3 -6.8838 10.0496 50.0447 0.0001 3.6442 -0.0001
# 4 -0.0001 0.0000 0.0001 6.8510 -0.0003 -4.9438
# 5 0.1158 3.3114 3.6442 -0.0003 32.0654 0.0002
# 6 0.0001 0.0000 -0.0001 -4.9438 0.0002 18.7882
#
#
#
# Elastic Compliance Matrix: (Units=1/GPa)
#
#
# Indices 1 2 3 4 5 6 
#
# 1 0.025870 0.004952 0.002630 0.000000 -0.000904 0.000000
# 2 0.004952 0.012407 -0.001730 0.000000 -0.001103 0.000000
# 3 0.002630 -0.001730 0.020852 0.000000 -0.002201 0.000000
# 4 0.000000 0.000000 0.000000 0.180176 0.000001 0.047410
# 5 -0.000904 -0.001103 -0.002201 0.000001 0.031553 0.000000
# 6 0.000000 0.000000 0.000000 0.047410 0.000000 0.065700
#
#
# Mechanical properties :
#
#
# Convention : Reuss Voigt Hill
#
# Bulk Modulus (GPa) = 14.11790 16.95626 15.53708
# Shear Modulus (GPa) = 14.34860 24.68871 19.51865
#
# Velocity S-wave (km/s) = 2.78957 3.65917 3.25356
# Velocity P-wave (km/s) = 4.24644 5.20083 4.74768
#
# Compressibility (1/GPa) = 0.07083207
#
# Stress axis : x y z
#
# Youngs Moduli (GPa) = 38.65518 80.59660 47.95803
#
# Poissons Ratio (x) = -0.39911 -0.12612
# Poissons Ratio (y) = -0.19142 0.08297
# Poissons Ratio (z) = -0.10166 0.13944
#
# Static dielectric constant tensor:
#      x y z
#    x 1.651400 0.000000 -0.042420 
#    y 0.000000 1.623130 0.000000 
#    z -0.042420 0.000000 1.607050 
# 
# From -- ./inp_files/293341.got.cif
#   From: 2010.05.17/outbox.cif.g08.bks.cpg/sg12_147_cif.got.tgz:293341.got - 2010.06.03 13:09:07.
