data_PCOD9197913
_publ_section_title
;
Structure prediction by ZEFSAII (Michael W. Deem and Ramdas Pophale) SiO2 
 PCOD9197913
Probable space group: C 2/M
;
_chemical_formula_sum "Si O2"
_cell_formula_units_Z 40
_cell_length_a 9.710535
_cell_length_b 25.295829
_cell_length_c 10.231463
_cell_angle_alpha 90.000000
_cell_angle_beta 42.094051
_cell_angle_gamma 90.000000
_cell_volume 1684.733268
_symmetry_space_group_name_H-M "C 2/M"
_symmetry_group_IT_number 12
_symmetry_cell_setting 'monoclinic'
loop_
_space_group_symop_operation_xyz
x,y,z
-x,y,-z
-x,-y,-z
x,-y,z
1/2+x,1/2+y,z
1/2-x,1/2+y,-z
1/2-x,1/2-y,-z
1/2+x,1/2-y,z
loop_
_atom_site_type_symbol
_atom_site_label
_atom_site_fract_x
_atom_site_fract_y
_atom_site_fract_z
Si Si1 0.223789 0.556712 0.551523
Si Si2 0.207326 0.283810 0.198706
Si Si3 0.712793 0.557390 0.182470
Si Si4 0.666909 0.327568 0.159059
Si Si5 0.702021 0.830472 0.489320
O O1 0.133297 0.500000 0.575444
O O2 0.465226 0.556176 0.341994
O O3 0.231565 0.558918 0.703504
O O4 0.125377 0.609535 0.564135
O O5 0.260155 0.222092 0.170344
O O6 0.220768 0.314065 0.325086
O O7 0.964884 0.291077 0.331898
O O8 0.331116 0.309109 0.992924
O O9 0.786999 0.500000 0.077767
O O10 0.772242 0.615112 0.088518
O O11 0.434298 0.330988 0.378014
#
# Coordination Sequence:
#
# PCOD9197913 Si02
#       5
#     8   8   8   8   8
#     4   8  15  30  53  78 104 135 171 215 260 300
#     4  10  22  35  51  80 106 135 177 208 250 313
#     4   8  15  30  54  80 101 131 176 215 256 307
#     4  10  20  36  55  75 107 138 166 217 261 295
#     4  10  20  36  55  75 103 138 174 209 254 310
#
# _framework density 23.742632
#
# number of rings (size 3 to 8) (size 9 to 14) (size 15 to 20)
#    0.000    2.800    0.000    2.400    0.000    8.000 
#    0.000    7.000    0.000    7.200    0.000    0.000 
#    0.000    0.000    0.000    0.000    0.000    0.000 
#
# Total GULP energy -111629.182380 kJ/mol
# GULP energy per Si atom -5581.459119 kJ/mol
# Density = 2.368859 g / cm^3
# Si number density = 23.742632 Si / 1000 Ang^3
#
#
#
# Elastic Constant Matrix: (Units=GPa)
#
#
# Indices 1 2 3 4 5 6 
#
# 1 35.6287 21.0883 9.0104 0.0000 -2.2996 0.0000
# 2 21.0883 261.0395 15.5519 0.0000 17.8112 0.0000
# 3 9.0104 15.5519 70.4332 0.0000 -19.7241 0.0000
# 4 0.0000 0.0000 0.0000 19.6839 0.0000 9.1331
# 5 -2.2996 17.8112 -19.7241 0.0000 38.6568 0.0000
# 6 0.0000 0.0000 0.0000 9.1331 0.0000 23.3559
#
#
#
# Elastic Compliance Matrix: (Units=1/GPa)
#
#
# Indices 1 2 3 4 5 6 
#
# 1 0.030307 -0.002366 -0.002969 0.000000 0.001378 0.000000
# 2 -0.002366 0.004304 -0.001449 0.000000 -0.002863 0.000000
# 3 -0.002969 -0.001449 0.017542 0.000000 0.009442 0.000000
# 4 0.000000 0.000000 0.000000 0.062064 0.000000 -0.024270
# 5 0.001378 -0.002863 0.009442 0.000000 0.032087 0.000000
# 6 0.000000 0.000000 0.000000 -0.024270 0.000000 0.052306
#
#
# Mechanical properties :
#
#
# Convention : Reuss Voigt Hill
#
# Bulk Modulus (GPa) = 25.91701 50.93364 38.42532
# Shear Modulus (GPa) = 22.21835 37.76937 29.99386
#
# Velocity S-wave (km/s) = 3.06240 3.99279 3.55814
# Velocity P-wave (km/s) = 4.84189 6.53877 5.75323
#
# Compressibility (1/GPa) = 0.03858470
#
# Stress axis : x y z
#
# Youngs Moduli (GPa) = 32.99551 232.36071 57.00685
#
# Poissons Ratio (x) = 0.54966 0.16925
# Poissons Ratio (y) = 0.07805 0.08263
# Poissons Ratio (z) = 0.09796 0.33680
#
# Static dielectric constant tensor:
#      x y z
#    x 1.948510 0.000000 -0.094310 
#    y 0.000000 2.000470 0.000000 
#    z -0.094310 0.000000 1.905100 
# 
# From -- ./inp_files/49905.got.cif
#   From: 2010.05.17/outbox.cif.g08.bks.cpg/sg12_25_cif.got.tgz:49905.got - 2010.06.03 13:09:07.
