data_PCOD9197372
_publ_section_title
;
Structure prediction by ZEFSAII (Michael W. Deem and Ramdas Pophale) SiO2 
 PCOD9197372
Probable space group: C 2/M
;
_chemical_formula_sum "Si O2"
_cell_formula_units_Z 48
_cell_length_a 16.752340
_cell_length_b 15.527944
_cell_length_c 15.001686
_cell_angle_alpha 90.000000
_cell_angle_beta 40.302214
_cell_angle_gamma 90.000000
_cell_volume 2524.134206
_symmetry_space_group_name_H-M "C 2/M"
_symmetry_group_IT_number 12
_symmetry_cell_setting 'monoclinic'
loop_
_space_group_symop_operation_xyz
x,y,z
-x,y,-z
-x,-y,-z
x,-y,z
1/2+x,1/2+y,z
1/2-x,1/2+y,-z
1/2-x,1/2-y,-z
1/2+x,1/2-y,z
loop_
_atom_site_type_symbol
_atom_site_label
_atom_site_fract_x
_atom_site_fract_y
_atom_site_fract_z
Si Si1 0.215172 0.770326 0.427628
Si Si2 0.948476 0.906984 0.828552
Si Si3 0.215103 0.404344 0.149007
Si Si4 0.647576 0.595388 0.361122
Si Si5 0.610037 0.657575 0.845168
Si Si6 0.440481 0.263953 0.691372
O O1 0.250000 0.750000 0.500000
O O2 0.209985 0.869521 0.398559
O O3 0.309996 0.722228 0.282261
O O4 0.072133 0.742335 0.534236
O O5 0.974429 0.826509 0.744119
O O6 0.039213 0.902478 0.835396
O O7 0.962132 0.000000 0.770843
O O8 0.810778 0.899595 0.985308
O O9 0.158741 0.500000 0.197603
O O10 0.298922 0.391804 0.165785
O O11 0.123592 0.324002 0.225619
O O12 0.500000 0.588478 0.500000
O O13 0.692626 0.500000 0.296935
O O14 0.651794 0.674327 0.286941
O O15 0.500000 0.697376 0.000000
#
# Coordination Sequence:
#
# PCOD9197372 Si02
#       6
#     8   8   8   8   8   8
#     4  11  21  38  58  85 118 148 193 240 287 347
#     4  10  20  35  59  89 114 151 201 241 282 339
#     4  10  21  37  57  85 121 156 193 234 288 353
#     4   9  19  35  57  83 111 145 186 237 290 340
#     4  10  20  38  60  82 113 156 194 237 288 340
#     4  11  20  35  61  83 120 150 188 243 297 338
#
# _framework density 19.016421000000001
#
# number of rings (size 3 to 8) (size 9 to 14) (size 15 to 20)
#    0.000    1.833    3.333    1.500    0.000    2.667 
#    0.000    3.333    0.000    0.500    0.000    0.000 
#    0.000    0.000    0.000    0.000    0.000    0.000 
#
# Total GULP energy -133695.312255 kJ/mol
# GULP energy per Si atom -5570.638011 kJ/mol
# Density = 1.897314 g / cm^3
# Si number density = 19.016421 Si / 1000 Ang^3
#
#
#
# Elastic Constant Matrix: (Units=GPa)
#
#
# Indices 1 2 3 4 5 6 
#
# 1 67.2071 26.4375 15.5245 0.0000 7.9641 0.0000
# 2 26.4375 140.9256 57.5750 0.0000 -11.4528 0.0000
# 3 15.5245 57.5750 86.2375 0.0000 -4.3090 0.0000
# 4 0.0000 0.0000 0.0000 14.3620 0.0000 2.0795
# 5 7.9641 -11.4528 -4.3090 0.0000 25.9972 0.0000
# 6 0.0000 0.0000 0.0000 2.0795 0.0000 13.0966
#
#
#
# Elastic Compliance Matrix: (Units=1/GPa)
#
#
# Indices 1 2 3 4 5 6 
#
# 1 0.017291 -0.003294 -0.001261 0.000000 -0.006957 0.000000
# 2 -0.003294 0.010664 -0.006294 0.000000 0.004664 0.000000
# 3 -0.001261 -0.006294 0.016038 0.000000 0.000272 0.000000
# 4 0.000000 0.000000 0.000000 0.071267 0.000000 -0.011316
# 5 -0.006957 0.004664 0.000272 0.000000 0.042697 0.000000
# 6 0.000000 0.000000 0.000000 -0.011316 0.000000 0.078152
#
#
# Mechanical properties :
#
#
# Convention : Reuss Voigt Hill
#
# Bulk Modulus (GPa) = 44.85156 54.82714 49.83935
# Shear Modulus (GPa) = 18.85094 23.68005 21.26550
#
# Velocity S-wave (km/s) = 3.15190 3.53263 3.34768
# Velocity P-wave (km/s) = 6.07313 6.74784 6.41936
#
# Compressibility (1/GPa) = 0.02229577
#
# Stress axis : x y z
#
# Youngs Moduli (GPa) = 57.83402 93.77154 62.35015
#
# Poissons Ratio (x) = 0.30887 0.07864
# Poissons Ratio (y) = 0.19050 0.39242
# Poissons Ratio (z) = 0.07294 0.59018
#
# Static dielectric constant tensor:
#      x y z
#    x 1.712380 0.000000 0.043510 
#    y 0.000000 1.683300 0.000000 
#    z 0.043510 0.000000 1.687530 
# 
# From -- ./inp_files/225090.got.cif
#   From: 2010.05.17/outbox.cif.g08.bks.cpg/sg12_113_cif.got.tgz:225090.got - 2010.06.03 13:09:07.
