data_PCOD9197518
_publ_section_title
;
Structure prediction by ZEFSAII (Michael W. Deem and Ramdas Pophale) SiO2 
 PCOD9197518
Probable space group: C 2/M
;
_chemical_formula_sum "Si O2"
_cell_formula_units_Z 64
_cell_length_a 11.270868
_cell_length_b 14.653739
_cell_length_c 24.934833
_cell_angle_alpha 90.000000
_cell_angle_beta 44.642724
_cell_angle_gamma 90.000000
_cell_volume 2893.824699
_symmetry_space_group_name_H-M "C 2/M"
_symmetry_group_IT_number 12
_symmetry_cell_setting 'monoclinic'
loop_
_space_group_symop_operation_xyz
x,y,z
-x,y,-z
-x,-y,-z
x,-y,z
1/2+x,1/2+y,z
1/2-x,1/2+y,-z
1/2-x,1/2-y,-z
1/2+x,1/2-y,z
loop_
_atom_site_type_symbol
_atom_site_label
_atom_site_fract_x
_atom_site_fract_y
_atom_site_fract_z
Si Si1 0.966416 0.602482 0.574520
Si Si2 0.450505 0.781746 0.804093
Si Si3 0.312023 0.390220 0.043874
Si Si4 0.676688 0.397475 0.481029
Si Si5 0.802765 0.326692 0.190599
Si Si6 0.582438 0.895800 0.026581
Si Si7 0.724442 0.752369 0.634976
Si Si8 0.500553 0.603369 0.646277
O O1 0.897999 0.500000 0.607711
O O2 0.146150 0.609536 0.544788
O O3 0.000000 0.608811 0.500000
O O4 0.851135 0.688046 0.628002
O O5 0.323149 0.856024 0.869074
O O6 0.324682 0.712542 0.813613
O O7 0.574107 0.757864 0.815163
O O8 0.587036 0.805985 0.714440
O O9 0.309796 0.500000 0.043069
O O10 0.244259 0.357998 0.006998
O O11 0.500000 0.361093 0.000000
O O12 0.671680 0.500000 0.459573
O O13 0.315868 0.318177 0.564313
O O14 0.533810 0.389175 0.572415
O O15 0.685135 0.376818 0.271789
O O16 0.932482 0.391845 0.118146
O O17 0.626288 0.000000 0.997873
O O18 0.500000 0.851795 0.000000
O O19 0.620545 0.676774 0.635222
O O20 0.549841 0.500000 0.645193
#
# Coordination Sequence:
#
# PCOD9197518 Si02
#       8
#     8   8   8   8   8   8   8   8
#     4  10  20  35  60  87 118 162 217 270 328 389
#     4  10  24  39  60  87 126 157 209 248 314 378
#     4   9  19  39  65  90 121 164 205 248 312 386
#     4  10  22  39  58  89 123 162 215 274 326 385
#     4  10  22  40  58  88 123 168 196 257 311 382
#     4   9  18  35  62  92 118 151 200 249 301 364
#     4  11  22  35  62  87 121 164 211 267 327 382
#     4  10  20  37  60  87 119 161 217 266 319 382
#
# _framework density 22.116060000000001
#
# number of rings (size 3 to 8) (size 9 to 14) (size 15 to 20)
#    0.000    2.125    1.250    1.125    3.500    2.500 
#    0.000    2.500    0.000    2.625    0.000    0.000 
#    0.000    0.000    0.000    0.000    0.000    0.000 
#
# Total GULP energy -178532.309875 kJ/mol
# GULP energy per Si atom -5579.134684 kJ/mol
# Density = 2.206572 g / cm^3
# Si number density = 22.116060 Si / 1000 Ang^3
#
#
#
# Elastic Constant Matrix: (Units=GPa)
#
#
# Indices 1 2 3 4 5 6 
#
# 1 160.5432 52.4693 38.8646 0.0000 -18.6598 0.0000
# 2 52.4693 90.9236 35.8141 0.0000 5.6596 0.0000
# 3 38.8646 35.8141 117.8215 0.0001 -10.0457 0.0001
# 4 0.0000 0.0000 0.0001 32.1870 0.0000 -4.4398
# 5 -18.6598 5.6596 -10.0457 0.0000 20.7403 0.0000
# 6 0.0000 0.0000 0.0001 -4.4398 0.0000 14.6054
#
#
#
# Elastic Compliance Matrix: (Units=1/GPa)
#
#
# Indices 1 2 3 4 5 6 
#
# 1 0.009396 -0.005841 -0.000487 0.000000 0.009811 0.000000
# 2 -0.005841 0.016751 -0.004175 0.000000 -0.011848 0.000000
# 3 -0.000487 -0.004175 0.010407 0.000000 0.005741 0.000000
# 4 0.000000 0.000000 0.000000 0.032428 0.000000 0.009858
# 5 0.009811 -0.011848 0.005741 0.000000 0.063057 0.000000
# 6 0.000000 0.000000 0.000000 0.009858 0.000000 0.071465
#
#
# Mechanical properties :
#
#
# Convention : Reuss Voigt Hill
#
# Bulk Modulus (GPa) = 64.32231 69.28713 66.80472
# Shear Modulus (GPa) = 21.76815 29.64921 25.70868
#
# Velocity S-wave (km/s) = 3.14071 3.66542 3.41316
# Velocity P-wave (km/s) = 6.50378 7.02215 6.76793
#
# Compressibility (1/GPa) = 0.01554670
#
# Stress axis : x y z
#
# Youngs Moduli (GPa) = 106.42594 59.69769 96.09024
#
# Poissons Ratio (x) = 0.34869 0.04683
# Poissons Ratio (y) = 0.62164 0.40121
# Poissons Ratio (z) = 0.05187 0.24926
#
# Static dielectric constant tensor:
#      x y z
#    x 1.895460 0.000000 -0.019930 
#    y 0.000000 1.803970 0.000000 
#    z -0.019930 0.000000 1.786540 
# 
# From -- ./inp_files/374071.got.cif
#   From: 2010.05.17/outbox.cif.g08.bks.cpg/sg12_188_cif.got.tgz:374071.got - 2010.06.03 13:09:07.
