data_PCOD9197932
_publ_section_title
;
Structure prediction by ZEFSAII (Michael W. Deem and Ramdas Pophale) SiO2 
 PCOD9197932
Probable space group: C 2/M
;
_chemical_formula_sum "Si O2"
_cell_formula_units_Z 40
_cell_length_a 8.643084
_cell_length_b 11.109927
_cell_length_c 23.416798
_cell_angle_alpha 90.000000
_cell_angle_beta 64.657267
_cell_angle_gamma 90.000000
_cell_volume 2032.180482
_symmetry_space_group_name_H-M "C 2/M"
_symmetry_group_IT_number 12
_symmetry_cell_setting 'monoclinic'
loop_
_space_group_symop_operation_xyz
x,y,z
-x,y,-z
-x,-y,-z
x,-y,z
1/2+x,1/2+y,z
1/2-x,1/2+y,-z
1/2-x,1/2-y,-z
1/2+x,1/2-y,z
loop_
_atom_site_type_symbol
_atom_site_label
_atom_site_fract_x
_atom_site_fract_y
_atom_site_fract_z
Si Si1 0.346652 0.138243 0.271770
Si Si2 0.681056 0.312296 0.953250
Si Si3 0.061381 0.368211 0.873500
Si Si4 0.384951 0.865129 0.674603
Si Si5 0.361370 0.132115 0.471533
O O1 0.375221 0.159934 0.200130
O O2 0.524484 0.140458 0.278120
O O3 0.234536 0.248958 0.312874
O O4 0.278372 0.000000 0.289929
O O5 0.626842 0.222323 0.911156
O O6 0.854765 0.373886 0.904748
O O7 0.500000 0.371886 0.000000
O O8 0.750000 0.250000 0.000000
O O9 0.127614 0.500000 0.879135
O O10 0.535546 0.858269 0.603958
O O11 0.304979 0.000000 0.680740
O O12 0.500000 0.129207 0.500000
O O13 0.250000 0.250000 0.500000
O O14 0.271777 0.000000 0.486042
#
# Coordination Sequence:
#
# PCOD9197932 Si02
#       5
#     8   8   8   8   8
#     4  10  21  36  56  81 109 145 185 226 277 331
#     4   9  19  34  53  78 104 134 174 213 259 322
#     4  10  20  36  55  76 107 140 174 222 271 321
#     4  10  21  37  56  81 113 145 184 233 277 324
#     4  10  21  36  55  81 112 147 186 229 277 328
#
# _framework density 19.683291000000001
#
# number of rings (size 3 to 8) (size 9 to 14) (size 15 to 20)
#    0.000    2.200    0.000    2.400    0.000    6.000 
#    0.000    4.000    0.000    0.000    0.000    0.000 
#    0.000    0.000    0.000    0.000    0.000    0.000 
#
# Total GULP energy -111365.377500 kJ/mol
# GULP energy per Si atom -5568.268875 kJ/mol
# Density = 1.963849 g / cm^3
# Si number density = 19.683291 Si / 1000 Ang^3
#
#
#
# Elastic Constant Matrix: (Units=GPa)
#
#
# Indices 1 2 3 4 5 6 
#
# 1 56.6404 31.3856 0.5385 0.0000 6.1345 0.0000
# 2 31.3856 137.5767 32.0061 0.0000 -18.0440 0.0000
# 3 0.5385 32.0061 52.2116 0.0000 5.5099 0.0000
# 4 0.0000 0.0000 0.0000 58.6981 0.0000 -1.1833
# 5 6.1345 -18.0440 5.5099 0.0000 32.6790 0.0000
# 6 0.0000 0.0000 0.0000 -1.1833 0.0000 26.3226
#
#
#
# Elastic Compliance Matrix: (Units=1/GPa)
#
#
# Indices 1 2 3 4 5 6 
#
# 1 0.022940 -0.007770 0.005532 0.000000 -0.009530 0.000000
# 2 -0.007770 0.012279 -0.008467 0.000000 0.009666 0.000000
# 3 0.005532 -0.008467 0.025340 0.000000 -0.009986 0.000000
# 4 0.000000 0.000000 0.000000 0.017052 0.000000 0.000767
# 5 -0.009530 0.009666 -0.009986 0.000000 0.039411 0.000000
# 6 0.000000 0.000000 0.000000 0.000767 0.000000 0.038025
#
#
# Mechanical properties :
#
#
# Convention : Reuss Voigt Hill
#
# Bulk Modulus (GPa) = 25.54324 41.58769 33.56547
# Shear Modulus (GPa) = 26.38439 35.70651 31.04545
#
# Velocity S-wave (km/s) = 3.66518 4.26379 3.97577
# Velocity P-wave (km/s) = 5.56028 6.73900 6.17782
#
# Compressibility (1/GPa) = 0.03914930
#
# Stress axis : x y z
#
# Youngs Moduli (GPa) = 43.59112 81.44066 39.46334
#
# Poissons Ratio (x) = 0.63282 -0.21832
# Poissons Ratio (y) = 0.33872 0.33414
# Poissons Ratio (z) = -0.24116 0.68956
#
# Static dielectric constant tensor:
#      x y z
#    x 1.666790 0.000000 -0.013610 
#    y 0.000000 1.705650 0.000000 
#    z -0.013610 0.000000 1.700480 
# 
# From -- ./inp_files/254604.got.cif
#   From: 2010.05.17/outbox.cif.g08.bks.cpg/sg12_128_cif.got.tgz:254604.got - 2010.06.03 13:09:07.
