data_PCOD9197976
_publ_section_title
;
Structure prediction by ZEFSAII (Michael W. Deem and Ramdas Pophale) SiO2 
 PCOD9197976
Probable space group: C 2/M
;
_chemical_formula_sum "Si O2"
_cell_formula_units_Z 56
_cell_length_a 20.518886
_cell_length_b 13.745876
_cell_length_c 10.607292
_cell_angle_alpha 90.000000
_cell_angle_beta 82.425711
_cell_angle_gamma 90.000000
_cell_volume 2965.683398
_symmetry_space_group_name_H-M "C 2/M"
_symmetry_group_IT_number 12
_symmetry_cell_setting 'monoclinic'
loop_
_space_group_symop_operation_xyz
x,y,z
-x,y,-z
-x,-y,-z
x,-y,z
1/2+x,1/2+y,z
1/2-x,1/2+y,-z
1/2-x,1/2-y,-z
1/2+x,1/2-y,z
loop_
_atom_site_type_symbol
_atom_site_label
_atom_site_fract_x
_atom_site_fract_y
_atom_site_fract_z
Si Si1 0.899367 0.611027 0.765846
Si Si2 0.653560 0.709459 0.082200
Si Si3 0.018259 0.113854 0.139321
Si Si4 0.354321 0.887147 0.361123
Si Si5 0.481923 0.760486 0.365484
Si Si6 0.711775 0.764307 0.810908
Si Si7 0.729396 0.891357 0.378960
O O1 0.911863 0.500000 0.801090
O O2 0.876183 0.683316 0.882070
O O3 0.838912 0.610572 0.682659
O O4 0.962527 0.660375 0.686418
O O5 0.596323 0.634632 0.130362
O O6 0.718523 0.700135 0.150985
O O7 0.675917 0.707120 0.932299
O O8 0.983962 0.179354 0.255180
O O9 0.003343 0.000000 0.158429
O O10 0.000000 0.142899 0.000000
O O11 0.413064 0.816573 0.386635
O O12 0.330514 0.853004 0.230507
O O13 0.293009 0.876025 0.472309
O O14 0.374611 0.000000 0.360873
O O15 0.500000 0.721647 0.500000
O O16 0.725247 0.690085 0.693316
O O17 0.757657 0.000000 0.358240
#
# Coordination Sequence:
#
# PCOD9197976 Si02
#       7
#     8   8   8   8   8   8   8
#     4   9  17  32  55  83 112 142 180 224 276 332
#     4   9  20  36  57  82 108 150 189 229 279 329
#     4  10  22  41  62  83 111 148 191 236 284 339
#     4  11  22  34  54  84 116 148 183 227 281 337
#     4  11  21  36  61  87 115 146 185 235 286 336
#     4  10  20  36  55  79 115 149 188 230 276 328
#     4   9  18  33  53  78 107 144 186 226 270 324
#
# _framework density 18.882662
#
# number of rings (size 3 to 8) (size 9 to 14) (size 15 to 20)
#    0.000    2.143    1.429    1.714    0.000    2.571 
#    0.000    3.571    0.000    4.714    0.000    0.000 
#    0.000    0.000    0.000    0.000    0.000    0.000 
#
# Total GULP energy -156212.355541 kJ/mol
# GULP energy per Si atom -5579.012698 kJ/mol
# Density = 1.883968 g / cm^3
# Si number density = 18.882662 Si / 1000 Ang^3
#
#
#
# Elastic Constant Matrix: (Units=GPa)
#
#
# Indices 1 2 3 4 5 6 
#
# 1 18.1703 4.1518 16.4662 0.0000 -5.4279 0.0000
# 2 4.1518 82.5361 46.4349 0.0000 4.6232 0.0000
# 3 16.4662 46.4349 84.5994 0.0000 6.4792 0.0000
# 4 0.0000 0.0000 0.0000 19.4581 0.0000 4.9713
# 5 -5.4279 4.6232 6.4792 0.0000 15.1455 0.0000
# 6 0.0000 0.0000 0.0000 4.9713 0.0000 15.8140
#
#
#
# Elastic Compliance Matrix: (Units=1/GPa)
#
#
# Indices 1 2 3 4 5 6 
#
# 1 0.086420 0.006673 -0.023468 0.000000 0.038974 0.000000
# 2 0.006673 0.018068 -0.011349 0.000000 0.001731 0.000000
# 3 -0.023468 -0.011349 0.023775 0.000000 -0.015117 0.000000
# 4 0.000000 0.000000 0.000000 0.055881 0.000000 -0.017567
# 5 0.038974 0.001731 -0.015117 0.000000 0.085933 0.000000
# 6 0.000000 0.000000 0.000000 -0.017567 0.000000 0.068757
#
#
# Mechanical properties :
#
#
# Convention : Reuss Voigt Hill
#
# Bulk Modulus (GPa) = 13.89361 35.49019 24.69190
# Shear Modulus (GPa) = 11.92996 17.96705 14.94850
#
# Velocity S-wave (km/s) = 2.51628 3.08800 2.81668
# Velocity P-wave (km/s) = 3.97694 5.61696 4.86653
#
# Compressibility (1/GPa) = 0.07197555
#
# Stress axis : x y z
#
# Youngs Moduli (GPa) = 11.57138 55.34646 42.06095
#
# Poissons Ratio (x) = -0.36933 0.98710
# Poissons Ratio (y) = -0.07722 0.47733
# Poissons Ratio (z) = 0.27156 0.62810
#
# Static dielectric constant tensor:
#      x y z
#    x 1.650380 0.000000 0.001610 
#    y 0.000000 1.640140 0.000000 
#    z 0.001610 0.000000 1.659880 
# 
# From -- ./inp_files/86387.got.cif
#   From: 2010.05.17/outbox.cif.g08.bks.cpg/sg12_44_cif.got.tgz:86387.got - 2010.06.03 13:09:07.
