data_PCOD9197226
_publ_section_title
;
Structure prediction by ZEFSAII (Michael W. Deem and Ramdas Pophale) SiO2 
 PCOD9197226
Probable space group: C 2/M
;
_chemical_formula_sum "Si O2"
_cell_formula_units_Z 40
_cell_length_a 17.326924
_cell_length_b 21.587172
_cell_length_c 8.079457
_cell_angle_alpha 90.000000
_cell_angle_beta 41.440987
_cell_angle_gamma 90.000000
_cell_volume 2000.128278
_symmetry_space_group_name_H-M "C 2/M"
_symmetry_group_IT_number 12
_symmetry_cell_setting 'monoclinic'
loop_
_space_group_symop_operation_xyz
x,y,z
-x,y,-z
-x,-y,-z
x,-y,z
1/2+x,1/2+y,z
1/2-x,1/2+y,-z
1/2-x,1/2-y,-z
1/2+x,1/2-y,z
loop_
_atom_site_type_symbol
_atom_site_label
_atom_site_fract_x
_atom_site_fract_y
_atom_site_fract_z
Si Si1 0.928282 0.371076 0.451155
Si Si2 0.290784 0.000000 0.653021
Si Si3 0.759959 0.180463 0.422994
Si Si4 0.394457 0.102904 0.071065
Si Si5 0.403868 0.500000 0.337619
Si Si6 0.500000 0.389092 0.000000
Si Si7 0.257996 0.000000 0.093596
O O1 0.871341 0.439056 0.514925
O O2 0.819143 0.326279 0.612851
O O3 0.000000 0.372392 0.500000
O O4 0.023078 0.350240 0.161812
O O5 0.198970 0.000000 0.644057
O O6 0.239778 0.000000 0.924692
O O7 0.750000 0.250000 0.500000
O O8 0.698315 0.135576 0.660109
O O9 0.886389 0.153515 0.180200
O O10 0.332520 0.059044 0.037709
O O11 0.500000 0.068899 0.000000
O O12 0.478622 0.561777 0.183309
O O13 0.351205 0.500000 0.605194
#
# Coordination Sequence:
#
# PCOD9197226 Si02
#       7
#     8   4   8   8   4   4   4
#     4  11  21  39  63  97 136 165 209 279 333 395
#     4  12  21  38  65 107 140 172 209 270 350 404
#     4  11  25  42  69  91 120 182 233 274 332 392
#     4  10  20  35  58  93 127 163 218 266 323 397
#     4  11  22  41  63  97 137 183 220 266 332 423
#     4  11  22  42  68  86 138 173 222 280 326 399
#     4  12  19  36  64  96 137 167 215 266 340 402
#
# _framework density 19.998716999999999
#
# number of rings (size 3 to 8) (size 9 to 14) (size 15 to 20)
#    0.000    1.000    6.000    2.400    4.200    0.000 
#    0.000    3.000    8.800    0.000    0.000    0.000 
#    0.000    0.000    0.000    0.000    0.000    0.000 
#
# Total GULP energy -111418.327176 kJ/mol
# GULP energy per Si atom -5570.916359 kJ/mol
# Density = 1.995320 g / cm^3
# Si number density = 19.998717 Si / 1000 Ang^3
#
#
#
# Elastic Constant Matrix: (Units=GPa)
#
#
# Indices 1 2 3 4 5 6 
#
# 1 83.4075 53.6604 49.5204 0.0000 -5.7162 0.0000
# 2 53.6604 110.3428 36.2318 0.0000 -18.9423 0.0000
# 3 49.5204 36.2318 167.0645 0.0000 -8.7824 0.0000
# 4 0.0000 0.0000 0.0000 2.0165 0.0000 5.9229
# 5 -5.7162 -18.9423 -8.7824 0.0000 39.9654 0.0000
# 6 0.0000 0.0000 0.0000 5.9229 0.0000 2.5306
#
#
#
# Elastic Compliance Matrix: (Units=1/GPa)
#
#
# Indices 1 2 3 4 5 6 
#
# 1 0.019876 -0.008686 -0.004122 0.000000 -0.002180 0.000000
# 2 -0.008686 0.014307 -0.000240 0.000000 0.005486 0.000000
# 3 -0.004122 -0.000240 0.007307 0.000000 0.000902 0.000000
# 4 0.000000 0.000000 0.000000 -0.084416 0.000000 0.197577
# 5 -0.002180 0.005486 0.000902 0.000000 0.027508 0.000000
# 6 0.000000 0.000000 0.000000 0.197577 0.000000 -0.067266
#
#
# Mechanical properties :
#
#
# Convention : Reuss Voigt Hill
#
# Bulk Modulus (GPa) = 64.96236 71.07110 68.01673
# Shear Modulus (GPa) = -97.17258 23.66262 -36.75498
#
# Velocity S-wave (km/s) = -6.97817 3.44351 -4.29169
# Velocity P-wave (km/s) = 5.68971 7.17115 3.08647
#
# Compressibility (1/GPa) = 0.01539353
#
# Stress axis : x y z
#
# Youngs Moduli (GPa) = 50.31243 69.89368 136.85437
#
# Poissons Ratio (x) = 0.60713 0.56415
# Poissons Ratio (y) = 0.43704 0.03281
# Poissons Ratio (z) = 0.20740 0.01675
#
# Static dielectric constant tensor:
#      x y z
#    x 1.768490 0.000000 0.022940 
#    y 0.000000 1.714420 0.000000 
#    z 0.022940 0.000000 1.782960 
# 
# From -- ./inp_files/48857.got.cif
#   From: 2010.05.17/outbox.cif.g08.bks.cpg/sg12_25_cif.got.tgz:48857.got - 2010.06.03 13:09:07.
