data_PCOD9197294
_publ_section_title
;
Structure prediction by ZEFSAII (Michael W. Deem and Ramdas Pophale) SiO2 
 PCOD9197294
Probable space group: C 2/M
;
_chemical_formula_sum "Si O2"
_cell_formula_units_Z 64
_cell_length_a 29.925448
_cell_length_b 7.591977
_cell_length_c 15.707337
_cell_angle_alpha 90.000000
_cell_angle_beta 51.345589
_cell_angle_gamma 90.000000
_cell_volume 2786.819927
_symmetry_space_group_name_H-M "C 2/M"
_symmetry_group_IT_number 12
_symmetry_cell_setting 'monoclinic'
loop_
_space_group_symop_operation_xyz
x,y,z
-x,y,-z
-x,-y,-z
x,-y,z
1/2+x,1/2+y,z
1/2-x,1/2+y,-z
1/2-x,1/2-y,-z
1/2+x,1/2-y,z
loop_
_atom_site_type_symbol
_atom_site_label
_atom_site_fract_x
_atom_site_fract_y
_atom_site_fract_z
Si Si1 0.127967 0.286273 0.011710
Si Si2 0.662368 0.297334 0.331968
Si Si3 0.996472 0.795341 0.908712
Si Si4 0.313160 0.210043 0.889262
Si Si5 0.312723 0.788698 0.390680
Si Si6 0.574743 0.204434 0.661147
Si Si7 0.962226 0.700496 0.469830
Si Si8 0.714745 0.215336 0.762076
O O1 0.126709 0.500000 0.012567
O O2 0.067794 0.220946 0.048904
O O3 0.143130 0.230426 0.089269
O O4 0.178205 0.229868 0.887356
O O5 0.654165 0.500000 0.368158
O O6 0.675911 0.292056 0.215421
O O7 0.603610 0.200390 0.421718
O O8 0.719434 0.225818 0.309666
O O9 0.037975 0.709526 0.790522
O O10 0.013354 0.000000 0.893043
O O11 0.000000 0.720892 0.000000
O O12 0.318583 0.000000 0.872800
O O13 0.250000 0.250000 0.000000
O O14 0.250000 0.750000 0.500000
O O15 0.363407 0.717025 0.389565
O O16 0.314491 0.726433 0.290783
O O17 0.319959 0.000000 0.379133
O O18 0.540919 0.282424 0.620827
O O19 0.584220 0.000000 0.625953
O O20 0.985050 0.500000 0.433133
O O21 0.000000 0.784151 0.500000
O O22 0.716264 0.000000 0.761137
#
# Coordination Sequence:
#
# PCOD9197294 Si02
#       8
#     8   8   8   8   8   8   8   8
#     4  10  21  39  62  85 116 158 204 243 296 364
#     4  11  22  38  60  87 122 158 200 249 304 366
#     4  11  25  42  61  91 128 160 199 256 313 359
#     4  11  22  38  61  90 124 161 201 252 307 361
#     4  10  20  35  59  86 114 147 193 242 292 355
#     4  10  22  41  64  88 118 162 210 251 301 367
#     4  10  23  42  61  85 119 158 206 260 308 358
#     4   9  18  35  57  84 115 150 188 237 291 353
#
# _framework density 22.965243999999998
#
# number of rings (size 3 to 8) (size 9 to 14) (size 15 to 20)
#    0.000    1.750    1.250    2.625    1.750    4.250 
#    0.000    1.250    0.000    0.000    0.000    0.000 
#    0.000    0.000    0.000    0.000    0.000    0.000 
#
# Total GULP energy -178932.343636 kJ/mol
# GULP energy per Si atom -5591.635739 kJ/mol
# Density = 2.291297 g / cm^3
# Si number density = 22.965244 Si / 1000 Ang^3
#
#
#
# Elastic Constant Matrix: (Units=GPa)
#
#
# Indices 1 2 3 4 5 6 
#
# 1 176.9977 3.3514 36.8085 -0.0003 21.9476 -0.0007
# 2 3.3514 58.8749 -6.7112 -0.0002 5.5773 -0.0018
# 3 36.8085 -6.7112 84.7696 0.0002 14.3422 0.0002
# 4 -0.0003 -0.0002 0.0002 0.9977 0.0003 -20.5109
# 5 21.9476 5.5773 14.3422 0.0003 46.1553 0.0002
# 6 -0.0007 -0.0018 0.0002 -20.5109 0.0002 4.3052
#
#
#
# Elastic Compliance Matrix: (Units=1/GPa)
#
#
# Indices 1 2 3 4 5 6 
#
# 1 0.006447 -0.000433 -0.002453 0.000000 -0.002251 0.000000
# 2 -0.000433 0.017477 0.001999 -0.000002 -0.002527 0.000000
# 3 -0.002453 0.001999 0.013577 0.000000 -0.003294 0.000000
# 4 0.000000 -0.000002 0.000000 -0.010339 0.000001 -0.049257
# 5 -0.002251 -0.002527 -0.003294 0.000001 0.024065 0.000000
# 6 0.000000 0.000000 0.000000 -0.049257 0.000000 -0.002396
#
#
# Mechanical properties :
#
#
# Convention : Reuss Voigt Hill
#
# Bulk Modulus (GPa) = 27.98923 43.05996 35.52459
# Shear Modulus (GPa) = 79.98037 29.43789 54.70913
#
# Velocity S-wave (km/s) = 5.90782 3.58417 4.88613
# Velocity P-wave (km/s) = 7.66489 5.99326 6.88003
#
# Compressibility (1/GPa) = 0.03572802
#
# Stress axis : x y z
#
# Youngs Moduli (GPa) = 155.10465 57.21760 73.65164
#
# Poissons Ratio (x) = 0.02480 0.18066
# Poissons Ratio (y) = 0.06722 -0.14726
# Poissons Ratio (z) = 0.38046 -0.11440
#
# Static dielectric constant tensor:
#      x y z
#    x 1.873770 -0.000050 0.030840 
#    y -0.000050 2.742990 0.000070 
#    z 0.030840 0.000070 1.824010 
# 
# From -- ./inp_files/249782.got.cif
#   From: 2010.05.17/outbox.cif.g08.bks.cpg/sg12_125_cif.got.tgz:249782.got - 2010.06.03 13:09:07.
