data_PCOD9197281
_publ_section_title
;
Structure prediction by ZEFSAII (Michael W. Deem and Ramdas Pophale) SiO2 
 PCOD9197281
Probable space group: C 2/M
;
_chemical_formula_sum "Si O2"
_cell_formula_units_Z 48
_cell_length_a 14.605613
_cell_length_b 27.667297
_cell_length_c 5.756520
_cell_angle_alpha 90.000000
_cell_angle_beta 97.203867
_cell_angle_gamma 90.000000
_cell_volume 2307.834813
_symmetry_space_group_name_H-M "C 2/M"
_symmetry_group_IT_number 12
_symmetry_cell_setting 'monoclinic'
loop_
_space_group_symop_operation_xyz
x,y,z
-x,y,-z
-x,-y,-z
x,-y,z
1/2+x,1/2+y,z
1/2-x,1/2+y,-z
1/2-x,1/2-y,-z
1/2+x,1/2-y,z
loop_
_atom_site_type_symbol
_atom_site_label
_atom_site_fract_x
_atom_site_fract_y
_atom_site_fract_z
Si Si1 0.777578 0.211991 0.810236
Si Si2 0.346797 0.850143 0.560209
Si Si3 0.718077 0.056304 0.685767
Si Si4 0.453652 0.765716 0.729078
Si Si5 0.705535 0.623168 0.910627
Si Si6 0.606248 0.552090 0.597751
O O1 0.692314 0.185788 0.653389
O O2 0.854018 0.239801 0.689874
O O3 0.750000 0.250000 0.000000
O O4 0.826661 0.165212 0.932917
O O5 0.348835 0.905103 0.465425
O O6 0.434746 0.823459 0.696107
O O7 0.269843 0.852693 0.736927
O O8 0.817417 0.057541 0.582130
O O9 0.689568 0.000000 0.685691
O O10 0.736832 0.081643 0.938242
O O11 0.500000 0.750424 0.500000
O O12 0.500000 0.756921 0.000000
O O13 0.621327 0.596443 0.769198
O O14 0.500000 0.550958 0.500000
O O15 0.628295 0.500000 0.717820
#
# Coordination Sequence:
#
# PCOD9197281 Si02
#       6
#     8   8   8   8   8   8
#     4  11  22  42  64  87 125 171 215 260 318 384
#     4  10  22  41  66  87 123 166 212 261 316 384
#     4   9  19  36  61  90 115 158 215 259 310 387
#     4  12  27  43  66  99 131 168 217 273 329 383
#     4  10  20  35  59  85 117 165 215 252 313 377
#     4   9  18  34  52  80 122 162 202 256 317 371
#
# _framework density 20.798715000000001
#
# number of rings (size 3 to 8) (size 9 to 14) (size 15 to 20)
#    0.000    1.833    1.667    2.000    4.667    1.333 
#    9.000    2.500    0.000    1.000    0.000    0.000 
#    0.000    0.000    0.000    0.000    0.000    0.000 
#
# Total GULP energy -133714.853473 kJ/mol
# GULP energy per Si atom -5571.452228 kJ/mol
# Density = 2.075138 g / cm^3
# Si number density = 20.798715 Si / 1000 Ang^3
#
#
#
# Elastic Constant Matrix: (Units=GPa)
#
#
# Indices 1 2 3 4 5 6 
#
# 1 15.2417 0.1435 6.5713 0.0000 -9.3052 0.0000
# 2 0.1435 116.7712 42.4044 0.0000 -2.0274 0.0000
# 3 6.5713 42.4044 66.4154 0.0000 0.7716 0.0000
# 4 0.0000 0.0000 0.0000 38.6956 0.0000 7.8207
# 5 -9.3052 -2.0274 0.7716 0.0000 21.7923 0.0000
# 6 0.0000 0.0000 0.0000 7.8207 0.0000 27.8382
#
#
#
# Elastic Compliance Matrix: (Units=1/GPa)
#
#
# Indices 1 2 3 4 5 6 
#
# 1 0.097505 0.005603 -0.013720 0.000000 0.042642 0.000000
# 2 0.005603 0.011507 -0.007945 0.000000 0.003744 0.000000
# 3 -0.013720 -0.007945 0.021572 0.000000 -0.007361 0.000000
# 4 0.000000 0.000000 0.000000 0.027398 0.000000 -0.007697
# 5 0.042642 0.003744 -0.007361 0.000000 0.064705 0.000000
# 6 0.000000 0.000000 0.000000 -0.007697 0.000000 0.038084
#
#
# Mechanical properties :
#
#
# Convention : Reuss Voigt Hill
#
# Bulk Modulus (GPa) = 10.15634 32.96297 21.55965
# Shear Modulus (GPa) = 15.35080 27.61916 21.48498
#
# Velocity S-wave (km/s) = 2.71968 3.64803 3.21751
# Velocity P-wave (km/s) = 3.84135 5.79889 4.91849
#
# Compressibility (1/GPa) = 0.09846066
#
# Stress axis : x y z
#
# Youngs Moduli (GPa) = 10.25584 86.90416 46.35582
#
# Poissons Ratio (x) = -0.48692 0.63601
# Poissons Ratio (y) = -0.05746 0.36828
# Poissons Ratio (z) = 0.14071 0.69043
#
# Static dielectric constant tensor:
#      x y z
#    x 1.734070 0.000000 0.016620 
#    y 0.000000 1.765310 0.000000 
#    z 0.016620 0.000000 1.827900 
# 
# From -- ./inp_files/12354.got.cif
#   From: 2010.05.17/outbox.cif.g08.bks.cpg/sg12_7_cif.got.tgz:12354.got - 2010.06.03 13:09:07.
