data_PCOD9197944
_publ_section_title
;
Structure prediction by ZEFSAII (Michael W. Deem and Ramdas Pophale) SiO2 
 PCOD9197944
Probable space group: C 2/M
;
_chemical_formula_sum "Si O2"
_cell_formula_units_Z 52
_cell_length_a 12.624062
_cell_length_b 11.819047
_cell_length_c 21.669909
_cell_angle_alpha 90.000000
_cell_angle_beta 128.880136
_cell_angle_gamma 90.000000
_cell_volume 2516.954825
_symmetry_space_group_name_H-M "C 2/M"
_symmetry_group_IT_number 12
_symmetry_cell_setting 'monoclinic'
loop_
_space_group_symop_operation_xyz
x,y,z
-x,y,-z
-x,-y,-z
x,-y,z
1/2+x,1/2+y,z
1/2-x,1/2+y,-z
1/2-x,1/2-y,-z
1/2+x,1/2-y,z
loop_
_atom_site_type_symbol
_atom_site_label
_atom_site_fract_x
_atom_site_fract_y
_atom_site_fract_z
Si Si1 0.161881 0.873060 0.569365
Si Si2 0.000000 0.765556 0.000000
Si Si3 0.513644 0.365189 0.877136
Si Si4 0.780980 0.126413 0.593544
Si Si5 0.907626 0.835910 0.318701
Si Si6 0.732789 0.874585 0.721793
Si Si7 0.236510 0.869852 0.864206
O O1 0.219714 0.754902 0.561153
O O2 0.171194 0.870271 0.647679
O O3 0.000000 0.868528 0.500000
O O4 0.209332 0.000000 0.566097
O O5 0.949391 0.838516 0.039386
O O6 0.122828 0.692490 0.072206
O O7 0.506890 0.500000 0.865098
O O8 0.362115 0.324273 0.804901
O O9 0.622915 0.319180 0.868801
O O10 0.775907 0.121680 0.666164
O O11 0.936389 0.126635 0.626882
O O12 0.721642 0.000000 0.552936
O O13 0.899678 0.700313 0.318194
O O14 0.828801 0.869423 0.227857
O O15 0.706808 0.000000 0.735122
O O16 0.258970 0.000000 0.889695
#
# Coordination Sequence:
#
# PCOD9197944 Si02
#       7
#     8   4   8   8   8   8   8
#     4  10  23  41  60  89 127 157 188 239 297 347
#     4  12  22  36  54  80 110 148 188 232 294 344
#     4  10  20  36  55  77 107 143 184 234 290 344
#     4  10  20  36  63  89 112 152 201 240 281 346
#     4  11  20  37  62  84 112 154 199 236 291 349
#     4   9  18  34  55  82 111 142 189 243 288 340
#     4  11  22  36  55  79 110 148 193 240 282 340
#
# _framework density 20.659886
#
# number of rings (size 3 to 8) (size 9 to 14) (size 15 to 20)
#    0.000    1.692    3.077    2.308    0.000    1.538 
#    0.000    0.000    0.000    0.923    0.000    0.000 
#    0.000    0.000    0.000    0.000    0.000    0.000 
#
# Total GULP energy -144803.435723 kJ/mol
# GULP energy per Si atom -5569.362912 kJ/mol
# Density = 2.061286 g / cm^3
# Si number density = 20.659886 Si / 1000 Ang^3
#
#
#
# Elastic Constant Matrix: (Units=GPa)
#
#
# Indices 1 2 3 4 5 6 
#
# 1 61.5009 35.2065 19.1289 0.0000 -10.7255 0.0000
# 2 35.2065 131.8522 14.5487 0.0000 21.3250 0.0000
# 3 19.1289 14.5487 60.2876 0.0000 -14.5026 0.0000
# 4 0.0000 0.0000 0.0000 -25.8928 0.0000 -0.4462
# 5 -10.7255 21.3250 -14.5026 0.0000 33.6996 0.0000
# 6 0.0000 0.0000 0.0000 -0.4462 0.0000 2.8749
#
#
#
# Elastic Compliance Matrix: (Units=1/GPa)
#
#
# Indices 1 2 3 4 5 6 
#
# 1 0.023566 -0.007777 -0.002914 0.000000 0.011167 0.000000
# 2 -0.007777 0.011831 -0.003105 0.000000 -0.011298 0.000000
# 3 -0.002914 -0.003105 0.020648 0.000000 0.009923 0.000000
# 4 0.000000 0.000000 0.000000 -0.038518 0.000000 -0.005978
# 5 0.011167 -0.011298 0.009923 0.000000 0.044648 0.000000
# 6 0.000000 0.000000 0.000000 -0.005978 0.000000 0.346916
#
#
# Mechanical properties :
#
#
# Convention : Reuss Voigt Hill
#
# Bulk Modulus (GPa) = 35.14674 43.48989 39.31831
# Shear Modulus (GPa) = 11.20654 14.45343 12.82999
#
# Velocity S-wave (km/s) = 2.33154 2.64784 2.49471
# Velocity P-wave (km/s) = 4.92921 5.51763 5.23170
#
# Compressibility (1/GPa) = 0.02845214
#
# Stress axis : x y z
#
# Youngs Moduli (GPa) = 42.43422 84.52573 48.43005
#
# Poissons Ratio (x) = 0.65736 0.14113
# Poissons Ratio (y) = 0.33001 0.15038
# Poissons Ratio (z) = 0.12366 0.26247
#
# Static dielectric constant tensor:
#      x y z
#    x 1.754230 0.000000 -0.008730 
#    y 0.000000 1.811890 0.000000 
#    z -0.008730 0.000000 1.736820 
# 
# From -- ./inp_files/335701.got.cif
#   From: 2010.05.17/outbox.cif.g08.bks.cpg/sg12_168_cif.got.tgz:335701.got - 2010.06.03 13:09:07.
