data_PCOD9197080
_publ_section_title
;
Structure prediction by ZEFSAII (Michael W. Deem and Ramdas Pophale) SiO2 
 PCOD9197080
Probable space group: C 2/M
;
_chemical_formula_sum "Si O2"
_cell_formula_units_Z 56
_cell_length_a 15.129466
_cell_length_b 8.434408
_cell_length_c 21.260028
_cell_angle_alpha 90.000000
_cell_angle_beta 72.431723
_cell_angle_gamma 90.000000
_cell_volume 2586.413884
_symmetry_space_group_name_H-M "C 2/M"
_symmetry_group_IT_number 12
_symmetry_cell_setting 'monoclinic'
loop_
_space_group_symop_operation_xyz
x,y,z
-x,y,-z
-x,-y,-z
x,-y,z
1/2+x,1/2+y,z
1/2-x,1/2+y,-z
1/2-x,1/2-y,-z
1/2+x,1/2-y,z
loop_
_atom_site_type_symbol
_atom_site_label
_atom_site_fract_x
_atom_site_fract_y
_atom_site_fract_z
Si Si1 0.025652 0.191689 0.178327
Si Si2 0.598859 0.817239 0.546200
Si Si3 0.727541 0.319908 0.278749
Si Si4 0.505765 0.323937 0.317735
Si Si5 0.569144 0.693848 0.930345
Si Si6 0.772981 0.689729 0.583471
Si Si7 0.766472 0.311874 0.857004
O O1 0.985403 0.254307 0.254000
O O2 0.134518 0.234402 0.149353
O O3 0.971244 0.245716 0.128412
O O4 0.019989 0.000000 0.183101
O O5 0.524893 0.746858 0.609702
O O6 0.693658 0.786969 0.564662
O O7 0.628854 0.759804 0.470006
O O8 0.575716 0.000000 0.544699
O O9 0.764136 0.500000 0.273965
O O10 0.616467 0.331998 0.294342
O O11 0.739797 0.228355 0.341074
O O12 0.759330 0.228620 0.209867
O O13 0.464127 0.500000 0.325492
O O14 0.569083 0.500000 0.929998
O O15 0.676310 0.742680 0.915277
O O16 0.500000 0.746243 0.000000
O O17 0.763313 0.500000 0.574924
O O18 0.777397 0.500000 0.861084
#
# Coordination Sequence:
#
# PCOD9197080 Si02
#       7
#     8   8   8   8   8   8   8
#     4   9  19  37  58  82 116 155 191 234 288 341
#     4  10  21  35  52  77 107 142 184 231 278 328
#     4  10  21  37  56  80 108 142 184 229 281 335
#     4   9  19  34  53  76 105 142 183 227 278 337
#     4   9  19  36  59  87 117 153 194 229 277 348
#     4  10  21  36  53  75 107 144 183 228 280 333
#     4  10  20  35  58  87 116 150 193 239 285 337
#
# _framework density 21.651599999999998
#
# number of rings (size 3 to 8) (size 9 to 14) (size 15 to 20)
#    0.000    2.429    0.000    2.571    2.000    5.714 
#    0.000    4.286    0.000    3.000    0.000    0.000 
#    0.000    0.000    0.000    0.000    0.000    0.000 
#
# Total GULP energy -156144.007516 kJ/mol
# GULP energy per Si atom -5576.571697 kJ/mol
# Density = 2.160232 g / cm^3
# Si number density = 21.651600 Si / 1000 Ang^3
#
#
#
# Elastic Constant Matrix: (Units=GPa)
#
#
# Indices 1 2 3 4 5 6 
#
# 1 49.2977 -0.7961 27.1397 0.0000 -4.1017 0.0000
# 2 -0.7961 22.0155 -3.5535 0.0000 -2.2961 0.0000
# 3 27.1397 -3.5535 41.9923 0.0000 -17.9000 0.0000
# 4 0.0000 0.0000 0.0000 19.3911 0.0000 -2.9198
# 5 -4.1017 -2.2961 -17.9000 0.0000 36.5207 0.0000
# 6 0.0000 0.0000 0.0000 -2.9198 0.0000 19.0956
#
#
#
# Elastic Compliance Matrix: (Units=1/GPa)
#
#
# Indices 1 2 3 4 5 6 
#
# 1 0.033857 -0.003967 -0.026171 0.000000 -0.009274 0.000000
# 2 -0.003967 0.047608 0.009707 0.000000 0.007305 0.000000
# 3 -0.026171 0.009707 0.051268 0.000000 0.022799 0.000000
# 4 0.000000 0.000000 0.000000 0.052785 0.000000 0.008071
# 5 -0.009274 0.007305 0.022799 0.000000 0.037974 0.000000
# 6 0.000000 0.000000 0.000000 0.008071 0.000000 0.053602
#
#
# Mechanical properties :
#
#
# Convention : Reuss Voigt Hill
#
# Bulk Modulus (GPa) = 10.88491 17.65397 14.26944
# Shear Modulus (GPa) = 14.34384 21.03580 17.68982
#
# Velocity S-wave (km/s) = 2.57667 3.12037 2.86146
# Velocity P-wave (km/s) = 3.72700 4.59930 4.18594
#
# Compressibility (1/GPa) = 0.09187033
#
# Stress axis : x y z
#
# Youngs Moduli (GPa) = 29.53594 21.00495 19.50521
#
# Poissons Ratio (x) = 0.08333 0.51047
# Poissons Ratio (y) = 0.11718 -0.18933
# Poissons Ratio (z) = 0.77298 -0.20389
#
# Static dielectric constant tensor:
#      x y z
#    x 1.820540 0.000000 -0.017150 
#    y 0.000000 1.774600 0.000000 
#    z -0.017150 0.000000 1.846140 
# 
# From -- ./inp_files/313702.got.cif
#   From: 2010.05.17/outbox.cif.g08.bks.cpg/sg12_157_cif.got.tgz:313702.got - 2010.06.03 13:09:07.
