data_PCOD9197623
_publ_section_title
;
Structure prediction by ZEFSAII (Michael W. Deem and Ramdas Pophale) SiO2 
 PCOD9197623
Probable space group: C 2/M
;
_chemical_formula_sum "Si O2"
_cell_formula_units_Z 32
_cell_length_a 7.407262
_cell_length_b 27.400465
_cell_length_c 10.586893
_cell_angle_alpha 90.000000
_cell_angle_beta 47.254092
_cell_angle_gamma 90.000000
_cell_volume 1577.973384
_symmetry_space_group_name_H-M "C 2/M"
_symmetry_group_IT_number 12
_symmetry_cell_setting 'monoclinic'
loop_
_space_group_symop_operation_xyz
x,y,z
-x,y,-z
-x,-y,-z
x,-y,z
1/2+x,1/2+y,z
1/2-x,1/2+y,-z
1/2-x,1/2-y,-z
1/2+x,1/2-y,z
loop_
_atom_site_type_symbol
_atom_site_label
_atom_site_fract_x
_atom_site_fract_y
_atom_site_fract_z
Si Si1 0.237194 0.628928 0.168221
Si Si2 0.903471 0.100806 0.367465
Si Si3 0.872442 0.442508 0.259752
Si Si4 0.165798 0.305555 0.544315
O O1 0.290640 0.604694 0.281102
O O2 0.128587 0.585954 0.133607
O O3 0.026167 0.670898 0.265158
O O4 0.500000 0.648347 0.000000
O O5 0.737778 0.070960 0.547792
O O6 0.890049 0.156866 0.422587
O O7 0.172651 0.078686 0.256941
O O8 0.895401 0.500000 0.234927
O O9 0.250000 0.250000 0.500000
O O10 0.000000 0.311125 0.500000
#
# Coordination Sequence:
#
# PCOD9197623 Si02
#       4
#     8   8   8   8
#     4  10  22  38  53  81 124 148 178 234 289 338
#     4   9  19  36  55  82 111 141 191 239 272 325
#     4  10  20  35  61  83 106 152 195 235 277 321
#     4   9  19  34  59  81 103 146 191 229 277 329
#
# _framework density 20.279176
#
# number of rings (size 3 to 8) (size 9 to 14) (size 15 to 20)
#    0.000    2.500    0.000    3.750    7.000    4.500 
#    0.000    6.250    0.000    0.000    0.000    0.000 
#    0.000    0.000    0.000    0.000    0.000    0.000 
#
# Total GULP energy -89075.544532 kJ/mol
# GULP energy per Si atom -5567.221533 kJ/mol
# Density = 2.023302 g / cm^3
# Si number density = 20.279176 Si / 1000 Ang^3
#
#
#
# Elastic Constant Matrix: (Units=GPa)
#
#
# Indices 1 2 3 4 5 6 
#
# 1 84.5113 33.1606 14.4122 0.0000 -9.0946 0.0000
# 2 33.1606 190.0170 27.1131 0.0000 -27.5563 0.0000
# 3 14.4122 27.1131 48.4780 0.0000 -10.5918 0.0000
# 4 0.0000 0.0000 0.0000 5.8854 0.0000 -3.1601
# 5 -9.0946 -27.5563 -10.5918 0.0000 26.4324 0.0000
# 6 0.0000 0.0000 0.0000 -3.1601 0.0000 32.9658
#
#
#
# Elastic Compliance Matrix: (Units=1/GPa)
#
#
# Indices 1 2 3 4 5 6 
#
# 1 0.013115 -0.001668 -0.002587 0.000000 0.001737 0.000000
# 2 -0.001668 0.006645 -0.002008 0.000000 0.005549 0.000000
# 3 -0.002587 -0.002008 0.023967 0.000000 0.006620 0.000000
# 4 0.000000 0.000000 0.000000 0.179132 0.000000 0.017172
# 5 0.001737 0.005549 0.006620 0.000000 0.046868 0.000000
# 6 0.000000 0.000000 0.000000 0.017172 0.000000 0.031981
#
#
# Mechanical properties :
#
#
# Convention : Reuss Voigt Hill
#
# Bulk Modulus (GPa) = 32.04999 52.48646 42.26823
# Shear Modulus (GPa) = 15.40202 29.61142 22.50672
#
# Velocity S-wave (km/s) = 2.75889 3.82539 3.33505
# Velocity P-wave (km/s) = 5.09778 6.74163 5.97649
#
# Compressibility (1/GPa) = 0.03120126
#
# Stress axis : x y z
#
# Youngs Moduli (GPa) = 76.24732 150.48908 41.72484
#
# Poissons Ratio (x) = 0.25098 0.10793
# Poissons Ratio (y) = 0.12716 0.08379
# Poissons Ratio (z) = 0.19723 0.30222
#
# Static dielectric constant tensor:
#      x y z
#    x 1.712690 0.000000 0.003480 
#    y 0.000000 1.755920 0.000000 
#    z 0.003480 0.000000 1.833920 
# 
# From -- ./inp_files/39692.got.cif
#   From: 2010.05.17/outbox.cif.g08.bks.cpg/sg12_20_cif.got.tgz:39692.got - 2010.06.03 13:09:07.
