data_PCOD9197569
_publ_section_title
;
Structure prediction by ZEFSAII (Michael W. Deem and Ramdas Pophale) SiO2 
 PCOD9197569
Probable space group: C 2/M
;
_chemical_formula_sum "Si O2"
_cell_formula_units_Z 64
_cell_length_a 16.203533
_cell_length_b 23.756843
_cell_length_c 14.396267
_cell_angle_alpha 90.000000
_cell_angle_beta 151.478390
_cell_angle_gamma 90.000000
_cell_volume 2646.139819
_symmetry_space_group_name_H-M "C 2/M"
_symmetry_group_IT_number 12
_symmetry_cell_setting 'monoclinic'
loop_
_space_group_symop_operation_xyz
x,y,z
-x,y,-z
-x,-y,-z
x,-y,z
1/2+x,1/2+y,z
1/2-x,1/2+y,-z
1/2-x,1/2-y,-z
1/2+x,1/2-y,z
loop_
_atom_site_type_symbol
_atom_site_label
_atom_site_fract_x
_atom_site_fract_y
_atom_site_fract_z
Si Si1 0.504504 0.354608 0.795832
Si Si2 0.353012 0.753448 0.287702
Si Si3 0.313420 0.634296 0.205317
Si Si4 0.485391 0.104184 0.771358
Si Si5 0.695824 0.638232 0.232023
Si Si6 0.691666 0.937933 0.236436
Si Si7 0.050310 0.732130 0.293642
Si Si8 0.302440 0.933353 0.180910
O O1 0.523562 0.362368 0.703711
O O2 0.330776 0.365034 0.683327
O O3 0.537420 0.287102 0.841554
O O4 0.649721 0.395268 0.983319
O O5 0.500000 0.728411 0.500000
O O6 0.248197 0.698496 0.154202
O O7 0.269391 0.803065 0.265120
O O8 0.448774 0.775578 0.290466
O O9 0.311608 0.606442 0.303718
O O10 0.170465 0.598803 0.007067
O O11 0.343693 0.071308 0.690012
O O12 0.446214 0.170101 0.743585
O O13 0.528465 0.082797 0.711099
O O14 0.799953 0.588881 0.284149
O O15 0.500000 0.635676 0.000000
O O16 0.759747 0.000000 0.286323
O O17 0.500000 0.933473 0.000000
O O18 0.250000 0.750000 0.500000
O O19 0.270189 0.000000 0.143609
#
# Coordination Sequence:
#
# PCOD9197569 Si02
#       8
#     8   8   8   8   8   8   8   8
#     4   9  21  35  54  86 117 153 193 248 298 362
#     4  11  23  38  57  87 125 161 198 246 308 375
#     4   9  21  34  56  86 118 155 192 246 298 361
#     4  10  20  35  60  91 119 155 198 255 304 361
#     4  10  21  35  57  88 120 157 200 252 297 362
#     4   9  18  33  54  86 118 151 196 243 294 355
#     4  11  23  38  59  90 126 159 200 248 314 377
#     4  10  20  37  60  88 118 157 203 256 309 358
#
# _framework density 24.186174999999999
#
# number of rings (size 3 to 8) (size 9 to 14) (size 15 to 20)
#    0.000    2.125    1.250    1.125    7.000    7.250 
#    0.000    0.000    0.000    2.250    0.000    0.000 
#    0.000    0.000    0.000    0.000    0.000    0.000 
#
# Total GULP energy -178641.996761 kJ/mol
# GULP energy per Si atom -5582.562399 kJ/mol
# Density = 2.413113 g / cm^3
# Si number density = 24.186175 Si / 1000 Ang^3
#
#
#
# Elastic Constant Matrix: (Units=GPa)
#
#
# Indices 1 2 3 4 5 6 
#
# 1 209.3259 82.6324 10.5339 0.0000 14.4208 0.0000
# 2 82.6324 146.7768 13.9558 0.0000 9.3236 0.0000
# 3 10.5339 13.9558 49.3557 0.0000 11.9681 0.0000
# 4 0.0000 0.0000 0.0000 -87.5541 0.0000 -75.1853
# 5 14.4208 9.3236 11.9681 0.0000 21.6841 0.0000
# 6 0.0000 0.0000 0.0000 -75.1853 0.0000 -26.2844
#
#
#
# Elastic Compliance Matrix: (Units=1/GPa)
#
#
# Indices 1 2 3 4 5 6 
#
# 1 0.006301 -0.003393 0.000320 0.000000 -0.002908 0.000000
# 2 -0.003393 0.008922 -0.001634 0.000000 -0.000678 0.000000
# 3 0.000320 -0.001634 0.023709 0.000000 -0.012596 0.000000
# 4 0.000000 0.000000 0.000000 0.007843 0.000000 -0.022433
# 5 -0.002908 -0.000678 -0.012596 0.000000 0.055294 0.000000
# 6 0.000000 0.000000 0.000000 -0.022433 0.000000 0.026124
#
#
# Mechanical properties :
#
#
# Convention : Reuss Voigt Hill
#
# Bulk Modulus (GPa) = 33.87888 68.85585 51.36736
# Shear Modulus (GPa) = 33.91079 1.45821 17.68450
#
# Velocity S-wave (km/s) = 3.74849 0.77732 2.70697
# Velocity P-wave (km/s) = 5.72476 5.41632 5.57267
#
# Compressibility (1/GPa) = 0.02951691
#
# Stress axis : x y z
#
# Youngs Moduli (GPa) = 158.70846 112.08681 42.17766
#
# Poissons Ratio (x) = 0.38030 -0.01349
# Poissons Ratio (y) = 0.53849 0.06893
# Poissons Ratio (z) = -0.05075 0.18317
#
# Static dielectric constant tensor:
#      x y z
#    x 1.961180 0.000000 -0.034970 
#    y 0.000000 1.867050 0.000000 
#    z -0.034970 0.000000 2.018740 
# 
# From -- ./inp_files/218528.got.cif
#   From: 2010.05.17/outbox.cif.g08.bks.cpg/sg12_110_cif.got.tgz:218528.got - 2010.06.03 13:09:07.
