data_PCOD9197616
_publ_section_title
;
Structure prediction by ZEFSAII (Michael W. Deem and Ramdas Pophale) SiO2 
 PCOD9197616
Probable space group: C 2/M
;
_chemical_formula_sum "Si O2"
_cell_formula_units_Z 56
_cell_length_a 15.181294
_cell_length_b 13.541250
_cell_length_c 18.729840
_cell_angle_alpha 90.000000
_cell_angle_beta 133.804399
_cell_angle_gamma 90.000000
_cell_volume 2778.833868
_symmetry_space_group_name_H-M "C 2/M"
_symmetry_group_IT_number 12
_symmetry_cell_setting 'monoclinic'
loop_
_space_group_symop_operation_xyz
x,y,z
-x,y,-z
-x,-y,-z
x,-y,z
1/2+x,1/2+y,z
1/2-x,1/2+y,-z
1/2-x,1/2-y,-z
1/2+x,1/2-y,z
loop_
_atom_site_type_symbol
_atom_site_label
_atom_site_fract_x
_atom_site_fract_y
_atom_site_fract_z
Si Si1 0.404204 0.813020 0.887272
Si Si2 0.599691 0.758620 0.617115
Si Si3 0.963109 0.613588 0.289381
Si Si4 0.879674 0.259886 0.724965
Si Si5 0.188102 0.883133 0.089745
Si Si6 0.148675 0.889546 0.766406
Si Si7 0.431234 0.382987 0.128390
O O1 0.444178 0.815631 0.828026
O O2 0.359462 0.700216 0.881438
O O3 0.289679 0.884186 0.826641
O O4 0.500000 0.841283 0.000000
O O5 0.500000 0.750771 0.500000
O O6 0.576159 0.855806 0.652129
O O7 0.734961 0.745471 0.658503
O O8 0.585622 0.675375 0.670600
O O9 0.003870 0.500000 0.309384
O O10 0.835036 0.621706 0.173973
O O11 0.067146 0.685474 0.314683
O O12 0.936014 0.152140 0.770747
O O13 0.156394 0.000000 0.087600
O O14 0.126338 0.852371 0.979711
O O15 0.145143 0.849546 0.845276
O O16 0.100119 0.000000 0.738556
O O17 0.427854 0.500000 0.121885
#
# Coordination Sequence:
#
# PCOD9197616 Si02
#       7
#     8   8   8   8   8   8   8
#     4  11  21  33  56  89 128 174 210 260 306 379
#     4  11  25  46  72  93 122 165 217 280 334 383
#     4  11  24  44  66  97 137 172 210 262 323 388
#     4  11  22  39  64  93 126 168 214 267 320 382
#     4  10  20  35  60  94 133 177 214 254 311 378
#     4  10  22  41  59  87 127 166 209 263 322 384
#     4  10  20  35  61  93 129 170 214 255 305 379
#
# _framework density 20.152339000000001
#
# number of rings (size 3 to 8) (size 9 to 14) (size 15 to 20)
#    0.000    1.429    5.714    0.000    2.000    6.286 
#    0.000    0.000    0.000    0.000    0.000    0.000 
#    0.000    0.000    0.000    0.000    0.000    0.000 
#
# Total GULP energy -155963.053217 kJ/mol
# GULP energy per Si atom -5570.109043 kJ/mol
# Density = 2.010647 g / cm^3
# Si number density = 20.152339 Si / 1000 Ang^3
#
#
#
# Elastic Constant Matrix: (Units=GPa)
#
#
# Indices 1 2 3 4 5 6 
#
# 1 81.4006 17.0478 23.0307 0.0000 -6.3554 0.0000
# 2 17.0478 59.1844 21.1091 0.0000 -9.6308 0.0000
# 3 23.0307 21.1091 100.2139 0.0000 2.6144 0.0000
# 4 0.0000 0.0000 0.0000 10.6189 0.0000 -8.2827
# 5 -6.3554 -9.6308 2.6144 0.0000 16.5659 0.0000
# 6 0.0000 0.0000 0.0000 -8.2827 0.0000 3.3368
#
#
#
# Elastic Compliance Matrix: (Units=1/GPa)
#
#
# Indices 1 2 3 4 5 6 
#
# 1 0.013911 -0.002269 -0.002835 0.000000 0.004465 0.000000
# 2 -0.002269 0.021008 -0.004217 0.000000 0.012008 0.000000
# 3 -0.002835 -0.004217 0.011659 0.000000 -0.005379 0.000000
# 4 0.000000 0.000000 0.000000 -0.100598 0.000000 -0.249707
# 5 0.004465 0.012008 -0.005379 0.000000 0.069908 0.000000
# 6 0.000000 0.000000 0.000000 -0.249707 0.000000 -0.320139
#
#
# Mechanical properties :
#
#
# Convention : Reuss Voigt Hill
#
# Bulk Modulus (GPa) = 35.79749 40.35268 38.07508
# Shear Modulus (GPa) = -18.09656 18.07839 -0.00908
#
# Velocity S-wave (km/s) = -2.99990 2.99839 -0.06720
# Velocity P-wave (km/s) = 2.40891 5.66166 4.35070
#
# Compressibility (1/GPa) = 0.02793492
#
# Stress axis : x y z
#
# Youngs Moduli (GPa) = 71.88554 47.60080 85.77144
#
# Poissons Ratio (x) = 0.10801 0.24320
# Poissons Ratio (y) = 0.16311 0.36169
# Poissons Ratio (z) = 0.20383 0.20073
#
# Static dielectric constant tensor:
#      x y z
#    x 1.808420 0.000000 -0.012080 
#    y 0.000000 1.782980 0.000000 
#    z -0.012080 0.000000 1.686040 
# 
# From -- ./inp_files/270393.got.cif
#   From: 2010.05.17/outbox.cif.g08.bks.cpg/sg12_136_cif.got.tgz:270393.got - 2010.06.03 13:09:07.
