data_PCOD9197414
_publ_section_title
;
Structure prediction by ZEFSAII (Michael W. Deem and Ramdas Pophale) SiO2 
 PCOD9197414
Probable space group: C 2/M
;
_chemical_formula_sum "Si O2"
_cell_formula_units_Z 56
_cell_length_a 30.413476
_cell_length_b 9.113677
_cell_length_c 21.039499
_cell_angle_alpha 90.000000
_cell_angle_beta 28.709989
_cell_angle_gamma 90.000000
_cell_volume 2801.410553
_symmetry_space_group_name_H-M "C 2/M"
_symmetry_group_IT_number 12
_symmetry_cell_setting 'monoclinic'
loop_
_space_group_symop_operation_xyz
x,y,z
-x,y,-z
-x,-y,-z
x,-y,z
1/2+x,1/2+y,z
1/2-x,1/2+y,-z
1/2-x,1/2-y,-z
1/2+x,1/2-y,z
loop_
_atom_site_type_symbol
_atom_site_label
_atom_site_fract_x
_atom_site_fract_y
_atom_site_fract_z
Si Si1 0.331795 0.332643 0.928840
Si Si2 0.525363 0.175172 0.668048
Si Si3 0.091476 0.677467 0.841690
Si Si4 0.425150 0.175382 0.541866
Si Si5 0.076983 0.833571 0.725631
Si Si6 0.761651 0.331302 0.244974
Si Si7 0.636577 0.655793 0.972487
O O1 0.346166 0.500000 0.887858
O O2 0.423540 0.238887 0.804984
O O3 0.250000 0.250000 0.000000
O O4 0.307313 0.341873 0.034079
O O5 0.549318 0.206761 0.564157
O O6 0.586848 0.252448 0.645048
O O7 0.527647 0.000000 0.674721
O O8 0.086573 0.500000 0.844525
O O9 0.100481 0.745220 0.759934
O O10 0.185978 0.718929 0.757930
O O11 0.000000 0.723694 0.000000
O O12 0.500000 0.225903 0.500000
O O13 0.324517 0.244703 0.673350
O O14 0.418584 0.000000 0.557461
O O15 0.115117 0.000000 0.675836
O O16 0.967674 0.847702 0.873702
O O17 0.736923 0.500000 0.282875
O O18 0.842213 0.301067 0.092574
O O19 0.654981 0.500000 0.914245
#
# Coordination Sequence:
#
# PCOD9197414 Si02
#       7
#     8   8   8   8   8   8   8
#     4  10  21  35  54  83 116 151 193 245 300 358
#     4  10  21  39  61  83 114 157 199 245 304 360
#     4  10  20  36  58  89 129 162 194 241 300 364
#     4  10  24  45  65  84 114 160 205 250 304 360
#     4  10  20  35  59  90 121 157 196 241 294 352
#     4  11  23  37  59  90 120 155 200 250 298 349
#     4   9  19  34  52  79 118 156 189 233 291 354
#
# _framework density 19.989927999999999
#
# number of rings (size 3 to 8) (size 9 to 14) (size 15 to 20)
#    0.000    2.000    1.429    2.571    2.000    5.714 
#    0.000    0.714    0.000    0.000    0.000    0.000 
#    0.000    0.000    0.000    0.000    0.000    0.000 
#
# Total GULP energy -155901.160295 kJ/mol
# GULP energy per Si atom -5567.898582 kJ/mol
# Density = 1.994443 g / cm^3
# Si number density = 19.989928 Si / 1000 Ang^3
#
#
#
# Elastic Constant Matrix: (Units=GPa)
#
#
# Indices 1 2 3 4 5 6 
#
# 1 125.7618 37.8237 11.2164 -0.0053 -1.5999 0.0027
# 2 37.8237 36.0876 10.5240 0.0013 12.4612 -0.0005
# 3 11.2164 10.5240 25.0752 -0.0042 4.6849 0.0021
# 4 -0.0053 0.0013 -0.0042 17.7456 0.0003 3.8017
# 5 -1.5999 12.4612 4.6849 0.0003 22.7984 0.0000
# 6 0.0027 -0.0005 0.0021 3.8017 0.0000 24.4801
#
#
#
# Elastic Compliance Matrix: (Units=1/GPa)
#
#
# Indices 1 2 3 4 5 6 
#
# 1 0.013432 -0.017585 -0.000624 0.000006 0.010682 -0.000003
# 2 -0.017585 0.060550 -0.011577 -0.000013 -0.031950 0.000006
# 3 -0.000624 -0.011577 0.045594 0.000013 -0.003085 -0.000006
# 4 0.000006 -0.000013 0.000013 0.058291 0.000004 -0.009053
# 5 0.010682 -0.031950 -0.003085 0.000004 0.062710 -0.000002
# 6 -0.000003 0.000006 -0.000006 -0.009053 -0.000002 0.042255
#
#
# Mechanical properties :
#
#
# Convention : Reuss Voigt Hill
#
# Bulk Modulus (GPa) = 16.66536 34.00587 25.33561
# Shear Modulus (GPa) = 13.79669 21.49552 17.64610
#
# Velocity S-wave (km/s) = 2.62998 3.28276 2.97433
# Velocity P-wave (km/s) = 4.19254 5.60510 4.94947
#
# Compressibility (1/GPa) = 0.06000470
#
# Stress axis : x y z
#
# Youngs Moduli (GPa) = 74.45022 16.51530 21.93247
#
# Poissons Ratio (x) = 0.29042 0.01368
# Poissons Ratio (y) = 1.30919 0.25392
# Poissons Ratio (z) = 0.04644 0.19120
#
# Static dielectric constant tensor:
#      x y z
#    x 1.678420 0.000030 0.016500 
#    y 0.000030 1.682450 0.000000 
#    z 0.016500 0.000000 1.745120 
# 
# From -- ./inp_files/281006.got.cif
#   From: 2010.05.17/outbox.cif.g08.bks.cpg/sg12_141_cif.got.tgz:281006.got - 2010.06.03 13:09:07.
