data_PCOD9197010
_publ_section_title
;
Structure prediction by ZEFSAII (Michael W. Deem and Ramdas Pophale) SiO2 
 PCOD9197010
Probable space group: C 2/M
;
_chemical_formula_sum "Si O2"
_cell_formula_units_Z 48
_cell_length_a 19.449608
_cell_length_b 11.825735
_cell_length_c 12.953055
_cell_angle_alpha 90.000000
_cell_angle_beta 43.242194
_cell_angle_gamma 90.000000
_cell_volume 2041.055770
_symmetry_space_group_name_H-M "C 2/M"
_symmetry_group_IT_number 12
_symmetry_cell_setting 'monoclinic'
loop_
_space_group_symop_operation_xyz
x,y,z
-x,y,-z
-x,-y,-z
x,-y,z
1/2+x,1/2+y,z
1/2-x,1/2+y,-z
1/2-x,1/2-y,-z
1/2+x,1/2-y,z
loop_
_atom_site_type_symbol
_atom_site_label
_atom_site_fract_x
_atom_site_fract_y
_atom_site_fract_z
Si Si1 0.710707 0.792418 0.896211
Si Si2 0.440083 0.128788 0.456286
Si Si3 0.652924 0.876796 0.739871
Si Si4 0.347978 0.878965 0.829907
Si Si5 0.130682 0.873133 0.546072
Si Si6 0.000936 0.825133 0.114459
O O1 0.698284 0.859217 0.804691
O O2 0.809943 0.717615 0.795726
O O3 0.708974 0.867247 0.000204
O O4 0.615955 0.707095 0.010622
O O5 0.500000 0.130458 0.500000
O O6 0.534705 0.128294 0.274769
O O7 0.389912 0.251297 0.487863
O O8 0.392766 0.000000 0.499290
O O9 0.749840 0.866788 0.559826
O O10 0.566564 0.786775 0.824256
O O11 0.608720 0.000000 0.776555
O O12 0.326326 0.000000 0.805580
O O13 0.056748 0.878994 0.725600
O O14 0.119427 0.000000 0.506674
O O15 0.000000 0.877975 0.000000
#
# Coordination Sequence:
#
# PCOD9197010 Si02
#       6
#     8   8   8   8   8   8
#     4  10  20  37  58  90 119 155 207 261 314 369
#     4  10  21  39  63  92 126 168 215 259 309 377
#     4  10  22  39  63  89 122 162 208 263 319 377
#     4  10  20  35  58  85 120 160 205 255 309 370
#     4  11  23  41  62  93 132 166 207 261 324 382
#     4  10  22  40  62  89 122 164 214 263 311 374
#
# _framework density 23.517240999999999
#
# number of rings (size 3 to 8) (size 9 to 14) (size 15 to 20)
#    0.000    1.833    1.667    2.000    0.000    5.667 
#    0.000    4.167    0.000    0.000    0.000    0.000 
#    0.000    0.000    0.000    0.000    0.000    0.000 
#
# Total GULP energy -133765.540535 kJ/mol
# GULP energy per Si atom -5573.564189 kJ/mol
# Density = 2.346371 g / cm^3
# Si number density = 23.517241 Si / 1000 Ang^3
#
#
#
# Elastic Constant Matrix: (Units=GPa)
#
#
# Indices 1 2 3 4 5 6 
#
# 1 58.4978 35.5284 4.2650 0.0000 12.1281 0.0000
# 2 35.5284 197.7079 14.8410 0.0000 -4.3245 0.0000
# 3 4.2650 14.8410 96.4444 0.0000 5.0993 0.0000
# 4 0.0000 0.0000 0.0000 23.8680 0.0000 -15.7816
# 5 12.1281 -4.3245 5.0993 0.0000 36.3631 0.0000
# 6 0.0000 0.0000 0.0000 -15.7816 0.0000 12.2560
#
#
#
# Elastic Compliance Matrix: (Units=1/GPa)
#
#
# Indices 1 2 3 4 5 6 
#
# 1 0.021044 -0.003951 0.000074 0.000000 -0.007499 0.000000
# 2 -0.003951 0.005878 -0.000843 0.000000 0.002135 0.000000
# 3 0.000074 -0.000843 0.010580 0.000000 -0.001609 0.000000
# 4 0.000000 0.000000 0.000000 0.281952 0.000000 0.363058
# 5 -0.007499 0.002135 -0.001609 0.000000 0.030481 0.000000
# 6 0.000000 0.000000 0.000000 0.363058 0.000000 0.549088
#
#
# Mechanical properties :
#
#
# Convention : Reuss Voigt Hill
#
# Bulk Modulus (GPa) = 35.63545 51.32431 43.47988
# Shear Modulus (GPa) = 5.44771 34.36513 19.90642
#
# Velocity S-wave (km/s) = 1.52365 3.82681 2.91256
# Velocity P-wave (km/s) = 4.27565 6.43408 5.46254
#
# Compressibility (1/GPa) = 0.02806194
#
# Stress axis : x y z
#
# Youngs Moduli (GPa) = 47.52017 170.12732 94.51684
#
# Poissons Ratio (x) = 0.67220 -0.00699
# Poissons Ratio (y) = 0.18776 0.07965
# Poissons Ratio (z) = -0.00351 0.14336
#
# Static dielectric constant tensor:
#      x y z
#    x 1.873530 0.000000 0.066650 
#    y 0.000000 1.897370 0.000000 
#    z 0.066650 0.000000 1.954770 
# 
# From -- ./inp_files/232813.got.cif
#   From: 2010.05.17/outbox.cif.g08.bks.cpg/sg12_117_cif.got.tgz:232813.got - 2010.06.03 13:09:07.
