data_PCOD9197117
_publ_section_title
;
Structure prediction by ZEFSAII (Michael W. Deem and Ramdas Pophale) SiO2 
 PCOD9197117
Probable space group: C 2/M
;
_chemical_formula_sum "Si O2"
_cell_formula_units_Z 48
_cell_length_a 24.243129
_cell_length_b 14.292024
_cell_length_c 13.358242
_cell_angle_alpha 90.000000
_cell_angle_beta 147.355138
_cell_angle_gamma 90.000000
_cell_volume 2496.703754
_symmetry_space_group_name_H-M "C 2/M"
_symmetry_group_IT_number 12
_symmetry_cell_setting 'monoclinic'
loop_
_space_group_symop_operation_xyz
x,y,z
-x,y,-z
-x,-y,-z
x,-y,z
1/2+x,1/2+y,z
1/2-x,1/2+y,-z
1/2-x,1/2-y,-z
1/2+x,1/2-y,z
loop_
_atom_site_type_symbol
_atom_site_label
_atom_site_fract_x
_atom_site_fract_y
_atom_site_fract_z
Si Si1 0.920833 0.212711 0.287871
Si Si2 0.435485 0.105456 0.800732
Si Si3 0.721142 0.888523 0.908734
Si Si4 0.985648 0.788629 0.782238
Si Si5 0.710412 0.610495 0.429984
Si Si6 0.319666 0.610484 0.843290
O O1 0.872012 0.317601 0.211278
O O2 0.000000 0.201230 0.500000
O O3 0.985725 0.191824 0.287668
O O4 0.820027 0.145686 0.124973
O O5 0.479214 0.178545 0.789922
O O6 0.318382 0.129759 0.646387
O O7 0.435767 0.000000 0.761164
O O8 0.500000 0.109548 0.000000
O O9 0.751159 0.871994 0.837104
O O10 0.702587 0.000000 0.894048
O O11 0.881045 0.833388 0.660625
O O12 0.077014 0.831298 0.987453
O O13 0.687228 0.500000 0.402821
O O14 0.725615 0.631350 0.335027
O O15 0.344581 0.500000 0.883739
#
# Coordination Sequence:
#
# PCOD9197117 Si02
#       6
#     8   8   8   8   8   8
#     4  10  23  40  59  89 121 153 205 251 285 349
#     4  10  22  38  52  78 119 154 189 229 276 346
#     4   9  20  41  63  86 119 157 196 246 299 345
#     4  11  21  35  58  83 115 150 186 234 293 336
#     4  10  20  35  58  88 113 143 187 233 288 351
#     4   9  18  34  61  89 113 139 183 240 291 345
#
# _framework density 19.225349000000001
#
# number of rings (size 3 to 8) (size 9 to 14) (size 15 to 20)
#    0.000    2.167    0.000    2.500    2.333    3.333 
#    6.000    0.000    0.000    0.000    0.000    0.000 
#    0.000    0.000    0.000    0.000    0.000    0.000 
#
# Total GULP energy -133927.221431 kJ/mol
# GULP energy per Si atom -5580.300893 kJ/mol
# Density = 1.918159 g / cm^3
# Si number density = 19.225349 Si / 1000 Ang^3
#
#
#
# Elastic Constant Matrix: (Units=GPa)
#
#
# Indices 1 2 3 4 5 6 
#
# 1 36.6425 18.4114 34.4174 0.0000 -3.2409 0.0000
# 2 18.4114 62.3774 21.8200 0.0000 -0.0109 0.0000
# 3 34.4174 21.8200 105.2950 0.0000 -5.1296 0.0000
# 4 0.0000 0.0000 0.0000 0.0179 0.0000 10.3623
# 5 -3.2409 -0.0109 -5.1296 0.0000 7.4322 0.0000
# 6 0.0000 0.0000 0.0000 10.3623 0.0000 26.9720
#
#
#
# Elastic Compliance Matrix: (Units=1/GPa)
#
#
# Indices 1 2 3 4 5 6 
#
# 1 0.043943 -0.008764 -0.012019 0.000000 0.010854 0.000000
# 2 -0.008764 0.019079 -0.001318 0.000000 -0.004703 0.000000
# 3 -0.012019 -0.001318 0.013911 0.000000 0.004359 0.000000
# 4 0.000000 0.000000 0.000000 -0.252325 0.000000 0.096940
# 5 0.010854 -0.004703 0.004359 0.000000 0.142284 0.000000
# 6 0.000000 0.000000 0.000000 0.096940 0.000000 -0.000168
#
#
# Mechanical properties :
#
#
# Convention : Reuss Voigt Hill
#
# Bulk Modulus (GPa) = 30.55201 39.29029 34.92115
# Shear Modulus (GPa) = 228.97893 15.52882 122.25388
#
# Velocity S-wave (km/s) = 10.92525 2.84514 7.98298
# Velocity P-wave (km/s) = 13.23156 5.59233 10.15747
#
# Compressibility (1/GPa) = 0.03273107
#
# Stress axis : x y z
#
# Youngs Moduli (GPa) = 22.75670 52.41489 71.88537
#
# Poissons Ratio (x) = 0.45938 0.86396
# Poissons Ratio (y) = 0.19945 0.09474
# Poissons Ratio (z) = 0.27350 0.06908
#
# Static dielectric constant tensor:
#      x y z
#    x 1.655820 0.000000 0.003010 
#    y 0.000000 1.687940 0.000000 
#    z 0.003010 0.000000 1.679340 
# 
# From -- ./inp_files/142709.got.cif
#   From: 2010.05.17/outbox.cif.g08.bks.cpg/sg12_72_cif.got.tgz:142709.got - 2010.06.03 13:09:07.
