data_PCOD9197756
_publ_section_title
;
Structure prediction by ZEFSAII (Michael W. Deem and Ramdas Pophale) SiO2 
 PCOD9197756
Probable space group: C 2/M
;
_chemical_formula_sum "Si O2"
_cell_formula_units_Z 60
_cell_length_a 9.212892
_cell_length_b 19.940481
_cell_length_c 16.997947
_cell_angle_alpha 90.000000
_cell_angle_beta 84.142864
_cell_angle_gamma 90.000000
_cell_volume 3106.382147
_symmetry_space_group_name_H-M "C 2/M"
_symmetry_group_IT_number 12
_symmetry_cell_setting 'monoclinic'
loop_
_space_group_symop_operation_xyz
x,y,z
-x,y,-z
-x,-y,-z
x,-y,z
1/2+x,1/2+y,z
1/2-x,1/2+y,-z
1/2-x,1/2-y,-z
1/2+x,1/2-y,z
loop_
_atom_site_type_symbol
_atom_site_label
_atom_site_fract_x
_atom_site_fract_y
_atom_site_fract_z
Si Si1 0.411100 0.808471 0.665785
Si Si2 0.977893 0.345981 0.918737
Si Si3 0.781735 0.239337 0.124478
Si Si4 0.500000 0.389871 0.500000
Si Si5 0.151852 0.771096 0.576690
Si Si6 0.465322 0.079123 0.249988
Si Si7 0.523837 0.308204 0.221659
Si Si8 0.365822 0.576065 0.670917
O O1 0.255369 0.783020 0.645396
O O2 0.529028 0.785039 0.594911
O O3 0.425655 0.883389 0.695572
O O4 0.465940 0.762259 0.733549
O O5 0.088855 0.282963 0.919352
O O6 0.817557 0.313437 0.916835
O O7 0.016929 0.387436 0.837411
O O8 0.000000 0.384196 0.000000
O O9 0.667818 0.297040 0.160132
O O10 0.872009 0.194871 0.183433
O O11 0.590910 0.341674 0.551810
O O12 0.601489 0.422396 0.425701
O O13 0.250000 0.750000 0.500000
O O14 0.303595 0.089576 0.296832
O O15 0.490955 0.000000 0.243508
O O16 0.547098 0.368406 0.282286
O O17 0.400868 0.500000 0.694771
#
# Coordination Sequence:
#
# PCOD9197756 Si02
#       8
#     8   8   8   4   8   8   8   8
#     4  12  21  36  63  85 115 153 202 253 294 357
#     4  11  22  38  62  95 127 160 197 250 309 365
#     4  10  20  35  63  93 124 150 200 252 297 356
#     4  12  23  38  58  88 123 158 202 246 307 372
#     4  12  22  35  58  91 118 151 198 250 306 353
#     4  11  24  41  62  87 120 164 209 250 305 368
#     4  11  18  36  62  87 114 159 198 247 299 352
#     4  11  23  40  60  86 121 162 203 250 303 365
#
# _framework density 19.315073999999999
#
# number of rings (size 3 to 8) (size 9 to 14) (size 15 to 20)
#    0.000    0.800    6.667    3.000    0.000    0.267 
#    0.000    3.333    0.000    3.200    0.000    1.867 
#    0.000    0.000    0.000    0.000    0.000    0.000 
#
# Total GULP energy -167066.782140 kJ/mol
# GULP energy per Si atom -5568.892738 kJ/mol
# Density = 1.927111 g / cm^3
# Si number density = 19.315074 Si / 1000 Ang^3
#
#
#
# Elastic Constant Matrix: (Units=GPa)
#
#
# Indices 1 2 3 4 5 6 
#
# 1 102.8373 22.9246 33.0986 0.0000 19.0146 0.0000
# 2 22.9246 88.0576 23.8937 0.0000 10.0760 0.0000
# 3 33.0986 23.8937 81.2570 0.0000 10.9538 0.0000
# 4 0.0000 0.0000 0.0000 15.9254 0.0000 2.6397
# 5 19.0146 10.0760 10.9538 0.0000 28.9746 0.0000
# 6 0.0000 0.0000 0.0000 2.6397 0.0000 11.9216
#
#
#
# Elastic Compliance Matrix: (Units=1/GPa)
#
#
# Indices 1 2 3 4 5 6 
#
# 1 0.012422 -0.001498 -0.003784 0.000000 -0.006201 0.000000
# 2 -0.001498 0.012787 -0.002827 0.000000 -0.002395 0.000000
# 3 -0.003784 -0.002827 0.014975 0.000000 -0.002195 0.000000
# 4 0.000000 0.000000 0.000000 0.065185 0.000000 -0.014433
# 5 -0.006201 -0.002395 -0.002195 0.000000 0.040245 0.000000
# 6 0.000000 0.000000 0.000000 -0.014433 0.000000 0.087077
#
#
# Mechanical properties :
#
#
# Convention : Reuss Voigt Hill
#
# Bulk Modulus (GPa) = 41.72320 47.99841 44.86081
# Shear Modulus (GPa) = 19.46295 24.17998 21.82147
#
# Velocity S-wave (km/s) = 3.17780 3.54202 3.36484
# Velocity P-wave (km/s) = 5.92561 6.45229 6.19455
#
# Compressibility (1/GPa) = 0.02396748
#
# Stress axis : x y z
#
# Youngs Moduli (GPa) = 80.50020 78.20256 66.77755
#
# Poissons Ratio (x) = 0.11713 0.25267
# Poissons Ratio (y) = 0.12057 0.18879
# Poissons Ratio (z) = 0.30459 0.22109
#
# Static dielectric constant tensor:
#      x y z
#    x 1.723620 0.000000 -0.062460 
#    y 0.000000 1.692030 0.000000 
#    z -0.062460 0.000000 1.771510 
# 
# From -- ./inp_files/258065.got.cif
#   From: 2010.05.17/outbox.cif.g08.bks.cpg/sg12_130_cif.got.tgz:258065.got - 2010.06.03 13:09:07.
