data_PCOD9197171
_publ_section_title
;
Structure prediction by ZEFSAII (Michael W. Deem and Ramdas Pophale) SiO2 
 PCOD9197171
Probable space group: C 2/M
;
_chemical_formula_sum "Si O2"
_cell_formula_units_Z 64
_cell_length_a 14.854460
_cell_length_b 7.666684
_cell_length_c 30.910907
_cell_angle_alpha 90.000000
_cell_angle_beta 54.263224
_cell_angle_gamma 90.000000
_cell_volume 2857.435514
_symmetry_space_group_name_H-M "C 2/M"
_symmetry_group_IT_number 12
_symmetry_cell_setting 'monoclinic'
loop_
_space_group_symop_operation_xyz
x,y,z
-x,y,-z
-x,-y,-z
x,-y,z
1/2+x,1/2+y,z
1/2-x,1/2+y,-z
1/2-x,1/2-y,-z
1/2+x,1/2-y,z
loop_
_atom_site_type_symbol
_atom_site_label
_atom_site_fract_x
_atom_site_fract_y
_atom_site_fract_z
Si Si1 0.219172 0.702060 0.160596
Si Si2 0.700908 0.709826 0.561056
Si Si3 0.305526 0.714066 0.046531
Si Si4 0.928347 0.201024 0.932609
Si Si5 0.096425 0.711282 0.439073
Si Si6 0.542989 0.700882 0.358118
Si Si7 0.005650 0.204336 0.822910
Si Si8 0.249990 0.799909 0.249233
O O1 0.246315 0.500000 0.160741
O O2 0.297776 0.764265 0.098955
O O3 0.232499 0.792953 0.202591
O O4 0.092925 0.714481 0.177811
O O5 0.693921 0.500000 0.564332
O O6 0.750000 0.750000 0.500000
O O7 0.789030 0.766398 0.571711
O O8 0.579524 0.781765 0.605836
O O9 0.299906 0.500000 0.046505
O O10 0.193487 0.787336 0.055824
O O11 0.405787 0.771168 0.987084
O O12 0.002229 0.278033 0.873309
O O13 0.963218 0.000000 0.928989
O O14 0.094260 0.500000 0.434789
O O15 0.079142 0.794616 0.397703
O O16 0.000000 0.757357 0.500000
O O17 0.530795 0.500000 0.346301
O O18 0.641454 0.781385 0.302134
O O19 0.131160 0.220520 0.771991
O O20 0.977261 0.000000 0.833494
O O21 0.256681 0.000000 0.261671
#
# Coordination Sequence:
#
# PCOD9197171 Si02
#       8
#     8   8   8   8   8   8   8   8
#     4  10  20  36  59  85 113 149 191 237 293 350
#     4  10  20  36  58  85 116 146 177 215 265 323
#     4   8  14  26  47  76 108 140 177 226 284 346
#     4   8  14  26  47  76 107 139 179 227 283 348
#     4  10  20  35  58  89 120 147 178 217 269 332
#     4  10  23  40  58  82 112 149 190 232 276 324
#     4  10  20  36  59  84 111 149 193 239 295 349
#     4  11  24  41  57  79 114 153 201 248 284 331
#
# _framework density 22.397705999999999
#
# number of rings (size 3 to 8) (size 9 to 14) (size 15 to 20)
#    0.000    2.375    1.250    1.125    0.000    3.750 
#    0.000    1.875    0.000    3.750    0.000    0.000 
#    0.000    0.000    0.000    0.000    0.000    0.000 
#
# Total GULP energy -178596.955379 kJ/mol
# GULP energy per Si atom -5581.154856 kJ/mol
# Density = 2.234673 g / cm^3
# Si number density = 22.397706 Si / 1000 Ang^3
#
#
#
# Elastic Constant Matrix: (Units=GPa)
#
#
# Indices 1 2 3 4 5 6 
#
# 1 76.7342 -4.3379 20.7191 -0.0011 -15.0443 0.0015
# 2 -4.3379 47.9746 0.4193 0.0044 -4.4862 -0.0049
# 3 20.7191 0.4193 90.4454 -0.0041 -21.0187 0.0048
# 4 -0.0011 0.0044 -0.0041 -498.7294 -0.0011 608.0510
# 5 -15.0443 -4.4862 -21.0187 -0.0011 33.7978 0.0014
# 6 0.0015 -0.0049 0.0048 608.0510 0.0014 -691.3338
#
#
#
# Elastic Compliance Matrix: (Units=1/GPa)
#
#
# Indices 1 2 3 4 5 6 
#
# 1 0.014790 0.001872 -0.002115 0.000000 0.005517 0.000000
# 2 0.001872 0.021376 0.000380 0.000000 0.003907 0.000000
# 3 -0.002115 0.000380 0.013246 0.000000 0.007347 0.000000
# 4 0.000000 0.000000 0.000000 0.027723 0.000000 0.024383
# 5 0.005517 0.003907 0.007347 0.000000 0.037131 0.000000
# 6 0.000000 0.000000 0.000000 0.024383 0.000000 0.019999
#
#
# Mechanical properties :
#
#
# Convention : Reuss Voigt Hill
#
# Bulk Modulus (GPa) = 20.12619 27.63948 23.88283
# Shear Modulus (GPa) = 33.21076 -218.02952 -92.40938
#
# Velocity S-wave (km/s) = 3.85486 -9.87704 -6.43024
# Velocity P-wave (km/s) = 5.36829 10.84931 6.66666
#
# Compressibility (1/GPa) = 0.04968651
#
# Stress axis : x y z
#
# Youngs Moduli (GPa) = 67.61114 46.78231 75.49181
#
# Poissons Ratio (x) = -0.08756 0.15965
# Poissons Ratio (y) = -0.12655 -0.02869
# Poissons Ratio (z) = 0.14298 -0.01778
#
# Static dielectric constant tensor:
#      x y z
#    x 1.809830 0.000000 -0.030030 
#    y 0.000000 1.859200 0.000000 
#    z -0.030030 0.000000 1.860510 
# 
# From -- ./inp_files/375408.got.cif
#   From: 2010.05.17/outbox.cif.g08.bks.cpg/sg12_188_cif.got.tgz:375408.got - 2010.06.03 13:09:07.
