data_PCOD9197690
_publ_section_title
;
Structure prediction by ZEFSAII (Michael W. Deem and Ramdas Pophale) SiO2 
 PCOD9197690
Probable space group: C 2/M
;
_chemical_formula_sum "Si O2"
_cell_formula_units_Z 40
_cell_length_a 15.044761
_cell_length_b 17.555391
_cell_length_c 7.382596
_cell_angle_alpha 90.000000
_cell_angle_beta 75.935279
_cell_angle_gamma 90.000000
_cell_volume 1891.413186
_symmetry_space_group_name_H-M "C 2/M"
_symmetry_group_IT_number 12
_symmetry_cell_setting 'monoclinic'
loop_
_space_group_symop_operation_xyz
x,y,z
-x,y,-z
-x,-y,-z
x,-y,z
1/2+x,1/2+y,z
1/2-x,1/2+y,-z
1/2-x,1/2-y,-z
1/2+x,1/2-y,z
loop_
_atom_site_type_symbol
_atom_site_label
_atom_site_fract_x
_atom_site_fract_y
_atom_site_fract_z
Si Si1 0.397191 0.412127 0.027324
Si Si2 0.401594 0.412806 0.595581
Si Si3 0.779786 0.337751 0.345103
Si Si4 0.719208 0.176450 0.253392
Si Si5 0.603912 0.910881 0.014152
O O1 0.401174 0.500000 0.089181
O O2 0.383880 0.412098 0.818187
O O3 0.500000 0.378776 0.000000
O O4 0.310151 0.372526 0.160165
O O5 0.500000 0.379443 0.500000
O O6 0.401514 0.500000 0.532149
O O7 0.319573 0.368127 0.550438
O O8 0.758697 0.262685 0.236530
O O9 0.823074 0.327513 0.521950
O O10 0.833233 0.396275 0.193052
O O11 0.643217 0.145711 0.149422
O O12 0.611209 0.000000 0.067507
O O13 0.500000 0.895719 0.000000
#
# Coordination Sequence:
#
# PCOD9197690 Si02
#       5
#     8   8   8   8   8
#     4  10  20  35  61  95 127 166 212 265 331 395
#     4  10  20  36  60  93 128 163 207 260 323 397
#     4  11  24  43  64  96 132 171 216 272 339 398
#     4  11  24  43  64  96 134 172 219 272 338 400
#     4  11  25  45  69  96 128 178 234 278 325 385
#
# _framework density 21.148209000000001
#
# number of rings (size 3 to 8) (size 9 to 14) (size 15 to 20)
#    0.000    1.400    2.000    3.000    0.000    6.400 
#    7.200    2.000    0.000    0.000    0.000    0.000 
#    0.000    0.000    0.000    0.000    0.000    0.000 
#
# Total GULP energy -111576.311590 kJ/mol
# GULP energy per Si atom -5578.815579 kJ/mol
# Density = 2.110008 g / cm^3
# Si number density = 21.148209 Si / 1000 Ang^3
#
#
#
# Elastic Constant Matrix: (Units=GPa)
#
#
# Indices 1 2 3 4 5 6 
#
# 1 119.4787 42.8981 42.8094 0.0000 -4.7220 0.0000
# 2 42.8981 65.1144 29.7154 0.0000 -0.6289 0.0000
# 3 42.8094 29.7154 96.8013 0.0000 12.7021 0.0000
# 4 0.0000 0.0000 0.0000 53.5980 0.0000 -11.1700
# 5 -4.7220 -0.6289 12.7021 0.0000 36.7112 0.0000
# 6 0.0000 0.0000 0.0000 -11.1700 0.0000 11.5108
#
#
#
# Elastic Compliance Matrix: (Units=1/GPa)
#
#
# Indices 1 2 3 4 5 6 
#
# 1 0.012060 -0.006186 -0.003797 0.000000 0.002759 0.000000
# 2 -0.006186 0.021221 -0.003899 0.000000 0.000917 0.000000
# 3 -0.003797 -0.003899 0.013911 0.000000 -0.005368 0.000000
# 4 0.000000 0.000000 0.000000 0.023387 0.000000 0.022695
# 5 0.002759 0.000917 -0.005368 0.000000 0.029468 0.000000
# 6 0.000000 0.000000 0.000000 0.022695 0.000000 0.108898
#
#
# Mechanical properties :
#
#
# Convention : Reuss Voigt Hill
#
# Bulk Modulus (GPa) = 51.46963 56.91560 54.19261
# Shear Modulus (GPa) = 20.56055 31.42876 25.99465
#
# Velocity S-wave (km/s) = 3.12141 3.85920 3.50975
# Velocity P-wave (km/s) = 6.11403 6.84318 6.48886
#
# Compressibility (1/GPa) = 0.01942893
#
# Stress axis : x y z
#
# Youngs Moduli (GPa) = 82.91801 47.12265 71.88727
#
# Poissons Ratio (x) = 0.29151 0.27292
# Poissons Ratio (y) = 0.51294 0.28028
# Poissons Ratio (z) = 0.31480 0.18373
#
# Static dielectric constant tensor:
#      x y z
#    x 1.812590 0.000000 0.070350 
#    y 0.000000 1.738890 0.000000 
#    z 0.070350 0.000000 1.804180 
# 
# From -- ./inp_files/58928.got.cif
#   From: 2010.05.17/outbox.cif.g08.bks.cpg/sg12_30_cif.got.tgz:58928.got - 2010.06.03 13:09:07.
