data_PCOD9197124
_publ_section_title
;
Structure prediction by ZEFSAII (Michael W. Deem and Ramdas Pophale) SiO2 
 PCOD9197124
Probable space group: C 2/M
;
_chemical_formula_sum "Si O2"
_cell_formula_units_Z 48
_cell_length_a 20.374121
_cell_length_b 8.912032
_cell_length_c 31.819169
_cell_angle_alpha 90.000000
_cell_angle_beta 152.023270
_cell_angle_gamma 90.000000
_cell_volume 2710.327994
_symmetry_space_group_name_H-M "C 2/M"
_symmetry_group_IT_number 12
_symmetry_cell_setting 'monoclinic'
loop_
_space_group_symop_operation_xyz
x,y,z
-x,y,-z
-x,-y,-z
x,-y,z
1/2+x,1/2+y,z
1/2-x,1/2+y,-z
1/2-x,1/2-y,-z
1/2+x,1/2-y,z
loop_
_atom_site_type_symbol
_atom_site_label
_atom_site_fract_x
_atom_site_fract_y
_atom_site_fract_z
Si Si1 0.193391 0.320397 0.425100
Si Si2 0.361535 0.323795 0.949582
Si Si3 0.926370 0.178305 0.231509
Si Si4 0.615640 0.821408 0.946665
Si Si5 0.419813 0.322797 0.770252
Si Si6 0.840881 0.179697 0.420912
O O1 0.183204 0.500000 0.423147
O O2 0.250000 0.250000 0.500000
O O3 0.296187 0.286514 0.443723
O O4 0.043290 0.252166 0.327286
O O5 0.335210 0.500000 0.942711
O O6 0.225044 0.252940 0.850618
O O7 0.500000 0.309424 0.000000
O O8 0.386282 0.239465 0.007298
O O9 0.980746 0.202244 0.214308
O O10 0.919722 0.000000 0.234935
O O11 0.482636 0.766559 0.844809
O O12 0.626965 0.000000 0.952714
O O13 0.750000 0.750000 0.000000
O O14 0.418594 0.500000 0.778367
O O15 0.268462 0.264660 0.670605
O O16 0.000000 0.219153 0.500000
O O17 0.824008 0.000000 0.405643
#
# Coordination Sequence:
#
# PCOD9197124 Si02
#       6
#     8   8   8   8   8   8
#     4  10  20  36  59  84 112 147 190 238 285 341
#     4  11  24  41  60  85 119 154 191 239 293 344
#     4  10  20  36  60  85 113 151 193 236 285 344
#     4  12  23  37  61  88 116 152 194 240 284 340
#     4  10  20  35  58  88 116 148 191 238 285 338
#     4   9  19  37  59  83 113 148 187 235 288 339
#
# _framework density 17.710032999999999
#
# number of rings (size 3 to 8) (size 9 to 14) (size 15 to 20)
#    0.000    1.667    1.667    3.500    0.000    3.667 
#    3.000    0.000    0.000    0.000    0.000    0.000 
#    0.000    0.000    0.000    0.000    0.000    0.000 
#
# Total GULP energy -134092.311600 kJ/mol
# GULP energy per Si atom -5587.179650 kJ/mol
# Density = 1.766972 g / cm^3
# Si number density = 17.710033 Si / 1000 Ang^3
#
#
#
# Elastic Constant Matrix: (Units=GPa)
#
#
# Indices 1 2 3 4 5 6 
#
# 1 69.0476 63.8411 72.5378 0.0000 -9.0854 0.0000
# 2 63.8411 122.9037 88.2500 0.0000 -4.4991 -0.0001
# 3 72.5378 88.2500 157.3123 0.0001 -5.0848 0.0000
# 4 0.0000 0.0000 0.0001 38.1555 0.0000 -4.3487
# 5 -9.0854 -4.4991 -5.0848 0.0000 35.2765 0.0000
# 6 0.0000 -0.0001 0.0000 -4.3487 0.0000 25.9852
#
#
#
# Elastic Compliance Matrix: (Units=1/GPa)
#
#
# Indices 1 2 3 4 5 6 
#
# 1 0.036771 -0.011451 -0.010321 0.000000 0.006522 0.000000
# 2 -0.011451 0.017205 -0.004417 0.000000 -0.001391 0.000000
# 3 -0.010321 -0.004417 0.013552 0.000000 -0.001268 0.000000
# 4 0.000000 0.000000 0.000000 0.026718 0.000000 0.004471
# 5 0.006522 -0.001391 -0.001268 0.000000 0.029667 0.000000
# 6 0.000000 0.000000 0.000000 0.004471 0.000000 0.039232
#
#
# Mechanical properties :
#
#
# Convention : Reuss Voigt Hill
#
# Bulk Modulus (GPa) = 65.99878 88.72461 77.36169
# Shear Modulus (GPa) = 22.66839 28.19241 25.43040
#
# Velocity S-wave (km/s) = 3.58155 3.99418 3.79348
# Velocity P-wave (km/s) = 7.37906 8.45450 7.93502
#
# Compressibility (1/GPa) = 0.01515179
#
# Stress axis : x y z
#
# Youngs Moduli (GPa) = 27.19559 58.12339 73.78765
#
# Poissons Ratio (x) = 0.66555 0.76154
# Poissons Ratio (y) = 0.31141 0.32589
# Poissons Ratio (z) = 0.28068 0.25671
#
# Static dielectric constant tensor:
#      x y z
#    x 1.585060 0.000000 0.004590 
#    y 0.000000 1.588920 0.000000 
#    z 0.004590 0.000000 1.586370 
# 
# From -- ./inp_files/244619.got.cif
#   From: 2010.05.17/outbox.cif.g08.bks.cpg/sg12_123_cif.got.tgz:244619.got - 2010.06.03 13:09:07.
