data_PCOD9197679
_publ_section_title
;
Structure prediction by ZEFSAII (Michael W. Deem and Ramdas Pophale) SiO2 
 PCOD9197679
Probable space group: C 2/M
;
_chemical_formula_sum "Si O2"
_cell_formula_units_Z 64
_cell_length_a 14.934595
_cell_length_b 8.514185
_cell_length_c 22.649131
_cell_angle_alpha 90.000000
_cell_angle_beta 79.099476
_cell_angle_gamma 90.000000
_cell_volume 2828.007383
_symmetry_space_group_name_H-M "C 2/M"
_symmetry_group_IT_number 12
_symmetry_cell_setting 'monoclinic'
loop_
_space_group_symop_operation_xyz
x,y,z
-x,y,-z
-x,-y,-z
x,-y,z
1/2+x,1/2+y,z
1/2-x,1/2+y,-z
1/2-x,1/2-y,-z
1/2+x,1/2-y,z
loop_
_atom_site_type_symbol
_atom_site_label
_atom_site_fract_x
_atom_site_fract_y
_atom_site_fract_z
Si Si1 0.339079 0.313335 0.238402
Si Si2 0.049284 0.811549 0.893377
Si Si3 0.626589 0.308829 0.145188
Si Si4 0.360612 0.682605 0.366734
Si Si5 0.536095 0.817177 0.399893
Si Si6 0.862165 0.813948 0.725558
Si Si7 0.196613 0.816919 0.450471
Si Si8 0.203786 0.312750 0.946752
O O1 0.317550 0.500000 0.236184
O O2 0.397401 0.269585 0.173952
O O3 0.389882 0.294477 0.295027
O O4 0.245668 0.217587 0.255204
O O5 0.104243 0.746517 0.941846
O O6 0.946608 0.756208 0.894148
O O7 0.048380 0.000000 0.898295
O O8 0.626106 0.500000 0.145561
O O9 0.601140 0.263364 0.214675
O O10 0.727065 0.257946 0.113801
O O11 0.335431 0.500000 0.377441
O O12 0.441869 0.725734 0.400922
O O13 0.270994 0.784749 0.390012
O O14 0.594602 0.781097 0.333469
O O15 0.601822 0.764313 0.444838
O O16 0.515469 0.000000 0.407688
O O17 0.879954 0.000000 0.713854
O O18 0.250000 0.750000 0.500000
O O19 0.180017 0.000000 0.459602
O O20 0.203189 0.500000 0.948589
O O21 0.250000 0.250000 0.000000
#
# Coordination Sequence:
#
# PCOD9197679 Si02
#       8
#     8   8   8   8   8   8   8   8
#     4  10  20  35  61  93 128 160 198 248 310 373
#     4  10  20  38  62  88 118 158 199 244 300 363
#     4   9  20  38  61  87 119 159 200 243 301 371
#     4  11  23  42  67  97 131 169 210 259 314 374
#     4  12  25  42  64  96 132 169 212 259 311 374
#     4  11  20  36  63  92 125 165 206 250 306 371
#     4  12  26  46  69  95 126 167 214 265 318 374
#     4  11  23  41  60  84 115 154 203 254 304 362
#
# _framework density 22.630775
#
# number of rings (size 3 to 8) (size 9 to 14) (size 15 to 20)
#    0.000    1.250    2.500    4.125    0.000    3.500 
#    0.000    8.750    0.000    0.000    0.000    0.000 
#    0.000    0.000    0.000    0.000    0.000    0.000 
#
# Total GULP energy -179016.828836 kJ/mol
# GULP energy per Si atom -5594.275901 kJ/mol
# Density = 2.257927 g / cm^3
# Si number density = 22.630775 Si / 1000 Ang^3
#
#
#
# Elastic Constant Matrix: (Units=GPa)
#
#
# Indices 1 2 3 4 5 6 
#
# 1 93.0538 -2.5318 3.4888 0.0000 32.7670 0.0000
# 2 -2.5318 37.4598 5.1162 0.0000 7.6251 0.0000
# 3 3.4888 5.1162 69.1783 0.0000 30.5828 0.0000
# 4 0.0000 0.0000 0.0000 25.6323 0.0000 4.9154
# 5 32.7670 7.6251 30.5828 0.0000 43.1226 0.0000
# 6 0.0000 0.0000 0.0000 4.9154 0.0000 29.3576
#
#
#
# Elastic Compliance Matrix: (Units=1/GPa)
#
#
# Indices 1 2 3 4 5 6 
#
# 1 0.017252 0.004036 0.007199 0.000000 -0.018928 0.000000
# 2 0.004036 0.028637 0.001854 0.000000 -0.009445 0.000000
# 3 0.007199 0.001854 0.024063 0.000000 -0.022864 0.000000
# 4 0.000000 0.000000 0.000000 0.040307 0.000000 -0.006749
# 5 -0.018928 -0.009445 -0.022864 0.000000 0.055458 0.000000
# 6 0.000000 0.000000 0.000000 -0.006749 0.000000 0.035193
#
#
# Mechanical properties :
#
#
# Convention : Reuss Voigt Hill
#
# Bulk Modulus (GPa) = 10.40251 23.53759 16.97005
# Shear Modulus (GPa) = 24.18085 32.53042 28.35563
#
# Velocity S-wave (km/s) = 3.27233 3.79547 3.54357
# Velocity P-wave (km/s) = 4.34559 5.44342 4.92518
#
# Compressibility (1/GPa) = 0.09613061
#
# Stress axis : x y z
#
# Youngs Moduli (GPa) = 57.96587 34.91930 41.55738
#
# Poissons Ratio (x) = -0.14092 -0.29919
# Poissons Ratio (y) = -0.23393 -0.07706
# Poissons Ratio (z) = -0.41732 -0.06475
#
# Static dielectric constant tensor:
#      x y z
#    x 1.849450 0.000000 -0.007380 
#    y 0.000000 1.768770 0.000000 
#    z -0.007380 0.000000 1.900020 
# 
# From -- ./inp_files/338734.got.cif
#   From: 2010.05.17/outbox.cif.g08.bks.cpg/sg12_170_cif.got.tgz:338734.got - 2010.06.03 13:09:07.
