data_PCOD9197916
_publ_section_title
;
Structure prediction by ZEFSAII (Michael W. Deem and Ramdas Pophale) SiO2 
 PCOD9197916
Probable space group: C 2/M
;
_chemical_formula_sum "Si O2"
_cell_formula_units_Z 48
_cell_length_a 13.514008
_cell_length_b 28.870048
_cell_length_c 10.764488
_cell_angle_alpha 90.000000
_cell_angle_beta 143.858241
_cell_angle_gamma 90.000000
_cell_volume 2476.959152
_symmetry_space_group_name_H-M "C 2/M"
_symmetry_group_IT_number 12
_symmetry_cell_setting 'monoclinic'
loop_
_space_group_symop_operation_xyz
x,y,z
-x,y,-z
-x,-y,-z
x,-y,z
1/2+x,1/2+y,z
1/2-x,1/2+y,-z
1/2-x,1/2-y,-z
1/2+x,1/2-y,z
loop_
_atom_site_type_symbol
_atom_site_label
_atom_site_fract_x
_atom_site_fract_y
_atom_site_fract_z
Si Si1 0.207943 0.500000 0.360030
Si Si2 0.508332 0.569643 0.658354
Si Si3 0.326239 0.699317 0.566528
Si Si4 0.653304 0.662369 0.901488
Si Si5 0.304455 0.812892 0.304114
Si Si6 0.694228 0.793441 0.174423
Si Si7 0.691051 0.000000 0.042539
O O1 0.335393 0.543055 0.521002
O O2 0.190222 0.500000 0.192197
O O3 0.008548 0.500000 0.200751
O O4 0.500000 0.572840 0.500000
O O5 0.536429 0.619358 0.747086
O O6 0.683840 0.542494 0.866601
O O7 0.250000 0.750000 0.500000
O O8 0.524760 0.705103 0.771720
O O9 0.269109 0.674818 0.635278
O O10 0.270991 0.682093 0.374908
O O11 0.779414 0.674787 0.919246
O O12 0.726604 0.658848 0.111838
O O13 0.500000 0.820757 0.500000
O O14 0.273199 0.757969 0.246543
O O15 0.500000 0.786158 0.000000
#
# Coordination Sequence:
#
# PCOD9197916 Si02
#       7
#     4   8   8   8   8   8   4
#     4   8  15  33  58  83 109 161 176 229 291 369
#     4   9  18  33  54  86 120 149 183 236 297 350
#     4  10  20  36  55  75 105 153 196 232 278 329
#     4  12  22  36  55  84 119 146 187 248 289 341
#     4  11  22  38  55  73 108 158 204 235 281 340
#     4  11  21  36  55  79 109 152 197 242 290 329
#     4   8  15  33  58  79 119 145 191 218 295 364
#
# _framework density 19.378599999999999
#
# number of rings (size 3 to 8) (size 9 to 14) (size 15 to 20)
#    0.000    1.833    0.000    8.500    0.000    0.000 
#   12.000    0.000    0.000    0.000    0.000   11.667 
#    0.000    0.000    0.000    0.000    0.000    0.000 
#
# Total GULP energy -133690.448827 kJ/mol
# GULP energy per Si atom -5570.435368 kJ/mol
# Density = 1.933449 g / cm^3
# Si number density = 19.378600 Si / 1000 Ang^3
#
#
#
# Elastic Constant Matrix: (Units=GPa)
#
#
# Indices 1 2 3 4 5 6 
#
# 1 79.5848 7.1237 26.8052 0.0000 -2.1877 0.0000
# 2 7.1237 52.0504 25.1237 0.0000 0.2833 0.0000
# 3 26.8052 25.1237 112.0974 0.0000 16.8171 0.0000
# 4 0.0000 0.0000 0.0000 22.8299 0.0000 0.3753
# 5 -2.1877 0.2833 16.8171 0.0000 42.1565 0.0000
# 6 0.0000 0.0000 0.0000 0.3753 0.0000 4.9616
#
#
#
# Elastic Compliance Matrix: (Units=1/GPa)
#
#
# Indices 1 2 3 4 5 6 
#
# 1 0.013851 -0.000171 -0.003597 0.000000 0.002155 0.000000
# 2 -0.000171 0.021688 -0.005102 0.000000 0.001881 0.000000
# 3 -0.003597 -0.005102 0.011644 0.000000 -0.004797 0.000000
# 4 0.000000 0.000000 0.000000 0.043857 0.000000 -0.003318
# 5 0.002155 0.001881 -0.004797 0.000000 0.025734 0.000000
# 6 0.000000 0.000000 0.000000 -0.003318 0.000000 0.201798
#
#
# Mechanical properties :
#
#
# Convention : Reuss Voigt Hill
#
# Bulk Modulus (GPa) = 33.96406 40.20420 37.08413
# Shear Modulus (GPa) = 14.44554 26.30161 20.37357
#
# Velocity S-wave (km/s) = 2.73323 3.68808 3.24596
# Velocity P-wave (km/s) = 5.24646 6.23921 5.76425
#
# Compressibility (1/GPa) = 0.02944289
#
# Stress axis : x y z
#
# Youngs Moduli (GPa) = 72.19532 46.10850 85.87991
#
# Poissons Ratio (x) = 0.00789 0.30892
# Poissons Ratio (y) = 0.01236 0.43816
# Poissons Ratio (z) = 0.25969 0.23525
#
# Static dielectric constant tensor:
#      x y z
#    x 1.873730 0.000000 -0.054980 
#    y 0.000000 1.749860 0.000000 
#    z -0.054980 0.000000 1.715240 
# 
# From -- ./inp_files/150343.got.cif
#   From: 2010.05.17/outbox.cif.g08.bks.cpg/sg12_76_cif.got.tgz:150343.got - 2010.06.03 13:09:07.
