data_PCOD9197002
_publ_section_title
;
Structure prediction by ZEFSAII (Michael W. Deem and Ramdas Pophale) SiO2 
 PCOD9197002
Probable space group: C 2/M
;
_chemical_formula_sum "Si O2"
_cell_formula_units_Z 40
_cell_length_a 16.067999
_cell_length_b 10.619556
_cell_length_c 12.407797
_cell_angle_alpha 90.000000
_cell_angle_beta 71.630219
_cell_angle_gamma 90.000000
_cell_volume 2009.316877
_symmetry_space_group_name_H-M "C 2/M"
_symmetry_group_IT_number 12
_symmetry_cell_setting 'monoclinic'
loop_
_space_group_symop_operation_xyz
x,y,z
-x,y,-z
-x,-y,-z
x,-y,z
1/2+x,1/2+y,z
1/2-x,1/2+y,-z
1/2-x,1/2-y,-z
1/2+x,1/2-y,z
loop_
_atom_site_type_symbol
_atom_site_label
_atom_site_fract_x
_atom_site_fract_y
_atom_site_fract_z
Si Si1 0.598701 0.644886 0.502495
Si Si2 0.265472 0.000000 0.852516
Si Si3 0.440597 0.500000 0.129491
Si Si4 0.445686 0.000000 0.132729
Si Si5 0.911481 0.249581 0.258926
Si Si6 0.711701 0.738692 0.256493
Si Si7 0.249424 0.500000 0.885894
O O1 0.500000 0.638922 0.500000
O O2 0.627873 0.500000 0.514216
O O3 0.598767 0.728083 0.609993
O O4 0.657121 0.703802 0.384427
O O5 0.308281 0.126202 0.787111
O O6 0.162274 0.000000 0.861470
O O7 0.266655 0.000000 0.980835
O O8 0.456690 0.625307 0.191995
O O9 0.500000 0.500000 0.000000
O O10 0.459310 0.124799 0.198607
O O11 0.344498 0.000000 0.135327
O O12 0.500000 0.000000 0.000000
O O13 0.813408 0.255549 0.250572
O O14 0.701944 0.625634 0.174647
#
# Coordination Sequence:
#
# PCOD9197002 Si02
#       7
#     8   4   4   4   8   8   4
#     4  11  23  39  61  88 115 149 196 247 293 337
#     4  10  22  35  58  89 115 152 196 238 287 338
#     4  10  20  35  58  85 117 152 196 240 275 336
#     4  10  22  37  58  85 115 154 188 232 293 344
#     4  10  21  39  59  84 117 154 195 234 285 350
#     4  10  21  39  59  84 118 155 193 235 287 349
#     4  10  20  37  58  81 117 154 192 234 281 346
#
# _framework density 19.907264000000001
#
# number of rings (size 3 to 8) (size 9 to 14) (size 15 to 20)
#    0.000    1.800    2.000    1.800    0.000    4.000 
#    0.000    1.000    0.000    0.000    0.000    0.000 
#    0.000    0.000    0.000    0.000    0.000    0.000 
#
# Total GULP energy -111734.347317 kJ/mol
# GULP energy per Si atom -5586.717366 kJ/mol
# Density = 1.986195 g / cm^3
# Si number density = 19.907264 Si / 1000 Ang^3
#
#
#
# Elastic Constant Matrix: (Units=GPa)
#
#
# Indices 1 2 3 4 5 6 
#
# 1 6.7052 19.8508 -4.3328 0.0000 3.0605 0.0000
# 2 19.8508 220.0761 120.8905 0.0000 2.3211 0.0000
# 3 -4.3328 120.8905 188.2306 0.0000 0.3308 0.0000
# 4 0.0000 0.0000 0.0000 -113.7546 0.0000 36.5446
# 5 3.0605 2.3211 0.3308 0.0000 35.8993 0.0000
# 6 0.0000 0.0000 0.0000 36.5446 0.0000 -6.7369
#
#
#
# Elastic Compliance Matrix: (Units=1/GPa)
#
#
# Indices 1 2 3 4 5 6 
#
# 1 0.357065 -0.056336 0.044449 0.000000 -0.027207 0.000000
# 2 -0.056336 0.015915 -0.011525 0.000000 0.003880 0.000000
# 3 0.044449 -0.011525 0.013743 0.000000 -0.003171 0.000000
# 4 0.000000 0.000000 0.000000 0.011837 0.000000 0.064209
# 5 -0.027207 0.003880 -0.003171 0.000000 0.029954 0.000000
# 6 0.000000 0.000000 0.000000 0.064209 0.000000 0.199867
#
#
# Mechanical properties :
#
#
# Convention : Reuss Voigt Hill
#
# Bulk Modulus (GPa) = 2.94206 76.42541 39.68374
# Shear Modulus (GPa) = 6.34110 1.65510 3.99810
#
# Velocity S-wave (km/s) = 1.78668 0.91280 1.41871
# Velocity P-wave (km/s) = 2.39529 6.29166 4.76038
#
# Compressibility (1/GPa) = 0.33989773
#
# Stress axis : x y z
#
# Youngs Moduli (GPa) = 2.80061 62.83197 72.76208
#
# Poissons Ratio (x) = 3.53973 -3.23419
# Poissons Ratio (y) = 0.15778 0.83860
# Poissons Ratio (z) = -0.12448 0.72416
#
# Static dielectric constant tensor:
#      x y z
#    x 1.697540 0.000000 -0.000170 
#    y 0.000000 1.719240 0.000000 
#    z -0.000170 0.000000 1.649280 
# 
# From -- ./inp_files/153353.got.cif
#   From: 2010.05.17/outbox.cif.g08.bks.cpg/sg12_77_cif.got.tgz:153353.got - 2010.06.03 13:09:07.
