data_PCOD9197332
_publ_section_title
;
Structure prediction by ZEFSAII (Michael W. Deem and Ramdas Pophale) SiO2 
 PCOD9197332
Probable space group: C 2/M
;
_chemical_formula_sum "Si O2"
_cell_formula_units_Z 42
_cell_length_a 14.522464
_cell_length_b 16.940153
_cell_length_c 15.774106
_cell_angle_alpha 90.000000
_cell_angle_beta 152.388231
_cell_angle_gamma 90.000000
_cell_volume 1798.587501
_symmetry_space_group_name_H-M "C 2/M"
_symmetry_group_IT_number 12
_symmetry_cell_setting 'monoclinic'
loop_
_space_group_symop_operation_xyz
x,y,z
-x,y,-z
-x,-y,-z
x,-y,z
1/2+x,1/2+y,z
1/2-x,1/2+y,-z
1/2-x,1/2-y,-z
1/2+x,1/2-y,z
loop_
_atom_site_type_symbol
_atom_site_label
_atom_site_fract_x
_atom_site_fract_y
_atom_site_fract_z
Si Si1 0.342616 0.880177 0.940766
Si Si2 0.500000 0.000000 0.500000
Si Si3 0.927114 0.090127 0.530680
Si Si4 0.982907 0.590950 0.731274
Si Si5 0.200082 0.209401 0.047087
Si Si6 0.911775 0.081481 0.832744
O O1 0.325876 0.784959 0.915275
O O2 0.122883 0.910981 0.746373
O O3 0.500000 0.909089 0.000000
O O4 0.418625 0.905049 0.095094
O O5 0.678586 0.932764 0.641741
O O6 0.739877 0.121877 0.431203
O O7 0.000000 0.126201 0.500000
O O8 0.862062 0.000000 0.457144
O O9 0.978936 0.500000 0.694443
O O10 0.122844 0.647445 0.789249
O O11 0.250000 0.250000 0.000000
O O12 0.999928 0.160382 0.867812
O O13 0.997102 0.000000 0.861907
O O14 0.000000 0.083444 0.000000
#
# Coordination Sequence:
#
# PCOD9197332 Si02
#       6
#     8   2   8   8   8   8
#     4  11  21  36  59  86 118 155 194 239 299 353
#     4   8  18  36  68  98 108 144 212 270 288 326
#     4  10  20  35  59  88 113 146 204 249 284 347
#     4  10  21  38  60  84 113 156 194 245 299 342
#     4  10  22  38  57  85 127 162 187 237 308 372
#     4   9  18  38  67  91 113 153 211 256 293 340
#
# _framework density 23.351655999999998
#
# number of rings (size 3 to 8) (size 9 to 14) (size 15 to 20)
#    0.571    1.524    1.905    1.714    0.000    1.524 
#    0.000   11.429    8.381    0.000    0.000    0.000 
#    0.000    0.000    0.000    0.000    0.000    0.000 
#
# Total GULP energy -116910.472627 kJ/mol
# GULP energy per Si atom -5567.165363 kJ/mol
# Density = 2.329851 g / cm^3
# Si number density = 23.351656 Si / 1000 Ang^3
#
#
#
# Elastic Constant Matrix: (Units=GPa)
#
#
# Indices 1 2 3 4 5 6 
#
# 1 36.4218 23.6015 21.7754 -0.0018 21.6579 0.0015
# 2 23.6015 131.6219 33.8146 0.0478 29.8264 0.0966
# 3 21.7754 33.8146 163.4444 0.0573 40.4650 0.0495
# 4 -0.0018 0.0478 0.0573 -6.5972 0.0129 8.9001
# 5 21.6579 29.8264 40.4650 0.0129 38.1352 0.0163
# 6 0.0015 0.0966 0.0495 8.9001 0.0163 -1.7016
#
#
#
# Elastic Compliance Matrix: (Units=1/GPa)
#
#
# Indices 1 2 3 4 5 6 
#
# 1 0.042200 -0.002606 0.000469 0.000081 -0.022426 0.000112
# 2 -0.002606 0.009398 -0.000195 -0.000114 -0.005664 -0.000126
# 3 0.000469 -0.000195 0.008306 -0.000041 -0.008928 -0.000070
# 4 0.000081 -0.000114 -0.000041 0.025030 0.000022 0.130913
# 5 -0.022426 -0.005664 -0.008928 0.000022 0.052862 0.000023
# 6 0.000112 -0.000126 -0.000070 0.130913 0.000023 0.097041
#
#
# Mechanical properties :
#
#
# Convention : Reuss Voigt Hill
#
# Bulk Modulus (GPa) = 18.10238 54.43012 36.26625
# Shear Modulus (GPa) = 19.38625 22.78706 21.08666
#
# Velocity S-wave (km/s) = 2.88442 3.12720 3.00826
# Velocity P-wave (km/s) = 4.34305 6.03313 5.25646
#
# Compressibility (1/GPa) = 0.05524134
#
# Stress axis : x y z
#
# Youngs Moduli (GPa) = 23.69694 106.40036 120.38787
#
# Poissons Ratio (x) = 0.27724 -0.05646
# Poissons Ratio (y) = 0.06175 0.02347
# Poissons Ratio (z) = -0.01111 0.02074
#
# Static dielectric constant tensor:
#      x y z
#    x 1.920860 0.000000 -0.021360 
#    y 0.000000 2.007950 -0.000040 
#    z -0.021360 -0.000040 1.866430 
# 
# From -- ./inp_files/317425.got.cif
#   From: 2010.05.17/outbox.cif.g08.bks.cpg/sg12_159_cif.got.tgz:317425.got - 2010.06.03 13:09:07.
