data_PCOD9197141
_publ_section_title
;
Structure prediction by ZEFSAII (Michael W. Deem and Ramdas Pophale) SiO2 
 PCOD9197141
Probable space group: C 2/M
;
_chemical_formula_sum "Si O2"
_cell_formula_units_Z 64
_cell_length_a 12.835674
_cell_length_b 17.020416
_cell_length_c 14.660296
_cell_angle_alpha 90.000000
_cell_angle_beta 106.024663
_cell_angle_gamma 90.000000
_cell_volume 3078.361201
_symmetry_space_group_name_H-M "C 2/M"
_symmetry_group_IT_number 12
_symmetry_cell_setting 'monoclinic'
loop_
_space_group_symop_operation_xyz
x,y,z
-x,y,-z
-x,-y,-z
x,-y,z
1/2+x,1/2+y,z
1/2-x,1/2+y,-z
1/2-x,1/2-y,-z
1/2+x,1/2-y,z
loop_
_atom_site_type_symbol
_atom_site_label
_atom_site_fract_x
_atom_site_fract_y
_atom_site_fract_z
Si Si1 0.784898 0.409552 0.250555
Si Si2 0.810994 0.405630 0.698197
Si Si3 0.496220 0.096276 0.605026
Si Si4 0.450445 0.407603 0.761472
Si Si5 0.930489 0.218065 0.090150
Si Si6 0.908144 0.362419 0.917826
Si Si7 0.260485 0.841940 0.057128
Si Si8 0.069565 0.906966 0.599516
O O1 0.785196 0.500000 0.280128
O O2 0.895162 0.375638 0.317424
O O3 0.672235 0.376326 0.260387
O O4 0.778459 0.405032 0.139535
O O5 0.806602 0.500000 0.689892
O O6 0.858442 0.390538 0.810846
O O7 0.689374 0.374813 0.650965
O O8 0.893770 0.376870 0.640152
O O9 0.500000 0.119480 0.500000
O O10 0.493419 0.000000 0.606077
O O11 0.453425 0.500000 0.790704
O O12 0.524252 0.352668 0.841036
O O13 0.496275 0.403216 0.671323
O O14 0.831739 0.268235 0.110319
O O15 0.022722 0.283885 0.094008
O O16 0.864832 0.179100 0.989197
O O17 0.813523 0.357788 0.971068
O O18 0.000000 0.407731 0.000000
O O19 0.000000 0.871719 0.500000
O O20 0.086237 0.000000 0.582019
#
# Coordination Sequence:
#
# PCOD9197141 Si02
#       8
#     8   8   8   8   8   8   8   8
#     4  10  22  37  57  91 124 153 195 245 303 353
#     4  10  20  35  58  88 119 154 199 249 299 349
#     4   9  18  32  53  82 118 154 190 235 292 357
#     4  10  22  38  60  89 121 153 195 252 302 349
#     4  10  22  37  57  82 116 155 203 238 287 357
#     4  10  21  36  56  84 113 156 202 240 284 353
#     4  10  22  36  59  82 115 163 197 242 284 356
#     4   9  19  36  61  89 117 151 196 249 304 358
#
# _framework density 20.790282999999999
#
# number of rings (size 3 to 8) (size 9 to 14) (size 15 to 20)
#    0.000    2.250    0.000    2.250    8.750    1.250 
#    0.000    1.250    0.000    4.500    0.000    0.000 
#    0.000    0.000    0.000    0.000    0.000    0.000 
#
# Total GULP energy -178209.367790 kJ/mol
# GULP energy per Si atom -5569.042743 kJ/mol
# Density = 2.074296 g / cm^3
# Si number density = 20.790283 Si / 1000 Ang^3
#
#
#
# Elastic Constant Matrix: (Units=GPa)
#
#
# Indices 1 2 3 4 5 6 
#
# 1 136.4933 12.7369 83.4414 0.0000 5.6532 0.0000
# 2 12.7369 18.8793 17.7658 0.0000 1.4464 0.0000
# 3 83.4414 17.7658 146.6257 0.0000 13.3870 0.0000
# 4 0.0000 0.0000 0.0000 -71.8965 0.0000 11.5754
# 5 5.6532 1.4464 13.3870 0.0000 22.6281 0.0000
# 6 0.0000 0.0000 0.0000 11.5754 0.0000 7.9184
#
#
#
# Elastic Compliance Matrix: (Units=1/GPa)
#
#
# Indices 1 2 3 4 5 6 
#
# 1 0.011310 -0.001765 -0.006316 0.000000 0.001024 0.000000
# 2 -0.001765 0.060065 -0.006303 0.000000 0.000331 0.000000
# 3 -0.006316 -0.006303 0.011625 0.000000 -0.004897 0.000000
# 4 0.000000 0.000000 0.000000 -0.011259 0.000000 0.016459
# 5 0.001024 0.000331 -0.004897 0.000000 0.046813 0.000000
# 6 0.000000 0.000000 0.000000 0.016459 0.000000 0.102228
#
#
# Mechanical properties :
#
#
# Convention : Reuss Voigt Hill
#
# Bulk Modulus (GPa) = 18.43953 58.87626 38.65789
# Shear Modulus (GPa) = 18.68268 4.26694 11.47481
#
# Velocity S-wave (km/s) = 3.00096 1.43416 2.35187
# Velocity P-wave (km/s) = 4.57124 5.57880 5.09996
#
# Compressibility (1/GPa) = 0.05423132
#
# Stress axis : x y z
#
# Youngs Moduli (GPa) = 88.42084 16.64854 86.02183
#
# Poissons Ratio (x) = 0.02939 0.54328
# Poissons Ratio (y) = 0.15609 0.54223
# Poissons Ratio (z) = 0.55843 0.10494
#
# Static dielectric constant tensor:
#      x y z
#    x 1.796060 0.000000 0.006750 
#    y 0.000000 1.790610 0.000000 
#    z 0.006750 0.000000 1.746970 
# 
# From -- ./inp_files/207727.got.cif
#   From: 2010.05.17/outbox.cif.g08.bks.cpg/sg12_104_cif.got.tgz:207727.got - 2010.06.03 13:09:07.
