data_PCOD9197218
_publ_section_title
;
Structure prediction by ZEFSAII (Michael W. Deem and Ramdas Pophale) SiO2 
 PCOD9197218
Probable space group: C 2/M
;
_chemical_formula_sum "Si O2"
_cell_formula_units_Z 44
_cell_length_a 21.458140
_cell_length_b 13.788595
_cell_length_c 10.867564
_cell_angle_alpha 90.000000
_cell_angle_beta 135.761453
_cell_angle_gamma 90.000000
_cell_volume 2243.262988
_symmetry_space_group_name_H-M "C 2/M"
_symmetry_group_IT_number 12
_symmetry_cell_setting 'monoclinic'
loop_
_space_group_symop_operation_xyz
x,y,z
-x,y,-z
-x,-y,-z
x,-y,z
1/2+x,1/2+y,z
1/2-x,1/2+y,-z
1/2-x,1/2-y,-z
1/2+x,1/2-y,z
loop_
_atom_site_type_symbol
_atom_site_label
_atom_site_fract_x
_atom_site_fract_y
_atom_site_fract_z
Si Si1 0.016746 0.895035 0.291596
Si Si2 0.263543 0.116908 0.163407
Si Si3 0.377215 0.275459 0.212025
Si Si4 0.000000 0.836383 0.000000
Si Si5 0.803317 0.107844 0.334074
Si Si6 0.800067 0.767552 0.700232
O O1 0.123593 0.892832 0.453601
O O2 0.974850 0.802714 0.301262
O O3 0.986996 0.893299 0.108515
O O4 0.988477 0.000000 0.306999
O O5 0.349865 0.167918 0.219194
O O6 0.248083 0.148777 0.284288
O O7 0.259852 0.000000 0.144375
O O8 0.185811 0.177368 0.982682
O O9 0.355018 0.341783 0.296965
O O10 0.093895 0.782380 0.156401
O O11 0.719028 0.170384 0.250031
O O12 0.778696 0.000000 0.265292
O O13 0.750000 0.750000 0.500000
#
# Coordination Sequence:
#
# PCOD9197218 Si02
#       6
#     8   8   8   4   8   8
#     4  11  21  35  60  93 124 158 204 261 317 371
#     4  10  21  37  61  89 124 166 206 254 311 372
#     4  10  20  35  58  92 125 155 200 257 309 373
#     4  12  23  38  59  88 126 164 209 254 317 374
#     4  10  21  37  60  89 120 159 205 257 315 367
#     4  11  23  40  60  88 124 164 207 261 307 370
#
# _framework density 19.614284000000001
#
# number of rings (size 3 to 8) (size 9 to 14) (size 15 to 20)
#    0.000    1.455    3.636    2.455    0.000    2.909 
#    0.000    0.455    0.000    9.818    0.000    0.000 
#    0.000    0.000    0.000    0.000    0.000    0.000 
#
# Total GULP energy -122527.906056 kJ/mol
# GULP energy per Si atom -5569.450275 kJ/mol
# Density = 1.956964 g / cm^3
# Si number density = 19.614284 Si / 1000 Ang^3
#
#
#
# Elastic Constant Matrix: (Units=GPa)
#
#
# Indices 1 2 3 4 5 6 
#
# 1 81.0411 42.7540 29.2307 0.0000 4.2731 0.0000
# 2 42.7540 127.6713 27.5938 0.0000 6.2611 0.0000
# 3 29.2307 27.5938 84.8388 0.0000 -7.1168 0.0000
# 4 0.0000 0.0000 0.0000 16.4226 0.0000 0.2638
# 5 4.2731 6.2611 -7.1168 0.0000 40.6658 0.0000
# 6 0.0000 0.0000 0.0000 0.2638 0.0000 13.8304
#
#
#
# Elastic Compliance Matrix: (Units=1/GPa)
#
#
# Indices 1 2 3 4 5 6 
#
# 1 0.016344 -0.004449 -0.004335 0.000000 -0.001791 0.000000
# 2 -0.004449 0.009768 -0.001757 0.000000 -0.001344 0.000000
# 3 -0.004335 -0.001757 0.014120 0.000000 0.003197 0.000000
# 4 0.000000 0.000000 0.000000 0.060910 0.000000 -0.001162
# 5 -0.001791 -0.001344 0.003197 0.000000 0.025545 0.000000
# 6 0.000000 0.000000 0.000000 -0.001162 0.000000 0.072326
#
#
# Mechanical properties :
#
#
# Convention : Reuss Voigt Hill
#
# Bulk Modulus (GPa) = 52.21424 54.74535 53.47979
# Shear Modulus (GPa) = 22.07708 27.11528 24.59618
#
# Velocity S-wave (km/s) = 3.35858 3.72213 3.54502
# Velocity P-wave (km/s) = 6.45898 6.81498 6.63936
#
# Compressibility (1/GPa) = 0.01915187
#
# Stress axis : x y z
#
# Youngs Moduli (GPa) = 61.18369 102.37517 70.82044
#
# Poissons Ratio (x) = 0.45542 0.30698
# Poissons Ratio (y) = 0.27218 0.12443
# Poissons Ratio (z) = 0.26521 0.17988
#
# Static dielectric constant tensor:
#      x y z
#    x 1.751990 0.000000 -0.020880 
#    y 0.000000 1.699390 0.000000 
#    z -0.020880 0.000000 1.772390 
# 
# From -- ./inp_files/167431.got.cif
#   From: 2010.05.17/outbox.cif.g08.bks.cpg/sg12_84_cif.got.tgz:167431.got - 2010.06.03 13:09:07.
