data_PCOD9197497
_publ_section_title
;
Structure prediction by ZEFSAII (Michael W. Deem and Ramdas Pophale) SiO2 
 PCOD9197497
Probable space group: C 2/M
;
_chemical_formula_sum "Si O2"
_cell_formula_units_Z 44
_cell_length_a 16.482627
_cell_length_b 10.709067
_cell_length_c 29.406955
_cell_angle_alpha 90.000000
_cell_angle_beta 158.997877
_cell_angle_gamma 90.000000
_cell_volume 1860.369471
_symmetry_space_group_name_H-M "C 2/M"
_symmetry_group_IT_number 12
_symmetry_cell_setting 'monoclinic'
loop_
_space_group_symop_operation_xyz
x,y,z
-x,y,-z
-x,-y,-z
x,-y,z
1/2+x,1/2+y,z
1/2-x,1/2+y,-z
1/2-x,1/2-y,-z
1/2+x,1/2-y,z
loop_
_atom_site_type_symbol
_atom_site_label
_atom_site_fract_x
_atom_site_fract_y
_atom_site_fract_z
Si Si1 0.172954 0.000000 0.213907
Si Si2 0.690559 0.254137 0.379006
Si Si3 0.654621 0.000000 0.416087
Si Si4 0.748408 0.231703 0.108141
Si Si5 0.675423 0.500000 0.049400
Si Si6 0.172819 0.263974 0.654709
Si Si7 0.151968 0.000000 0.695666
Si Si8 0.564357 0.000000 0.979837
O O1 0.180155 0.872340 0.246000
O O2 0.410577 0.000000 0.311012
O O3 0.969820 0.000000 0.072175
O O4 0.668038 0.120945 0.391111
O O5 0.437917 0.309791 0.243854
O O6 0.760583 0.249034 0.362874
O O7 0.909813 0.311336 0.518418
O O8 0.882840 0.000000 0.566077
O O9 0.500000 0.246980 0.000000
O O10 0.809870 0.370093 0.122971
O O11 0.711210 0.125155 0.051286
O O12 0.500000 0.500000 0.000000
O O13 0.186917 0.129119 0.685944
O O14 0.340689 0.000000 0.833149
O O15 0.500000 0.000000 0.000000
#
# Coordination Sequence:
#
# PCOD9197497 Si02
#       8
#     4   8   4   8   4   8   4   4
#     4  12  24  39  62 106 133 157 214 281 331 358
#     4  10  21  42  65  91 125 175 213 247 329 394
#     4  10  21  38  71  95 123 168 225 275 301 377
#     4  10  20  35  60  86 114 158 212 258 296 372
#     4  10  20  37  60  84 121 164 205 257 310 371
#     4  10  24  41  66  93 132 167 210 272 321 388
#     4  10  21  41  61  89 124 168 220 262 314 377
#     4  10  22  36  54  82 121 160 195 251 321 380
#
# _framework density 23.651215000000001
#
# number of rings (size 3 to 8) (size 9 to 14) (size 15 to 20)
#    0.000    1.818    0.000    4.364    0.000   12.364 
#    0.000    5.455    0.000    1.091    0.000    0.000 
#    0.000    0.000    0.000    0.000    0.000    0.000 
#
# Total GULP energy -122894.872929 kJ/mol
# GULP energy per Si atom -5586.130588 kJ/mol
# Density = 2.359738 g / cm^3
# Si number density = 23.651215 Si / 1000 Ang^3
#
#
#
# Elastic Constant Matrix: (Units=GPa)
#
#
# Indices 1 2 3 4 5 6 
#
# 1 47.9222 16.0760 8.2447 -0.0592 1.4061 0.0035
# 2 16.0760 136.4498 35.2474 -0.2208 -10.3251 0.0101
# 3 8.2447 35.2474 177.8635 -2.2510 -15.6552 0.1443
# 4 -0.0592 -0.2208 -2.2510 2974.0623 0.4754 -178.0492
# 5 1.4061 -10.3251 -15.6552 0.4754 39.3295 -0.0306
# 6 0.0035 0.0101 0.1443 -178.0492 -0.0306 49.1811
#
#
#
# Elastic Compliance Matrix: (Units=1/GPa)
#
#
# Indices 1 2 3 4 5 6 
#
# 1 0.021882 -0.002537 -0.000662 0.000000 -0.001712 0.000000
# 2 -0.002537 0.008101 -0.001340 -0.000001 0.001684 0.000001
# 3 -0.000662 -0.001340 0.006103 0.000004 0.002101 -0.000002
# 4 0.000000 -0.000001 0.000004 0.000429 -0.000003 0.001554
# 5 -0.001712 0.001684 0.002101 -0.000003 0.026766 0.000001
# 6 0.000000 0.000001 -0.000002 0.001554 0.000001 0.025959
#
#
# Mechanical properties :
#
#
# Convention : Reuss Voigt Hill
#
# Bulk Modulus (GPa) = 37.02353 53.48574 45.25464
# Shear Modulus (GPa) = 46.58892 632.69240 339.64066
#
# Velocity S-wave (km/s) = 4.44309 16.37346 11.99648
# Velocity P-wave (km/s) = 6.48147 19.49659 14.52802
#
# Compressibility (1/GPa) = 0.02700985
#
# Stress axis : x y z
#
# Youngs Moduli (GPa) = 45.69914 123.44112 163.84103
#
# Poissons Ratio (x) = 0.31311 0.10852
# Poissons Ratio (y) = 0.11592 0.21948
# Poissons Ratio (z) = 0.03027 0.16536
#
# Static dielectric constant tensor:
#      x y z
#    x 1.974520 -0.000010 0.040150 
#    y -0.000010 2.163250 -0.000040 
#    z 0.040150 -0.000040 1.908240 
# 
# From -- ./inp_files/379169.got.cif
#   From: 2010.05.17/outbox.cif.g08.bks.cpg/sg12_190_cif.got.tgz:379169.got - 2010.06.03 13:09:07.
