data_PCOD9197022
_publ_section_title
;
Structure prediction by ZEFSAII (Michael W. Deem and Ramdas Pophale) SiO2 
 PCOD9197022
Probable space group: C 2/M
;
_chemical_formula_sum "Si O2"
_cell_formula_units_Z 64
_cell_length_a 25.458797
_cell_length_b 8.041923
_cell_length_c 14.814696
_cell_angle_alpha 90.000000
_cell_angle_beta 92.309423
_cell_angle_gamma 90.000000
_cell_volume 3030.663003
_symmetry_space_group_name_H-M "C 2/M"
_symmetry_group_IT_number 12
_symmetry_cell_setting 'monoclinic'
loop_
_space_group_symop_operation_xyz
x,y,z
-x,y,-z
-x,-y,-z
x,-y,z
1/2+x,1/2+y,z
1/2-x,1/2+y,-z
1/2-x,1/2-y,-z
1/2+x,1/2-y,z
loop_
_atom_site_type_symbol
_atom_site_label
_atom_site_fract_x
_atom_site_fract_y
_atom_site_fract_z
Si Si1 0.374659 0.701568 0.922621
Si Si2 0.332770 0.297868 0.508629
Si Si3 0.750668 0.304534 0.648833
Si Si4 0.554423 0.697162 0.542610
Si Si5 0.064721 0.305329 0.746987
Si Si6 0.987567 0.698463 0.898498
Si Si7 0.148932 0.194124 0.880796
Si Si8 0.261109 0.307810 0.849669
O O1 0.375642 0.500000 0.920689
O O2 0.426364 0.766169 0.876992
O O3 0.318779 0.757238 0.879110
O O4 0.375773 0.756861 0.027303
O O5 0.331533 0.500000 0.515277
O O6 0.298036 0.253490 0.418190
O O7 0.302431 0.225312 0.592223
O O8 0.392149 0.237843 0.499372
O O9 0.744798 0.500000 0.669439
O O10 0.754104 0.207646 0.741982
O O11 0.500000 0.767756 0.500000
O O12 0.554387 0.500000 0.523831
O O13 0.558677 0.720812 0.650171
O O14 0.054105 0.500000 0.733036
O O15 0.122393 0.283240 0.794254
O O16 0.024891 0.237395 0.821151
O O17 0.996152 0.500000 0.902508
O O18 0.000000 0.766778 0.000000
O O19 0.211398 0.216982 0.889605
O O20 0.137160 0.000000 0.870595
O O21 0.258503 0.500000 0.877738
#
# Coordination Sequence:
#
# PCOD9197022 Si02
#       8
#     8   8   8   8   8   8   8   8
#     4  10  23  39  58  85 116 155 198 243 292 346
#     4   9  19  37  59  82 112 147 188 238 291 346
#     4  10  20  35  58  86 113 148 192 237 288 345
#     4  10  22  40  61  86 118 156 196 243 297 351
#     4  11  23  39  62  90 118 156 200 246 299 352
#     4  10  21  39  61  86 119 155 196 244 294 347
#     4  11  22  38  60  86 116 152 198 245 292 349
#     4  11  23  38  56  84 121 156 193 237 293 353
#
# _framework density 21.11749
#
# number of rings (size 3 to 8) (size 9 to 14) (size 15 to 20)
#    0.000    1.750    1.250    2.625    0.000    6.000 
#    0.000    3.750    0.000    0.000    0.000    0.000 
#    0.000    0.000    0.000    0.000    0.000    0.000 
#
# Total GULP energy -178846.056389 kJ/mol
# GULP energy per Si atom -5588.939262 kJ/mol
# Density = 2.106943 g / cm^3
# Si number density = 21.117490 Si / 1000 Ang^3
#
#
#
# Elastic Constant Matrix: (Units=GPa)
#
#
# Indices 1 2 3 4 5 6 
#
# 1 135.2174 -1.2538 7.3845 0.0000 -5.2620 0.0000
# 2 -1.2538 10.5605 -2.9255 0.0000 0.3078 0.0000
# 3 7.3845 -2.9255 17.0934 0.0000 -1.5527 0.0000
# 4 0.0000 0.0000 0.0000 16.2407 0.0000 1.2984
# 5 -5.2620 0.3078 -1.5527 0.0000 22.3358 0.0000
# 6 0.0000 0.0000 0.0000 1.2984 0.0000 25.9500
#
#
#
# Elastic Compliance Matrix: (Units=1/GPa)
#
#
# Indices 1 2 3 4 5 6 
#
# 1 0.007629 -0.000014 -0.003155 0.000000 0.001578 0.000000
# 2 -0.000014 0.099407 0.017002 0.000000 -0.000191 0.000000
# 3 -0.003155 0.017002 0.063084 0.000000 0.003408 0.000000
# 4 0.000000 0.000000 0.000000 0.061821 0.000000 -0.003093
# 5 0.001578 -0.000191 0.003408 0.000000 0.045382 0.000000
# 6 0.000000 0.000000 0.000000 -0.003093 0.000000 0.038690
#
#
# Mechanical properties :
#
#
# Convention : Reuss Voigt Hill
#
# Bulk Modulus (GPa) = 5.05597 18.80907 11.93252
# Shear Modulus (GPa) = 14.11325 23.54972 18.83148
#
# Velocity S-wave (km/s) = 2.58799 3.34305 2.98945
# Velocity P-wave (km/s) = 3.36596 4.88134 4.19268
#
# Compressibility (1/GPa) = 0.19778614
#
# Stress axis : x y z
#
# Youngs Moduli (GPa) = 131.07746 10.05968 15.85176
#
# Poissons Ratio (x) = 0.00014 0.05001
# Poissons Ratio (y) = 0.00186 -0.26951
# Poissons Ratio (z) = 0.41354 -0.17103
#
# Static dielectric constant tensor:
#      x y z
#    x 1.769950 0.000000 0.000260 
#    y 0.000000 1.744210 0.000000 
#    z 0.000260 0.000000 1.733550 
# 
# From -- ./inp_files/238620.got.cif
#   From: 2010.05.17/outbox.cif.g08.bks.cpg/sg12_120_cif.got.tgz:238620.got - 2010.06.03 13:09:07.
