data_PCOD9197602
_publ_section_title
;
Structure prediction by ZEFSAII (Michael W. Deem and Ramdas Pophale) SiO2 
 PCOD9197602
Probable space group: C 2/M
;
_chemical_formula_sum "Si O2"
_cell_formula_units_Z 28
_cell_length_a 29.486425
_cell_length_b 8.363080
_cell_length_c 8.888398
_cell_angle_alpha 90.000000
_cell_angle_beta 141.746587
_cell_angle_gamma 90.000000
_cell_volume 1357.066840
_symmetry_space_group_name_H-M "C 2/M"
_symmetry_group_IT_number 12
_symmetry_cell_setting 'monoclinic'
loop_
_space_group_symop_operation_xyz
x,y,z
-x,y,-z
-x,-y,-z
x,-y,z
1/2+x,1/2+y,z
1/2-x,1/2+y,-z
1/2-x,1/2-y,-z
1/2+x,1/2-y,z
loop_
_atom_site_type_symbol
_atom_site_label
_atom_site_fract_x
_atom_site_fract_y
_atom_site_fract_z
Si Si1 0.128425 0.500000 0.330216
Si Si2 0.997992 0.500000 0.233953
Si Si3 0.202877 0.183722 0.638755
Si Si4 0.837062 0.174502 0.118026
Si Si5 0.500000 0.253197 0.500000
O O1 0.173500 0.333236 0.464484
O O2 0.066515 0.500000 0.299936
O O3 0.078841 0.500000 0.052575
O O4 0.002797 0.649126 0.356826
O O5 0.169838 0.207422 0.721611
O O6 0.186435 0.000000 0.546847
O O7 0.289628 0.203444 0.896567
O O8 0.921173 0.165959 0.292372
O O9 0.801679 0.000000 0.003482
#
# Coordination Sequence:
#
# PCOD9197602 Si02
#       5
#     4   4   8   8   4
#     4  11  20  46  60  91 120 163 197 255 291 373
#     4  10  24  36  66  86 124 157 204 242 316 350
#     4  10  21  36  63  92 118 160 205 247 294 362
#     4  10  20  35  60  93 123 154 203 252 297 354
#     4  11  21  38  60  94 116 162 198 258 294 368
#
# _framework density 20.632733000000002
#
# number of rings (size 3 to 8) (size 9 to 14) (size 15 to 20)
#    0.000    1.714    4.286    0.429    6.000    0.000 
#    0.000    7.143    0.000    0.000    0.000    0.000 
#    0.000    0.000    0.000    0.000    0.000    0.000 
#
# Total GULP energy -78046.642511 kJ/mol
# GULP energy per Si atom -5574.760179 kJ/mol
# Density = 2.058577 g / cm^3
# Si number density = 20.632733 Si / 1000 Ang^3
#
#
#
# Elastic Constant Matrix: (Units=GPa)
#
#
# Indices 1 2 3 4 5 6 
#
# 1 42.8286 1.9664 18.4314 0.0000 21.6555 0.0000
# 2 1.9664 145.3544 67.5118 0.0000 0.9594 0.0000
# 3 18.4314 67.5118 104.3246 0.0000 11.7896 0.0000
# 4 0.0000 0.0000 0.0000 25.4458 0.0000 16.9860
# 5 21.6555 0.9594 11.7896 0.0000 35.4604 0.0000
# 6 0.0000 0.0000 0.0000 16.9860 0.0000 -8.1914
#
#
#
# Elastic Compliance Matrix: (Units=1/GPa)
#
#
# Indices 1 2 3 4 5 6 
#
# 1 0.035750 0.002186 -0.005462 0.000000 -0.020075 0.000000
# 2 0.002186 0.010098 -0.007002 0.000000 0.000720 0.000000
# 3 -0.005462 -0.007002 0.015256 0.000000 -0.001547 0.000000
# 4 0.000000 0.000000 0.000000 0.016483 0.000000 0.034180
# 5 -0.020075 0.000720 -0.001547 0.000000 0.040956 0.000000
# 6 0.000000 0.000000 0.000000 0.034180 0.000000 -0.051203
#
#
# Mechanical properties :
#
#
# Convention : Reuss Voigt Hill
#
# Bulk Modulus (GPa) = 24.66229 52.03631 38.34930
# Shear Modulus (GPa) = 49.30396 24.18281 36.74338
#
# Velocity S-wave (km/s) = 4.89366 3.42725 4.22457
# Velocity P-wave (km/s) = 6.62642 6.39816 6.51329
#
# Compressibility (1/GPa) = 0.04054774
#
# Stress axis : x y z
#
# Youngs Moduli (GPa) = 27.97220 99.03364 65.54590
#
# Poissons Ratio (x) = -0.21645 0.35799
# Poissons Ratio (y) = -0.06114 0.45895
# Poissons Ratio (z) = 0.15278 0.69343
#
# Static dielectric constant tensor:
#      x y z
#    x 1.727880 0.000000 0.021590 
#    y 0.000000 1.756710 0.000000 
#    z 0.021590 0.000000 1.713330 
# 
# From -- ./inp_files/108449.got.cif
#   From: 2010.05.17/outbox.cif.g08.bks.cpg/sg12_55_cif.got.tgz:108449.got - 2010.06.03 13:09:07.
