data_PCOD9197411
_publ_section_title
;
Structure prediction by ZEFSAII (Michael W. Deem and Ramdas Pophale) SiO2 
 PCOD9197411
Probable space group: C 2/M
;
_chemical_formula_sum "Si O2"
_cell_formula_units_Z 56
_cell_length_a 11.348725
_cell_length_b 19.053416
_cell_length_c 11.574732
_cell_angle_alpha 90.000000
_cell_angle_beta 85.306269
_cell_angle_gamma 90.000000
_cell_volume 2494.433585
_symmetry_space_group_name_H-M "C 2/M"
_symmetry_group_IT_number 12
_symmetry_cell_setting 'monoclinic'
loop_
_space_group_symop_operation_xyz
x,y,z
-x,y,-z
-x,-y,-z
x,-y,z
1/2+x,1/2+y,z
1/2-x,1/2+y,-z
1/2-x,1/2-y,-z
1/2+x,1/2-y,z
loop_
_atom_site_type_symbol
_atom_site_label
_atom_site_fract_x
_atom_site_fract_y
_atom_site_fract_z
Si Si1 0.368821 0.081507 0.526899
Si Si2 0.124285 0.916547 0.438875
Si Si3 0.753491 0.921304 0.803248
Si Si4 0.149245 0.276726 0.848275
Si Si5 0.879209 0.919597 0.040042
Si Si6 0.332244 0.920030 0.801912
Si Si7 0.100894 0.278897 0.127301
O O1 0.500000 0.113375 0.500000
O O2 0.249654 0.112067 0.478709
O O3 0.346746 0.080422 0.664936
O O4 0.377403 0.000000 0.483791
O O5 0.141914 0.912154 0.299224
O O6 0.000000 0.888652 0.500000
O O7 0.124803 0.000000 0.469282
O O8 0.664809 0.856760 0.803538
O O9 0.703737 0.000000 0.788164
O O10 0.804505 0.918511 0.928745
O O11 0.281035 0.246732 0.817141
O O12 0.022572 0.247536 0.816143
O O13 0.128080 0.270427 0.988918
O O14 0.798867 0.895083 0.150106
O O15 0.907412 0.000000 0.070478
O O16 0.000000 0.881720 0.000000
O O17 0.412217 0.862392 0.854785
O O18 0.348525 0.000000 0.842961
#
# Coordination Sequence:
#
# PCOD9197411 Si02
#       7
#     8   8   8   8   8   8   8
#     4   9  19  34  53  81 117 157 196 237 291 352
#     4   9  19  34  53  81 119 158 197 240 291 349
#     4  10  20  35  59  90 121 152 194 250 302 347
#     4  10  22  40  59  84 119 159 198 234 291 363
#     4   9  18  30  48  83 124 155 183 232 302 356
#     4  10  20  35  59  90 121 151 195 248 297 351
#     4  10  22  40  59  84 119 160 196 235 292 360
#
# _framework density 22.449985000000002
#
# number of rings (size 3 to 8) (size 9 to 14) (size 15 to 20)
#    0.000    2.429    1.429    0.000    4.000    1.714 
#    0.000    1.429    0.000    1.714    0.000    0.000 
#    0.000    0.000    0.000    0.000    0.000    0.000 
#
# Total GULP energy -155944.643725 kJ/mol
# GULP energy per Si atom -5569.451562 kJ/mol
# Density = 2.239889 g / cm^3
# Si number density = 22.449985 Si / 1000 Ang^3
#
#
#
# Elastic Constant Matrix: (Units=GPa)
#
#
# Indices 1 2 3 4 5 6 
#
# 1 188.5582 41.5410 37.9055 0.0000 -42.7865 0.0000
# 2 41.5410 57.1057 -0.5130 0.0000 -9.6022 0.0000
# 3 37.9055 -0.5130 62.6029 0.0000 -26.0259 0.0000
# 4 0.0000 0.0000 0.0000 -0.1522 0.0000 -7.0371
# 5 -42.7865 -9.6022 -26.0259 0.0000 26.1759 0.0000
# 6 0.0000 0.0000 0.0000 -7.0371 0.0000 12.2500
#
#
#
# Elastic Compliance Matrix: (Units=1/GPa)
#
#
# Indices 1 2 3 4 5 6 
#
# 1 0.009420 -0.004555 -0.000059 0.000000 0.013669 0.000000
# 2 -0.004555 0.021877 0.005418 0.000000 0.005966 0.000000
# 3 -0.000059 0.005418 0.028705 0.000000 0.030432 0.000000
# 4 0.000000 0.000000 0.000000 -0.238397 0.000000 -0.136949
# 5 0.013669 0.005966 0.030432 0.000000 0.092993 0.000000
# 6 0.000000 0.000000 0.000000 -0.136949 0.000000 0.002961
#
#
# Mechanical properties :
#
#
# Convention : Reuss Voigt Hill
#
# Bulk Modulus (GPa) = 16.23101 51.79264 34.01182
# Shear Modulus (GPa) = -78.72513 22.94364 -27.89075
#
# Velocity S-wave (km/s) = -5.92816 3.20032 -3.52852
# Velocity P-wave (km/s) = 6.29379 6.06436 1.19067
#
# Compressibility (1/GPa) = 0.06161048
#
# Stress axis : x y z
#
# Youngs Moduli (GPa) = 106.15259 45.71077 34.83701
#
# Poissons Ratio (x) = 0.20821 0.00204
# Poissons Ratio (y) = 0.48351 -0.18873
# Poissons Ratio (z) = 0.00622 -0.24764
#
# Static dielectric constant tensor:
#      x y z
#    x 1.944620 0.000000 -0.016390 
#    y 0.000000 1.902010 0.000000 
#    z -0.016390 0.000000 1.791100 
# 
# From -- ./inp_files/133151.got.cif
#   From: 2010.05.17/outbox.cif.g08.bks.cpg/sg12_67_cif.got.tgz:133151.got - 2010.06.03 13:09:07.
