data_PCOD9197851
_publ_section_title
;
Structure prediction by ZEFSAII (Michael W. Deem and Ramdas Pophale) SiO2 
 PCOD9197851
Probable space group: C 2/M
;
_chemical_formula_sum "Si O2"
_cell_formula_units_Z 56
_cell_length_a 9.946523
_cell_length_b 19.798724
_cell_length_c 31.875483
_cell_angle_alpha 90.000000
_cell_angle_beta 148.115060
_cell_angle_gamma 90.000000
_cell_volume 3315.706910
_symmetry_space_group_name_H-M "C 2/M"
_symmetry_group_IT_number 12
_symmetry_cell_setting 'monoclinic'
loop_
_space_group_symop_operation_xyz
x,y,z
-x,y,-z
-x,-y,-z
x,-y,z
1/2+x,1/2+y,z
1/2-x,1/2+y,-z
1/2-x,1/2-y,-z
1/2+x,1/2-y,z
loop_
_atom_site_type_symbol
_atom_site_label
_atom_site_fract_x
_atom_site_fract_y
_atom_site_fract_z
Si Si1 0.797213 0.182104 0.180704
Si Si2 0.169665 0.423477 0.502601
Si Si3 0.684091 0.820691 0.631340
Si Si4 0.011458 0.191438 0.373336
Si Si5 0.466058 0.079676 0.040481
Si Si6 0.503726 0.810306 0.814158
Si Si7 0.575016 0.577158 0.068679
O O1 0.668528 0.121973 0.120687
O O2 0.609362 0.200408 0.169337
O O3 0.848492 0.245191 0.163921
O O4 0.069788 0.165332 0.274347
O O5 0.245448 0.500000 0.511556
O O6 0.393405 0.371330 0.573691
O O7 0.000000 0.427816 0.500000
O O8 0.991329 0.386122 0.421555
O O9 0.525136 0.759234 0.609304
O O10 0.793246 0.800550 0.614110
O O11 0.737787 0.177626 0.279959
O O12 0.486164 0.000000 0.056540
O O13 0.500000 0.087668 0.000000
O O14 0.178917 0.101348 0.975275
O O15 0.689375 0.873926 0.862653
O O16 0.632225 0.500000 0.096709
O O17 0.500000 0.576566 0.000000
#
# Coordination Sequence:
#
# PCOD9197851 Si02
#       7
#     8   8   8   8   8   8   8
#     4  10  21  35  52  77 105 133 170 214 255 301
#     4   9  17  30  51  80 106 130 167 210 249 292
#     4   9  18  33  53  76 102 135 169 204 251 299
#     4   9  18  33  52  76 104 134 168 206 249 299
#     4  10  22  38  54  74 101 135 172 210 257 308
#     4  10  21  34  52  78 104 134 171 211 257 300
#     4  10  20  36  54  73 100 133 172 212 252 305
#
# _framework density 16.889309000000001
#
# number of rings (size 3 to 8) (size 9 to 14) (size 15 to 20)
#    0.000    2.429    1.429    0.429    2.000    2.286 
#    0.000    2.857    0.000    1.714    0.000    0.000 
#    0.000    0.000    0.000    0.000    0.000    0.000 
#
# Total GULP energy -156100.366013 kJ/mol
# GULP energy per Si atom -5575.013072 kJ/mol
# Density = 1.685087 g / cm^3
# Si number density = 16.889309 Si / 1000 Ang^3
#
#
#
# Elastic Constant Matrix: (Units=GPa)
#
#
# Indices 1 2 3 4 5 6 
#
# 1 59.5161 34.2340 31.3956 -0.0023 4.5446 0.0006
# 2 34.2340 105.4239 60.0326 -0.0048 -5.8095 0.0011
# 3 31.3956 60.0326 60.3482 -0.0094 -4.4975 0.0025
# 4 -0.0023 -0.0048 -0.0094 -2.0857 -0.0026 -3.2769
# 5 4.5446 -5.8095 -4.4975 -0.0026 17.1748 0.0003
# 6 0.0006 0.0011 0.0025 -3.2769 0.0003 38.5781
#
#
#
# Elastic Compliance Matrix: (Units=1/GPa)
#
#
# Indices 1 2 3 4 5 6 
#
# 1 0.024943 -0.001941 -0.011817 0.000037 -0.010351 0.000004
# 2 -0.001941 0.022081 -0.020766 0.000036 0.002545 0.000004
# 3 -0.011817 -0.020766 0.043943 -0.000126 0.007609 -0.000013
# 4 0.000037 0.000036 -0.000126 -0.423002 -0.000095 -0.035930
# 5 -0.010351 0.002545 0.007609 -0.000095 0.063817 -0.000009
# 6 0.000004 0.000004 -0.000013 -0.035930 -0.000009 0.022869
#
#
# Mechanical properties :
#
#
# Convention : Reuss Voigt Hill
#
# Bulk Modulus (GPa) = 45.62336 52.95696 49.29016
# Shear Modulus (GPa) = -29.58684 17.37517 -6.10584
#
# Velocity S-wave (km/s) = -4.19000 3.21092 -1.90343
# Velocity P-wave (km/s) = 1.91406 6.72087 4.94134
#
# Compressibility (1/GPa) = 0.02191860
#
# Stress axis : x y z
#
# Youngs Moduli (GPa) = 40.09218 45.28728 22.75684
#
# Poissons Ratio (x) = 0.08790 0.26891
# Poissons Ratio (y) = 0.07782 0.47258
# Poissons Ratio (z) = 0.47375 0.94045
#
# Static dielectric constant tensor:
#      x y z
#    x 1.608340 0.000000 -0.004870 
#    y 0.000000 1.553380 0.000000 
#    z -0.004870 0.000000 1.561900 
# 
# From -- ./inp_files/206229.got.cif
#   From: 2010.05.17/outbox.cif.g08.bks.cpg/sg12_104_cif.got.tgz:206229.got - 2010.06.03 13:09:07.
