data_PCOD9197194
_publ_section_title
;
Structure prediction by ZEFSAII (Michael W. Deem and Ramdas Pophale) SiO2 
 PCOD9197194
Probable space group: C 2/M
;
_chemical_formula_sum "Si O2"
_cell_formula_units_Z 64
_cell_length_a 19.171545
_cell_length_b 14.158544
_cell_length_c 25.035911
_cell_angle_alpha 90.000000
_cell_angle_beta 28.371451
_cell_angle_gamma 90.000000
_cell_volume 3229.256939
_symmetry_space_group_name_H-M "C 2/M"
_symmetry_group_IT_number 12
_symmetry_cell_setting 'monoclinic'
loop_
_space_group_symop_operation_xyz
x,y,z
-x,y,-z
-x,-y,-z
x,-y,z
1/2+x,1/2+y,z
1/2-x,1/2+y,-z
1/2-x,1/2-y,-z
1/2+x,1/2-y,z
loop_
_atom_site_type_symbol
_atom_site_label
_atom_site_fract_x
_atom_site_fract_y
_atom_site_fract_z
Si Si1 0.762132 0.386420 0.853642
Si Si2 0.519930 0.254315 0.424067
Si Si3 0.081864 0.611522 0.590211
Si Si4 0.615216 0.613799 0.175988
Si Si5 0.098048 0.886813 0.585497
Si Si6 0.593128 0.388073 0.071051
Si Si7 0.146261 0.212986 0.828944
Si Si8 0.544941 0.894921 0.031200
O O1 0.733978 0.500000 0.866186
O O2 0.666597 0.326808 0.875485
O O3 0.933108 0.370814 0.724316
O O4 0.714557 0.357894 0.945410
O O5 0.500000 0.265913 0.500000
O O6 0.433324 0.167490 0.454917
O O7 0.466603 0.342120 0.424467
O O8 0.690415 0.234023 0.299627
O O9 0.088092 0.500000 0.575416
O O10 0.231819 0.637853 0.519145
O O11 0.591967 0.500000 0.189397
O O12 0.500720 0.647918 0.297783
O O13 0.599207 0.652415 0.126700
O O14 0.782904 0.627291 0.080826
O O15 0.087138 0.000000 0.590226
O O16 0.613031 0.500000 0.062750
O O17 0.437734 0.365203 0.148845
O O18 0.051699 0.307844 0.883990
O O19 0.520840 0.000000 0.072174
O O20 0.500000 0.902462 0.000000
#
# Coordination Sequence:
#
# PCOD9197194 Si02
#       8
#     8   8   8   8   8   8   8   8
#     4   9  18  35  58  88 124 152 185 236 293 353
#     4  11  25  41  58  89 124 154 200 256 299 347
#     4   9  20  40  65  89 116 160 202 242 301 358
#     4   9  20  37  59  88 117 150 194 246 294 342
#     4  10  21  41  66  87 117 162 204 244 297 355
#     4  10  20  35  58  90 123 149 187 240 294 356
#     4  11  22  36  56  84 116 158 194 230 294 360
#     4  10  20  36  56  78 108 147 192 237 285 342
#
# _framework density 19.818801000000001
#
# number of rings (size 3 to 8) (size 9 to 14) (size 15 to 20)
#    0.000    2.125    0.000    2.625    1.750    5.000 
#    2.250    0.000    0.000    0.000    0.000    0.000 
#    0.000    0.000    0.000    0.000    0.000    0.000 
#
# Total GULP energy -178622.812668 kJ/mol
# GULP energy per Si atom -5581.962896 kJ/mol
# Density = 1.977369 g / cm^3
# Si number density = 19.818801 Si / 1000 Ang^3
#
#
#
# Elastic Constant Matrix: (Units=GPa)
#
#
# Indices 1 2 3 4 5 6 
#
# 1 131.3615 16.8326 79.3750 0.0006 20.3209 -0.0020
# 2 16.8326 63.0178 30.2043 -0.0014 7.5985 0.0011
# 3 79.3750 30.2043 120.9200 -0.0029 -7.2174 -0.0001
# 4 0.0006 -0.0014 -0.0029 10.4025 0.0017 24.4415
# 5 20.3209 7.5985 -7.2174 0.0017 54.3770 0.0003
# 6 -0.0020 0.0011 -0.0001 24.4415 0.0003 -59.8101
#
#
#
# Elastic Compliance Matrix: (Units=1/GPa)
#
#
# Indices 1 2 3 4 5 6 
#
# 1 0.015012 0.002053 -0.010805 -0.000001 -0.007331 -0.000001
# 2 0.002053 0.018856 -0.006311 0.000000 -0.004240 0.000000
# 3 -0.010805 -0.006311 0.017370 0.000001 0.007225 0.000001
# 4 -0.000001 0.000000 0.000001 0.049042 -0.000001 0.020041
# 5 -0.007331 -0.004240 0.007225 -0.000001 0.022681 0.000000
# 6 -0.000001 0.000000 0.000001 0.020041 0.000000 -0.008530
#
#
# Mechanical properties :
#
#
# Convention : Reuss Voigt Hill
#
# Bulk Modulus (GPa) = 47.36360 63.12478 55.24419
# Shear Modulus (GPa) = 32.98250 13.58639 23.28445
#
# Velocity S-wave (km/s) = 4.08389 2.62110 3.43135
# Velocity P-wave (km/s) = 6.79616 6.40940 6.60561
#
# Compressibility (1/GPa) = 0.02111326
#
# Stress axis : x y z
#
# Youngs Moduli (GPa) = 66.61124 53.03338 57.57019
#
# Poissons Ratio (x) = -0.10887 0.62204
# Poissons Ratio (y) = -0.13674 0.36330
# Poissons Ratio (z) = 0.71973 0.33467
#
# Static dielectric constant tensor:
#      x y z
#    x 1.666460 0.000000 0.011690 
#    y 0.000000 1.762850 0.000000 
#    z 0.011690 0.000000 1.689340 
# 
# From -- ./inp_files/344020.got.cif
#   From: 2010.05.17/outbox.cif.g08.bks.cpg/sg12_173_cif.got.tgz:344020.got - 2010.06.03 13:09:07.
