data_PCOD9197403
_publ_section_title
;
Structure prediction by ZEFSAII (Michael W. Deem and Ramdas Pophale) SiO2 
 PCOD9197403
Probable space group: C 2/M
;
_chemical_formula_sum "Si O2"
_cell_formula_units_Z 64
_cell_length_a 18.490581
_cell_length_b 17.888145
_cell_length_c 12.272252
_cell_angle_alpha 90.000000
_cell_angle_beta 131.266238
_cell_angle_gamma 90.000000
_cell_volume 3051.107253
_symmetry_space_group_name_H-M "C 2/M"
_symmetry_group_IT_number 12
_symmetry_cell_setting 'monoclinic'
loop_
_space_group_symop_operation_xyz
x,y,z
-x,y,-z
-x,-y,-z
x,-y,z
1/2+x,1/2+y,z
1/2-x,1/2+y,-z
1/2-x,1/2-y,-z
1/2+x,1/2-y,z
loop_
_atom_site_type_symbol
_atom_site_label
_atom_site_fract_x
_atom_site_fract_y
_atom_site_fract_z
Si Si1 0.611508 0.588448 0.580371
Si Si2 0.109357 0.363123 0.123316
Si Si3 0.412018 0.084550 0.670643
Si Si4 0.242056 0.915102 0.895260
Si Si5 0.850491 0.785000 0.553317
Si Si6 0.318223 0.147546 0.378767
Si Si7 0.098834 0.194451 0.153617
Si Si8 0.118496 0.408808 0.787583
O O1 0.500000 0.590691 0.500000
O O2 0.638594 0.500000 0.592946
O O3 0.660957 0.620661 0.739736
O O4 0.641635 0.637401 0.505683
O O5 0.134034 0.373860 0.273671
O O6 0.170886 0.412301 0.104176
O O7 0.116105 0.274480 0.111606
O O8 0.000000 0.385659 0.000000
O O9 0.343036 0.089656 0.498921
O O10 0.517610 0.114195 0.742197
O O11 0.425546 0.000000 0.719483
O O12 0.211850 0.000000 0.890412
O O13 0.289649 0.882439 0.050428
O O14 0.750000 0.750000 0.500000
O O15 0.866735 0.723150 0.475172
O O16 0.913043 0.792769 0.726773
O O17 0.202616 0.153633 0.247296
O O18 0.369638 0.122158 0.320565
O O19 0.000000 0.163792 0.000000
O O20 0.118707 0.500000 0.785945
#
# Coordination Sequence:
#
# PCOD9197403 Si02
#       8
#     8   8   8   8   8   8   8   8
#     4  10  23  42  64  93 126 169 224 274 323 377
#     4  11  20  37  62  90 122 159 210 266 322 375
#     4  11  22  36  60  93 126 161 202 254 316 383
#     4  10  20  35  59  89 125 166 209 263 316 373
#     4  10  21  42  65  90 124 159 212 272 322 374
#     4  11  22  39  61  88 126 166 203 253 316 383
#     4  10  23  41  61  84 120 163 210 262 311 371
#     4  10  22  39  58  89 131 166 202 250 315 395
#
# _framework density 20.975992000000002
#
# number of rings (size 3 to 8) (size 9 to 14) (size 15 to 20)
#    0.000    1.625    2.500    2.625    1.750    3.500 
#    0.000    5.000    0.000    2.625    0.000    0.000 
#    0.000    0.000    0.000    0.000    0.000    0.000 
#
# Total GULP energy -178327.318234 kJ/mol
# GULP energy per Si atom -5572.728695 kJ/mol
# Density = 2.092825 g / cm^3
# Si number density = 20.975992 Si / 1000 Ang^3
#
#
#
# Elastic Constant Matrix: (Units=GPa)
#
#
# Indices 1 2 3 4 5 6 
#
# 1 33.3351 6.1486 12.7764 0.0000 -8.6150 0.0000
# 2 6.1486 49.6844 4.6912 0.0000 -4.3194 0.0000
# 3 12.7764 4.6912 129.9567 0.0000 -0.6853 0.0000
# 4 0.0000 0.0000 0.0000 33.4279 0.0000 6.2889
# 5 -8.6150 -4.3194 -0.6853 0.0000 41.6580 0.0000
# 6 0.0000 0.0000 0.0000 6.2889 0.0000 8.8543
#
#
#
# Elastic Compliance Matrix: (Units=1/GPa)
#
#
# Indices 1 2 3 4 5 6 
#
# 1 0.033496 -0.003281 -0.003140 0.000000 0.006535 0.000000
# 2 -0.003281 0.020699 -0.000417 0.000000 0.001461 0.000000
# 3 -0.003140 -0.000417 0.008016 0.000000 -0.000561 0.000000
# 4 0.000000 0.000000 0.000000 0.034529 0.000000 -0.024525
# 5 0.006535 0.001461 -0.000561 0.000000 0.025499 0.000000
# 6 0.000000 0.000000 0.000000 -0.024525 0.000000 0.130359
#
#
# Mechanical properties :
#
#
# Convention : Reuss Voigt Hill
#
# Bulk Modulus (GPa) = 20.60345 28.91208 24.75776
# Shear Modulus (GPa) = 17.70214 29.41203 23.55709
#
# Velocity S-wave (km/s) = 2.90819 3.74863 3.35483
# Velocity P-wave (km/s) = 4.59570 5.70523 5.18025
#
# Compressibility (1/GPa) = 0.04853557
#
# Stress axis : x y z
#
# Youngs Moduli (GPa) = 29.85430 48.31061 124.75537
#
# Poissons Ratio (x) = 0.15849 0.39176
# Poissons Ratio (y) = 0.09794 0.05202
# Poissons Ratio (z) = 0.09375 0.02014
#
# Static dielectric constant tensor:
#      x y z
#    x 1.813670 0.000000 0.078000 
#    y 0.000000 1.803860 0.000000 
#    z 0.078000 0.000000 1.878700 
# 
# From -- ./inp_files/159576.got.cif
#   From: 2010.05.17/outbox.cif.g08.bks.cpg/sg12_80_cif.got.tgz:159576.got - 2010.06.03 13:09:07.
