data_PCOD9197473
_publ_section_title
;
Structure prediction by ZEFSAII (Michael W. Deem and Ramdas Pophale) SiO2 
 PCOD9197473
Probable space group: C 2/M
;
_chemical_formula_sum "Si O2"
_cell_formula_units_Z 56
_cell_length_a 17.501180
_cell_length_b 21.007526
_cell_length_c 8.612727
_cell_angle_alpha 90.000000
_cell_angle_beta 120.433635
_cell_angle_gamma 90.000000
_cell_volume 2730.229979
_symmetry_space_group_name_H-M "C 2/M"
_symmetry_group_IT_number 12
_symmetry_cell_setting 'monoclinic'
loop_
_space_group_symop_operation_xyz
x,y,z
-x,y,-z
-x,-y,-z
x,-y,z
1/2+x,1/2+y,z
1/2-x,1/2+y,-z
1/2-x,1/2-y,-z
1/2+x,1/2-y,z
loop_
_atom_site_type_symbol
_atom_site_label
_atom_site_fract_x
_atom_site_fract_y
_atom_site_fract_z
Si Si1 0.819838 0.427684 0.453341
Si Si2 0.097326 0.205247 0.526562
Si Si3 0.666118 0.856051 0.048002
Si Si4 0.770567 0.690303 0.195634
Si Si5 0.196472 0.927865 0.624142
Si Si6 0.901303 0.242423 0.833006
Si Si7 0.994661 0.429469 0.182399
O O1 0.820550 0.500000 0.392272
O O2 0.805141 0.374263 0.311423
O O3 0.742284 0.423800 0.502316
O O4 0.912574 0.417645 0.639137
O O5 0.167148 0.252558 0.680002
O O6 0.130427 0.131889 0.573346
O O7 0.098084 0.226303 0.347223
O O8 0.000000 0.212056 0.500000
O O9 0.723320 0.914028 0.172865
O O10 0.634530 0.812674 0.159163
O O11 0.722663 0.817682 0.981382
O O12 0.579137 0.877274 0.865089
O O13 0.670456 0.699460 0.151968
O O14 0.161904 0.000000 0.609696
O O15 0.000000 0.235952 0.000000
O O16 0.965104 0.500000 0.201107
O O17 0.000000 0.430469 0.000000
#
# Coordination Sequence:
#
# PCOD9197473 Si02
#       7
#     8   8   8   8   8   8   8
#     4  10  22  41  67  97 135 183 223 272 341 401
#     4  12  27  45  71 102 134 173 230 284 336 396
#     4  12  24  38  66 100 139 175 224 268 335 402
#     4  12  26  44  67 100 138 178 223 278 332 400
#     4  11  23  44  71  95 130 182 230 279 339 397
#     4  12  26  44  69  97 134 176 217 279 342 398
#     4  10  20  35  59  95 134 174 220 267 327 404
#
# _framework density 20.511092000000001
#
# number of rings (size 3 to 8) (size 9 to 14) (size 15 to 20)
#    0.000    0.714    4.286    3.429    6.000    1.429 
#    0.000    1.429    0.000    0.857    0.000    0.000 
#    0.000    0.000    0.000    0.000    0.000    0.000 
#
# Total GULP energy -156589.602909 kJ/mol
# GULP energy per Si atom -5592.485818 kJ/mol
# Density = 2.046441 g / cm^3
# Si number density = 20.511092 Si / 1000 Ang^3
#
#
#
# Elastic Constant Matrix: (Units=GPa)
#
#
# Indices 1 2 3 4 5 6 
#
# 1 129.5179 48.4803 36.0537 0.0000 -5.7776 0.0000
# 2 48.4803 142.5305 50.2775 0.0000 -4.5807 0.0000
# 3 36.0537 50.2775 71.3018 0.0000 1.7012 0.0000
# 4 0.0000 0.0000 0.0000 26.2115 0.0000 11.4115
# 5 -5.7776 -4.5807 1.7012 0.0000 25.5987 0.0000
# 6 0.0000 0.0000 0.0000 11.4115 0.0000 8.2174
#
#
#
# Elastic Compliance Matrix: (Units=1/GPa)
#
#
# Indices 1 2 3 4 5 6 
#
# 1 0.009508 -0.001938 -0.003490 0.000000 0.002031 0.000000
# 2 -0.001938 0.009849 -0.006006 0.000000 0.001724 0.000000
# 3 -0.003490 -0.006006 0.020101 0.000000 -0.003198 0.000000
# 4 0.000000 0.000000 0.000000 0.096484 0.000000 -0.133986
# 5 0.002031 0.001724 -0.003198 0.000000 0.040044 0.000000
# 6 0.000000 0.000000 0.000000 -0.133986 0.000000 0.307759
#
#
# Mechanical properties :
#
#
# Convention : Reuss Voigt Hill
#
# Bulk Modulus (GPa) = 60.27510 68.10815 64.19162
# Shear Modulus (GPa) = 9.76288 25.90811 17.83549
#
# Velocity S-wave (km/s) = 2.18406 3.55790 2.95202
# Velocity P-wave (km/s) = 5.98419 7.08208 6.55616
#
# Compressibility (1/GPa) = 0.01659060
#
# Stress axis : x y z
#
# Youngs Moduli (GPa) = 105.17027 101.52956 49.74819
#
# Poissons Ratio (x) = 0.19675 0.17362
# Poissons Ratio (y) = 0.20380 0.29881
# Poissons Ratio (z) = 0.36704 0.60983
#
# Static dielectric constant tensor:
#      x y z
#    x 1.736590 0.000000 0.002750 
#    y 0.000000 1.764660 0.000000 
#    z 0.002750 0.000000 1.701680 
# 
# From -- ./inp_files/77612.got.cif
#   From: 2010.05.17/outbox.cif.g08.bks.cpg/sg12_39_cif.got.tgz:77612.got - 2010.06.03 13:09:07.
