data_PCOD9197060
_publ_section_title
;
Structure prediction by ZEFSAII (Michael W. Deem and Ramdas Pophale) SiO2 
 PCOD9197060
Probable space group: C 2/M
;
_chemical_formula_sum "Si O2"
_cell_formula_units_Z 64
_cell_length_a 23.669954
_cell_length_b 12.613306
_cell_length_c 9.364635
_cell_angle_alpha 90.000000
_cell_angle_beta 79.230453
_cell_angle_gamma 90.000000
_cell_volume 2746.626953
_symmetry_space_group_name_H-M "C 2/M"
_symmetry_group_IT_number 12
_symmetry_cell_setting 'monoclinic'
loop_
_space_group_symop_operation_xyz
x,y,z
-x,y,-z
-x,-y,-z
x,-y,z
1/2+x,1/2+y,z
1/2-x,1/2+y,-z
1/2-x,1/2-y,-z
1/2+x,1/2-y,z
loop_
_atom_site_type_symbol
_atom_site_label
_atom_site_fract_x
_atom_site_fract_y
_atom_site_fract_z
Si Si1 0.186257 0.689572 0.145012
Si Si2 0.935286 0.609183 0.788508
Si Si3 0.415843 0.120946 0.466036
Si Si4 0.718936 0.126931 0.526003
Si Si5 0.992186 0.211259 0.257932
Si Si6 0.393837 0.384104 0.781688
Si Si7 0.603587 0.384927 0.875341
Si Si8 0.793686 0.267426 0.192000
O O1 0.132869 0.612063 0.165169
O O2 0.155593 0.797661 0.215538
O O3 0.242263 0.679089 0.216315
O O4 0.205009 0.695391 0.971952
O O5 0.959427 0.500000 0.829510
O O6 0.941121 0.619999 0.614593
O O7 0.968213 0.704311 0.845495
O O8 0.346632 0.137684 0.502551
O O9 0.448015 0.214675 0.366570
O O10 0.424567 0.000000 0.405198
O O11 0.750000 0.250000 0.500000
O O12 0.713772 0.134706 0.700347
O O13 0.737027 0.000000 0.484211
O O14 0.043921 0.147763 0.311501
O O15 0.956318 0.135794 0.173539
O O16 0.376719 0.500000 0.739251
O O17 0.400822 0.386396 0.950996
O O18 0.626250 0.500000 0.820715
O O19 0.647411 0.293859 0.808716
#
# Coordination Sequence:
#
# PCOD9197060 Si02
#       8
#     8   8   8   8   8   8   8   8
#     4   9  20  36  63  89 123 153 203 255 314 378
#     4  10  21  37  59  84 113 155 203 252 303 367
#     4  10  21  39  60  84 117 160 205 250 305 369
#     4  11  24  42  64  92 130 171 211 261 319 380
#     4  11  19  33  56  84 113 149 201 253 298 355
#     4   9  19  35  56  83 118 161 201 244 302 369
#     4  10  20  35  58  86 119 159 203 249 304 373
#     4  10  20  39  61  92 121 162 200 255 314 376
#
# _framework density 23.301307000000001
#
# number of rings (size 3 to 8) (size 9 to 14) (size 15 to 20)
#    0.000    2.000    1.250    2.250    0.000    4.000 
#    0.000    2.500    0.000   19.500    0.000    0.000 
#    0.000    0.000    0.000    0.000    0.000    0.000 
#
# Total GULP energy -178138.968864 kJ/mol
# GULP energy per Si atom -5566.842777 kJ/mol
# Density = 2.324827 g / cm^3
# Si number density = 23.301307 Si / 1000 Ang^3
#
#
#
# Elastic Constant Matrix: (Units=GPa)
#
#
# Indices 1 2 3 4 5 6 
#
# 1 68.2316 -2.7874 8.0597 0.0000 -3.6239 0.0000
# 2 -2.7874 126.4718 17.2778 0.0000 -4.6262 0.0000
# 3 8.0597 17.2778 23.8768 0.0000 -5.9937 0.0000
# 4 0.0000 0.0000 0.0000 19.2078 0.0000 8.3875
# 5 -3.6239 -4.6262 -5.9937 0.0000 26.2708 0.0000
# 6 0.0000 0.0000 0.0000 8.3875 0.0000 -13.3926
#
#
#
# Elastic Compliance Matrix: (Units=1/GPa)
#
#
# Indices 1 2 3 4 5 6 
#
# 1 0.015443 0.001171 -0.005806 0.000000 0.001012 0.000000
# 2 0.001171 0.008863 -0.006764 0.000000 0.000179 0.000000
# 3 -0.005806 -0.006764 0.051166 0.000000 0.009682 0.000000
# 4 0.000000 0.000000 0.000000 0.040882 0.000000 0.025603
# 5 0.001012 0.000179 0.009682 0.000000 0.040445 0.000000
# 6 0.000000 0.000000 0.000000 0.025603 0.000000 -0.058633
#
#
# Mechanical properties :
#
#
# Convention : Reuss Voigt Hill
#
# Bulk Modulus (GPa) = 18.98458 29.29783 24.14120
# Shear Modulus (GPa) = 36.09503 19.48589 27.79046
#
# Velocity S-wave (km/s) = 3.94007 2.89495 3.45723
# Velocity P-wave (km/s) = 5.37253 4.87597 5.13026
#
# Compressibility (1/GPa) = 0.05267433
#
# Stress axis : x y z
#
# Youngs Moduli (GPa) = 64.75285 112.82505 19.54412
#
# Poissons Ratio (x) = -0.13207 0.11347
# Poissons Ratio (y) = -0.07580 0.13219
# Poissons Ratio (z) = 0.37596 0.76313
#
# Static dielectric constant tensor:
#      x y z
#    x 1.910150 0.000000 -0.067580 
#    y 0.000000 1.929270 0.000000 
#    z -0.067580 0.000000 1.958110 
# 
# From -- ./inp_files/174621.got.cif
#   From: 2010.05.17/outbox.cif.g08.bks.cpg/sg12_88_cif.got.tgz:174621.got - 2010.06.03 13:09:07.
