data_PCOD9197958
_publ_section_title
;
Structure prediction by ZEFSAII (Michael W. Deem and Ramdas Pophale) SiO2 
 PCOD9197958
Probable space group: C 2/M
;
_chemical_formula_sum "Si O2"
_cell_formula_units_Z 42
_cell_length_a 16.921563
_cell_length_b 10.470218
_cell_length_c 14.110299
_cell_angle_alpha 90.000000
_cell_angle_beta 60.044362
_cell_angle_gamma 90.000000
_cell_volume 2165.992821
_symmetry_space_group_name_H-M "C 2/M"
_symmetry_group_IT_number 12
_symmetry_cell_setting 'monoclinic'
loop_
_space_group_symop_operation_xyz
x,y,z
-x,y,-z
-x,-y,-z
x,-y,z
1/2+x,1/2+y,z
1/2-x,1/2+y,-z
1/2-x,1/2-y,-z
1/2+x,1/2-y,z
loop_
_atom_site_type_symbol
_atom_site_label
_atom_site_fract_x
_atom_site_fract_y
_atom_site_fract_z
Si Si1 0.981634 0.153959 0.662521
Si Si2 0.476632 0.261509 0.874448
Si Si3 0.000000 0.000000 0.000000
Si Si4 0.355487 0.654819 0.558030
Si Si5 0.821204 0.651985 0.241216
Si Si6 0.703728 0.855130 0.960939
O O1 0.953620 0.211309 0.778883
O O2 0.082969 0.196040 0.567565
O O3 0.913980 0.186332 0.617068
O O4 0.982088 0.000000 0.670849
O O5 0.470101 0.387867 0.941639
O O6 0.581294 0.217515 0.813466
O O7 0.404912 0.160064 0.957924
O O8 0.351928 0.500000 0.556087
O O9 0.252970 0.700296 0.638098
O O10 0.833509 0.500000 0.246393
O O11 0.780335 0.669782 0.159939
O O12 0.733176 0.000000 0.965216
O O13 0.750000 0.750000 0.000000
#
# Coordination Sequence:
#
# PCOD9197958 Si02
#       6
#     8   8   2   8   8   8
#     4   9  17  31  54  80 109 139 187 232 277 323
#     4  12  22  36  55  80 115 153 185 229 281 340
#     4  12  24  36  54  82 120 154 188 228 282 338
#     4   8  16  32  53  80 104 136 183 240 275 324
#     4  10  20  36  55  78 110 143 184 231 282 335
#     4  11  24  38  58  84 112 149 191 237 286 339
#
# _framework density 19.390644999999999
#
# number of rings (size 3 to 8) (size 9 to 14) (size 15 to 20)
#    0.000    1.905    2.857    2.857    1.333    3.810 
#    0.000    0.000    0.000    0.000    0.000    6.667 
#    0.000    0.000    0.000    0.000    0.000    0.000 
#
# Total GULP energy -116905.815966 kJ/mol
# GULP energy per Si atom -5566.943617 kJ/mol
# Density = 1.934651 g / cm^3
# Si number density = 19.390645 Si / 1000 Ang^3
#
#
#
# Elastic Constant Matrix: (Units=GPa)
#
#
# Indices 1 2 3 4 5 6 
#
# 1 40.6393 4.8014 -4.2569 0.0000 -15.0106 0.0000
# 2 4.8014 37.3546 -3.0930 0.0000 -0.5311 0.0000
# 3 -4.2569 -3.0930 78.7437 0.0000 -7.3755 0.0000
# 4 0.0000 0.0000 0.0000 16.5746 0.0000 4.7405
# 5 -15.0106 -0.5311 -7.3755 0.0000 39.5496 0.0000
# 6 0.0000 0.0000 0.0000 4.7405 0.0000 5.4380
#
#
#
# Elastic Compliance Matrix: (Units=1/GPa)
#
#
# Indices 1 2 3 4 5 6 
#
# 1 0.029586 -0.003425 0.002557 0.000000 0.011660 0.000000
# 2 -0.003425 0.027267 0.000813 0.000000 -0.000782 0.000000
# 3 0.002557 0.000813 0.013192 0.000000 0.003441 0.000000
# 4 0.000000 0.000000 0.000000 0.080372 0.000000 -0.070064
# 5 0.011660 -0.000782 0.003441 0.000000 0.030341 0.000000
# 6 0.000000 0.000000 0.000000 -0.070064 0.000000 0.244969
#
#
# Mechanical properties :
#
#
# Convention : Reuss Voigt Hill
#
# Bulk Modulus (GPa) = 14.29938 16.84897 15.57417
# Shear Modulus (GPa) = 11.13213 22.93151 17.03182
#
# Velocity S-wave (km/s) = 2.39863 3.44264 2.96692
# Velocity P-wave (km/s) = 3.88093 4.95080 4.44815
#
# Compressibility (1/GPa) = 0.06993311
#
# Stress axis : x y z
#
# Youngs Moduli (GPa) = 33.79983 36.67450 75.80396
#
# Poissons Ratio (x) = 0.12562 -0.19383
# Poissons Ratio (y) = 0.11578 -0.06159
# Poissons Ratio (z) = -0.08643 -0.02980
#
# Static dielectric constant tensor:
#      x y z
#    x 1.718930 0.000000 -0.033400 
#    y 0.000000 1.624900 0.000000 
#    z -0.033400 0.000000 1.699850 
# 
# From -- ./inp_files/212454.got.cif
#   From: 2010.05.17/outbox.cif.g08.bks.cpg/sg12_107_cif.got.tgz:212454.got - 2010.06.03 13:09:07.
