data_PCOD9197398
_publ_section_title
;
Structure prediction by ZEFSAII (Michael W. Deem and Ramdas Pophale) SiO2 
 PCOD9197398
Probable space group: C 2/M
;
_chemical_formula_sum "Si O2"
_cell_formula_units_Z 64
_cell_length_a 15.795221
_cell_length_b 8.441330
_cell_length_c 33.951730
_cell_angle_alpha 90.000000
_cell_angle_beta 45.825239
_cell_angle_gamma 90.000000
_cell_volume 3246.754548
_symmetry_space_group_name_H-M "C 2/M"
_symmetry_group_IT_number 12
_symmetry_cell_setting 'monoclinic'
loop_
_space_group_symop_operation_xyz
x,y,z
-x,y,-z
-x,-y,-z
x,-y,z
1/2+x,1/2+y,z
1/2-x,1/2+y,-z
1/2-x,1/2-y,-z
1/2+x,1/2-y,z
loop_
_atom_site_type_symbol
_atom_site_label
_atom_site_fract_x
_atom_site_fract_y
_atom_site_fract_z
Si Si1 0.595364 0.308698 0.437172
Si Si2 0.833895 0.686261 0.938500
Si Si3 0.358208 0.691010 0.365093
Si Si4 0.911191 0.184148 0.124876
Si Si5 0.447979 0.306747 0.637784
Si Si6 0.524720 0.691378 0.756004
Si Si7 0.725992 0.687940 0.128200
Si Si8 0.289962 0.188451 0.240385
O O1 0.500000 0.252563 0.500000
O O2 0.591336 0.500000 0.437814
O O3 0.727267 0.258284 0.405353
O O4 0.565399 0.251833 0.402720
O O5 0.816353 0.500000 0.938950
O O6 0.803366 0.770326 0.907213
O O7 0.969003 0.719898 0.906672
O O8 0.750000 0.750000 0.000000
O O9 0.350989 0.500000 0.368329
O O10 0.433898 0.744502 0.378176
O O11 0.430084 0.733398 0.302115
O O12 0.841351 0.228215 0.107999
O O13 0.824252 0.225411 0.189179
O O14 0.941776 0.000000 0.115668
O O15 0.447767 0.500000 0.637269
O O16 0.333860 0.260151 0.700381
O O17 0.534708 0.500000 0.757329
O O18 0.389677 0.734097 0.808833
O O19 0.608860 0.773293 0.760605
O O20 0.742188 0.500000 0.127095
O O21 0.284624 0.000000 0.234645
#
# Coordination Sequence:
#
# PCOD9197398 Si02
#       8
#     8   8   8   8   8   8   8   8
#     4  10  21  38  57  79 111 151 198 251 301 354
#     4  12  26  46  69  95 126 166 213 261 313 366
#     4  10  20  36  58  83 115 153 194 240 295 362
#     4  12  25  42  64  95 131 166 207 256 307 366
#     4   9  19  36  57  83 115 155 193 239 302 364
#     4  10  20  35  59  89 123 156 193 246 307 365
#     4  11  23  42  67  96 129 166 207 254 310 370
#     4  11  20  35  62  89 120 161 202 242 302 371
#
# _framework density 19.711991999999999
#
# number of rings (size 3 to 8) (size 9 to 14) (size 15 to 20)
#    0.000    1.375    2.500    3.750    0.000    3.750 
#    0.000    5.625    0.000    0.000    0.000    0.000 
#    0.000    0.000    0.000    0.000    0.000    0.000 
#
# Total GULP energy -178920.369712 kJ/mol
# GULP energy per Si atom -5591.261554 kJ/mol
# Density = 1.966713 g / cm^3
# Si number density = 19.711992 Si / 1000 Ang^3
#
#
#
# Elastic Constant Matrix: (Units=GPa)
#
#
# Indices 1 2 3 4 5 6 
#
# 1 119.5022 -10.2268 37.4047 -0.0011 4.0225 -0.0014
# 2 -10.2268 15.6560 -2.2030 -0.0043 0.4139 -0.0050
# 3 37.4047 -2.2030 115.8730 -0.0001 -5.7890 -0.0007
# 4 -0.0011 -0.0043 -0.0001 23.0503 0.0001 -0.5088
# 5 4.0225 0.4139 -5.7890 0.0001 -2.5499 -0.0006
# 6 -0.0014 -0.0050 -0.0007 -0.5088 -0.0006 30.9710
#
#
#
# Elastic Compliance Matrix: (Units=1/GPa)
#
#
# Indices 1 2 3 4 5 6 
#
# 1 0.008726 0.004955 -0.001791 0.000001 0.018636 0.000002
# 2 0.004955 0.066725 0.000539 0.000013 0.017422 0.000012
# 3 -0.001791 0.000539 0.008157 0.000000 -0.021256 0.000000
# 4 0.000001 0.000013 0.000000 0.043399 0.000005 0.000713
# 5 0.018636 0.017422 -0.021256 0.000005 -0.311684 -0.000003
# 6 0.000002 0.000012 0.000000 0.000713 -0.000003 0.032300
#
#
# Mechanical properties :
#
#
# Convention : Reuss Voigt Hill
#
# Bulk Modulus (GPa) = 10.98735 33.44233 22.21484
# Shear Modulus (GPa) = -38.62624 25.36469 -6.63077
#
# Velocity S-wave (km/s) = -4.43146 3.59104 -1.83606
# Velocity P-wave (km/s) = 4.53847 5.84777 2.60755
#
# Compressibility (1/GPa) = 0.09101374
#
# Stress axis : x y z
#
# Youngs Moduli (GPa) = 114.60616 14.98679 122.59802
#
# Poissons Ratio (x) = -0.07426 0.21963
# Poissons Ratio (y) = -0.56787 -0.06614
# Poissons Ratio (z) = 0.20531 -0.00808
#
# Static dielectric constant tensor:
#      x y z
#    x 1.638680 0.000000 -0.000990 
#    y 0.000000 1.677770 0.000000 
#    z -0.000990 0.000000 1.671180 
# 
# From -- ./inp_files/375407.got.cif
#   From: 2010.05.17/outbox.cif.g08.bks.cpg/sg12_188_cif.got.tgz:375407.got - 2010.06.03 13:09:07.
