data_PCOD9197416
_publ_section_title
;
Structure prediction by ZEFSAII (Michael W. Deem and Ramdas Pophale) SiO2 
 PCOD9197416
Probable space group: C 2/M
;
_chemical_formula_sum "Si O2"
_cell_formula_units_Z 64
_cell_length_a 14.716458
_cell_length_b 7.919700
_cell_length_c 30.374344
_cell_angle_alpha 90.000000
_cell_angle_beta 131.322186
_cell_angle_gamma 90.000000
_cell_volume 2658.666067
_symmetry_space_group_name_H-M "C 2/M"
_symmetry_group_IT_number 12
_symmetry_cell_setting 'monoclinic'
loop_
_space_group_symop_operation_xyz
x,y,z
-x,y,-z
-x,-y,-z
x,-y,z
1/2+x,1/2+y,z
1/2-x,1/2+y,-z
1/2-x,1/2-y,-z
1/2+x,1/2-y,z
loop_
_atom_site_type_symbol
_atom_site_label
_atom_site_fract_x
_atom_site_fract_y
_atom_site_fract_z
Si Si1 0.682834 0.693037 0.251287
Si Si2 0.283226 0.803587 0.149525
Si Si3 0.516505 0.806335 0.053654
Si Si4 0.513528 0.201747 0.275572
Si Si5 0.116752 0.204442 0.403402
Si Si6 0.042417 0.800841 0.872093
Si Si7 0.867474 0.694269 0.461086
Si Si8 0.384207 0.696776 0.374883
O O1 0.714584 0.500000 0.250777
O O2 0.597504 0.704466 0.267171
O O3 0.592067 0.762174 0.185223
O O4 0.804504 0.783288 0.305552
O O5 0.159734 0.702573 0.108296
O O6 0.375917 0.755119 0.218226
O O7 0.359068 0.782710 0.128340
O O8 0.250918 0.000000 0.145107
O O9 0.447062 0.725475 0.072580
O O10 0.474970 0.000000 0.038164
O O11 0.500000 0.727479 0.000000
O O12 0.556643 0.242954 0.338087
O O13 0.527709 0.000000 0.272718
O O14 0.253485 0.272498 0.449707
O O15 0.020830 0.257042 0.409538
O O16 0.122528 0.000000 0.406144
O O17 0.045404 0.000000 0.863085
O O18 0.117711 0.500000 0.520103
O O19 0.828724 0.699671 0.397274
O O20 0.000000 0.776581 0.500000
O O21 0.383066 0.500000 0.386420
#
# Coordination Sequence:
#
# PCOD9197416 Si02
#       8
#     8   8   8   8   8   8   8   8
#     4  10  20  36  59  87 122 158 195 242 301 360
#     4  10  22  40  62  91 124 160 203 252 305 366
#     4  11  25  43  63  89 122 163 210 255 304 364
#     4  10  20  35  59  90 122 155 197 244 296 358
#     4  10  22  38  57  86 122 159 196 242 301 357
#     4  10  22  40  63  91 122 161 204 252 308 364
#     4  10  22  42  64  84 115 162 208 251 300 356
#     4  11  23  37  57  89 121 156 200 246 298 355
#
# _framework density 24.072222
#
# number of rings (size 3 to 8) (size 9 to 14) (size 15 to 20)
#    0.000    1.750    1.250    2.250    1.750    6.250 
#    0.000    0.000    0.000    0.000    0.000    0.000 
#    0.000    0.000    0.000    0.000    0.000    0.000 
#
# Total GULP energy -178927.974652 kJ/mol
# GULP energy per Si atom -5591.499208 kJ/mol
# Density = 2.401743 g / cm^3
# Si number density = 24.072222 Si / 1000 Ang^3
#
#
#
# Elastic Constant Matrix: (Units=GPa)
#
#
# Indices 1 2 3 4 5 6 
#
# 1 81.6983 -1.0339 13.5692 0.0000 -4.7248 0.0000
# 2 -1.0339 49.6072 -3.9368 0.0000 -2.1124 0.0000
# 3 13.5692 -3.9368 47.9666 0.0000 -19.5796 0.0000
# 4 0.0000 0.0000 0.0000 25.4801 0.0000 -1.7156
# 5 -4.7248 -2.1124 -19.5796 0.0000 34.0334 0.0000
# 6 0.0000 0.0000 0.0000 -1.7156 0.0000 15.0332
#
#
#
# Elastic Compliance Matrix: (Units=1/GPa)
#
#
# Indices 1 2 3 4 5 6 
#
# 1 0.012848 -0.000052 -0.003806 0.000000 -0.000409 0.000000
# 2 -0.000052 0.020512 0.002895 0.000000 0.002931 0.000000
# 3 -0.003806 0.002895 0.028778 0.000000 0.016207 0.000000
# 4 0.000000 0.000000 0.000000 0.039550 0.000000 0.004514
# 5 -0.000409 0.002931 0.016207 0.000000 0.038832 0.000000
# 6 0.000000 0.000000 0.000000 0.004514 0.000000 0.067034
#
#
# Mechanical properties :
#
#
# Convention : Reuss Voigt Hill
#
# Bulk Modulus (GPa) = 16.60801 21.82991 19.21896
# Shear Modulus (GPa) = 21.78168 26.28758 24.03463
#
# Velocity S-wave (km/s) = 3.01133 3.30817 3.16324
# Velocity P-wave (km/s) = 4.35948 4.86623 4.61981
#
# Compressibility (1/GPa) = 0.06021190
#
# Stress axis : x y z
#
# Youngs Moduli (GPa) = 77.83346 48.75236 34.74906
#
# Poissons Ratio (x) = 0.00252 0.13225
# Poissons Ratio (y) = 0.00402 -0.10058
# Poissons Ratio (z) = 0.29621 -0.14112
#
# Static dielectric constant tensor:
#      x y z
#    x 1.920870 0.000000 0.014340 
#    y 0.000000 1.864910 0.000000 
#    z 0.014340 0.000000 1.981740 
# 
# From -- ./inp_files/375522.got.cif
#   From: 2010.05.17/outbox.cif.g08.bks.cpg/sg12_188_cif.got.tgz:375522.got - 2010.06.03 13:09:07.
