data_PCOD9197641
_publ_section_title
;
Structure prediction by ZEFSAII (Michael W. Deem and Ramdas Pophale) SiO2 
 PCOD9197641
Probable space group: C 2/M
;
_chemical_formula_sum "Si O2"
_cell_formula_units_Z 56
_cell_length_a 18.198758
_cell_length_b 13.930197
_cell_length_c 11.943947
_cell_angle_alpha 90.000000
_cell_angle_beta 111.942107
_cell_angle_gamma 90.000000
_cell_volume 2808.599238
_symmetry_space_group_name_H-M "C 2/M"
_symmetry_group_IT_number 12
_symmetry_cell_setting 'monoclinic'
loop_
_space_group_symop_operation_xyz
x,y,z
-x,y,-z
-x,-y,-z
x,-y,z
1/2+x,1/2+y,z
1/2-x,1/2+y,-z
1/2-x,1/2-y,-z
1/2+x,1/2-y,z
loop_
_atom_site_type_symbol
_atom_site_label
_atom_site_fract_x
_atom_site_fract_y
_atom_site_fract_z
Si Si1 0.821906 0.757301 0.806752
Si Si2 0.037927 0.112010 0.189006
Si Si3 0.434150 0.786861 0.053876
Si Si4 0.459657 0.111776 0.300095
Si Si5 0.662441 0.790934 0.610750
Si Si6 0.579602 0.608006 0.472518
Si Si7 0.647767 0.111594 0.380757
O O1 0.882390 0.845146 0.819965
O O2 0.731830 0.787445 0.741168
O O3 0.835350 0.679504 0.715145
O O4 0.851446 0.716479 0.941674
O O5 0.052692 0.123476 0.329775
O O6 0.967044 0.181873 0.109870
O O7 0.024783 0.000000 0.156553
O O8 0.433457 0.850880 0.163556
O O9 0.500000 0.821465 0.000000
O O10 0.414812 0.168395 0.371558
O O11 0.554343 0.123504 0.355401
O O12 0.441435 0.000000 0.304148
O O13 0.640794 0.686968 0.549237
O O14 0.688936 0.853901 0.518833
O O15 0.500000 0.614099 0.500000
O O16 0.612220 0.500000 0.501087
O O17 0.663442 0.000000 0.365932
#
# Coordination Sequence:
#
# PCOD9197641 Si02
#       7
#     8   8   8   8   8   8   8
#     4  11  24  39  58  90 123 164 199 249 308 357
#     4  10  20  37  61  88 115 154 206 250 296 356
#     4  10  20  40  63  87 118 156 208 253 299 354
#     4  11  23  40  65  91 118 160 206 252 302 359
#     4  12  23  39  59  90 132 156 196 252 313 366
#     4  10  20  35  61  89 118 158 201 247 301 361
#     4  11  22  39  63  90 119 162 209 247 297 362
#
# _framework density 19.938766000000001
#
# number of rings (size 3 to 8) (size 9 to 14) (size 15 to 20)
#    0.000    1.286    4.286    3.000    0.000    6.857 
#    0.000    0.000    0.000    1.714    0.000    0.000 
#    0.000    0.000    0.000    0.000    0.000    0.000 
#
# Total GULP energy -156525.632334 kJ/mol
# GULP energy per Si atom -5590.201155 kJ/mol
# Density = 1.989338 g / cm^3
# Si number density = 19.938766 Si / 1000 Ang^3
#
#
#
# Elastic Constant Matrix: (Units=GPa)
#
#
# Indices 1 2 3 4 5 6 
#
# 1 27.0086 16.6477 6.0763 0.0000 6.6850 0.0000
# 2 16.6477 83.7844 8.9879 0.0000 -1.1683 0.0000
# 3 6.0763 8.9879 93.4618 0.0000 10.7018 0.0000
# 4 0.0000 0.0000 0.0000 5.2677 0.0000 0.4587
# 5 6.6850 -1.1683 10.7018 0.0000 34.1542 0.0000
# 6 0.0000 0.0000 0.0000 0.4587 0.0000 2.0286
#
#
#
# Elastic Compliance Matrix: (Units=1/GPa)
#
#
# Indices 1 2 3 4 5 6 
#
# 1 0.044944 -0.008939 -0.001058 0.000000 -0.008771 0.000000
# 2 -0.008939 0.013859 -0.001044 0.000000 0.002551 0.000000
# 3 -0.001058 -0.001044 0.011253 0.000000 -0.003355 0.000000
# 4 0.000000 0.000000 0.000000 0.193648 0.000000 -0.043787
# 5 -0.008771 0.002551 -0.003355 0.000000 0.032134 0.000000
# 6 0.000000 0.000000 0.000000 -0.043787 0.000000 0.502849
#
#
# Mechanical properties :
#
#
# Convention : Reuss Voigt Hill
#
# Bulk Modulus (GPa) = 20.84440 29.74205 25.29323
# Shear Modulus (GPa) = 5.97543 19.79298 12.88421
#
# Velocity S-wave (km/s) = 1.73303 3.15411 2.54478
# Velocity P-wave (km/s) = 3.80545 5.31165 4.62034
#
# Compressibility (1/GPa) = 0.04797451
#
# Stress axis : x y z
#
# Youngs Moduli (GPa) = 22.24988 72.15484 88.86658
#
# Poissons Ratio (x) = 0.64500 0.09402
# Poissons Ratio (y) = 0.19889 0.09275
# Poissons Ratio (z) = 0.02354 0.07531
#
# Static dielectric constant tensor:
#      x y z
#    x 1.695820 0.000000 0.013430 
#    y 0.000000 1.705110 0.000000 
#    z 0.013430 0.000000 1.712420 
# 
# From -- ./inp_files/156159.got.cif
#   From: 2010.05.17/outbox.cif.g08.bks.cpg/sg12_79_cif.got.tgz:156159.got - 2010.06.03 13:09:07.
