data_PCOD9197163
_publ_section_title
;
Structure prediction by ZEFSAII (Michael W. Deem and Ramdas Pophale) SiO2 
 PCOD9197163
Probable space group: C 2/M
;
_chemical_formula_sum "Si O2"
_cell_formula_units_Z 64
_cell_length_a 20.842674
_cell_length_b 13.304402
_cell_length_c 16.683906
_cell_angle_alpha 90.000000
_cell_angle_beta 147.321349
_cell_angle_gamma 90.000000
_cell_volume 2497.936278
_symmetry_space_group_name_H-M "C 2/M"
_symmetry_group_IT_number 12
_symmetry_cell_setting 'monoclinic'
loop_
_space_group_symop_operation_xyz
x,y,z
-x,y,-z
-x,-y,-z
x,-y,z
1/2+x,1/2+y,z
1/2-x,1/2+y,-z
1/2-x,1/2-y,-z
1/2+x,1/2-y,z
loop_
_atom_site_type_symbol
_atom_site_label
_atom_site_fract_x
_atom_site_fract_y
_atom_site_fract_z
Si Si1 0.584629 0.878971 0.162052
Si Si2 0.218769 0.612569 0.676498
Si Si3 0.374891 0.617154 0.689378
Si Si4 0.234833 0.171298 0.896393
Si Si5 0.334470 0.674105 0.353084
Si Si6 0.982175 0.386472 0.225944
Si Si7 0.023302 0.193916 0.354961
Si Si8 0.148398 0.885623 0.022896
O O1 0.716384 0.846443 0.279901
O O2 0.547059 0.849382 0.212434
O O3 0.576672 0.000000 0.153239
O O4 0.500000 0.842217 0.000000
O O5 0.167248 0.500000 0.620634
O O6 0.276055 0.639635 0.651225
O O7 0.142599 0.705927 0.627106
O O8 0.323551 0.611305 0.852729
O O9 0.360554 0.500000 0.657001
O O10 0.378069 0.668520 0.606763
O O11 0.508009 0.630567 0.864179
O O12 0.204013 0.135218 0.774042
O O13 0.108548 0.156422 0.806738
O O14 0.276637 0.288568 0.930075
O O15 0.344649 0.118036 0.053789
O O16 0.442206 0.644458 0.524300
O O17 0.017905 0.500000 0.280933
O O18 0.006401 0.313736 0.326076
O O19 0.179588 0.000000 0.026534
#
# Coordination Sequence:
#
# PCOD9197163 Si02
#       8
#     8   8   8   8   8   8   8   8
#     4  10  21  41  68  97 124 158 215 269 314 373
#     4   9  19  35  58  89 121 155 200 252 312 379
#     4  10  20  35  58  88 125 158 194 254 320 371
#     4  11  23  43  64  88 123 173 223 256 298 374
#     4  11  24  40  68  90 126 169 209 259 322 374
#     4  11  24  42  68  96 126 167 213 267 318 367
#     4  12  26  42  56  95 133 168 209 259 315 380
#     4   9  18  34  60  91 117 153 204 259 310 362
#
# _framework density 25.62115
#
# number of rings (size 3 to 8) (size 9 to 14) (size 15 to 20)
#    0.000    1.625    2.500    1.875    0.000    5.500 
#    0.000    2.500    0.000    6.000    0.000    0.000 
#    0.000    0.000    0.000    0.000    0.000    0.000 
#
# Total GULP energy -178886.722466 kJ/mol
# GULP energy per Si atom -5590.210077 kJ/mol
# Density = 2.556284 g / cm^3
# Si number density = 25.621150 Si / 1000 Ang^3
#
#
#
# Elastic Constant Matrix: (Units=GPa)
#
#
# Indices 1 2 3 4 5 6 
#
# 1 49.4123 3.0796 12.2556 0.0000 -3.2112 0.0000
# 2 3.0796 41.5418 -17.9652 0.0000 -5.3327 0.0000
# 3 12.2556 -17.9652 122.6911 0.0000 -12.2767 0.0000
# 4 0.0000 0.0000 0.0000 10.9704 0.0000 -8.5971
# 5 -3.2112 -5.3327 -12.2767 0.0000 41.3724 0.0000
# 6 0.0000 0.0000 0.0000 -8.5971 0.0000 4.9261
#
#
#
# Elastic Compliance Matrix: (Units=1/GPa)
#
#
# Indices 1 2 3 4 5 6 
#
# 1 0.021032 -0.002526 -0.002412 0.000000 0.000591 0.000000
# 2 -0.002526 0.026868 0.004651 0.000000 0.004647 0.000000
# 3 -0.002412 0.004651 0.009393 0.000000 0.003200 0.000000
# 4 0.000000 0.000000 0.000000 -0.247929 0.000000 -0.432691
# 5 0.000591 0.004647 0.003200 0.000000 0.025765 0.000000
# 6 0.000000 0.000000 0.000000 -0.432691 0.000000 -0.552141
#
#
# Mechanical properties :
#
#
# Convention : Reuss Voigt Hill
#
# Bulk Modulus (GPa) = 17.63065 23.15393 20.39229
# Shear Modulus (GPa) = -7.16811 25.87211 9.35200
#
# Velocity S-wave (km/s) = -1.67446 3.18117 1.91260
# Velocity P-wave (km/s) = 1.77703 4.74867 3.58522
#
# Compressibility (1/GPa) = 0.05671939
#
# Stress axis : x y z
#
# Youngs Moduli (GPa) = 47.54687 37.21965 106.46577
#
# Poissons Ratio (x) = 0.09402 0.25675
# Poissons Ratio (y) = 0.12011 -0.49522
# Poissons Ratio (z) = 0.11466 -0.17313
#
# Static dielectric constant tensor:
#      x y z
#    x 2.070460 0.000000 -0.032790 
#    y 0.000000 2.012180 0.000000 
#    z -0.032790 0.000000 1.995440 
# 
# From -- ./inp_files/290154.got.cif
#   From: 2010.05.17/outbox.cif.g08.bks.cpg/sg12_146_cif.got.tgz:290154.got - 2010.06.03 13:09:07.
