data_PCOD9197706
_publ_section_title
;
Structure prediction by ZEFSAII (Michael W. Deem and Ramdas Pophale) SiO2 
 PCOD9197706
Probable space group: C 2/M
;
_chemical_formula_sum "Si O2"
_cell_formula_units_Z 36
_cell_length_a 22.859993
_cell_length_b 8.028727
_cell_length_c 8.271833
_cell_angle_alpha 90.000000
_cell_angle_beta 112.142888
_cell_angle_gamma 90.000000
_cell_volume 1406.213428
_symmetry_space_group_name_H-M "C 2/M"
_symmetry_group_IT_number 12
_symmetry_cell_setting 'monoclinic'
loop_
_space_group_symop_operation_xyz
x,y,z
-x,y,-z
-x,-y,-z
x,-y,z
1/2+x,1/2+y,z
1/2-x,1/2+y,-z
1/2-x,1/2-y,-z
1/2+x,1/2-y,z
loop_
_atom_site_type_symbol
_atom_site_label
_atom_site_fract_x
_atom_site_fract_y
_atom_site_fract_z
Si Si1 0.248992 0.500000 0.605699
Si Si2 0.090508 0.813238 0.960943
Si Si3 0.979291 0.304811 0.652193
Si Si4 0.810922 0.316480 0.157059
Si Si5 0.155053 0.307665 0.340197
O O1 0.210962 0.352628 0.684567
O O2 0.300439 0.649513 0.609518
O O3 0.130955 0.795108 0.837546
O O4 0.019087 0.777871 0.836187
O O5 0.097549 0.000000 0.030193
O O6 0.121819 0.696824 0.128996
O O7 0.997293 0.500000 0.674185
O O8 0.904882 0.297095 0.604612
O O9 0.000000 0.236956 0.500000
O O10 0.828027 0.500000 0.112214
O O11 0.750000 0.250000 0.000000
O O12 0.188899 0.500000 0.395769
#
# Coordination Sequence:
#
# PCOD9197706 Si02
#       5
#     4   8   8   8   8
#     4   8  20  38  68  88 112 154 201 254 291 362
#     4  12  24  36  58  91 130 165 198 247 308 358
#     4  10  20  35  62  90 119 164 213 247 293 360
#     4  10  21  41  68  89 115 150 208 256 305 358
#     4   9  19  38  60  89 121 161 202 243 297 364
#
# _framework density 25.600667999999999
#
# number of rings (size 3 to 8) (size 9 to 14) (size 15 to 20)
#    1.333    0.667    0.000    4.667    3.111    4.000 
#    0.000    5.556    0.000    0.000    0.000    0.000 
#    0.000    0.000    0.000    0.000    0.000    0.000 
#
# Total GULP energy -100448.436934 kJ/mol
# GULP energy per Si atom -5580.468719 kJ/mol
# Density = 2.554240 g / cm^3
# Si number density = 25.600668 Si / 1000 Ang^3
#
#
#
# Elastic Constant Matrix: (Units=GPa)
#
#
# Indices 1 2 3 4 5 6 
#
# 1 157.0101 71.2937 67.6919 0.0000 7.1796 0.0000
# 2 71.2937 144.4674 81.1427 0.0000 17.4916 0.0000
# 3 67.6919 81.1427 142.9600 0.0000 12.2712 0.0000
# 4 0.0000 0.0000 0.0000 2.6445 0.0000 16.1204
# 5 7.1796 17.4916 12.2712 0.0000 53.5482 0.0000
# 6 0.0000 0.0000 0.0000 16.1204 0.0000 45.8546
#
#
#
# Elastic Compliance Matrix: (Units=1/GPa)
#
#
# Indices 1 2 3 4 5 6 
#
# 1 0.008781 -0.002972 -0.002502 0.000000 0.000367 0.000000
# 2 -0.002972 0.011390 -0.004868 0.000000 -0.002207 0.000000
# 3 -0.002502 -0.004868 0.010994 0.000000 -0.000594 0.000000
# 4 0.000000 0.000000 0.000000 -0.330829 0.000000 0.116304
# 5 0.000367 -0.002207 -0.000594 0.000000 0.019482 0.000000
# 6 0.000000 0.000000 0.000000 0.116304 0.000000 -0.019079
#
#
# Mechanical properties :
#
#
# Convention : Reuss Voigt Hill
#
# Bulk Modulus (GPa) = 95.42438 98.29934 96.86186
# Shear Modulus (GPa) = -18.17632 35.36342 8.59355
#
# Velocity S-wave (km/s) = -2.66746 3.72068 1.83414
# Velocity P-wave (km/s) = 5.27901 7.54576 6.51178
#
# Compressibility (1/GPa) = 0.01047950
#
# Stress axis : x y z
#
# Youngs Moduli (GPa) = 113.88772 87.79444 90.96004
#
# Poissons Ratio (x) = 0.26095 0.22759
# Poissons Ratio (y) = 0.33850 0.44281
# Poissons Ratio (z) = 0.28496 0.42740
#
# Static dielectric constant tensor:
#      x y z
#    x 1.975970 0.000000 0.004510 
#    y 0.000000 2.000210 0.000000 
#    z 0.004510 0.000000 2.131330 
# 
# From -- ./inp_files/93132.got.cif
#   From: 2010.05.17/outbox.cif.g08.bks.cpg/sg12_47_cif.got.tgz:93132.got - 2010.06.03 13:09:07.
