data_PCOD9197185
_publ_section_title
;
Structure prediction by ZEFSAII (Michael W. Deem and Ramdas Pophale) SiO2 
 PCOD9197185
Probable space group: C 2/M
;
_chemical_formula_sum "Si O2"
_cell_formula_units_Z 48
_cell_length_a 25.175496
_cell_length_b 8.365037
_cell_length_c 11.184984
_cell_angle_alpha 90.000000
_cell_angle_beta 72.328671
_cell_angle_gamma 90.000000
_cell_volume 2244.342696
_symmetry_space_group_name_H-M "C 2/M"
_symmetry_group_IT_number 12
_symmetry_cell_setting 'monoclinic'
loop_
_space_group_symop_operation_xyz
x,y,z
-x,y,-z
-x,-y,-z
x,-y,z
1/2+x,1/2+y,z
1/2-x,1/2+y,-z
1/2-x,1/2-y,-z
1/2+x,1/2-y,z
loop_
_atom_site_type_symbol
_atom_site_label
_atom_site_fract_x
_atom_site_fract_y
_atom_site_fract_z
Si Si1 0.732854 0.813753 0.703486
Si Si2 0.560987 0.693175 0.930782
Si Si3 0.165058 0.310683 0.240511
Si Si4 0.828660 0.811179 0.021743
Si Si5 0.436257 0.807110 0.543105
Si Si6 0.126767 0.191870 0.649128
O O1 0.791919 0.728218 0.682262
O O2 0.702655 0.783090 0.852332
O O3 0.689615 0.748049 0.635084
O O4 0.742259 0.000000 0.677172
O O5 0.556786 0.500000 0.924567
O O6 0.605970 0.725733 0.002821
O O7 0.588932 0.746706 0.787893
O O8 0.500000 0.758284 0.000000
O O9 0.164343 0.500000 0.221924
O O10 0.103477 0.253626 0.320715
O O11 0.185265 0.231160 0.104016
O O12 0.819147 0.000000 0.050729
O O13 0.500000 0.747626 0.500000
O O14 0.403131 0.756678 0.447486
O O15 0.438035 0.000000 0.546241
O O16 0.127422 0.000000 0.645433
#
# Coordination Sequence:
#
# PCOD9197185 Si02
#       6
#     8   8   8   8   8   8
#     4  11  22  39  63  89 121 156 196 245 301 357
#     4   8  16  31  53  83 116 150 187 235 290 342
#     4  11  23  39  60  86 120 160 202 244 294 353
#     4  10  20  35  58  89 125 156 194 244 296 353
#     4  10  24  44  62  84 120 162 200 244 296 353
#     4  10  21  38  62  89 119 154 197 249 297 348
#
# _framework density 21.387108000000001
#
# number of rings (size 3 to 8) (size 9 to 14) (size 15 to 20)
#    0.000    2.000    0.000    4.500    2.333    2.333 
#    0.000    0.000    0.000    3.000    0.000    0.000 
#    0.000    0.000    0.000    0.000    0.000    0.000 
#
# Total GULP energy -134085.783456 kJ/mol
# GULP energy per Si atom -5586.907644 kJ/mol
# Density = 2.133843 g / cm^3
# Si number density = 21.387108 Si / 1000 Ang^3
#
#
#
# Elastic Constant Matrix: (Units=GPa)
#
#
# Indices 1 2 3 4 5 6 
#
# 1 96.5637 -6.8357 26.7223 0.0000 -2.1403 0.0000
# 2 -6.8357 14.7700 -7.2746 0.0000 -4.6962 0.0000
# 3 26.7223 -7.2746 57.0476 0.0000 9.7681 0.0000
# 4 0.0000 0.0000 0.0000 15.9356 0.0000 8.0678
# 5 -2.1403 -4.6962 9.7681 0.0000 35.7696 0.0000
# 6 0.0000 0.0000 0.0000 8.0678 0.0000 25.9870
#
#
#
# Elastic Compliance Matrix: (Units=1/GPa)
#
#
# Indices 1 2 3 4 5 6 
#
# 1 0.012274 0.003737 -0.005752 0.000000 0.002796 0.000000
# 2 0.003737 0.075249 0.006415 0.000000 0.008351 0.000000
# 3 -0.005752 0.006415 0.021984 0.000000 -0.005505 0.000000
# 4 0.000000 0.000000 0.000000 0.074455 0.000000 -0.023115
# 5 0.002796 0.008351 -0.005505 0.000000 0.030724 0.000000
# 6 0.000000 0.000000 0.000000 -0.023115 0.000000 0.045657
#
#
# Mechanical properties :
#
#
# Convention : Reuss Voigt Hill
#
# Bulk Modulus (GPa) = 8.45251 21.51170 14.98211
# Shear Modulus (GPa) = 17.18340 25.92306 21.55323
#
# Velocity S-wave (km/s) = 2.83759 3.48528 3.17798
# Velocity P-wave (km/s) = 3.83362 5.12605 4.52620
#
# Compressibility (1/GPa) = 0.11830802
#
# Stress axis : x y z
#
# Youngs Moduli (GPa) = 81.47316 13.28920 45.48738
#
# Poissons Ratio (x) = -0.04966 0.26162
# Poissons Ratio (y) = -0.30443 -0.29182
# Poissons Ratio (z) = 0.46860 -0.08526
#
# Static dielectric constant tensor:
#      x y z
#    x 1.790040 0.000000 -0.032820 
#    y 0.000000 1.730020 0.000000 
#    z -0.032820 0.000000 1.795840 
# 
# From -- ./inp_files/172452.got.cif
#   From: 2010.05.17/outbox.cif.g08.bks.cpg/sg12_87_cif.got.tgz:172452.got - 2010.06.03 13:09:07.
