data_PCOD9197787
_publ_section_title
;
Structure prediction by ZEFSAII (Michael W. Deem and Ramdas Pophale) SiO2 
 PCOD9197787
Probable space group: C 2/M
;
_chemical_formula_sum "Si O2"
_cell_formula_units_Z 56
_cell_length_a 8.608843
_cell_length_b 29.176106
_cell_length_c 10.631502
_cell_angle_alpha 90.000000
_cell_angle_beta 119.805674
_cell_angle_gamma 90.000000
_cell_volume 2317.098327
_symmetry_space_group_name_H-M "C 2/M"
_symmetry_group_IT_number 12
_symmetry_cell_setting 'monoclinic'
loop_
_space_group_symop_operation_xyz
x,y,z
-x,y,-z
-x,-y,-z
x,-y,z
1/2+x,1/2+y,z
1/2-x,1/2+y,-z
1/2-x,1/2-y,-z
1/2+x,1/2-y,z
loop_
_atom_site_type_symbol
_atom_site_label
_atom_site_fract_x
_atom_site_fract_y
_atom_site_fract_z
Si Si1 0.198434 0.811283 0.039595
Si Si2 0.007304 0.000000 0.658066
Si Si3 0.651942 0.300740 0.741052
Si Si4 0.876681 0.380151 0.560992
Si Si5 0.715028 0.900714 0.829346
Si Si6 0.043824 0.714272 0.335014
Si Si7 0.818360 0.000000 0.845666
Si Si8 0.522959 0.399364 0.311686
O O1 0.209387 0.866864 0.035564
O O2 0.347121 0.799918 0.203697
O O3 0.220803 0.792176 0.910214
O O4 0.000000 0.798360 0.000000
O O5 0.000000 0.000000 0.500000
O O6 0.847074 0.000000 0.703871
O O7 0.076861 0.948465 0.722258
O O8 0.816368 0.288611 0.720370
O O9 0.488714 0.266619 0.640550
O O10 0.588749 0.353360 0.710072
O O11 0.876342 0.325007 0.542468
O O12 0.681297 0.400603 0.480556
O O13 0.000000 0.400894 0.500000
O O14 0.006159 0.388193 0.729602
O O15 0.721855 0.954300 0.849354
O O16 0.850162 0.892771 0.762988
O O17 0.000000 0.000000 0.000000
#
# Coordination Sequence:
#
# PCOD9197787 Si02
#       8
#     8   4   8   8   8   8   4   8
#     4  11  20  40  66  89 131 173 216 273 333 406
#     4  10  24  41  65  97 137 176 229 270 343 412
#     4  12  25  40  64  93 134 170 226 269 345 400
#     4   9  21  41  63  88 130 165 222 271 333 399
#     4   9  19  37  63  94 127 170 215 283 334 392
#     4  11  26  41  61  96 127 174 218 275 331 409
#     4  10  20  35  65 107 133 169 235 289 345 403
#     4  10  22  41  65  94 125 177 219 278 329 403
#
# _framework density 24.168158999999999
#
# number of rings (size 3 to 8) (size 9 to 14) (size 15 to 20)
#    0.000    1.714    1.429    2.143    8.000    1.143 
#    0.000    2.857    0.000    0.000    0.000    4.000 
#    0.000    0.000    0.000    0.000    0.000    0.000 
#
# Total GULP energy -156209.891358 kJ/mol
# GULP energy per Si atom -5578.924691 kJ/mol
# Density = 2.411315 g / cm^3
# Si number density = 24.168159 Si / 1000 Ang^3
#
#
#
# Elastic Constant Matrix: (Units=GPa)
#
#
# Indices 1 2 3 4 5 6 
#
# 1 96.2731 21.3265 21.1669 0.0000 3.8419 0.0000
# 2 21.3265 165.8033 -2.5998 0.0000 11.0575 0.0000
# 3 21.1669 -2.5998 54.0545 0.0000 8.6699 0.0000
# 4 0.0000 0.0000 0.0000 28.2739 0.0000 -2.8030
# 5 3.8419 11.0575 8.6699 0.0000 43.6649 0.0000
# 6 0.0000 0.0000 0.0000 -2.8030 0.0000 23.9472
#
#
#
# Elastic Compliance Matrix: (Units=1/GPa)
#
#
# Indices 1 2 3 4 5 6 
#
# 1 0.011773 -0.001609 -0.004738 0.000000 0.000312 0.000000
# 2 -0.001609 0.006371 0.001211 0.000000 -0.001712 0.000000
# 3 -0.004738 0.001211 0.021066 0.000000 -0.004073 0.000000
# 4 0.000000 0.000000 0.000000 0.035784 0.000000 0.004188
# 5 0.000312 -0.001712 -0.004073 0.000000 0.024116 0.000000
# 6 0.000000 0.000000 0.000000 0.004188 0.000000 0.042249
#
#
# Mechanical properties :
#
#
# Convention : Reuss Voigt Hill
#
# Bulk Modulus (GPa) = 34.55492 43.99091 39.27291
# Shear Modulus (GPa) = 31.00253 37.59303 34.29778
#
# Velocity S-wave (km/s) = 3.58548 3.94823 3.77122
# Velocity P-wave (km/s) = 5.60978 6.24710 5.93700
#
# Compressibility (1/GPa) = 0.02893944
#
# Stress axis : x y z
#
# Youngs Moduli (GPa) = 84.94175 156.95025 47.46880
#
# Poissons Ratio (x) = 0.25259 0.22489
# Poissons Ratio (y) = 0.13670 -0.05750
# Poissons Ratio (z) = 0.40241 -0.19011
#
# Static dielectric constant tensor:
#      x y z
#    x 1.932240 0.000000 -0.073780 
#    y 0.000000 1.833690 0.000000 
#    z -0.073780 0.000000 2.024680 
# 
# From -- ./inp_files/125877.got.cif
#   From: 2010.05.17/outbox.cif.g08.bks.cpg/sg12_63_cif.got.tgz:125877.got - 2010.06.03 13:09:07.
