data_PCOD9197793
_publ_section_title
;
Structure prediction by ZEFSAII (Michael W. Deem and Ramdas Pophale) SiO2 
 PCOD9197793
Probable space group: C 2/M
;
_chemical_formula_sum "Si O2"
_cell_formula_units_Z 56
_cell_length_a 16.750538
_cell_length_b 13.879504
_cell_length_c 15.008082
_cell_angle_alpha 90.000000
_cell_angle_beta 50.293683
_cell_angle_gamma 90.000000
_cell_volume 2684.355772
_symmetry_space_group_name_H-M "C 2/M"
_symmetry_group_IT_number 12
_symmetry_cell_setting 'monoclinic'
loop_
_space_group_symop_operation_xyz
x,y,z
-x,y,-z
-x,-y,-z
x,-y,z
1/2+x,1/2+y,z
1/2-x,1/2+y,-z
1/2-x,1/2-y,-z
1/2+x,1/2-y,z
loop_
_atom_site_type_symbol
_atom_site_label
_atom_site_fract_x
_atom_site_fract_y
_atom_site_fract_z
Si Si1 0.724512 0.106152 0.573947
Si Si2 0.756600 0.310134 0.633221
Si Si3 0.572116 0.260934 0.375412
Si Si4 0.760015 0.387196 0.938045
Si Si5 0.379905 0.278785 0.108522
Si Si6 0.507908 0.108392 0.290381
Si Si7 0.257710 0.614219 0.842338
O O1 0.768512 0.199720 0.590702
O O2 0.740087 0.123660 0.456320
O O3 0.601160 0.108023 0.682481
O O4 0.764758 0.000000 0.569634
O O5 0.853067 0.319010 0.631680
O O6 0.655407 0.316340 0.768654
O O7 0.500000 0.308592 0.500000
O O8 0.501106 0.198036 0.361374
O O9 0.644180 0.336445 0.274416
O O10 0.738698 0.500000 0.939581
O O11 0.734090 0.363420 0.058308
O O12 0.692581 0.330771 0.913719
O O13 0.884107 0.374418 0.837687
O O14 0.342686 0.167898 0.126458
O O15 0.500000 0.291501 0.000000
O O16 0.515608 0.000000 0.324966
O O17 0.253388 0.500000 0.833533
#
# Coordination Sequence:
#
# PCOD9197793 Si02
#       7
#     8   8   8   8   8   8   8
#     4  10  22  39  61  87 120 158 195 242 296 346
#     4  10  22  39  57  89 123 154 195 242 293 354
#     4  11  21  38  63  90 122 156 196 244 294 357
#     4  10  21  40  63  91 120 152 196 245 300 358
#     4  11  24  39  63  88 119 158 195 247 298 350
#     4  10  20  35  65  96 116 146 193 251 301 348
#     4  10  23  41  61  87 119 157 201 246 290 350
#
# _framework density 20.861616000000001
#
# number of rings (size 3 to 8) (size 9 to 14) (size 15 to 20)
#    0.000    1.714    4.286    0.429    2.000    4.571 
#    0.000    0.000    0.000    0.000    0.000    0.000 
#    0.000    0.000    0.000    0.000    0.000    0.000 
#
# Total GULP energy -156277.128992 kJ/mol
# GULP energy per Si atom -5581.326035 kJ/mol
# Density = 2.081413 g / cm^3
# Si number density = 20.861616 Si / 1000 Ang^3
#
#
#
# Elastic Constant Matrix: (Units=GPa)
#
#
# Indices 1 2 3 4 5 6 
#
# 1 33.8863 9.0157 21.3454 0.0000 -9.4178 0.0000
# 2 9.0157 60.8404 25.5227 0.0000 -1.5347 0.0000
# 3 21.3454 25.5227 147.7823 0.0000 -13.4794 0.0000
# 4 0.0000 0.0000 0.0000 19.6426 0.0000 -1.8561
# 5 -9.4178 -1.5347 -13.4794 0.0000 29.1615 0.0000
# 6 0.0000 0.0000 0.0000 -1.8561 0.0000 19.7717
#
#
#
# Elastic Compliance Matrix: (Units=1/GPa)
#
#
# Indices 1 2 3 4 5 6 
#
# 1 0.035385 -0.003476 -0.003638 0.000000 0.009563 0.000000
# 2 -0.003476 0.018069 -0.002750 0.000000 -0.001443 0.000000
# 3 -0.003638 -0.002750 0.007983 0.000000 0.002370 0.000000
# 4 0.000000 0.000000 0.000000 0.051365 0.000000 0.004822
# 5 0.009563 -0.001443 0.002370 0.000000 0.038400 0.000000
# 6 0.000000 0.000000 0.000000 0.004822 0.000000 0.051030
#
#
# Mechanical properties :
#
#
# Convention : Reuss Voigt Hill
#
# Bulk Modulus (GPa) = 23.97612 39.36406 31.67009
# Shear Modulus (GPa) = 21.19864 26.15684 23.67774
#
# Velocity S-wave (km/s) = 3.19118 3.54478 3.37262
# Velocity P-wave (km/s) = 5.00959 5.97194 5.51181
#
# Compressibility (1/GPa) = 0.04170817
#
# Stress axis : x y z
#
# Youngs Moduli (GPa) = 28.26058 55.34395 125.26002
#
# Poissons Ratio (x) = 0.19238 0.45574
# Poissons Ratio (y) = 0.09824 0.34448
# Poissons Ratio (z) = 0.10282 0.15220
#
# Static dielectric constant tensor:
#      x y z
#    x 1.748410 0.000000 0.016720 
#    y 0.000000 1.746090 0.000000 
#    z 0.016720 0.000000 1.784420 
# 
# From -- ./inp_files/225190.got.cif
#   From: 2010.05.17/outbox.cif.g08.bks.cpg/sg12_113_cif.got.tgz:225190.got - 2010.06.03 13:09:07.
