data_PCOD9197998
_publ_section_title
;
Structure prediction by ZEFSAII (Michael W. Deem and Ramdas Pophale) SiO2 
 PCOD9197998
Probable space group: C 2/M
;
_chemical_formula_sum "Si O2"
_cell_formula_units_Z 64
_cell_length_a 27.194161
_cell_length_b 18.542027
_cell_length_c 11.132857
_cell_angle_alpha 90.000000
_cell_angle_beta 148.675713
_cell_angle_gamma 90.000000
_cell_volume 2918.392276
_symmetry_space_group_name_H-M "C 2/M"
_symmetry_group_IT_number 12
_symmetry_cell_setting 'monoclinic'
loop_
_space_group_symop_operation_xyz
x,y,z
-x,y,-z
-x,-y,-z
x,-y,z
1/2+x,1/2+y,z
1/2-x,1/2+y,-z
1/2-x,1/2-y,-z
1/2+x,1/2-y,z
loop_
_atom_site_type_symbol
_atom_site_label
_atom_site_fract_x
_atom_site_fract_y
_atom_site_fract_z
Si Si1 0.061860 0.323032 0.249654
Si Si2 0.590845 0.084572 0.946659
Si Si3 0.927647 0.828150 0.615615
Si Si4 0.884130 0.913889 0.945059
Si Si5 0.264551 0.584434 0.165848
Si Si6 0.094126 0.728710 0.647036
Si Si7 0.786542 0.584029 0.557088
Si Si8 0.281674 0.338492 0.954731
O O1 0.083064 0.240753 0.322589
O O2 0.154624 0.367683 0.412119
O O3 0.000000 0.326131 0.000000
O O4 0.996305 0.362900 0.211216
O O5 0.654814 0.100435 0.964506
O O6 0.665618 0.093673 0.213279
O O7 0.561613 0.000000 0.885669
O O8 0.832334 0.872300 0.396337
O O9 0.946197 0.792342 0.523163
O O10 0.013686 0.877418 0.837936
O O11 0.824029 0.901393 0.697246
O O12 0.891591 0.000000 0.979674
O O13 0.823819 0.876338 0.925944
O O14 0.278373 0.500000 0.214012
O O15 0.289825 0.607412 0.084330
O O16 0.157368 0.767511 0.882108
O O17 0.000000 0.691091 0.500000
O O18 0.171533 0.685723 0.728803
O O19 0.801372 0.500000 0.557225
#
# Coordination Sequence:
#
# PCOD9197998 Si02
#       8
#     8   8   8   8   8   8   8   8
#     4  10  21  36  59  87 115 146 185 236 285 338
#     4   9  19  37  60  84 113 150 189 229 281 341
#     4  11  23  36  56  83 115 149 190 233 286 340
#     4  11  22  38  58  81 112 152 197 240 279 331
#     4  10  22  39  58  81 112 150 192 238 282 331
#     4  10  20  36  55  82 115 147 180 227 288 337
#     4   9  19  37  60  85 113 150 190 229 278 338
#     4  10  21  36  59  83 112 150 192 230 277 336
#
# _framework density 21.929883
#
# number of rings (size 3 to 8) (size 9 to 14) (size 15 to 20)
#    0.000    2.000    1.250    1.875    1.750    4.500 
#    0.000    4.375    0.000    4.500    0.000    0.000 
#    0.000    0.000    0.000    0.000    0.000    0.000 
#
# Total GULP energy -178791.742927 kJ/mol
# GULP energy per Si atom -5587.241966 kJ/mol
# Density = 2.187997 g / cm^3
# Si number density = 21.929883 Si / 1000 Ang^3
#
#
#
# Elastic Constant Matrix: (Units=GPa)
#
#
# Indices 1 2 3 4 5 6 
#
# 1 36.6266 10.1635 -7.9005 0.0000 13.0206 0.0000
# 2 10.1635 77.9080 29.4689 0.0000 15.3166 0.0000
# 3 -7.9005 29.4689 92.2566 0.0000 18.9055 0.0000
# 4 0.0000 0.0000 0.0000 32.3833 0.0000 3.5716
# 5 13.0206 15.3166 18.9055 0.0000 29.7975 0.0000
# 6 0.0000 0.0000 0.0000 3.5716 0.0000 26.9666
#
#
#
# Elastic Compliance Matrix: (Units=1/GPa)
#
#
# Indices 1 2 3 4 5 6 
#
# 1 0.037270 -0.004259 0.008553 0.000000 -0.019523 0.000000
# 2 -0.004259 0.015830 -0.004753 0.000000 -0.003260 0.000000
# 3 0.008553 -0.004753 0.015351 0.000000 -0.011034 0.000000
# 4 0.000000 0.000000 0.000000 0.031338 0.000000 -0.004151
# 5 -0.019523 -0.003260 -0.011034 0.000000 0.050767 0.000000
# 6 0.000000 0.000000 0.000000 -0.004151 0.000000 0.037633
#
#
# Mechanical properties :
#
#
# Convention : Reuss Voigt Hill
#
# Bulk Modulus (GPa) = 14.80776 30.02831 22.41803
# Shear Modulus (GPa) = 23.62752 29.50012 26.56382
#
# Velocity S-wave (km/s) = 3.28596 3.67168 3.48416
# Velocity P-wave (km/s) = 4.60040 5.63006 5.14107
#
# Compressibility (1/GPa) = 0.06753217
#
# Stress axis : x y z
#
# Youngs Moduli (GPa) = 26.83155 63.17086 65.14201
#
# Poissons Ratio (x) = 0.26904 -0.55714
# Poissons Ratio (y) = 0.11427 0.30963
# Poissons Ratio (z) = -0.22948 0.30026
#
# Static dielectric constant tensor:
#      x y z
#    x 1.818350 0.000000 -0.034030 
#    y 0.000000 1.756710 0.000000 
#    z -0.034030 0.000000 1.825050 
# 
# From -- ./inp_files/190098.got.cif
#   From: 2010.05.17/outbox.cif.g08.bks.cpg/sg12_96_cif.got.tgz:190098.got - 2010.06.03 13:09:07.
