data_PCOD9197259
_publ_section_title
;
Structure prediction by ZEFSAII (Michael W. Deem and Ramdas Pophale) SiO2 
 PCOD9197259
Probable space group: C 2/M
;
_chemical_formula_sum "Si O2"
_cell_formula_units_Z 56
_cell_length_a 25.336287
_cell_length_b 8.687183
_cell_length_c 17.061061
_cell_angle_alpha 90.000000
_cell_angle_beta 119.916091
_cell_angle_gamma 90.000000
_cell_volume 3254.806637
_symmetry_space_group_name_H-M "C 2/M"
_symmetry_group_IT_number 12
_symmetry_cell_setting 'monoclinic'
loop_
_space_group_symop_operation_xyz
x,y,z
-x,y,-z
-x,-y,-z
x,-y,z
1/2+x,1/2+y,z
1/2-x,1/2+y,-z
1/2-x,1/2-y,-z
1/2+x,1/2-y,z
loop_
_atom_site_type_symbol
_atom_site_label
_atom_site_fract_x
_atom_site_fract_y
_atom_site_fract_z
Si Si1 0.632524 0.315293 0.892224
Si Si2 0.988728 0.815773 0.773171
Si Si3 0.324362 0.182985 0.910818
Si Si4 0.561044 0.684813 0.094275
Si Si5 0.407109 0.315938 0.402247
Si Si6 0.693922 0.183729 0.780659
Si Si7 0.974214 0.683029 0.595403
O O1 0.639601 0.500000 0.896004
O O2 0.560310 0.280407 0.839057
O O3 0.662854 0.244020 0.837744
O O4 0.662681 0.248790 0.992807
O O5 0.952448 0.777668 0.825315
O O6 0.965984 0.730127 0.679129
O O7 0.984580 0.000000 0.757525
O O8 0.381767 0.229536 0.900129
O O9 0.262954 0.258063 0.832459
O O10 0.317508 0.000000 0.909765
O O11 0.570726 0.500000 0.094527
O O12 0.500000 0.720606 0.000000
O O13 0.407761 0.500000 0.403700
O O14 0.345218 0.253239 0.319413
O O15 0.423039 0.250008 0.499561
O O16 0.462357 0.257012 0.387799
O O17 0.691327 0.000000 0.776578
O O18 0.977872 0.500000 0.589132
#
# Coordination Sequence:
#
# PCOD9197259 Si02
#       7
#     8   8   8   8   8   8   8
#     4  11  21  37  58  83 116 154 191 231 282 339
#     4  10  20  35  59  84 115 152 189 234 287 337
#     4  12  25  39  56  82 116 154 195 236 282 337
#     4  10  20  39  61  82 110 150 195 238 282 331
#     4  11  21  36  57  82 115 150 188 231 285 342
#     4  12  24  39  58  83 115 152 192 235 286 342
#     4  11  21  34  55  85 118 149 188 233 282 336
#
# _framework density 17.205324999999998
#
# number of rings (size 3 to 8) (size 9 to 14) (size 15 to 20)
#    0.000    1.000    2.857    6.857    0.000    1.429 
#    0.000    0.000    0.000    0.857    0.000    0.000 
#    0.000    0.000    0.000    0.000    0.000    0.000 
#
# Total GULP energy -156581.820943 kJ/mol
# GULP energy per Si atom -5592.207891 kJ/mol
# Density = 1.716616 g / cm^3
# Si number density = 17.205325 Si / 1000 Ang^3
#
#
#
# Elastic Constant Matrix: (Units=GPa)
#
#
# Indices 1 2 3 4 5 6 
#
# 1 46.6772 35.4694 45.3792 0.0000 6.9823 0.0000
# 2 35.4694 123.3423 68.2061 0.0000 0.8899 0.0000
# 3 45.3792 68.2061 156.0331 0.0000 1.2267 0.0000
# 4 0.0000 0.0000 0.0000 29.2614 0.0000 2.0531
# 5 6.9823 0.8899 1.2267 0.0000 25.6295 0.0000
# 6 0.0000 0.0000 0.0000 2.0531 0.0000 24.2208
#
#
#
# Elastic Compliance Matrix: (Units=1/GPa)
#
#
# Indices 1 2 3 4 5 6 
#
# 1 0.034266 -0.005694 -0.007407 0.000000 -0.008783 0.000000
# 2 -0.005694 0.011639 -0.003442 0.000000 0.001312 0.000000
# 3 -0.007407 -0.003442 0.010055 0.000000 0.001656 0.000000
# 4 0.000000 0.000000 0.000000 0.034379 0.000000 -0.002914
# 5 -0.008783 0.001312 0.001656 0.000000 0.041286 0.000000
# 6 0.000000 0.000000 0.000000 -0.002914 0.000000 0.041534
#
#
# Mechanical properties :
#
#
# Convention : Reuss Voigt Hill
#
# Bulk Modulus (GPa) = 43.72092 69.35133 56.53612
# Shear Modulus (GPa) = 23.37876 27.62221 25.50049
#
# Velocity S-wave (km/s) = 3.69020 4.01115 3.85402
# Velocity P-wave (km/s) = 6.60479 7.86435 7.26193
#
# Compressibility (1/GPa) = 0.02287235
#
# Stress axis : x y z
#
# Youngs Moduli (GPa) = 29.18349 85.91915 99.45583
#
# Poissons Ratio (x) = 0.48925 0.73671
# Poissons Ratio (y) = 0.16618 0.34232
# Poissons Ratio (z) = 0.21617 0.29572
#
# Static dielectric constant tensor:
#      x y z
#    x 1.558010 0.000000 -0.001710 
#    y 0.000000 1.574040 0.000000 
#    z -0.001710 0.000000 1.576260 
# 
# From -- ./inp_files/288438.got.cif
#   From: 2010.05.17/outbox.cif.g08.bks.cpg/sg12_145_cif.got.tgz:288438.got - 2010.06.03 13:09:07.
