data_PCOD9197643
_publ_section_title
;
Structure prediction by ZEFSAII (Michael W. Deem and Ramdas Pophale) SiO2 
 PCOD9197643
Probable space group: C 2/M
;
_chemical_formula_sum "Si O2"
_cell_formula_units_Z 48
_cell_length_a 20.730152
_cell_length_b 7.415145
_cell_length_c 17.440155
_cell_angle_alpha 90.000000
_cell_angle_beta 69.720217
_cell_angle_gamma 90.000000
_cell_volume 2514.667345
_symmetry_space_group_name_H-M "C 2/M"
_symmetry_group_IT_number 12
_symmetry_cell_setting 'monoclinic'
loop_
_space_group_symop_operation_xyz
x,y,z
-x,y,-z
-x,-y,-z
x,-y,z
1/2+x,1/2+y,z
1/2-x,1/2+y,-z
1/2-x,1/2-y,-z
1/2+x,1/2-y,z
loop_
_atom_site_type_symbol
_atom_site_label
_atom_site_fract_x
_atom_site_fract_y
_atom_site_fract_z
Si Si1 0.398136 0.500000 0.101606
Si Si2 0.416083 0.218234 0.342587
Si Si3 0.442773 0.500000 0.911712
Si Si4 0.421877 0.220296 0.512427
Si Si5 0.330082 0.793396 0.232577
Si Si6 0.670580 0.217984 0.307222
Si Si7 0.566516 0.783492 0.215062
O O1 0.476199 0.500000 0.101059
O O2 0.359096 0.671637 0.152628
O O3 0.402466 0.500000 0.008262
O O4 0.403462 0.281302 0.434300
O O5 0.362848 0.275501 0.299130
O O6 0.492973 0.264344 0.283461
O O7 0.413124 0.000000 0.346901
O O8 0.427093 0.673432 0.865752
O O9 0.500000 0.273907 0.500000
O O10 0.369716 0.278933 0.600028
O O11 0.421532 0.000000 0.513070
O O12 0.248088 0.784968 0.270898
O O13 0.352571 0.000000 0.212995
O O14 0.625614 0.265891 0.251347
O O15 0.673121 0.000000 0.308409
O O16 0.567576 0.000000 0.202900
#
# Coordination Sequence:
#
# PCOD9197643 Si02
#       7
#     4   8   4   8   8   8   8
#     4  11  24  44  64  95 117 150 201 249 312 370
#     4   9  17  32  56  87 120 158 204 241 292 352
#     4  11  24  40  70  94 117 145 200 261 298 374
#     4   9  15  28  54  89 121 158 205 252 290 342
#     4  11  23  40  62  85 124 167 196 247 306 361
#     4  10  20  35  61  89 123 166 206 243 298 358
#     4  10  20  37  62  91 120 159 198 245 302 358
#
# _framework density 19.088011999999999
#
# number of rings (size 3 to 8) (size 9 to 14) (size 15 to 20)
#    0.000    2.000    4.167    0.000    1.167    1.333 
#    0.000    2.500    3.667    1.500    0.000    0.000 
#    0.000    0.000    0.000    0.000    0.000    0.000 
#
# Total GULP energy -134074.490177 kJ/mol
# GULP energy per Si atom -5586.437091 kJ/mol
# Density = 1.904457 g / cm^3
# Si number density = 19.088012 Si / 1000 Ang^3
#
#
#
# Elastic Constant Matrix: (Units=GPa)
#
#
# Indices 1 2 3 4 5 6 
#
# 1 135.3345 24.4632 80.1183 0.0000 5.2759 0.0000
# 2 24.4632 86.3639 55.9642 0.0000 3.6191 0.0002
# 3 80.1183 55.9642 198.3888 0.0000 10.9153 0.0000
# 4 0.0000 0.0000 0.0000 35.2461 0.0000 8.5875
# 5 5.2759 3.6191 10.9153 0.0000 29.0632 0.0000
# 6 0.0000 0.0002 0.0000 8.5875 0.0000 -0.1197
#
#
#
# Elastic Compliance Matrix: (Units=1/GPa)
#
#
# Indices 1 2 3 4 5 6 
#
# 1 0.009718 -0.000254 -0.003837 0.000000 -0.000291 0.000000
# 2 -0.000254 0.014178 -0.003882 0.000000 -0.000261 0.000001
# 3 -0.003837 -0.003882 0.007781 0.000000 -0.001742 0.000000
# 4 0.000000 0.000000 0.000000 0.001536 0.000000 0.110146
# 5 -0.000291 -0.000261 -0.001742 0.000000 0.035148 0.000000
# 6 0.000000 0.000001 0.000000 0.110146 0.000000 -0.452081
#
#
# Mechanical properties :
#
#
# Convention : Reuss Voigt Hill
#
# Bulk Modulus (GPa) = 63.57318 82.35318 72.96318
# Shear Modulus (GPa) = -13.79191 30.14069 8.17439
#
# Velocity S-wave (km/s) = -2.69093 3.97802 2.07166
# Velocity P-wave (km/s) = 4.87060 8.02104 6.63551
#
# Compressibility (1/GPa) = 0.01572990
#
# Stress axis : x y z
#
# Youngs Moduli (GPa) = 102.90442 70.53342 128.51627
#
# Poissons Ratio (x) = 0.01793 0.49308
# Poissons Ratio (y) = 0.02616 0.49895
# Poissons Ratio (z) = 0.39482 0.27384
#
# Static dielectric constant tensor:
#      x y z
#    x 1.635870 0.000000 0.014560 
#    y 0.000000 1.706250 0.000000 
#    z 0.014560 0.000000 1.626090 
# 
# From -- ./inp_files/229995.got.cif
#   From: 2010.05.17/outbox.cif.g08.bks.cpg/sg12_115_cif.got.tgz:229995.got - 2010.06.03 13:09:07.
