data_PCOD9197604
_publ_section_title
;
Structure prediction by ZEFSAII (Michael W. Deem and Ramdas Pophale) SiO2 
 PCOD9197604
Probable space group: C 2/M
;
_chemical_formula_sum "Si O2"
_cell_formula_units_Z 38
_cell_length_a 29.938440
_cell_length_b 7.605524
_cell_length_c 22.363607
_cell_angle_alpha 90.000000
_cell_angle_beta 155.142213
_cell_angle_gamma 90.000000
_cell_volume 2140.568935
_symmetry_space_group_name_H-M "C 2/M"
_symmetry_group_IT_number 12
_symmetry_cell_setting 'monoclinic'
loop_
_space_group_symop_operation_xyz
x,y,z
-x,y,-z
-x,-y,-z
x,-y,z
1/2+x,1/2+y,z
1/2-x,1/2+y,-z
1/2-x,1/2-y,-z
1/2+x,1/2-y,z
loop_
_atom_site_type_symbol
_atom_site_label
_atom_site_fract_x
_atom_site_fract_y
_atom_site_fract_z
Si Si1 0.258515 0.000000 0.665658
Si Si2 0.985461 0.000000 0.625502
Si Si3 0.748456 0.500000 0.796563
Si Si4 0.874903 0.295307 0.143356
Si Si5 0.105140 0.206188 0.970353
Si Si6 0.072107 0.206906 0.146046
Si Si7 0.000000 0.000000 0.500000
O O1 0.325238 0.829435 0.726881
O O2 0.261923 0.000000 0.741839
O O3 0.135578 0.000000 0.496753
O O4 0.051978 0.168657 0.728294
O O5 0.975116 0.000000 0.541961
O O6 0.805486 0.328709 0.892460
O O7 0.627343 0.500000 0.668458
O O8 0.890030 0.500000 0.176225
O O9 0.750000 0.250000 0.000000
O O10 0.905380 0.259695 0.111363
O O11 0.132852 0.000000 0.007328
O O12 0.000335 0.232879 0.883303
O O13 0.098784 0.000000 0.173186
O O14 0.000000 0.252402 0.000000
#
# Coordination Sequence:
#
# PCOD9197604 Si02
#       7
#     4   4   4   8   8   8   2
#     4  11  22  37  60  88 136 167 197 253 312 374
#     4  11  25  44  61  94 125 164 205 248 312 370
#     4  11  20  36  60  92 120 162 200 255 314 361
#     4  12  23  41  67  91 121 157 207 262 304 362
#     4  11  21  36  64  93 119 154 211 258 302 355
#     4  10  20  35  60  93 123 161 212 256 299 360
#     4  10  24  42  62  82 128 162 192 242 314 386
#
# _framework density 17.752289000000001
#
# number of rings (size 3 to 8) (size 9 to 14) (size 15 to 20)
#    0.000    1.053    5.263    2.211    0.000    0.842 
#    0.000    5.263    0.000    0.000    0.000    0.000 
#    0.000    0.000    0.000    0.000    0.000    0.000 
#
# Total GULP energy -105870.506448 kJ/mol
# GULP energy per Si atom -5572.131918 kJ/mol
# Density = 1.771188 g / cm^3
# Si number density = 17.752289 Si / 1000 Ang^3
#
#
#
# Elastic Constant Matrix: (Units=GPa)
#
#
# Indices 1 2 3 4 5 6 
#
# 1 97.8621 37.2107 35.9864 0.0000 7.1830 0.0000
# 2 37.2107 140.6869 76.0225 0.0002 21.4307 -0.0001
# 3 35.9864 76.0225 120.4894 0.0000 23.2535 0.0000
# 4 0.0000 0.0002 0.0000 -110.7169 0.0000 58.2156
# 5 7.1830 21.4307 23.2535 0.0000 38.2780 0.0000
# 6 0.0000 -0.0001 0.0000 58.2156 0.0000 -2.6709
#
#
#
# Elastic Compliance Matrix: (Units=1/GPa)
#
#
# Indices 1 2 3 4 5 6 
#
# 1 0.011789 -0.001865 -0.002400 0.000000 0.000290 0.000000
# 2 -0.001865 0.011240 -0.006103 0.000000 -0.002235 0.000000
# 3 -0.002400 -0.006103 0.013731 0.000000 -0.004474 0.000000
# 4 0.000000 0.000000 0.000000 0.000863 0.000000 0.018820
# 5 0.000290 -0.002235 -0.004474 0.000000 0.030039 0.000000
# 6 0.000000 0.000000 0.000000 0.018820 0.000000 0.035792
#
#
# Mechanical properties :
#
#
# Convention : Reuss Voigt Hill
#
# Bulk Modulus (GPa) = 62.41416 73.05308 67.73362
# Shear Modulus (GPa) = 38.60048 -1.03402 18.78323
#
# Velocity S-wave (km/s) = 4.66810 -0.76403 3.25633
# Velocity P-wave (km/s) = 8.01808 6.36100 7.23712
#
# Compressibility (1/GPa) = 0.01602201
#
# Stress axis : x y z
#
# Youngs Moduli (GPa) = 84.82476 88.96927 72.83047
#
# Poissons Ratio (x) = 0.16596 0.17479
# Poissons Ratio (y) = 0.15823 0.44450
# Poissons Ratio (z) = 0.20358 0.54300
#
# Static dielectric constant tensor:
#      x y z
#    x 1.614250 0.000000 0.004160 
#    y 0.000000 1.606080 0.000000 
#    z 0.004160 0.000000 1.569540 
# 
# From -- ./inp_files/329801.got.cif
#   From: 2010.05.17/outbox.cif.g08.bks.cpg/sg12_165_cif.got.tgz:329801.got - 2010.06.03 13:09:07.
