data_PCOD9197930
_publ_section_title
;
Structure prediction by ZEFSAII (Michael W. Deem and Ramdas Pophale) SiO2 
 PCOD9197930
Probable space group: C 2/M
;
_chemical_formula_sum "Si O2"
_cell_formula_units_Z 64
_cell_length_a 29.486182
_cell_length_b 8.450494
_cell_length_c 14.607772
_cell_angle_alpha 90.000000
_cell_angle_beta 107.642594
_cell_angle_gamma 90.000000
_cell_volume 3468.660979
_symmetry_space_group_name_H-M "C 2/M"
_symmetry_group_IT_number 12
_symmetry_cell_setting 'monoclinic'
loop_
_space_group_symop_operation_xyz
x,y,z
-x,y,-z
-x,-y,-z
x,-y,z
1/2+x,1/2+y,z
1/2-x,1/2+y,-z
1/2-x,1/2-y,-z
1/2+x,1/2-y,z
loop_
_atom_site_type_symbol
_atom_site_label
_atom_site_fract_x
_atom_site_fract_y
_atom_site_fract_z
Si Si1 0.604055 0.815689 0.211882
Si Si2 0.852929 0.816582 0.934663
Si Si3 0.337858 0.812429 0.259076
Si Si4 0.304592 0.687976 0.628790
Si Si5 0.097745 0.690510 0.862070
Si Si6 0.298053 0.311960 0.413069
Si Si7 0.746240 0.813332 0.100875
Si Si8 0.998771 0.693053 0.892522
O O1 0.615910 0.792916 0.111964
O O2 0.646422 0.729940 0.291142
O O3 0.550036 0.755219 0.186529
O O4 0.605733 0.000000 0.237495
O O5 0.798072 0.778601 0.882449
O O6 0.863167 0.000000 0.923443
O O7 0.865274 0.771470 0.045944
O O8 0.385547 0.773320 0.230974
O O9 0.333323 0.767238 0.362152
O O10 0.294511 0.722738 0.183400
O O11 0.329921 0.000000 0.244418
O O12 0.297043 0.500000 0.627569
O O13 0.307321 0.737668 0.523674
O O14 0.257109 0.767908 0.640455
O O15 0.100859 0.500000 0.875494
O O16 0.045625 0.740454 0.864883
O O17 0.303164 0.500000 0.409733
O O18 0.736175 0.000000 0.094309
O O19 0.750000 0.750000 0.000000
O O20 0.997558 0.500000 0.893981
O O21 0.000000 0.745537 0.000000
#
# Coordination Sequence:
#
# PCOD9197930 Si02
#       8
#     8   8   8   8   8   8   8   8
#     4  11  21  35  58  82 109 144 183 230 281 333
#     4  12  23  34  50  75 109 146 184 223 268 325
#     4  11  22  35  55  80 110 146 184 227 272 328
#     4  10  21  38  59  85 114 141 179 230 280 331
#     4  10  20  36  55  76 106 144 186 227 273 323
#     4  10  21  38  60  83 112 147 182 224 275 334
#     4  12  23  35  50  72 106 144 183 221 264 320
#     4   9  17  33  57  81 106 143 188 232 278 328
#
# _framework density 18.450923
#
# number of rings (size 3 to 8) (size 9 to 14) (size 15 to 20)
#    0.000    1.375    2.500    4.500    0.000    2.000 
#    0.000    1.875    0.000    0.750    0.000    5.250 
#    0.000    0.000    0.000    0.000    0.000    0.000 
#
# Total GULP energy -178718.099095 kJ/mol
# GULP energy per Si atom -5584.940597 kJ/mol
# Density = 1.840893 g / cm^3
# Si number density = 18.450923 Si / 1000 Ang^3
#
#
#
# Elastic Constant Matrix: (Units=GPa)
#
#
# Indices 1 2 3 4 5 6 
#
# 1 120.1782 4.4483 30.3025 0.0000 -9.5742 0.0000
# 2 4.4483 23.7825 4.3244 0.0000 -0.8809 0.0000
# 3 30.3025 4.3244 60.5258 0.0000 -9.2983 0.0000
# 4 0.0000 0.0000 0.0000 25.7521 0.0000 -4.2097
# 5 -9.5742 -0.8809 -9.2983 0.0000 28.3513 0.0000
# 6 0.0000 0.0000 0.0000 -4.2097 0.0000 13.5552
#
#
#
# Elastic Compliance Matrix: (Units=1/GPa)
#
#
# Indices 1 2 3 4 5 6 
#
# 1 0.009625 -0.000920 -0.004484 0.000000 0.001751 0.000000
# 2 -0.000920 0.042692 -0.002563 0.000000 0.000175 0.000000
# 3 -0.004484 -0.002563 0.019698 0.000000 0.004866 0.000000
# 4 0.000000 0.000000 0.000000 0.040909 0.000000 0.012705
# 5 0.001751 0.000175 0.004866 0.000000 0.037465 0.000000
# 6 0.000000 0.000000 0.000000 0.012705 0.000000 0.077718
#
#
# Mechanical properties :
#
#
# Convention : Reuss Voigt Hill
#
# Bulk Modulus (GPa) = 17.83130 31.40411 24.61770
# Shear Modulus (GPa) = 19.03070 24.55914 21.79492
#
# Velocity S-wave (km/s) = 3.21506 3.65232 3.44064
# Velocity P-wave (km/s) = 4.84431 5.90281 5.39956
#
# Compressibility (1/GPa) = 0.05608117
#
# Stress axis : x y z
#
# Youngs Moduli (GPa) = 103.89391 23.42348 50.76769
#
# Poissons Ratio (x) = 0.02155 0.22765
# Poissons Ratio (y) = 0.09559 0.13010
# Poissons Ratio (z) = 0.46587 0.06003
#
# Static dielectric constant tensor:
#      x y z
#    x 1.646630 0.000000 -0.007180 
#    y 0.000000 1.625570 0.000000 
#    z -0.007180 0.000000 1.632060 
# 
# From -- ./inp_files/244226.got.cif
#   From: 2010.05.17/outbox.cif.g08.bks.cpg/sg12_123_cif.got.tgz:244226.got - 2010.06.03 13:09:07.
