data_PCOD9197598
_publ_section_title
;
Structure prediction by ZEFSAII (Michael W. Deem and Ramdas Pophale) SiO2 
 PCOD9197598
Probable space group: C 2/M
;
_chemical_formula_sum "Si O2"
_cell_formula_units_Z 56
_cell_length_a 12.678235
_cell_length_b 16.148032
_cell_length_c 21.100259
_cell_angle_alpha 90.000000
_cell_angle_beta 142.126871
_cell_angle_gamma 90.000000
_cell_volume 2652.005825
_symmetry_space_group_name_H-M "C 2/M"
_symmetry_group_IT_number 12
_symmetry_cell_setting 'monoclinic'
loop_
_space_group_symop_operation_xyz
x,y,z
-x,y,-z
-x,-y,-z
x,-y,z
1/2+x,1/2+y,z
1/2-x,1/2+y,-z
1/2-x,1/2-y,-z
1/2+x,1/2-y,z
loop_
_atom_site_type_symbol
_atom_site_label
_atom_site_fract_x
_atom_site_fract_y
_atom_site_fract_z
Si Si1 0.026639 0.096350 0.183765
Si Si2 0.971385 0.598517 0.726566
Si Si3 0.082923 0.690937 0.103271
Si Si4 0.799492 0.599036 0.049658
Si Si5 0.408636 0.596211 0.259540
Si Si6 0.344642 0.818104 0.294797
Si Si7 0.883544 0.165280 0.386169
O O1 0.998997 0.135775 0.240419
O O2 0.220664 0.107660 0.254875
O O3 0.988892 0.000000 0.173557
O O4 0.888506 0.124048 0.065190
O O5 0.945497 0.500000 0.703854
O O6 0.809086 0.634085 0.688896
O O7 0.145286 0.608674 0.851041
O O8 0.004018 0.649895 0.678087
O O9 0.207831 0.612605 0.149789
O O10 0.212614 0.756560 0.195387
O O11 0.932383 0.656989 0.075701
O O12 0.000000 0.723192 0.000000
O O13 0.825921 0.500000 0.049131
O O14 0.448308 0.500000 0.281900
O O15 0.443308 0.630253 0.346287
O O16 0.394696 0.763661 0.379233
O O17 0.000000 0.139049 0.500000
#
# Coordination Sequence:
#
# PCOD9197598 Si02
#       7
#     8   8   8   8   8   8   8
#     4  10  22  39  62  92 133 175 211 254 307 380
#     4  11  24  44  67  95 132 172 215 262 314 381
#     4  11  21  31  54  89 127 165 208 261 311 368
#     4  10  20  35  60  92 129 172 214 255 306 370
#     4  10  20  37  62  91 121 158 208 264 317 372
#     4  11  26  41  62  91 131 174 215 258 320 386
#     4  11  26  45  71  95 122 159 211 279 334 383
#
# _framework density 21.116092999999999
#
# number of rings (size 3 to 8) (size 9 to 14) (size 15 to 20)
#    0.000    1.429    4.286    1.286    6.000    2.857 
#    0.000    2.143    0.000    0.857    0.000    0.000 
#    0.000    0.000    0.000    0.000    0.000    0.000 
#
# Total GULP energy -156149.768451 kJ/mol
# GULP energy per Si atom -5576.777445 kJ/mol
# Density = 2.106803 g / cm^3
# Si number density = 21.116093 Si / 1000 Ang^3
#
#
#
# Elastic Constant Matrix: (Units=GPa)
#
#
# Indices 1 2 3 4 5 6 
#
# 1 52.5413 14.4727 3.8207 0.0000 -5.8256 0.0000
# 2 14.4727 44.2124 8.1076 0.0000 -6.1925 0.0000
# 3 3.8207 8.1076 87.3874 0.0000 -16.3840 0.0000
# 4 0.0000 0.0000 0.0000 13.1341 0.0000 -6.7486
# 5 -5.8256 -6.1925 -16.3840 0.0000 11.7345 0.0000
# 6 0.0000 0.0000 0.0000 -6.7486 0.0000 29.2398
#
#
#
# Elastic Compliance Matrix: (Units=1/GPa)
#
#
# Indices 1 2 3 4 5 6 
#
# 1 0.021642 -0.006006 0.001397 0.000000 0.009525 0.000000
# 2 -0.006006 0.026093 -0.000184 0.000000 0.010531 0.000000
# 3 0.001397 -0.000184 0.015593 0.000000 0.022367 0.000000
# 4 0.000000 0.000000 0.000000 0.086382 0.000000 0.019937
# 5 0.009525 0.010531 0.022367 0.000000 0.126734 0.000000
# 6 0.000000 0.000000 0.000000 0.019937 0.000000 0.038801
#
#
# Mechanical properties :
#
#
# Convention : Reuss Voigt Hill
#
# Bulk Modulus (GPa) = 18.60787 26.32703 22.46745
# Shear Modulus (GPa) = 14.58809 21.33770 17.96290
#
# Velocity S-wave (km/s) = 2.63126 3.18228 2.91979
# Velocity P-wave (km/s) = 4.25002 5.09876 4.69361
#
# Compressibility (1/GPa) = 0.05374070
#
# Stress axis : x y z
#
# Youngs Moduli (GPa) = 46.20729 38.32454 64.13183
#
# Poissons Ratio (x) = 0.23019 -0.08958
# Poissons Ratio (y) = 0.27754 0.01179
# Poissons Ratio (z) = -0.06454 0.00704
#
# Static dielectric constant tensor:
#      x y z
#    x 1.771380 0.000000 -0.031950 
#    y 0.000000 1.830140 0.000000 
#    z -0.031950 0.000000 1.771390 
# 
# From -- ./inp_files/264333.got.cif
#   From: 2010.05.17/outbox.cif.g08.bks.cpg/sg12_133_cif.got.tgz:264333.got - 2010.06.03 13:09:07.
