data_PCOD9197470
_publ_section_title
;
Structure prediction by ZEFSAII (Michael W. Deem and Ramdas Pophale) SiO2 
 PCOD9197470
Probable space group: C 2/M
;
_chemical_formula_sum "Si O2"
_cell_formula_units_Z 64
_cell_length_a 19.088129
_cell_length_b 18.476208
_cell_length_c 14.739434
_cell_angle_alpha 90.000000
_cell_angle_beta 40.209515
_cell_angle_gamma 90.000000
_cell_volume 3355.908567
_symmetry_space_group_name_H-M "C 2/M"
_symmetry_group_IT_number 12
_symmetry_cell_setting 'monoclinic'
loop_
_space_group_symop_operation_xyz
x,y,z
-x,y,-z
-x,-y,-z
x,-y,z
1/2+x,1/2+y,z
1/2-x,1/2+y,-z
1/2-x,1/2-y,-z
1/2+x,1/2-y,z
loop_
_atom_site_type_symbol
_atom_site_label
_atom_site_fract_x
_atom_site_fract_y
_atom_site_fract_z
Si Si1 0.698959 0.328936 0.573913
Si Si2 0.008143 0.915902 0.265082
Si Si3 0.119335 0.081579 0.341499
Si Si4 0.700501 0.414812 0.941377
Si Si5 0.111860 0.585555 0.707206
Si Si6 0.868817 0.586631 0.928302
Si Si7 0.626591 0.323289 0.854971
Si Si8 0.173284 0.656309 0.833673
O O1 0.750000 0.250000 0.500000
O O2 0.588918 0.358309 0.633927
O O3 0.793055 0.383063 0.448744
O O4 0.664847 0.331738 0.713282
O O5 0.095937 0.908018 0.258616
O O6 0.967801 0.000000 0.310281
O O7 0.080606 0.907446 0.103854
O O8 0.199159 0.139582 0.304879
O O9 0.000000 0.084183 0.500000
O O10 0.163591 0.000000 0.313084
O O11 0.720153 0.500000 0.907333
O O12 0.788051 0.388134 0.928961
O O13 0.699079 0.371940 0.849564
O O14 0.123951 0.500000 0.705628
O O15 0.116021 0.620368 0.803597
O O16 0.994133 0.601165 0.781313
O O17 0.853503 0.500000 0.952415
O O18 0.849963 0.620657 0.045900
O O19 0.643841 0.239725 0.863936
O O20 0.500000 0.340615 0.000000
#
# Coordination Sequence:
#
# PCOD9197470 Si02
#       8
#     8   8   8   8   8   8   8   8
#     4  12  25  44  63  91 134 169 206 270 322 380
#     4  10  20  39  67  93 123 165 215 270 319 369
#     4  10  20  35  59  94 132 165 206 260 320 381
#     4  10  22  43  68  94 121 163 224 278 314 364
#     4  11  23  40  66  96 126 170 213 258 324 392
#     4  10  21  40  65  95 130 167 213 262 314 382
#     4  12  26  44  64  92 127 169 218 264 323 383
#     4  12  22  38  62  96 134 171 208 259 319 394
#
# _framework density 19.070843
#
# number of rings (size 3 to 8) (size 9 to 14) (size 15 to 20)
#    0.000    1.125    3.750    3.375    0.000    3.750 
#    2.250    0.625    0.000    2.250    0.000    0.000 
#    0.000    0.000    0.000    0.000    0.000    0.000 
#
# Total GULP energy -178656.068356 kJ/mol
# GULP energy per Si atom -5583.002136 kJ/mol
# Density = 1.902744 g / cm^3
# Si number density = 19.070843 Si / 1000 Ang^3
#
#
#
# Elastic Constant Matrix: (Units=GPa)
#
#
# Indices 1 2 3 4 5 6 
#
# 1 113.2794 47.3738 48.4847 0.0000 -2.4332 0.0000
# 2 47.3738 55.2537 21.7626 0.0000 -5.5077 0.0000
# 3 48.4847 21.7626 75.0809 0.0000 4.0066 0.0000
# 4 0.0000 0.0000 0.0000 31.9721 0.0000 2.9732
# 5 -2.4332 -5.5077 4.0066 0.0000 35.8816 0.0000
# 6 0.0000 0.0000 0.0000 2.9732 0.0000 28.0200
#
#
#
# Elastic Compliance Matrix: (Units=1/GPa)
#
#
# Indices 1 2 3 4 5 6 
#
# 1 0.016869 -0.011452 -0.007587 0.000000 0.000233 0.000000
# 2 -0.011452 0.028739 -0.001136 0.000000 0.003762 0.000000
# 3 -0.007587 -0.001136 0.018695 0.000000 -0.002776 0.000000
# 4 0.000000 0.000000 0.000000 0.031589 0.000000 -0.003352
# 5 0.000233 0.003762 -0.002776 0.000000 0.028773 0.000000
# 6 0.000000 0.000000 0.000000 -0.003352 0.000000 0.036045
#
#
# Mechanical properties :
#
#
# Convention : Reuss Voigt Hill
#
# Bulk Modulus (GPa) = 41.74406 53.20623 47.47515
# Shear Modulus (GPa) = 23.91843 27.57424 25.74634
#
# Velocity S-wave (km/s) = 3.54529 3.80660 3.67827
# Velocity P-wave (km/s) = 6.22055 6.87606 6.55650
#
# Compressibility (1/GPa) = 0.02395550
#
# Stress axis : x y z
#
# Youngs Moduli (GPa) = 59.27992 34.79541 53.48903
#
# Poissons Ratio (x) = 0.39848 0.40580
# Poissons Ratio (y) = 0.67888 0.06075
# Poissons Ratio (z) = 0.44973 0.03952
#
# Static dielectric constant tensor:
#      x y z
#    x 1.681980 0.000000 0.008980 
#    y 0.000000 1.648360 0.000000 
#    z 0.008980 0.000000 1.710060 
# 
# From -- ./inp_files/226821.got.cif
#   From: 2010.05.17/outbox.cif.g08.bks.cpg/sg12_114_cif.got.tgz:226821.got - 2010.06.03 13:09:07.
