data_PCOD9197806
_publ_section_title
;
Structure prediction by ZEFSAII (Michael W. Deem and Ramdas Pophale) SiO2 
 PCOD9197806
Probable space group: C 2/M
;
_chemical_formula_sum "Si O2"
_cell_formula_units_Z 56
_cell_length_a 11.283857
_cell_length_b 25.589000
_cell_length_c 8.770430
_cell_angle_alpha 90.000000
_cell_angle_beta 75.790037
_cell_angle_gamma 90.000000
_cell_volume 2454.912348
_symmetry_space_group_name_H-M "C 2/M"
_symmetry_group_IT_number 12
_symmetry_cell_setting 'monoclinic'
loop_
_space_group_symop_operation_xyz
x,y,z
-x,y,-z
-x,-y,-z
x,-y,z
1/2+x,1/2+y,z
1/2-x,1/2+y,-z
1/2-x,1/2-y,-z
1/2+x,1/2-y,z
loop_
_atom_site_type_symbol
_atom_site_label
_atom_site_fract_x
_atom_site_fract_y
_atom_site_fract_z
Si Si1 0.869419 0.579498 0.111793
Si Si2 0.855042 0.670169 0.537513
Si Si3 0.461980 0.341222 0.684082
Si Si4 0.119098 0.912420 0.052355
Si Si5 0.805395 0.302807 0.213195
Si Si6 0.829808 0.807286 0.157313
Si Si7 0.636762 0.944245 0.529722
O O1 0.860045 0.642714 0.134879
O O2 0.865596 0.558564 0.285934
O O3 0.752467 0.563021 0.044537
O O4 0.000000 0.565829 0.000000
O O5 0.830819 0.700269 0.387157
O O6 0.797665 0.690740 0.711286
O O7 0.804089 0.610524 0.538726
O O8 0.000000 0.667510 0.500000
O O9 0.500000 0.344518 0.500000
O O10 0.339926 0.308379 0.744194
O O11 0.569412 0.316281 0.745684
O O12 0.431297 0.397481 0.765259
O O13 0.150159 0.856407 0.960036
O O14 0.000000 0.934693 0.000000
O O15 0.846149 0.252686 0.103714
O O16 0.500000 0.943990 0.500000
O O17 0.693474 0.000000 0.465201
#
# Coordination Sequence:
#
# PCOD9197806 Si02
#       7
#     8   8   8   8   8   8   8
#     4  10  22  37  61  90 123 157 206 256 304 359
#     4  10  21  33  55  88 115 153 197 254 304 354
#     4  10  20  36  51  71 105 155 206 242 286 341
#     4   9  22  39  53  82 118 166 203 240 298 358
#     4  10  22  34  51  82 115 160 204 251 289 347
#     4  11  22  33  57  76 120 163 204 244 295 360
#     4   9  20  40  63  91 124 150 192 255 326 384
#
# _framework density 22.811406000000002
#
# number of rings (size 3 to 8) (size 9 to 14) (size 15 to 20)
#    0.000    2.143    1.429    0.429    8.000    4.286 
#    0.000    0.000    0.000    0.429    0.000   31.000 
#    0.000    0.000    0.000    0.000    0.000    0.000 
#
# Total GULP energy -156245.805178 kJ/mol
# GULP energy per Si atom -5580.207328 kJ/mol
# Density = 2.275949 g / cm^3
# Si number density = 22.811406 Si / 1000 Ang^3
#
#
#
# Elastic Constant Matrix: (Units=GPa)
#
#
# Indices 1 2 3 4 5 6 
#
# 1 141.8989 7.9184 38.8295 0.0000 11.0557 0.0000
# 2 7.9184 95.0203 6.8578 0.0000 4.1501 0.0000
# 3 38.8295 6.8578 59.3805 0.0000 17.8274 0.0000
# 4 0.0000 0.0000 0.0000 -22.5366 0.0000 -36.1062
# 5 11.0557 4.1501 17.8274 0.0000 41.0434 0.0000
# 6 0.0000 0.0000 0.0000 -36.1062 0.0000 -77.1453
#
#
#
# Elastic Compliance Matrix: (Units=1/GPa)
#
#
# Indices 1 2 3 4 5 6 
#
# 1 0.008593 -0.000317 -0.005632 0.000000 0.000163 0.000000
# 2 -0.000317 0.010638 -0.000833 0.000000 -0.000629 0.000000
# 3 -0.005632 -0.000833 0.023159 0.000000 -0.008458 0.000000
# 4 0.000000 0.000000 0.000000 -0.177371 0.000000 0.083015
# 5 0.000163 -0.000629 -0.008458 0.000000 0.028058 0.000000
# 6 0.000000 0.000000 0.000000 0.083015 0.000000 -0.051816
#
#
# Mechanical properties :
#
#
# Convention : Reuss Voigt Hill
#
# Bulk Modulus (GPa) = 34.68909 44.83455 39.76182
# Shear Modulus (GPa) = -36.88183 4.45191 -16.21496
#
# Velocity S-wave (km/s) = -4.02533 1.39852 -2.66903
# Velocity P-wave (km/s) = 2.52278 4.72281 2.82316
#
# Compressibility (1/GPa) = 0.02882751
#
# Stress axis : x y z
#
# Youngs Moduli (GPa) = 116.36987 94.00251 43.18049
#
# Poissons Ratio (x) = 0.02978 0.24318
# Poissons Ratio (y) = 0.03687 0.03596
# Poissons Ratio (z) = 0.65536 0.07827
#
# Static dielectric constant tensor:
#      x y z
#    x 1.881410 0.000000 0.033330 
#    y 0.000000 1.904570 0.000000 
#    z 0.033330 0.000000 1.852030 
# 
# From -- ./inp_files/54170.got.cif
#   From: 2010.05.17/outbox.cif.g08.bks.cpg/sg12_28_cif.got.tgz:54170.got - 2010.06.03 13:09:07.
