data_PCOD9197174
_publ_section_title
;
Structure prediction by ZEFSAII (Michael W. Deem and Ramdas Pophale) SiO2 
 PCOD9197174
Probable space group: C 2/M
;
_chemical_formula_sum "Si O2"
_cell_formula_units_Z 52
_cell_length_a 15.277573
_cell_length_b 29.170468
_cell_length_c 9.784738
_cell_angle_alpha 90.000000
_cell_angle_beta 37.630439
_cell_angle_gamma 90.000000
_cell_volume 2662.438442
_symmetry_space_group_name_H-M "C 2/M"
_symmetry_group_IT_number 12
_symmetry_cell_setting 'monoclinic'
loop_
_space_group_symop_operation_xyz
x,y,z
-x,y,-z
-x,-y,-z
x,-y,z
1/2+x,1/2+y,z
1/2-x,1/2+y,-z
1/2-x,1/2-y,-z
1/2+x,1/2-y,z
loop_
_atom_site_type_symbol
_atom_site_label
_atom_site_fract_x
_atom_site_fract_y
_atom_site_fract_z
Si Si1 0.851548 0.000000 0.992045
Si Si2 0.500000 0.864381 0.000000
Si Si3 0.165775 0.267116 0.285484
Si Si4 0.191536 0.000000 0.642396
Si Si5 0.617801 0.400649 0.142011
Si Si6 0.841514 0.844106 0.189690
Si Si7 0.695212 0.821475 0.962820
Si Si8 0.715120 0.404835 0.476077
O O1 0.826669 0.046910 0.938952
O O2 0.019758 0.000000 0.826935
O O3 0.777479 0.000000 0.233410
O O4 0.452857 0.836330 0.923458
O O5 0.352793 0.890830 0.217851
O O6 0.228116 0.304240 0.310833
O O7 0.237605 0.217724 0.215492
O O8 0.000000 0.258824 0.500000
O O9 0.186551 0.293560 0.115318
O O10 0.244444 0.954690 0.502577
O O11 0.704542 0.365641 0.131166
O O12 0.446994 0.403134 0.386280
O O13 0.643417 0.379089 0.957796
O O14 0.802762 0.871642 0.372137
O O15 0.000000 0.822592 0.000000
#
# Coordination Sequence:
#
# PCOD9197174 Si02
#       8
#     4   4   8   4   8   8   8   8
#     4   9  14  30  64  97 112 136 189 256 287 328
#     4  12  26  39  54  76 122 168 188 223 286 358
#     4  10  21  39  62  82 112 151 191 251 288 333
#     4   9  16  31  60  94 120 140 191 236 294 334
#     4   9  18  35  62  89 115 143 194 247 290 325
#     4   9  17  33  59  91 116 142 189 245 292 333
#     4  10  24  41  56  85 116 154 199 234 288 345
#     4  10  20  35  58  89 120 156 186 235 284 349
#
# _framework density 19.530967
#
# number of rings (size 3 to 8) (size 9 to 14) (size 15 to 20)
#    0.000    2.308    1.538    0.923    3.231    0.308 
#    0.000    3.077    0.000    3.692    0.000    0.000 
#    0.000    0.000    0.000    0.000    0.000    0.000 
#
# Total GULP energy -144841.592047 kJ/mol
# GULP energy per Si atom -5570.830463 kJ/mol
# Density = 1.948651 g / cm^3
# Si number density = 19.530967 Si / 1000 Ang^3
#
#
#
# Elastic Constant Matrix: (Units=GPa)
#
#
# Indices 1 2 3 4 5 6 
#
# 1 60.2018 33.0106 3.5612 0.0000 -7.0620 0.0000
# 2 33.0106 106.7676 13.3937 0.0000 -5.2085 0.0000
# 3 3.5612 13.3937 64.2342 0.0000 -4.2874 0.0000
# 4 0.0000 0.0000 0.0000 20.5308 0.0000 -17.3334
# 5 -7.0620 -5.2085 -4.2874 0.0000 15.3841 0.0000
# 6 0.0000 0.0000 0.0000 -17.3334 0.0000 -13.9385
#
#
#
# Elastic Compliance Matrix: (Units=1/GPa)
#
#
# Indices 1 2 3 4 5 6 
#
# 1 0.020845 -0.006151 0.000638 0.000000 0.007664 0.000000
# 2 -0.006151 0.011548 -0.002032 0.000000 0.000520 0.000000
# 3 0.000638 -0.002032 0.016232 0.000000 0.004129 0.000000
# 4 0.000000 0.000000 0.000000 0.023761 0.000000 -0.029548
# 5 0.007664 0.000520 0.004129 0.000000 0.069847 0.000000
# 6 0.000000 0.000000 0.000000 -0.029548 0.000000 -0.034999
#
#
# Mechanical properties :
#
#
# Convention : Reuss Voigt Hill
#
# Bulk Modulus (GPa) = 29.81920 36.79275 33.30598
# Shear Modulus (GPa) = 37.45250 16.47783 26.96516
#
# Velocity S-wave (km/s) = 4.38379 2.90776 3.71972
# Velocity P-wave (km/s) = 6.39721 5.49113 5.96141
#
# Compressibility (1/GPa) = 0.03353544
#
# Stress axis : x y z
#
# Youngs Moduli (GPa) = 47.97330 86.59331 61.60682
#
# Poissons Ratio (x) = 0.53264 -0.03934
# Poissons Ratio (y) = 0.29509 0.12520
# Poissons Ratio (z) = -0.03063 0.17598
#
# Static dielectric constant tensor:
#      x y z
#    x 1.737970 0.000000 0.067270 
#    y 0.000000 1.691620 0.000000 
#    z 0.067270 0.000000 1.721370 
# 
# From -- ./inp_files/160810.got.cif
#   From: 2010.05.17/outbox.cif.g08.bks.cpg/sg12_81_cif.got.tgz:160810.got - 2010.06.03 13:09:07.
