data_PCOD9197488
_publ_section_title
;
Structure prediction by ZEFSAII (Michael W. Deem and Ramdas Pophale) SiO2 
 PCOD9197488
Probable space group: C 2/M
;
_chemical_formula_sum "Si O2"
_cell_formula_units_Z 40
_cell_length_a 19.367347
_cell_length_b 7.550463
_cell_length_c 13.747064
_cell_angle_alpha 90.000000
_cell_angle_beta 118.748564
_cell_angle_gamma 90.000000
_cell_volume 1762.478808
_symmetry_space_group_name_H-M "C 2/M"
_symmetry_group_IT_number 12
_symmetry_cell_setting 'monoclinic'
loop_
_space_group_symop_operation_xyz
x,y,z
-x,y,-z
-x,-y,-z
x,-y,z
1/2+x,1/2+y,z
1/2-x,1/2+y,-z
1/2-x,1/2-y,-z
1/2+x,1/2-y,z
loop_
_atom_site_type_symbol
_atom_site_label
_atom_site_fract_x
_atom_site_fract_y
_atom_site_fract_z
Si Si1 0.588348 0.282842 0.033992
Si Si2 0.753243 0.209956 0.772960
Si Si3 0.494343 0.705575 0.604019
Si Si4 0.679068 0.789631 0.524215
Si Si5 0.624942 0.286257 0.840580
O O1 0.588217 0.500000 0.035414
O O2 0.612843 0.224770 0.942273
O O3 0.500000 0.226404 0.000000
O O4 0.657841 0.223004 0.153479
O O5 0.703665 0.281172 0.647812
O O6 0.704906 0.236890 0.839509
O O7 0.759339 0.000000 0.760163
O O8 0.500000 0.787067 0.500000
O O9 0.517902 0.500000 0.610417
O O10 0.403004 0.713315 0.569309
O O11 0.553736 0.780687 0.723677
O O12 0.750000 0.750000 0.500000
O O13 0.667513 0.000000 0.522722
O O14 0.622182 0.500000 0.843049
#
# Coordination Sequence:
#
# PCOD9197488 Si02
#       5
#     8   8   8   8   8
#     4   9  19  35  57  83 109 143 188 232 277 327
#     4  10  21  37  58  83 111 145 186 233 278 330
#     4  10  20  36  58  85 115 146 187 231 276 334
#     4  11  24  38  57  84 116 151 187 231 283 335
#     4  10  20  35  60  85 110 149 187 227 274 330
#
# _framework density 22.695307
#
# number of rings (size 3 to 8) (size 9 to 14) (size 15 to 20)
#    0.000    2.000    2.000    1.200    2.800    2.000 
#    0.000    0.000    0.000    1.200    0.000    0.000 
#    0.000    0.000    0.000    0.000    0.000    0.000 
#
# Total GULP energy -111770.324362 kJ/mol
# GULP energy per Si atom -5588.516218 kJ/mol
# Density = 2.264365 g / cm^3
# Si number density = 22.695307 Si / 1000 Ang^3
#
#
#
# Elastic Constant Matrix: (Units=GPa)
#
#
# Indices 1 2 3 4 5 6 
#
# 1 108.8506 -19.5269 18.9578 0.0000 23.8048 0.0000
# 2 -19.5269 58.5711 6.6498 0.0000 0.0865 0.0000
# 3 18.9578 6.6498 82.6405 0.0000 26.3700 0.0000
# 4 0.0000 0.0000 0.0000 -8.0170 0.0000 -0.4898
# 5 23.8048 0.0865 26.3700 0.0000 44.7331 0.0000
# 6 0.0000 0.0000 0.0000 -0.4898 0.0000 26.6427
#
#
#
# Elastic Compliance Matrix: (Units=1/GPa)
#
#
# Indices 1 2 3 4 5 6 
#
# 1 0.011252 0.003896 -0.001209 0.000000 -0.005282 0.000000
# 2 0.003896 0.018614 -0.002117 0.000000 -0.000862 0.000000
# 3 -0.001209 -0.002117 0.015201 0.000000 -0.008313 0.000000
# 4 0.000000 0.000000 0.000000 -0.124595 0.000000 -0.002290
# 5 -0.005282 -0.000862 -0.008313 0.000000 0.030068 0.000000
# 6 0.000000 0.000000 0.000000 -0.002290 0.000000 0.037492
#
#
# Mechanical properties :
#
#
# Convention : Reuss Voigt Hill
#
# Bulk Modulus (GPa) = 21.64150 29.13595 25.38873
# Shear Modulus (GPa) = 2180.59102 28.93720 1104.76411
#
# Velocity S-wave (km/s) = 31.03059 3.57463 22.08705
# Velocity P-wave (km/s) = 35.96414 5.46837 25.72278
#
# Compressibility (1/GPa) = 0.04620751
#
# Stress axis : x y z
#
# Youngs Moduli (GPa) = 88.87592 53.72355 65.78491
#
# Poissons Ratio (x) = -0.20932 0.07954
# Poissons Ratio (y) = -0.34628 0.13924
# Poissons Ratio (z) = 0.10746 0.11371
#
# Static dielectric constant tensor:
#      x y z
#    x 1.807190 0.000000 0.013840 
#    y 0.000000 1.863100 0.000000 
#    z 0.013840 0.000000 1.882720 
# 
# From -- ./inp_files/211237.got.cif
#   From: 2010.05.17/outbox.cif.g08.bks.cpg/sg12_106_cif.got.tgz:211237.got - 2010.06.03 13:09:07.
