data_PCOD9197736
_publ_section_title
;
Structure prediction by ZEFSAII (Michael W. Deem and Ramdas Pophale) SiO2 
 PCOD9197736
Probable space group: C 2/M
;
_chemical_formula_sum "Si O2"
_cell_formula_units_Z 56
_cell_length_a 15.593409
_cell_length_b 17.427341
_cell_length_c 11.805902
_cell_angle_alpha 90.000000
_cell_angle_beta 55.215212
_cell_angle_gamma 90.000000
_cell_volume 2634.957219
_symmetry_space_group_name_H-M "C 2/M"
_symmetry_group_IT_number 12
_symmetry_cell_setting 'monoclinic'
loop_
_space_group_symop_operation_xyz
x,y,z
-x,y,-z
-x,-y,-z
x,-y,z
1/2+x,1/2+y,z
1/2-x,1/2+y,-z
1/2-x,1/2-y,-z
1/2+x,1/2-y,z
loop_
_atom_site_type_symbol
_atom_site_label
_atom_site_fract_x
_atom_site_fract_y
_atom_site_fract_z
Si Si1 0.832770 0.837702 0.706917
Si Si2 0.622882 0.362389 0.932245
Si Si3 0.859756 0.270193 0.472129
Si Si4 0.619311 0.185949 0.949213
Si Si5 0.581890 0.196078 0.225213
Si Si6 0.444564 0.500000 0.911572
Si Si7 0.176503 0.590206 0.344570
Si Si8 0.558010 0.500000 0.336482
O O1 0.872897 0.794161 0.561981
O O2 0.707464 0.848471 0.801978
O O3 0.861712 0.774762 0.780277
O O4 0.880911 0.919520 0.699774
O O5 0.650954 0.275552 0.930970
O O6 0.701315 0.395670 0.779272
O O7 0.500000 0.355322 0.000000
O O8 0.625585 0.424127 0.029908
O O9 0.750000 0.250000 0.500000
O O10 0.848221 0.355360 0.531848
O O11 0.960721 0.276879 0.316253
O O12 0.500000 0.176901 0.000000
O O13 0.620565 0.161788 0.078451
O O14 0.608151 0.131232 0.298150
O O15 0.497957 0.500000 0.747222
O O16 0.500000 0.500000 0.000000
O O17 0.156733 0.500000 0.371568
O O18 0.500000 0.500000 0.500000
#
# Coordination Sequence:
#
# PCOD9197736 Si02
#       8
#     8   8   8   8   8   4   8   4
#     4  11  23  43  65  96 130 175 228 276 346 415
#     4  10  20  35  62  98 132 168 219 284 339 395
#     4  11  24  45  67  93 133 177 225 278 344 421
#     4  11  22  39  65  93 127 171 225 280 337 408
#     4  11  23  39  68  94 127 172 224 282 338 411
#     4  10  22  40  64  97 142 175 224 280 349 397
#     4  11  23  41  66  99 133 169 225 278 344 403
#     4  12  26  44  67  99 141 184 225 286 352 420
#
# _framework density 21.252717000000001
#
# number of rings (size 3 to 8) (size 9 to 14) (size 15 to 20)
#    0.000    1.143    3.571    4.714    4.000    1.143 
#    3.857    0.357    3.143    0.000    0.000    0.000 
#    0.000    0.000    0.000    0.000    0.000    0.000 
#
# Total GULP energy -156010.502488 kJ/mol
# GULP energy per Si atom -5571.803660 kJ/mol
# Density = 2.120435 g / cm^3
# Si number density = 21.252717 Si / 1000 Ang^3
#
#
#
# Elastic Constant Matrix: (Units=GPa)
#
#
# Indices 1 2 3 4 5 6 
#
# 1 74.9354 40.1412 13.3546 0.0000 -13.1158 0.0000
# 2 40.1412 116.7481 3.7296 0.0000 4.4739 0.0000
# 3 13.3546 3.7296 64.1674 0.0000 -10.5340 0.0000
# 4 0.0000 0.0000 0.0000 19.6523 0.0000 -14.7057
# 5 -13.1158 4.4739 -10.5340 0.0000 38.7809 0.0000
# 6 0.0000 0.0000 0.0000 -14.7057 0.0000 24.1142
#
#
#
# Elastic Compliance Matrix: (Units=1/GPa)
#
#
# Indices 1 2 3 4 5 6 
#
# 1 0.018342 -0.006471 -0.002408 0.000000 0.006296 0.000000
# 2 -0.006471 0.010916 0.000153 0.000000 -0.003406 0.000000
# 3 -0.002408 0.000153 0.016684 0.000000 0.003700 0.000000
# 4 0.000000 0.000000 0.000000 0.093596 0.000000 0.057078
# 5 0.006296 -0.003406 0.003700 0.000000 0.029313 0.000000
# 6 0.000000 0.000000 0.000000 0.057078 0.000000 0.076278
#
#
# Mechanical properties :
#
#
# Convention : Reuss Voigt Hill
#
# Bulk Modulus (GPa) = 35.09896 41.14464 38.12180
# Shear Modulus (GPa) = 18.37719 29.75118 24.06418
#
# Velocity S-wave (km/s) = 2.94377 3.74555 3.36860
# Velocity P-wave (km/s) = 5.30144 6.17311 5.75380
#
# Compressibility (1/GPa) = 0.02849087
#
# Stress axis : x y z
#
# Youngs Moduli (GPa) = 54.51913 91.60899 59.93837
#
# Poissons Ratio (x) = 0.59279 0.14432
# Poissons Ratio (y) = 0.35279 -0.00918
# Poissons Ratio (z) = 0.13127 -0.01402
#
# Static dielectric constant tensor:
#      x y z
#    x 1.851760 0.000000 -0.004810 
#    y 0.000000 1.777960 0.000000 
#    z -0.004810 0.000000 1.864500 
# 
# From -- ./inp_files/146080.got.cif
#   From: 2010.05.17/outbox.cif.g08.bks.cpg/sg12_74_cif.got.tgz:146080.got - 2010.06.03 13:09:07.
