data_PCOD9197432
_publ_section_title
;
Structure prediction by ZEFSAII (Michael W. Deem and Ramdas Pophale) SiO2 
 PCOD9197432
Probable space group: C 2/M
;
_chemical_formula_sum "Si O2"
_cell_formula_units_Z 50
_cell_length_a 15.263344
_cell_length_b 8.939905
_cell_length_c 17.517147
_cell_angle_alpha 90.000000
_cell_angle_beta 73.496140
_cell_angle_gamma 90.000000
_cell_volume 2291.787082
_symmetry_space_group_name_H-M "C 2/M"
_symmetry_group_IT_number 12
_symmetry_cell_setting 'monoclinic'
loop_
_space_group_symop_operation_xyz
x,y,z
-x,y,-z
-x,-y,-z
x,-y,z
1/2+x,1/2+y,z
1/2-x,1/2+y,-z
1/2-x,1/2-y,-z
1/2+x,1/2-y,z
loop_
_atom_site_type_symbol
_atom_site_label
_atom_site_fract_x
_atom_site_fract_y
_atom_site_fract_z
Si Si1 0.939878 0.668369 0.368725
Si Si2 0.657790 0.831430 0.317458
Si Si3 0.167309 0.167840 0.909851
Si Si4 0.551715 0.317998 0.792185
Si Si5 0.834610 0.822029 0.522695
Si Si6 0.500000 0.500000 0.000000
Si Si7 0.660151 0.321879 0.157665
O O1 0.900203 0.500000 0.381071
O O2 0.913799 0.754357 0.297245
O O3 0.917059 0.757691 0.451206
O O4 0.048512 0.655194 0.338363
O O5 0.672837 0.739154 0.390262
O O6 0.684996 0.742981 0.235203
O O7 0.696802 0.000000 0.312564
O O8 0.115370 0.227574 0.846881
O O9 0.081619 0.128340 0.985644
O O10 0.254029 0.264025 0.912329
O O11 0.204134 0.000000 0.882425
O O12 0.552148 0.500000 0.791622
O O13 0.445108 0.273263 0.831276
O O14 0.750000 0.750000 0.500000
O O15 0.835778 0.000000 0.521060
O O16 0.659134 0.500000 0.157940
#
# Coordination Sequence:
#
# PCOD9197432 Si02
#       7
#     8   8   8   8   8   2   8
#     4  10  21  37  57  82 113 150 196 247 298 353
#     4  10  21  38  58  81 112 153 197 243 298 356
#     4   9  19  38  63  83 119 156 193 232 288 362
#     4   9  19  36  59  85 118 155 199 242 293 358
#     4  12  25  38  53  76 113 154 201 252 302 355
#     4   8  20  40  66  88 116 162 198 228 300 364
#     4  10  20  35  59  91 120 151 198 249 297 350
#
# _framework density 21.817036000000002
#
# number of rings (size 3 to 8) (size 9 to 14) (size 15 to 20)
#    0.480    1.600    0.000    3.360    2.240    5.120 
#    0.000    1.200    0.000    0.000    0.000    0.000 
#    0.000    0.000    0.000    0.000    0.000    0.000 
#
# Total GULP energy -139200.798314 kJ/mol
# GULP energy per Si atom -5568.031933 kJ/mol
# Density = 2.176738 g / cm^3
# Si number density = 21.817036 Si / 1000 Ang^3
#
#
#
# Elastic Constant Matrix: (Units=GPa)
#
#
# Indices 1 2 3 4 5 6 
#
# 1 67.5818 31.1043 24.3305 0.0000 -19.3276 0.0000
# 2 31.1043 80.8081 19.8253 0.0000 -8.5388 0.0000
# 3 24.3305 19.8253 88.8304 0.0000 0.3114 0.0000
# 4 0.0000 0.0000 0.0000 19.4123 0.0000 -15.1811
# 5 -19.3276 -8.5388 0.3114 0.0000 37.8014 0.0000
# 6 0.0000 0.0000 0.0000 -15.1811 0.0000 26.7784
#
#
#
# Elastic Compliance Matrix: (Units=1/GPa)
#
#
# Indices 1 2 3 4 5 6 
#
# 1 0.022282 -0.006363 -0.004718 0.000000 0.009994 0.000000
# 2 -0.006363 0.015254 -0.001662 0.000000 0.000206 0.000000
# 3 -0.004718 -0.001662 0.012931 0.000000 -0.002894 0.000000
# 4 0.000000 0.000000 0.000000 0.092542 0.000000 0.052463
# 5 0.009994 0.000206 -0.002894 0.000000 0.031634 0.000000
# 6 0.000000 0.000000 0.000000 0.052463 0.000000 0.067086
#
#
# Mechanical properties :
#
#
# Convention : Reuss Voigt Hill
#
# Bulk Modulus (GPa) = 40.03182 43.08226 41.55704
# Shear Modulus (GPa) = 18.14604 27.59578 22.87091
#
# Velocity S-wave (km/s) = 2.88711 3.56036 3.24127
# Velocity P-wave (km/s) = 5.43163 6.05735 5.75301
#
# Compressibility (1/GPa) = 0.02498013
#
# Stress axis : x y z
#
# Youngs Moduli (GPa) = 44.87853 65.55716 77.33488
#
# Poissons Ratio (x) = 0.41716 0.36486
# Poissons Ratio (y) = 0.28557 0.12855
# Poissons Ratio (z) = 0.21174 0.10897
#
# Static dielectric constant tensor:
#      x y z
#    x 1.830650 0.000000 -0.195560 
#    y 0.000000 1.735240 0.000000 
#    z -0.195560 0.000000 1.910810 
# 
# From -- ./inp_files/274198.got.cif
#   From: 2010.05.17/outbox.cif.g08.bks.cpg/sg12_138_cif.got.tgz:274198.got - 2010.06.03 13:09:07.
