data_PCOD9197308
_publ_section_title
;
Structure prediction by ZEFSAII (Michael W. Deem and Ramdas Pophale) SiO2 
 PCOD9197308
Probable space group: C 2/M
;
_chemical_formula_sum "Si O2"
_cell_formula_units_Z 48
_cell_length_a 21.430386
_cell_length_b 17.576378
_cell_length_c 20.124955
_cell_angle_alpha 90.000000
_cell_angle_beta 20.394690
_cell_angle_gamma 90.000000
_cell_volume 2641.670284
_symmetry_space_group_name_H-M "C 2/M"
_symmetry_group_IT_number 12
_symmetry_cell_setting 'monoclinic'
loop_
_space_group_symop_operation_xyz
x,y,z
-x,y,-z
-x,-y,-z
x,-y,z
1/2+x,1/2+y,z
1/2-x,1/2+y,-z
1/2-x,1/2-y,-z
1/2+x,1/2-y,z
loop_
_atom_site_type_symbol
_atom_site_label
_atom_site_fract_x
_atom_site_fract_y
_atom_site_fract_z
Si Si1 0.672783 0.803532 0.747344
Si Si2 0.511543 0.911544 0.288156
Si Si3 0.740659 0.826848 0.824978
Si Si4 0.478728 0.811277 0.448987
Si Si5 0.830713 0.909897 0.867362
Si Si6 0.296504 0.335260 0.479653
O O1 0.733308 0.847773 0.753996
O O2 0.731608 0.842133 0.620480
O O3 0.779289 0.723627 0.642317
O O4 0.459234 0.795625 0.961574
O O5 0.528501 0.862998 0.337747
O O6 0.319499 0.891953 0.448756
O O7 0.527704 0.000000 0.287074
O O8 0.661016 0.892359 0.083700
O O9 0.888852 0.761310 0.683764
O O10 0.784500 0.888837 0.837144
O O11 0.500000 0.848636 0.500000
O O12 0.996154 0.858180 0.726505
O O13 0.871582 0.000000 0.831800
O O14 0.250000 0.250000 0.500000
#
# Coordination Sequence:
#
# PCOD9197308 Si02
#       6
#     8   8   8   8   8   8
#     4  10  20  35  59  87 111 144 194 239 278 325
#     4  11  24  39  56  85 120 152 188 233 286 346
#     4  10  20  37  59  84 117 145 192 239 276 337
#     4  10  21  38  62  85 110 147 192 240 286 332
#     4  11  24  39  56  84 121 156 188 229 285 344
#     4  12  22  37  62  85 112 152 196 239 284 328
#
# _framework density 18.170321999999999
#
# number of rings (size 3 to 8) (size 9 to 14) (size 15 to 20)
#    0.000    1.333    5.000    0.500    2.333    1.667 
#    0.000    4.167    0.000    0.000    0.000    8.167 
#    0.000    0.000    0.000    0.000    0.000    0.000 
#
# Total GULP energy -133907.749933 kJ/mol
# GULP energy per Si atom -5579.489581 kJ/mol
# Density = 1.812897 g / cm^3
# Si number density = 18.170322 Si / 1000 Ang^3
#
#
#
# Elastic Constant Matrix: (Units=GPa)
#
#
# Indices 1 2 3 4 5 6 
#
# 1 105.4787 32.1749 27.3611 -0.0101 12.4252 0.0025
# 2 32.1749 43.4293 17.7832 -0.0272 0.8981 0.0136
# 3 27.3611 17.7832 57.5355 -0.0222 -10.1534 0.0168
# 4 -0.0101 -0.0272 -0.0222 24.6918 0.0104 2.2523
# 5 12.4252 0.8981 -10.1534 0.0104 44.0248 -0.0040
# 6 0.0025 0.0136 0.0168 2.2523 -0.0040 13.2835
#
#
#
# Elastic Compliance Matrix: (Units=1/GPa)
#
#
# Indices 1 2 3 4 5 6 
#
# 1 0.013803 -0.008113 -0.004915 -0.000007 -0.004864 0.000012
# 2 -0.008113 0.031402 -0.005792 0.000028 0.000313 -0.000028
# 3 -0.004915 -0.005792 0.022698 0.000011 0.006740 -0.000022
# 4 -0.000007 0.000028 0.000011 0.041136 -0.000006 -0.006975
# 5 -0.004864 0.000313 0.006740 -0.000006 0.025635 0.000001
# 6 0.000012 -0.000028 -0.000022 -0.006975 0.000001 0.076464
#
#
# Mechanical properties :
#
#
# Convention : Reuss Voigt Hill
#
# Bulk Modulus (GPa) = 33.04450 40.12022 36.58236
# Shear Modulus (GPa) = 19.31505 25.00830 22.16168
#
# Velocity S-wave (km/s) = 3.26391 3.71391 3.49616
# Velocity P-wave (km/s) = 5.69470 6.36544 6.03939
#
# Compressibility (1/GPa) = 0.03026223
#
# Stress axis : x y z
#
# Youngs Moduli (GPa) = 72.44684 31.84515 44.05770
#
# Poissons Ratio (x) = 0.25836 0.21653
# Poissons Ratio (y) = 0.58777 0.25519
# Poissons Ratio (z) = 0.35606 0.18446
#
# Static dielectric constant tensor:
#      x y z
#    x 1.650010 -0.000010 0.005410 
#    y -0.000010 1.599860 0.000020 
#    z 0.005410 0.000020 1.634890 
# 
# From -- ./inp_files/285367.got.cif
#   From: 2010.05.17/outbox.cif.g08.bks.cpg/sg12_143_cif.got.tgz:285367.got - 2010.06.03 13:09:07.
