data_PCOD9197099
_publ_section_title
;
Structure prediction by ZEFSAII (Michael W. Deem and Ramdas Pophale) SiO2 
 PCOD9197099
Probable space group: C 2/M
;
_chemical_formula_sum "Si O2"
_cell_formula_units_Z 64
_cell_length_a 14.976981
_cell_length_b 8.562952
_cell_length_c 25.158362
_cell_angle_alpha 90.000000
_cell_angle_beta 111.830903
_cell_angle_gamma 90.000000
_cell_volume 2995.102338
_symmetry_space_group_name_H-M "C 2/M"
_symmetry_group_IT_number 12
_symmetry_cell_setting 'monoclinic'
loop_
_space_group_symop_operation_xyz
x,y,z
-x,y,-z
-x,-y,-z
x,-y,z
1/2+x,1/2+y,z
1/2-x,1/2+y,-z
1/2-x,1/2-y,-z
1/2+x,1/2-y,z
loop_
_atom_site_type_symbol
_atom_site_label
_atom_site_fract_x
_atom_site_fract_y
_atom_site_fract_z
Si Si1 0.224574 0.683667 0.875886
Si Si2 0.004846 0.310740 0.843884
Si Si3 0.964498 0.180791 0.722339
Si Si4 0.975105 0.690535 0.553578
Si Si5 0.827198 0.684458 0.603679
Si Si6 0.325002 0.815607 0.357197
Si Si7 0.076520 0.312289 0.060268
Si Si8 0.305058 0.321165 0.242501
O O1 0.228732 0.500000 0.885422
O O2 0.117559 0.737747 0.868559
O O3 0.314260 0.761152 0.924944
O O4 0.233326 0.721313 0.814999
O O5 0.001865 0.500000 0.838762
O O6 0.955636 0.239506 0.780820
O O7 0.956403 0.262179 0.888152
O O8 0.078610 0.188750 0.735446
O O9 0.905747 0.283223 0.667408
O O10 0.933419 0.000000 0.710559
O O11 0.973035 0.500000 0.552171
O O12 0.876819 0.740470 0.560085
O O13 0.000000 0.744721 0.500000
O O14 0.065594 0.737491 0.609816
O O15 0.807414 0.500000 0.596201
O O16 0.733805 0.774827 0.602919
O O17 0.279637 0.734744 0.295728
O O18 0.325024 0.000000 0.348301
O O19 0.073581 0.500000 0.059054
O O20 0.000000 0.254543 0.000000
O O21 0.274942 0.500000 0.227710
#
# Coordination Sequence:
#
# PCOD9197099 Si02
#       8
#     8   8   8   8   8   8   8   8
#     4  10  21  37  58  85 116 151 193 241 292 348
#     4   9  20  38  58  82 115 154 193 235 293 355
#     4  10  20  35  58  87 119 151 193 244 293 350
#     4   9  20  40  63  85 116 159 202 243 291 349
#     4  11  22  37  59  87 119 157 196 239 296 352
#     4  11  22  37  59  88 119 154 196 242 292 349
#     4  10  22  40  60  83 115 156 199 242 291 351
#     4  10  20  36  59  86 119 154 192 240 296 355
#
# _framework density 21.368217999999999
#
# number of rings (size 3 to 8) (size 9 to 14) (size 15 to 20)
#    0.000    2.000    1.250    1.875    1.750    3.250 
#    0.000    0.000    0.000    5.250    0.000    0.000 
#    0.000    0.000    0.000    0.000    0.000    0.000 
#
# Total GULP energy -178842.964011 kJ/mol
# GULP energy per Si atom -5588.842625 kJ/mol
# Density = 2.131958 g / cm^3
# Si number density = 21.368218 Si / 1000 Ang^3
#
#
#
# Elastic Constant Matrix: (Units=GPa)
#
#
# Indices 1 2 3 4 5 6 
#
# 1 66.2621 -2.2831 -3.9637 0.0000 -9.0075 0.0000
# 2 -2.2831 6.4455 -2.0421 0.0000 -3.5985 0.0000
# 3 -3.9637 -2.0421 28.7855 0.0000 -6.5266 0.0000
# 4 0.0000 0.0000 0.0000 16.7715 0.0000 -1.1400
# 5 -9.0075 -3.5985 -6.5266 0.0000 26.8751 0.0000
# 6 0.0000 0.0000 0.0000 -1.1400 0.0000 23.5934
#
#
#
# Elastic Compliance Matrix: (Units=1/GPa)
#
#
# Indices 1 2 3 4 5 6 
#
# 1 0.017005 0.012484 0.005184 0.000000 0.008630 0.000000
# 2 0.012484 0.186121 0.022776 0.000000 0.034637 0.000000
# 3 0.005184 0.022776 0.040378 0.000000 0.014593 0.000000
# 4 0.000000 0.000000 0.000000 0.059821 0.000000 0.002890
# 5 0.008630 0.034637 0.014593 0.000000 0.048283 0.000000
# 6 0.000000 0.000000 0.000000 0.002890 0.000000 0.042524
#
#
# Mechanical properties :
#
#
# Convention : Reuss Voigt Hill
#
# Bulk Modulus (GPa) = 3.08270 9.43505 6.25888
# Shear Modulus (GPa) = 11.86588 20.76682 16.31635
#
# Velocity S-wave (km/s) = 2.35905 3.12084 2.76629
# Velocity P-wave (km/s) = 2.97757 4.17268 3.62472
#
# Compressibility (1/GPa) = 0.32439084
#
# Stress axis : x y z
#
# Youngs Moduli (GPa) = 58.80647 5.37284 24.76606
#
# Poissons Ratio (x) = -0.06707 -0.12838
# Poissons Ratio (y) = -0.73413 -0.56407
# Poissons Ratio (z) = -0.30484 -0.12237
#
# Static dielectric constant tensor:
#      x y z
#    x 1.813160 0.000000 0.002910 
#    y 0.000000 1.720800 0.000000 
#    z 0.002910 0.000000 1.757820 
# 
# From -- ./inp_files/359970.got.cif
#   From: 2010.05.17/outbox.cif.g08.bks.cpg/sg12_180_cif.got.tgz:359970.got - 2010.06.03 13:09:07.
