data_PCOD9197751
_publ_section_title
;
Structure prediction by ZEFSAII (Michael W. Deem and Ramdas Pophale) SiO2 
 PCOD9197751
Probable space group: C 2/M
;
_chemical_formula_sum "Si O2"
_cell_formula_units_Z 48
_cell_length_a 22.551459
_cell_length_b 14.370530
_cell_length_c 11.264855
_cell_angle_alpha 90.000000
_cell_angle_beta 132.920844
_cell_angle_gamma 90.000000
_cell_volume 2673.370967
_symmetry_space_group_name_H-M "C 2/M"
_symmetry_group_IT_number 12
_symmetry_cell_setting 'monoclinic'
loop_
_space_group_symop_operation_xyz
x,y,z
-x,y,-z
-x,-y,-z
x,-y,z
1/2+x,1/2+y,z
1/2-x,1/2+y,-z
1/2-x,1/2-y,-z
1/2+x,1/2-y,z
loop_
_atom_site_type_symbol
_atom_site_label
_atom_site_fract_x
_atom_site_fract_y
_atom_site_fract_z
Si Si1 0.658503 0.000000 0.533089
Si Si2 0.138113 0.189058 0.922167
Si Si3 0.992564 0.290503 0.853150
Si Si4 0.791906 0.500000 0.927612
Si Si5 0.214220 0.189108 0.779626
Si Si6 0.212744 0.000000 0.080330
Si Si7 0.485183 0.000000 0.194511
Si Si8 0.319426 0.790607 0.511398
O O1 0.683466 0.097043 0.505054
O O2 0.711106 0.000000 0.726066
O O3 0.558547 0.000000 0.394188
O O4 0.146341 0.179525 0.790394
O O5 0.058781 0.239818 0.861657
O O6 0.213400 0.251545 0.065324
O O7 0.156352 0.090603 0.009097
O O8 0.904602 0.266334 0.685806
O O9 0.001802 0.402592 0.855230
O O10 0.000000 0.263121 0.000000
O O11 0.757098 0.590309 0.813664
O O12 0.751170 0.500000 0.001571
O O13 0.888145 0.500000 0.084735
O O14 0.185335 0.242925 0.624190
O O15 0.250000 0.750000 0.500000
#
# Coordination Sequence:
#
# PCOD9197751 Si02
#       8
#     4   8   8   4   8   4   4   8
#     4  10  22  37  57  87 123 156 195 254 297 346
#     4  10  20  37  61  86 119 158 198 242 294 354
#     4  11  23  39  60  86 120 156 200 249 298 354
#     4  10  20  35  63  92 118 158 196 244 301 361
#     4  10  20  37  60  88 119 158 197 239 297 359
#     4  10  20  37  61  88 122 158 200 245 291 352
#     4  10  21  35  56  90 121 153 190 247 306 352
#     4  11  24  40  60  88 121 159 202 249 301 354
#
# _framework density 17.95486
#
# number of rings (size 3 to 8) (size 9 to 14) (size 15 to 20)
#    0.000    1.667    3.333    1.250    0.000    1.667 
#    0.000    5.417    0.000    3.000    0.000    0.000 
#    0.000    0.000    0.000    0.000    0.000    0.000 
#
# Total GULP energy -133748.275679 kJ/mol
# GULP energy per Si atom -5572.844820 kJ/mol
# Density = 1.791399 g / cm^3
# Si number density = 17.954860 Si / 1000 Ang^3
#
#
#
# Elastic Constant Matrix: (Units=GPa)
#
#
# Indices 1 2 3 4 5 6 
#
# 1 101.8534 42.5759 71.5488 0.0000 13.5748 0.0000
# 2 42.5759 129.8231 47.9030 0.0000 9.0777 0.0000
# 3 71.5488 47.9030 126.4041 0.0000 5.8236 0.0000
# 4 0.0000 0.0000 0.0000 21.8773 0.0000 -2.5994
# 5 13.5748 9.0777 5.8236 0.0000 27.7097 0.0000
# 6 0.0000 0.0000 0.0000 -2.5994 0.0000 10.9710
#
#
#
# Elastic Compliance Matrix: (Units=1/GPa)
#
#
# Indices 1 2 3 4 5 6 
#
# 1 0.017859 -0.002093 -0.009031 0.000000 -0.006165 0.000000
# 2 -0.002093 0.009340 -0.002283 0.000000 -0.001555 0.000000
# 3 -0.009031 -0.002283 0.013784 0.000000 0.002276 0.000000
# 4 0.000000 0.000000 0.000000 0.047033 0.000000 0.011144
# 5 -0.006165 -0.001555 0.002276 0.000000 0.039140 0.000000
# 6 0.000000 0.000000 0.000000 0.011144 0.000000 0.093790
#
#
# Mechanical properties :
#
#
# Convention : Reuss Voigt Hill
#
# Bulk Modulus (GPa) = 70.58575 75.79289 73.18932
# Shear Modulus (GPa) = 19.80315 25.18179 22.49247
#
# Velocity S-wave (km/s) = 3.32466 3.74907 3.54322
# Velocity P-wave (km/s) = 7.35772 7.81315 7.58885
#
# Compressibility (1/GPa) = 0.01416717
#
# Stress axis : x y z
#
# Youngs Moduli (GPa) = 55.99390 107.06079 72.54969
#
# Poissons Ratio (x) = 0.22412 0.65523
# Poissons Ratio (y) = 0.11722 0.16565
# Poissons Ratio (z) = 0.50571 0.24444
#
# Static dielectric constant tensor:
#      x y z
#    x 1.616330 0.000000 -0.012370 
#    y 0.000000 1.694500 0.000000 
#    z -0.012370 0.000000 1.592270 
# 
# From -- ./inp_files/167696.got.cif
#   From: 2010.05.17/outbox.cif.g08.bks.cpg/sg12_84_cif.got.tgz:167696.got - 2010.06.03 13:09:07.
