data_PCOD9197137
_publ_section_title
;
Structure prediction by ZEFSAII (Michael W. Deem and Ramdas Pophale) SiO2 
 PCOD9197137
Probable space group: C 2/M
;
_chemical_formula_sum "Si O2"
_cell_formula_units_Z 64
_cell_length_a 18.847487
_cell_length_b 12.104342
_cell_length_c 18.656690
_cell_angle_alpha 90.000000
_cell_angle_beta 42.314537
_cell_angle_gamma 90.000000
_cell_volume 2865.322022
_symmetry_space_group_name_H-M "C 2/M"
_symmetry_group_IT_number 12
_symmetry_cell_setting 'monoclinic'
loop_
_space_group_symop_operation_xyz
x,y,z
-x,y,-z
-x,-y,-z
x,-y,z
1/2+x,1/2+y,z
1/2-x,1/2+y,-z
1/2-x,1/2-y,-z
1/2+x,1/2-y,z
loop_
_atom_site_type_symbol
_atom_site_label
_atom_site_fract_x
_atom_site_fract_y
_atom_site_fract_z
Si Si1 0.989084 0.126022 0.696943
Si Si2 0.116064 0.760240 0.428465
Si Si3 0.075332 0.163136 0.785603
Si Si4 0.313684 0.125264 0.346642
Si Si5 0.741093 0.883931 0.244377
Si Si6 0.576365 0.871183 0.589372
Si Si7 0.347813 0.338845 0.014959
Si Si8 0.752974 0.882081 0.933426
O O1 0.057234 0.119920 0.719151
O O2 0.017374 0.250662 0.646671
O O3 0.866756 0.134822 0.811855
O O4 0.001249 0.000000 0.653680
O O5 0.197148 0.838859 0.409280
O O6 0.167656 0.719821 0.315932
O O7 0.108968 0.650191 0.483206
O O8 0.000000 0.805790 0.500000
O O9 0.103383 0.292257 0.752598
O O10 0.173006 0.118216 0.756768
O O11 0.968988 0.137466 0.908354
O O12 0.332052 0.133815 0.418599
O O13 0.333128 0.000000 0.310963
O O14 0.681613 0.000000 0.289432
O O15 0.802368 0.876884 0.123952
O O16 0.535010 0.000000 0.628224
O O17 0.278198 0.379163 0.999552
O O18 0.330168 0.208647 0.024987
O O19 0.711796 0.000000 0.942895
#
# Coordination Sequence:
#
# PCOD9197137 Si02
#       8
#     8   8   8   8   8   8   8   8
#     4   9  18  35  61  91 123 161 205 251 305 370
#     4  11  25  42  60  88 128 165 206 262 324 379
#     4   9  19  36  59  91 124 153 195 253 305 366
#     4   9  20  41  66  93 122 161 214 261 309 378
#     4  11  23  38  59  85 117 157 198 248 309 371
#     4  10  21  39  66  94 124 163 212 269 320 371
#     4  10  20  35  58  88 118 154 198 240 300 368
#     4   9  19  36  56  83 121 156 195 247 299 360
#
# _framework density 22.336058999999999
#
# number of rings (size 3 to 8) (size 9 to 14) (size 15 to 20)
#    0.000    2.250    0.000    1.875    1.750    4.250 
#    0.000   11.875    0.000    3.750    0.000    0.000 
#    0.000    0.000    0.000    0.000    0.000    0.000 
#
# Total GULP energy -178356.733569 kJ/mol
# GULP energy per Si atom -5573.647924 kJ/mol
# Density = 2.228522 g / cm^3
# Si number density = 22.336059 Si / 1000 Ang^3
#
#
#
# Elastic Constant Matrix: (Units=GPa)
#
#
# Indices 1 2 3 4 5 6 
#
# 1 89.1656 12.2193 18.9053 0.0000 -3.2254 0.0000
# 2 12.2193 160.6655 18.0504 0.0000 4.0952 0.0000
# 3 18.9053 18.0504 56.2915 0.0000 11.8520 0.0000
# 4 0.0000 0.0000 0.0000 16.2886 0.0000 17.2724
# 5 -3.2254 4.0952 11.8520 0.0000 23.4172 0.0000
# 6 0.0000 0.0000 0.0000 17.2724 0.0000 46.3730
#
#
#
# Elastic Compliance Matrix: (Units=1/GPa)
#
#
# Indices 1 2 3 4 5 6 
#
# 1 0.012487 -0.000505 -0.004939 0.000000 0.004308 0.000000
# 2 -0.000505 0.006477 -0.001852 0.000000 -0.000265 0.000000
# 3 -0.004939 -0.001852 0.022489 0.000000 -0.011739 0.000000
# 4 0.000000 0.000000 0.000000 0.101469 0.000000 -0.037794
# 5 0.004308 -0.000265 -0.011739 0.000000 0.049285 0.000000
# 6 0.000000 0.000000 0.000000 -0.037794 0.000000 0.035641
#
#
# Mechanical properties :
#
#
# Convention : Reuss Voigt Hill
#
# Bulk Modulus (GPa) = 37.22659 44.94140 41.08400
# Shear Modulus (GPa) = 19.88920 34.34562 27.11741
#
# Velocity S-wave (km/s) = 2.98728 3.92558 3.48812
# Velocity P-wave (km/s) = 5.34801 6.38052 5.88695
#
# Compressibility (1/GPa) = 0.02686252
#
# Stress axis : x y z
#
# Youngs Moduli (GPa) = 80.08154 154.38569 44.46675
#
# Poissons Ratio (x) = 0.07791 0.21962
# Poissons Ratio (y) = 0.04041 0.08234
# Poissons Ratio (z) = 0.39553 0.28588
#
# Static dielectric constant tensor:
#      x y z
#    x 1.790000 0.000000 0.029260 
#    y 0.000000 1.936390 0.000000 
#    z 0.029260 0.000000 1.876300 
# 
# From -- ./inp_files/321240.got.cif
#   From: 2010.05.17/outbox.cif.g08.bks.cpg/sg12_161_cif.got.tgz:321240.got - 2010.06.03 13:09:07.
