data_PCOD9197885
_publ_section_title
;
Structure prediction by ZEFSAII (Michael W. Deem and Ramdas Pophale) SiO2 
 PCOD9197885
Probable space group: C 2/M
;
_chemical_formula_sum "Si O2"
_cell_formula_units_Z 40
_cell_length_a 8.612676
_cell_length_b 19.605991
_cell_length_c 10.997519
_cell_angle_alpha 90.000000
_cell_angle_beta 109.408093
_cell_angle_gamma 90.000000
_cell_volume 1751.516557
_symmetry_space_group_name_H-M "C 2/M"
_symmetry_group_IT_number 12
_symmetry_cell_setting 'monoclinic'
loop_
_space_group_symop_operation_xyz
x,y,z
-x,y,-z
-x,-y,-z
x,-y,z
1/2+x,1/2+y,z
1/2-x,1/2+y,-z
1/2-x,1/2-y,-z
1/2+x,1/2-y,z
loop_
_atom_site_type_symbol
_atom_site_label
_atom_site_fract_x
_atom_site_fract_y
_atom_site_fract_z
Si Si1 0.167190 0.419121 0.106633
Si Si2 0.970859 0.844854 0.153920
Si Si3 0.211395 0.723369 0.763334
Si Si4 0.633748 0.161091 0.348864
Si Si5 0.865842 0.079058 0.573467
O O1 0.162223 0.500000 0.116550
O O2 0.331135 0.397655 0.076690
O O3 0.167755 0.386259 0.240233
O O4 0.000000 0.394475 0.000000
O O5 0.134090 0.814504 0.134583
O O6 0.053154 0.883303 0.291313
O O7 0.866594 0.779099 0.167607
O O8 0.279297 0.767051 0.665669
O O9 0.059801 0.675080 0.689934
O O10 0.715295 0.123077 0.482646
O O11 0.000000 0.079223 0.500000
O O12 0.824567 0.000000 0.589551
#
# Coordination Sequence:
#
# PCOD9197885 Si02
#       5
#     8   8   8   8   8
#     4  10  20  37  59  78 102 138 177 215 257 311
#     4  10  20  36  54  81 107 137 177 214 261 314
#     4   9  20  35  55  79 109 140 171 216 265 307
#     4  10  20  36  54  81 107 137 177 214 261 314
#     4  11  20  32  54  77 106 145 177 215 256 308
#
# _framework density 22.837351999999999
#
# number of rings (size 3 to 8) (size 9 to 14) (size 15 to 20)
#    0.000    2.000    4.000    1.200    0.000    5.600 
#    0.000   22.000    0.000    2.400    0.000    0.000 
#    0.000    0.000    0.000    0.000    0.000    0.000 
#
# Total GULP energy -111789.359804 kJ/mol
# GULP energy per Si atom -5589.467990 kJ/mol
# Density = 2.278537 g / cm^3
# Si number density = 22.837352 Si / 1000 Ang^3
#
#
#
# Elastic Constant Matrix: (Units=GPa)
#
#
# Indices 1 2 3 4 5 6 
#
# 1 107.7001 36.9775 37.6109 0.0000 37.0182 0.0000
# 2 36.9775 87.8562 34.8930 0.0000 13.0429 0.0000
# 3 37.6109 34.8930 81.9986 0.0000 27.2557 0.0000
# 4 0.0000 0.0000 0.0000 29.2646 0.0000 14.6218
# 5 37.0182 13.0429 27.2557 0.0000 53.2084 0.0000
# 6 0.0000 0.0000 0.0000 14.6218 0.0000 26.4011
#
#
#
# Elastic Compliance Matrix: (Units=1/GPa)
#
#
# Indices 1 2 3 4 5 6 
#
# 1 0.014034 -0.003880 -0.002238 0.000000 -0.007666 0.000000
# 2 -0.003880 0.014779 -0.005065 0.000000 0.001671 0.000000
# 3 -0.002238 -0.005065 0.017411 0.000000 -0.006121 0.000000
# 4 0.000000 0.000000 0.000000 0.047244 0.000000 -0.026165
# 5 -0.007666 0.001671 -0.006121 0.000000 0.026853 0.000000
# 6 0.000000 0.000000 0.000000 -0.026165 0.000000 0.052368
#
#
# Mechanical properties :
#
#
# Convention : Reuss Voigt Hill
#
# Bulk Modulus (GPa) = 41.91242 55.16863 48.54052
# Shear Modulus (GPa) = 24.62977 32.97974 28.80476
#
# Velocity S-wave (km/s) = 3.28759 3.80427 3.55533
# Velocity P-wave (km/s) = 5.72743 6.59593 6.17696
#
# Compressibility (1/GPa) = 0.02385928
#
# Stress axis : x y z
#
# Youngs Moduli (GPa) = 71.25797 67.66561 57.43391
#
# Poissons Ratio (x) = 0.26252 0.12852
# Poissons Ratio (y) = 0.27646 0.29088
# Poissons Ratio (z) = 0.15946 0.34270
#
# Static dielectric constant tensor:
#      x y z
#    x 1.915380 0.000000 -0.027330 
#    y 0.000000 1.826270 0.000000 
#    z -0.027330 0.000000 1.890070 
# 
# From -- ./inp_files/119031.got.cif
#   From: 2010.05.17/outbox.cif.g08.bks.cpg/sg12_60_cif.got.tgz:119031.got - 2010.06.03 13:09:07.
