data_PCOD9197173
_publ_section_title
;
Structure prediction by ZEFSAII (Michael W. Deem and Ramdas Pophale) SiO2 
 PCOD9197173
Probable space group: C 2/M
;
_chemical_formula_sum "Si O2"
_cell_formula_units_Z 48
_cell_length_a 12.236928
_cell_length_b 18.955063
_cell_length_c 11.186261
_cell_angle_alpha 90.000000
_cell_angle_beta 110.267825
_cell_angle_gamma 90.000000
_cell_volume 2434.019953
_symmetry_space_group_name_H-M "C 2/M"
_symmetry_group_IT_number 12
_symmetry_cell_setting 'monoclinic'
loop_
_space_group_symop_operation_xyz
x,y,z
-x,y,-z
-x,-y,-z
x,-y,z
1/2+x,1/2+y,z
1/2-x,1/2+y,-z
1/2-x,1/2-y,-z
1/2+x,1/2-y,z
loop_
_atom_site_type_symbol
_atom_site_label
_atom_site_fract_x
_atom_site_fract_y
_atom_site_fract_z
Si Si1 0.930700 0.415494 0.852578
Si Si2 0.318863 0.580397 0.756087
Si Si3 0.989633 0.080045 0.355022
Si Si4 0.545878 0.914560 0.646710
Si Si5 0.708812 0.671057 0.829316
Si Si6 0.128680 0.795805 0.065552
O O1 0.931768 0.500000 0.845468
O O2 0.801989 0.387542 0.826595
O O3 0.984945 0.388749 0.746761
O O4 0.000000 0.396541 0.000000
O O5 0.328123 0.500000 0.803203
O O6 0.381616 0.584540 0.652541
O O7 0.183373 0.599458 0.704458
O O8 0.387130 0.634181 0.864116
O O9 0.908997 0.143652 0.277237
O O10 0.000000 0.083559 0.500000
O O11 0.945923 0.000000 0.305478
O O12 0.500000 0.888612 0.500000
O O13 0.531278 0.000000 0.640154
O O14 0.779842 0.743960 0.833842
O O15 0.681156 0.679533 0.959130
O O16 0.000000 0.762913 0.000000
#
# Coordination Sequence:
#
# PCOD9197173 Si02
#       6
#     8   8   8   8   8   8
#     4  10  20  35  58  89 120 155 205 256 308 370
#     4  10  21  39  63  90 123 159 208 263 310 369
#     4  10  22  40  65  95 127 163 207 257 310 370
#     4   9  19  35  58  88 121 157 197 249 313 372
#     4  11  23  39  63  87 123 164 201 257 310 377
#     4  11  23  41  61  89 124 164 209 254 318 373
#
# _framework density 19.720462000000001
#
# number of rings (size 3 to 8) (size 9 to 14) (size 15 to 20)
#    0.000    1.833    1.667    2.000    2.333    4.333 
#    0.000    1.667    0.000    0.000    0.000    0.000 
#    0.000    0.000    0.000    0.000    0.000    0.000 
#
# Total GULP energy -133739.820341 kJ/mol
# GULP energy per Si atom -5572.492514 kJ/mol
# Density = 1.967558 g / cm^3
# Si number density = 19.720462 Si / 1000 Ang^3
#
#
#
# Elastic Constant Matrix: (Units=GPa)
#
#
# Indices 1 2 3 4 5 6 
#
# 1 116.8012 22.1448 33.4858 0.0000 -19.9393 0.0000
# 2 22.1448 56.6865 29.8897 0.0000 -2.4647 0.0000
# 3 33.4858 29.8897 73.1528 0.0000 -20.0649 0.0000
# 4 0.0000 0.0000 0.0000 15.2703 0.0000 15.5625
# 5 -19.9393 -2.4647 -20.0649 0.0000 28.5480 0.0000
# 6 0.0000 0.0000 0.0000 15.5625 0.0000 10.2172
#
#
#
# Elastic Compliance Matrix: (Units=1/GPa)
#
#
# Indices 1 2 3 4 5 6 
#
# 1 0.010687 -0.002765 -0.002205 0.000000 0.005676 0.000000
# 2 -0.002765 0.023946 -0.010506 0.000000 -0.007248 0.000000
# 3 -0.002205 -0.010506 0.022672 0.000000 0.013487 0.000000
# 4 0.000000 0.000000 0.000000 -0.118567 0.000000 0.180598
# 5 0.005676 -0.007248 0.013487 0.000000 0.047847 0.000000
# 6 0.000000 0.000000 0.000000 0.180598 0.000000 -0.177207
#
#
# Mechanical properties :
#
#
# Convention : Reuss Voigt Hill
#
# Bulk Modulus (GPa) = 37.95011 46.40903 42.17957
# Shear Modulus (GPa) = -33.13777 21.54843 -5.79467
#
# Velocity S-wave (km/s) = -4.10368 3.30918 -1.71604
# Velocity P-wave (km/s) = 1.77984 6.17943 4.18435
#
# Compressibility (1/GPa) = 0.02635039
#
# Stress axis : x y z
#
# Youngs Moduli (GPa) = 93.57180 41.76085 44.10757
#
# Poissons Ratio (x) = 0.11548 0.09727
# Poissons Ratio (y) = 0.25875 0.46342
# Poissons Ratio (z) = 0.20636 0.43876
#
# Static dielectric constant tensor:
#      x y z
#    x 1.314530 0.000000 -0.091800 
#    y 0.000000 1.714000 0.000000 
#    z -0.091800 0.000000 1.656210 
# 
# From -- ./inp_files/131673.got.cif
#   From: 2010.05.17/outbox.cif.g08.bks.cpg/sg12_66_cif.got.tgz:131673.got - 2010.06.03 13:09:07.
