data_PCOD9197098
_publ_section_title
;
Structure prediction by ZEFSAII (Michael W. Deem and Ramdas Pophale) SiO2 
 PCOD9197098
Probable space group: C 2/M
;
_chemical_formula_sum "Si O2"
_cell_formula_units_Z 44
_cell_length_a 10.316186
_cell_length_b 10.257955
_cell_length_c 25.460848
_cell_angle_alpha 90.000000
_cell_angle_beta 79.862301
_cell_angle_gamma 90.000000
_cell_volume 2652.277392
_symmetry_space_group_name_H-M "C 2/M"
_symmetry_group_IT_number 12
_symmetry_cell_setting 'monoclinic'
loop_
_space_group_symop_operation_xyz
x,y,z
-x,y,-z
-x,-y,-z
x,-y,z
1/2+x,1/2+y,z
1/2-x,1/2+y,-z
1/2-x,1/2-y,-z
1/2+x,1/2-y,z
loop_
_atom_site_type_symbol
_atom_site_label
_atom_site_fract_x
_atom_site_fract_y
_atom_site_fract_z
Si Si1 0.671882 0.647668 0.106043
Si Si2 0.728963 0.500000 0.313428
Si Si3 0.693289 0.248828 0.627511
Si Si4 0.066504 0.000000 0.685710
Si Si5 0.522978 0.847305 0.936076
Si Si6 0.375545 0.500000 0.789908
Si Si7 0.529552 0.156871 0.436999
O O1 0.654283 0.500000 0.083938
O O2 0.575143 0.751436 0.087284
O O3 0.824470 0.683214 0.087274
O O4 0.642124 0.622018 0.169781
O O5 0.790285 0.627014 0.334892
O O6 0.571890 0.500000 0.336222
O O7 0.729794 0.500000 0.249934
O O8 0.645848 0.372836 0.664055
O O9 0.585458 0.213274 0.591433
O O10 0.831844 0.282698 0.590558
O O11 0.014133 0.000000 0.749348
O O12 0.500769 0.000000 0.923804
O O13 0.500000 0.833685 0.000000
O O14 0.500000 0.185396 0.500000
O O15 0.534840 0.000000 0.430373
#
# Coordination Sequence:
#
# PCOD9197098 Si02
#       7
#     8   4   8   4   8   4   8
#     4   9  20  37  56  81 120 147 188 245 276 336
#     4  10  22  39  62  82 114 149 192 237 287 342
#     4  12  21  41  62  85 114 154 187 237 288 341
#     4  10  22  39  60  82 114 145 192 239 277 348
#     4  10  20  35  58  87 118 156 192 229 285 343
#     4   8  20  42  54  84 113 150 188 244 290 330
#     4  11  23  37  58  90 121 148 190 236 285 346
#
# _framework density 16.589516
#
# number of rings (size 3 to 8) (size 9 to 14) (size 15 to 20)
#    1.091    0.727    3.636    1.091    0.000    2.545 
#    0.000    0.909    2.000    0.000    0.000    0.000 
#    0.000    0.000    0.000    0.000    0.000    0.000 
#
# Total GULP energy -122558.999211 kJ/mol
# GULP energy per Si atom -5570.863601 kJ/mol
# Density = 1.655176 g / cm^3
# Si number density = 16.589516 Si / 1000 Ang^3
#
#
#
# Elastic Constant Matrix: (Units=GPa)
#
#
# Indices 1 2 3 4 5 6 
#
# 1 141.8504 81.0472 74.3720 0.0000 -4.1673 0.0000
# 2 81.0472 127.3946 66.7670 0.0000 3.6311 0.0000
# 3 74.3720 66.7670 128.5000 0.0000 3.2197 0.0000
# 4 0.0000 0.0000 0.0000 3.8451 0.0000 -1.8079
# 5 -4.1673 3.6311 3.2197 0.0000 14.3601 0.0000
# 6 0.0000 0.0000 0.0000 -1.8079 0.0000 28.2942
#
#
#
# Elastic Compliance Matrix: (Units=1/GPa)
#
#
# Indices 1 2 3 4 5 6 
#
# 1 0.013151 -0.006151 -0.004576 0.000000 0.006398 0.000000
# 2 -0.006151 0.013695 -0.003444 0.000000 -0.004476 0.000000
# 3 -0.004576 -0.003444 0.012300 0.000000 -0.003215 0.000000
# 4 0.000000 0.000000 0.000000 0.268126 0.000000 0.017133
# 5 0.006398 -0.004476 -0.003215 0.000000 0.073347 0.000000
# 6 0.000000 0.000000 0.000000 0.017133 0.000000 0.036438
#
#
# Mechanical properties :
#
#
# Convention : Reuss Voigt Hill
#
# Bulk Modulus (GPa) = 92.54364 93.56862 93.05613
# Shear Modulus (GPa) = 11.13586 21.00378 16.06982
#
# Velocity S-wave (km/s) = 2.59368 3.56207 3.11573
# Velocity P-wave (km/s) = 8.05451 8.56986 8.31618
#
# Compressibility (1/GPa) = 0.01080571
#
# Stress axis : x y z
#
# Youngs Moduli (GPa) = 76.03977 73.01879 81.29800
#
# Poissons Ratio (x) = 0.44912 0.37201
# Poissons Ratio (y) = 0.46770 0.27998
# Poissons Ratio (z) = 0.34795 0.25146
#
# Static dielectric constant tensor:
#      x y z
#    x 1.534020 0.000000 -0.007540 
#    y 0.000000 1.553670 0.000000 
#    z -0.007540 0.000000 1.545440 
# 
# From -- ./inp_files/371781.got.cif
#   From: 2010.05.17/outbox.cif.g08.bks.cpg/sg12_186_cif.got.tgz:371781.got - 2010.06.03 13:09:07.
