data_PCOD9197316
_publ_section_title
;
Structure prediction by ZEFSAII (Michael W. Deem and Ramdas Pophale) SiO2 
 PCOD9197316
Probable space group: C 2/M
;
_chemical_formula_sum "Si O2"
_cell_formula_units_Z 40
_cell_length_a 9.587440
_cell_length_b 22.707434
_cell_length_c 9.005500
_cell_angle_alpha 90.000000
_cell_angle_beta 81.333109
_cell_angle_gamma 90.000000
_cell_volume 1938.165534
_symmetry_space_group_name_H-M "C 2/M"
_symmetry_group_IT_number 12
_symmetry_cell_setting 'monoclinic'
loop_
_space_group_symop_operation_xyz
x,y,z
-x,y,-z
-x,-y,-z
x,-y,z
1/2+x,1/2+y,z
1/2-x,1/2+y,-z
1/2-x,1/2-y,-z
1/2+x,1/2-y,z
loop_
_atom_site_type_symbol
_atom_site_label
_atom_site_fract_x
_atom_site_fract_y
_atom_site_fract_z
Si Si1 0.324094 0.353810 0.238528
Si Si2 0.647603 0.891011 0.993232
Si Si3 0.592647 0.568073 0.237931
Si Si4 0.180973 0.731913 0.853386
Si Si5 0.342901 0.673674 0.561176
O O1 0.443376 0.403796 0.213880
O O2 0.398275 0.292292 0.174378
O O3 0.273333 0.340082 0.413647
O O4 0.197718 0.370720 0.148461
O O5 0.784267 0.922959 0.903079
O O6 0.620077 0.832080 0.898657
O O7 0.500000 0.924706 0.000000
O O8 0.577812 0.500000 0.277921
O O9 0.638937 0.610094 0.364979
O O10 0.273935 0.716822 0.692672
O O11 0.250000 0.750000 0.000000
O O12 0.500000 0.696186 0.500000
#
# Coordination Sequence:
#
# PCOD9197316 Si02
#       5
#     8   8   8   8   8
#     4  10  20  35  59  87 114 152 199 248 298 356
#     4  10  22  37  56  85 118 157 196 244 305 362
#     4  10  22  41  61  84 118 158 204 252 299 358
#     4   9  19  36  56  85 124 159 195 241 301 367
#     4   9  19  35  59  90 119 154 199 251 305 355
#
# _framework density 20.638069999999999
#
# number of rings (size 3 to 8) (size 9 to 14) (size 15 to 20)
#    0.000    2.400    0.000    1.200    0.000   18.400 
#    0.000    4.000    0.000    1.200    0.000    0.000 
#    0.000    0.000    0.000    0.000    0.000    0.000 
#
# Total GULP energy -111380.847205 kJ/mol
# GULP energy per Si atom -5569.042360 kJ/mol
# Density = 2.059110 g / cm^3
# Si number density = 20.638070 Si / 1000 Ang^3
#
#
#
# Elastic Constant Matrix: (Units=GPa)
#
#
# Indices 1 2 3 4 5 6 
#
# 1 78.9291 30.3749 61.0158 0.0000 4.8588 0.0000
# 2 30.3749 114.4125 2.5382 0.0000 0.3267 0.0000
# 3 61.0158 2.5382 134.3766 0.0000 3.7321 0.0000
# 4 0.0000 0.0000 0.0000 29.9130 0.0000 -2.7769
# 5 4.8588 0.3267 3.7321 0.0000 37.5775 0.0000
# 6 0.0000 0.0000 0.0000 -2.7769 0.0000 24.3775
#
#
#
# Elastic Compliance Matrix: (Units=1/GPa)
#
#
# Indices 1 2 3 4 5 6 
#
# 1 0.022988 -0.005870 -0.010274 0.000000 -0.001901 0.000000
# 2 -0.005870 0.010243 0.002460 0.000000 0.000426 0.000000
# 3 -0.010274 0.002460 0.012058 0.000000 0.000110 0.000000
# 4 0.000000 0.000000 0.000000 0.033788 0.000000 0.003849
# 5 -0.001901 0.000426 0.000110 0.000000 0.026843 0.000000
# 6 0.000000 0.000000 0.000000 0.003849 0.000000 0.041460
#
#
# Mechanical properties :
#
#
# Convention : Reuss Voigt Hill
#
# Bulk Modulus (GPa) = 55.80325 57.28621 56.54473
# Shear Modulus (GPa) = 27.66703 33.95955 30.81329
#
# Velocity S-wave (km/s) = 3.66537 4.06085 3.86817
# Velocity P-wave (km/s) = 6.70902 7.05728 6.88535
#
# Compressibility (1/GPa) = 0.01792010
#
# Stress axis : x y z
#
# Youngs Moduli (GPa) = 43.50083 97.62939 82.93579
#
# Poissons Ratio (x) = 0.57305 0.85212
# Poissons Ratio (y) = 0.25533 -0.20401
# Poissons Ratio (z) = 0.44695 -0.24016
#
# Static dielectric constant tensor:
#      x y z
#    x 1.805490 0.000000 -0.019170 
#    y 0.000000 1.735680 0.000000 
#    z -0.019170 0.000000 1.799210 
# 
# From -- ./inp_files/39157.got.cif
#   From: 2010.05.17/outbox.cif.g08.bks.cpg/sg12_20_cif.got.tgz:39157.got - 2010.06.03 13:09:07.
