data_PCOD9197377
_publ_section_title
;
Structure prediction by ZEFSAII (Michael W. Deem and Ramdas Pophale) SiO2 
 PCOD9197377
Probable space group: C 2/M
;
_chemical_formula_sum "Si O2"
_cell_formula_units_Z 64
_cell_length_a 14.880597
_cell_length_b 9.066762
_cell_length_c 28.317378
_cell_angle_alpha 90.000000
_cell_angle_beta 50.901255
_cell_angle_gamma 90.000000
_cell_volume 2964.974975
_symmetry_space_group_name_H-M "C 2/M"
_symmetry_group_IT_number 12
_symmetry_cell_setting 'monoclinic'
loop_
_space_group_symop_operation_xyz
x,y,z
-x,y,-z
-x,-y,-z
x,-y,z
1/2+x,1/2+y,z
1/2-x,1/2+y,-z
1/2-x,1/2-y,-z
1/2+x,1/2-y,z
loop_
_atom_site_type_symbol
_atom_site_label
_atom_site_fract_x
_atom_site_fract_y
_atom_site_fract_z
Si Si1 0.654674 0.177636 0.201551
Si Si2 0.596118 0.171770 0.736642
Si Si3 0.752060 0.172518 0.924375
Si Si4 0.840163 0.324571 0.641200
Si Si5 0.567808 0.671854 0.047473
Si Si6 0.417624 0.822410 0.411691
Si Si7 0.801647 0.325153 0.549740
Si Si8 0.867699 0.672089 0.167713
O O1 0.520324 0.223162 0.250851
O O2 0.700140 0.240206 0.136445
O O3 0.744799 0.245083 0.208688
O O4 0.658993 0.000000 0.200760
O O5 0.715350 0.255527 0.689978
O O6 0.573527 0.182056 0.800430
O O7 0.613743 0.000000 0.718896
O O8 0.846038 0.179427 0.935673
O O9 0.734151 0.000000 0.919256
O O10 0.635924 0.246895 0.983120
O O11 0.831366 0.500000 0.651454
O O12 0.867419 0.298682 0.576729
O O13 0.949749 0.270902 0.635123
O O14 0.547525 0.500000 0.043436
O O15 0.450921 0.752070 0.102080
O O16 0.322297 0.755163 0.408902
O O17 0.370768 0.782344 0.479755
O O18 0.416751 0.000000 0.407769
O O19 0.780905 0.500000 0.553318
O O20 0.850729 0.500000 0.162852
#
# Coordination Sequence:
#
# PCOD9197377 Si02
#       8
#     8   8   8   8   8   8   8   8
#     4  11  23  41  62  85 113 149 192 238 290 343
#     4  10  24  43  60  80 114 152 190 240 289 336
#     4  10  20  35  59  89 119 151 186 230 285 344
#     4  10  21  36  58  83 111 150 193 234 278 336
#     4  10  20  35  59  89 119 151 186 230 285 344
#     4   9  18  34  56  84 117 151 187 230 280 333
#     4   9  18  34  56  84 117 151 187 230 280 333
#     4  11  23  41  62  85 113 149 192 238 290 343
#
# _framework density 21.585342000000001
#
# number of rings (size 3 to 8) (size 9 to 14) (size 15 to 20)
#    0.000    2.000    1.250    1.875    0.000    7.000 
#    0.000    7.500    0.000    3.750    0.000    0.000 
#    0.000    0.000    0.000    0.000    0.000    0.000 
#
# Total GULP energy -178868.310356 kJ/mol
# GULP energy per Si atom -5589.634699 kJ/mol
# Density = 2.153621 g / cm^3
# Si number density = 21.585342 Si / 1000 Ang^3
#
#
#
# Elastic Constant Matrix: (Units=GPa)
#
#
# Indices 1 2 3 4 5 6 
#
# 1 99.7155 40.3827 21.6600 0.0000 -37.3110 0.0000
# 2 40.3827 62.4436 20.7164 0.0000 -16.9602 -0.0001
# 3 21.6600 20.7164 57.4910 0.0000 -24.9458 0.0000
# 4 0.0000 0.0000 0.0000 29.7132 0.0000 -4.8593
# 5 -37.3110 -16.9602 -24.9458 0.0000 37.1449 0.0000
# 6 0.0000 -0.0001 0.0000 -4.8593 0.0000 29.9354
#
#
#
# Elastic Compliance Matrix: (Units=1/GPa)
#
#
# Indices 1 2 3 4 5 6 
#
# 1 0.019653 -0.009020 0.003704 0.000000 0.018110 0.000000
# 2 -0.009020 0.023164 -0.006055 0.000000 -0.002550 0.000000
# 3 0.003704 -0.006055 0.026242 0.000000 0.018580 0.000000
# 4 0.000000 0.000000 0.000000 0.034573 0.000000 0.005612
# 5 0.018110 -0.002550 0.018580 0.000000 0.056426 0.000000
# 6 0.000000 0.000000 0.000000 0.005612 0.000000 0.034316
#
#
# Mechanical properties :
#
#
# Convention : Reuss Voigt Hill
#
# Bulk Modulus (GPa) = 21.59025 42.79646 32.19336
# Shear Modulus (GPa) = 21.50023 28.48476 24.99249
#
# Velocity S-wave (km/s) = 3.15946 3.63662 3.40640
# Velocity P-wave (km/s) = 4.83048 6.12397 5.51528
#
# Compressibility (1/GPa) = 0.04631721
#
# Stress axis : x y z
#
# Youngs Moduli (GPa) = 50.88236 43.17072 38.10644
#
# Poissons Ratio (x) = 0.38939 -0.14114
# Poissons Ratio (y) = 0.45895 0.23074
# Poissons Ratio (z) = -0.18846 0.26141
#
# Static dielectric constant tensor:
#      x y z
#    x 1.806140 0.000000 0.023230 
#    y 0.000000 1.719750 0.000000 
#    z 0.023230 0.000000 1.795550 
# 
# From -- ./inp_files/359722.got.cif
#   From: 2010.05.17/outbox.cif.g08.bks.cpg/sg12_180_cif.got.tgz:359722.got - 2010.06.03 13:09:07.
