data_PCOD9197993
_publ_section_title
;
Structure prediction by ZEFSAII (Michael W. Deem and Ramdas Pophale) SiO2 
 PCOD9197993
Probable space group: C 2/M
;
_chemical_formula_sum "Si O2"
_cell_formula_units_Z 56
_cell_length_a 19.945587
_cell_length_b 27.184639
_cell_length_c 5.520908
_cell_angle_alpha 90.000000
_cell_angle_beta 64.882155
_cell_angle_gamma 90.000000
_cell_volume 2710.434806
_symmetry_space_group_name_H-M "C 2/M"
_symmetry_group_IT_number 12
_symmetry_cell_setting 'monoclinic'
loop_
_space_group_symop_operation_xyz
x,y,z
-x,y,-z
-x,-y,-z
x,-y,z
1/2+x,1/2+y,z
1/2-x,1/2+y,-z
1/2-x,1/2-y,-z
1/2+x,1/2-y,z
loop_
_atom_site_type_symbol
_atom_site_label
_atom_site_fract_x
_atom_site_fract_y
_atom_site_fract_z
Si Si1 0.264185 0.882760 0.437153
Si Si2 0.767246 0.442988 0.919112
Si Si3 0.998271 0.824591 0.252592
Si Si4 0.167389 0.213993 0.516626
Si Si5 0.136120 0.747907 0.065912
Si Si6 0.567815 0.948755 0.217117
Si Si7 0.919456 0.653447 0.048816
O O1 0.243607 0.912205 0.715902
O O2 0.209059 0.837296 0.483341
O O3 0.347647 0.859074 0.326169
O O4 0.258593 0.915992 0.197036
O O5 0.739724 0.500000 0.966895
O O6 0.855904 0.446001 0.754743
O O7 0.065617 0.785374 0.160495
O O8 0.000000 0.853870 0.500000
O O9 0.921043 0.795955 0.359927
O O10 0.000000 0.853905 0.000000
O O11 0.180496 0.238586 0.237452
O O12 0.177228 0.245054 0.745977
O O13 0.109999 0.691639 0.106256
O O14 0.500000 0.950263 0.500000
O O15 0.571258 0.000000 0.065908
O O16 0.561675 0.899901 0.077455
O O17 0.000000 0.674888 0.000000
#
# Coordination Sequence:
#
# PCOD9197993 Si02
#       7
#     8   8   8   8   8   8   8
#     4  11  23  37  58  86 114 148 190 236 284 332
#     4  10  21  39  59  81 112 147 186 234 286 341
#     4   8  15  29  49  72 101 137 177 217 260 315
#     4  10  20  36  55  81 115 145 187 233 275 331
#     4  10  21  36  56  79 112 152 188 229 277 336
#     4   9  19  35  56  80 107 144 194 249 295 333
#     4  11  23  36  54  80 113 154 198 238 286 337
#
# _framework density 20.660892
#
# number of rings (size 3 to 8) (size 9 to 14) (size 15 to 20)
#    0.000    2.143    0.000    3.429    0.000    7.143 
#    0.000    0.000    0.000    0.000    0.000    0.000 
#    0.000  102.857    0.000    0.000    0.000    0.000 
#
# Total GULP energy -155969.952554 kJ/mol
# GULP energy per Si atom -5570.355448 kJ/mol
# Density = 2.061387 g / cm^3
# Si number density = 20.660892 Si / 1000 Ang^3
#
#
#
# Elastic Constant Matrix: (Units=GPa)
#
#
# Indices 1 2 3 4 5 6 
#
# 1 89.0888 41.6790 48.4998 0.0000 28.9118 0.0000
# 2 41.6790 118.3820 39.8826 0.0000 23.2489 0.0000
# 3 48.4998 39.8826 117.4059 0.0000 34.3937 0.0000
# 4 0.0000 0.0000 0.0000 -22.8322 0.0000 3.5565
# 5 28.9118 23.2489 34.3937 0.0000 38.1899 0.0000
# 6 0.0000 0.0000 0.0000 3.5565 0.0000 38.3686
#
#
#
# Elastic Compliance Matrix: (Units=1/GPa)
#
#
# Indices 1 2 3 4 5 6 
#
# 1 0.017332 -0.003317 -0.003777 0.000000 -0.007700 0.000000
# 2 -0.003317 0.010627 -0.001467 0.000000 -0.002637 0.000000
# 3 -0.003777 -0.001467 0.012873 0.000000 -0.007841 0.000000
# 4 0.000000 0.000000 0.000000 -0.043174 0.000000 0.004002
# 5 -0.007700 -0.002637 -0.007841 0.000000 0.040681 0.000000
# 6 0.000000 0.000000 0.000000 0.004002 0.000000 0.025692
#
#
# Mechanical properties :
#
#
# Convention : Reuss Voigt Hill
#
# Bulk Modulus (GPa) = 42.17844 64.99994 53.58919
# Shear Modulus (GPa) = 56.14373 23.73295 39.93834
#
# Velocity S-wave (km/s) = 5.21852 3.39291 4.40141
# Velocity P-wave (km/s) = 7.53455 6.84674 7.19886
#
# Compressibility (1/GPa) = 0.02370880
#
# Stress axis : x y z
#
# Youngs Moduli (GPa) = 57.69732 94.09694 77.68120
#
# Poissons Ratio (x) = 0.31215 0.29341
# Poissons Ratio (y) = 0.19140 0.11398
# Poissons Ratio (z) = 0.21793 0.13806
#
# Static dielectric constant tensor:
#      x y z
#    x 1.786670 0.000000 0.000280 
#    y 0.000000 1.730770 0.000000 
#    z 0.000280 0.000000 1.811140 
# 
# From -- ./inp_files/22292.got.cif
#   From: 2010.05.17/outbox.cif.g08.bks.cpg/sg12_12_cif.got.tgz:22292.got - 2010.06.03 13:09:07.
