data_PCOD9197461
_publ_section_title
;
Structure prediction by ZEFSAII (Michael W. Deem and Ramdas Pophale) SiO2 
 PCOD9197461
Probable space group: C 2/M
;
_chemical_formula_sum "Si O2"
_cell_formula_units_Z 64
_cell_length_a 20.252668
_cell_length_b 19.259105
_cell_length_c 27.415690
_cell_angle_alpha 90.000000
_cell_angle_beta 17.980658
_cell_angle_gamma 90.000000
_cell_volume 3301.021943
_symmetry_space_group_name_H-M "C 2/M"
_symmetry_group_IT_number 12
_symmetry_cell_setting 'monoclinic'
loop_
_space_group_symop_operation_xyz
x,y,z
-x,y,-z
-x,-y,-z
x,-y,z
1/2+x,1/2+y,z
1/2-x,1/2+y,-z
1/2-x,1/2-y,-z
1/2+x,1/2-y,z
loop_
_atom_site_type_symbol
_atom_site_label
_atom_site_fract_x
_atom_site_fract_y
_atom_site_fract_z
Si Si1 0.628742 0.920135 0.359458
Si Si2 0.528249 0.331625 0.422563
Si Si3 0.597894 0.580887 0.180542
Si Si4 0.985735 0.650181 0.067430
Si Si5 0.853666 0.421054 0.454662
Si Si6 0.826925 0.782583 0.221853
Si Si7 0.665319 0.197238 0.601143
Si Si8 0.036798 0.218075 0.172165
O O1 0.500000 0.905038 0.500000
O O2 0.468723 0.913785 0.426075
O O3 0.815358 0.863841 0.221327
O O4 0.702133 0.000000 0.310594
O O5 0.500000 0.347099 0.500000
O O6 0.600218 0.250771 0.366775
O O7 0.338740 0.337449 0.516632
O O8 0.747051 0.370510 0.252572
O O9 0.600546 0.500000 0.164483
O O10 0.823919 0.605804 0.043442
O O11 0.400377 0.589704 0.357060
O O12 0.553648 0.636024 0.169039
O O13 0.000000 0.645451 0.000000
O O14 0.994799 0.731831 0.077045
O O15 0.885581 0.500000 0.415615
O O16 0.935733 0.365474 0.358387
O O17 0.858343 0.768634 0.256951
O O18 0.750000 0.250000 0.500000
O O19 0.517328 0.243011 0.740073
O O20 0.250000 0.250000 0.000000
#
# Coordination Sequence:
#
# PCOD9197461 Si02
#       8
#     8   8   8   8   8   8   8   8
#     4  10  20  35  59  93 127 163 205 257 318 381
#     4  10  20  37  59  88 116 161 202 254 307 365
#     4  11  23  40  60  89 127 164 206 257 314 374
#     4  10  22  37  59  89 117 159 207 252 307 368
#     4  10  22  39  62  97 133 166 208 265 325 379
#     4  10  21  35  61  86 126 153 204 255 308 368
#     4  12  22  36  65  93 123 157 213 260 318 364
#     4  12  23  40  62  93 123 165 208 259 313 384
#
# _framework density 19.387936
#
# number of rings (size 3 to 8) (size 9 to 14) (size 15 to 20)
#    0.750    0.625    3.750    2.625    0.000    1.750 
#    0.000    1.250    0.000    1.125    0.000    0.000 
#    0.000    0.000    0.000    0.000    0.000    0.000 
#
# Total GULP energy -178331.816955 kJ/mol
# GULP energy per Si atom -5572.869280 kJ/mol
# Density = 1.934381 g / cm^3
# Si number density = 19.387936 Si / 1000 Ang^3
#
#
#
# Elastic Constant Matrix: (Units=GPa)
#
#
# Indices 1 2 3 4 5 6 
#
# 1 74.7525 10.6983 12.9709 0.0017 13.8095 -0.0117
# 2 10.6983 96.5099 18.0705 0.0237 4.7923 -0.0035
# 3 12.9709 18.0705 65.9397 -0.0018 13.7769 -0.0254
# 4 0.0017 0.0237 -0.0018 27.1660 -0.0114 -5.0366
# 5 13.8095 4.7923 13.7769 -0.0114 23.9606 0.0076
# 6 -0.0117 -0.0035 -0.0254 -5.0366 0.0076 26.3489
#
#
#
# Elastic Compliance Matrix: (Units=1/GPa)
#
#
# Indices 1 2 3 4 5 6 
#
# 1 0.015179 -0.001096 -0.001027 -0.000002 -0.007939 0.000007
# 2 -0.001096 0.011007 -0.002810 -0.000010 0.000046 -0.000004
# 3 -0.001027 -0.002810 0.018067 0.000004 -0.009234 0.000020
# 4 -0.000002 -0.000010 0.000004 0.038163 0.000017 0.007295
# 5 -0.007939 0.000046 -0.009234 0.000017 0.051611 -0.000024
# 6 0.000007 -0.000004 0.000020 0.007295 -0.000024 0.039347
#
#
# Mechanical properties :
#
#
# Convention : Reuss Voigt Hill
#
# Bulk Modulus (GPa) = 29.08147 35.63127 32.35637
# Shear Modulus (GPa) = 25.68014 28.52591 27.10303
#
# Velocity S-wave (km/s) = 3.64337 3.83994 3.74295
# Velocity P-wave (km/s) = 5.72112 6.17075 5.95019
#
# Compressibility (1/GPa) = 0.03438616
#
# Stress axis : x y z
#
# Youngs Moduli (GPa) = 65.88003 90.85059 55.34987
#
# Poissons Ratio (x) = 0.09959 0.05683
# Poissons Ratio (y) = 0.07222 0.15556
# Poissons Ratio (z) = 0.06765 0.25534
#
# Static dielectric constant tensor:
#      x y z
#    x 1.720920 -0.000010 -0.049460 
#    y -0.000010 1.690860 0.000110 
#    z -0.049460 0.000110 1.717060 
# 
# From -- ./inp_files/366792.got.cif
#   From: 2010.05.17/outbox.cif.g08.bks.cpg/sg12_184_cif.got.tgz:366792.got - 2010.06.03 13:09:07.
