data_PCOD9197903
_publ_section_title
;
Structure prediction by ZEFSAII (Michael W. Deem and Ramdas Pophale) SiO2 
 PCOD9197903
Probable space group: C 2/M
;
_chemical_formula_sum "Si O2"
_cell_formula_units_Z 42
_cell_length_a 21.249181
_cell_length_b 13.343426
_cell_length_c 19.033384
_cell_angle_alpha 90.000000
_cell_angle_beta 19.691887
_cell_angle_gamma 90.000000
_cell_volume 1818.471137
_symmetry_space_group_name_H-M "C 2/M"
_symmetry_group_IT_number 12
_symmetry_cell_setting 'monoclinic'
loop_
_space_group_symop_operation_xyz
x,y,z
-x,y,-z
-x,-y,-z
x,-y,z
1/2+x,1/2+y,z
1/2-x,1/2+y,-z
1/2-x,1/2-y,-z
1/2+x,1/2-y,z
loop_
_atom_site_type_symbol
_atom_site_label
_atom_site_fract_x
_atom_site_fract_y
_atom_site_fract_z
Si Si1 0.716952 0.384111 0.296622
Si Si2 0.000000 0.500000 0.500000
Si Si3 0.641509 0.890345 0.216266
Si Si4 0.168254 0.306645 0.968230
Si Si5 0.571668 0.621384 0.594012
Si Si6 0.858320 0.380953 0.397683
O O1 0.500000 0.383390 0.500000
O O2 0.777869 0.500000 0.233595
O O3 0.829535 0.328626 0.117235
O O4 0.700727 0.343598 0.392611
O O5 0.067399 0.414405 0.371869
O O6 0.807463 0.811570 0.044408
O O7 0.468247 0.849165 0.352318
O O8 0.699284 0.000000 0.125857
O O9 0.359893 0.350348 0.800236
O O10 0.003372 0.359199 0.182786
O O11 0.580471 0.500000 0.582528
O O12 0.661347 0.655916 0.573368
O O13 0.833605 0.500000 0.434461
#
# Coordination Sequence:
#
# PCOD9197903 Si02
#       6
#     8   2   8   8   8   8
#     4   8  15  27  46  77 107 141 175 209 262 337
#     4   8  20  40  60  80 104 154 200 242 280 316
#     4   9  21  36  57  81 106 146 199 238 280 323
#     4  11  19  32  59  81 110 149 189 229 279 333
#     4   9  19  32  51  83 119 146 180 219 281 347
#     4  10  20  36  54  86 118 143 179 232 287 343
#
# _framework density 23.096323000000002
#
# number of rings (size 3 to 8) (size 9 to 14) (size 15 to 20)
#    0.571    2.095    0.000    3.429    4.000    1.524 
#    0.000    2.857    0.000    1.143    0.000    6.667 
#    0.000    0.000    0.000    0.000    0.000    0.000 
#
# Total GULP energy -116991.603332 kJ/mol
# GULP energy per Si atom -5571.028730 kJ/mol
# Density = 2.304376 g / cm^3
# Si number density = 23.096323 Si / 1000 Ang^3
#
#
#
# Elastic Constant Matrix: (Units=GPa)
#
#
# Indices 1 2 3 4 5 6 
#
# 1 69.6366 -1.8172 16.2100 0.0019 4.3869 -0.0006
# 2 -1.8172 39.6983 -23.0356 -0.0042 4.6123 0.0016
# 3 16.2100 -23.0356 62.5778 -0.0016 10.1430 0.0015
# 4 0.0019 -0.0042 -0.0016 14.6377 0.0023 4.9687
# 5 4.3869 4.6123 10.1430 0.0023 22.8601 -0.0003
# 6 -0.0006 0.0016 0.0015 4.9687 -0.0003 32.0110
#
#
#
# Elastic Compliance Matrix: (Units=1/GPa)
#
#
# Indices 1 2 3 4 5 6 
#
# 1 0.015417 -0.001908 -0.004610 -0.000003 -0.000528 0.000001
# 2 -0.001908 0.036033 0.016030 0.000016 -0.014017 -0.000005
# 3 -0.004610 0.016030 0.025274 0.000011 -0.013564 -0.000004
# 4 -0.000003 0.000016 0.000011 0.072116 -0.000015 -0.011194
# 5 -0.000528 -0.014017 -0.013564 -0.000015 0.052692 0.000004
# 6 0.000001 -0.000005 -0.000004 -0.011194 0.000004 0.032977
#
#
# Mechanical properties :
#
#
# Convention : Reuss Voigt Hill
#
# Bulk Modulus (GPa) = 10.44419 17.18079 13.81249
# Shear Modulus (GPa) = 20.21010 25.93880 23.07445
#
# Velocity S-wave (km/s) = 2.96131 3.35486 3.16421
# Velocity P-wave (km/s) = 4.02794 4.73938 4.39807
#
# Compressibility (1/GPa) = 0.09574704
#
# Stress axis : x y z
#
# Youngs Moduli (GPa) = 64.86375 27.75233 39.56668
#
# Poissons Ratio (x) = 0.05296 0.18242
# Poissons Ratio (y) = 0.12378 -0.63427
# Poissons Ratio (z) = 0.29905 -0.44488
#
# Static dielectric constant tensor:
#      x y z
#    x 1.907440 0.000000 -0.022500 
#    y 0.000000 1.966100 0.000010 
#    z -0.022500 0.000010 1.835560 
# 
# From -- ./inp_files/325502.got.cif
#   From: 2010.05.17/outbox.cif.g08.bks.cpg/sg12_163_cif.got.tgz:325502.got - 2010.06.03 13:09:07.
