data_PCOD9197224
_publ_section_title
;
Structure prediction by ZEFSAII (Michael W. Deem and Ramdas Pophale) SiO2 
 PCOD9197224
Probable space group: C 2/M
;
_chemical_formula_sum "Si O2"
_cell_formula_units_Z 48
_cell_length_a 16.707760
_cell_length_b 27.846112
_cell_length_c 8.838756
_cell_angle_alpha 90.000000
_cell_angle_beta 28.988639
_cell_angle_gamma 90.000000
_cell_volume 1992.919590
_symmetry_space_group_name_H-M "C 2/M"
_symmetry_group_IT_number 12
_symmetry_cell_setting 'monoclinic'
loop_
_space_group_symop_operation_xyz
x,y,z
-x,y,-z
-x,-y,-z
x,-y,z
1/2+x,1/2+y,z
1/2-x,1/2+y,-z
1/2-x,1/2-y,-z
1/2+x,1/2-y,z
loop_
_atom_site_type_symbol
_atom_site_label
_atom_site_fract_x
_atom_site_fract_y
_atom_site_fract_z
Si Si1 0.104146 0.552537 0.010948
Si Si2 0.810054 0.396971 0.845041
Si Si3 0.296086 0.372210 0.511188
Si Si4 0.692120 0.290460 0.714127
Si Si5 0.790256 0.945696 0.290428
Si Si6 0.421488 0.311972 0.778893
O O1 0.158527 0.500000 0.861313
O O2 0.163444 0.601389 0.833924
O O3 0.175486 0.559697 0.060908
O O4 0.906788 0.552110 0.342755
O O5 0.716203 0.415540 0.852383
O O6 0.000000 0.382621 0.500000
O O7 0.705442 0.351723 0.072719
O O8 0.226490 0.338510 0.490165
O O9 0.369305 0.418037 0.301537
O O10 0.427320 0.340768 0.388663
O O11 0.750000 0.250000 0.500000
O O12 0.500000 0.296514 0.000000
O O13 0.682506 0.285251 0.913273
O O14 0.844409 0.000000 0.176495
O O15 0.500000 0.286600 0.500000
#
# Coordination Sequence:
#
# PCOD9197224 Si02
#       6
#     8   8   8   8   8   8
#     4  10  20  35  58  94 134 177 225 271 319 386
#     4  10  20  38  62  93 129 178 221 269 321 392
#     4  11  21  37  64  89 130 171 213 271 334 382
#     4  10  24  46  70  99 131 164 212 271 336 400
#     4  10  20  35  58  92 134 178 225 274 322 380
#     4  11  22  44  69  92 133 172 211 273 337 391
#
# _framework density 24.085266000000001
#
# number of rings (size 3 to 8) (size 9 to 14) (size 15 to 20)
#    0.000    1.667    3.333    1.500    0.000    4.667 
#    0.000    8.333    0.000    0.000    0.000    0.000 
#    0.000    0.000    0.000    0.000    0.000    0.000 
#
# Total GULP energy -133795.191723 kJ/mol
# GULP energy per Si atom -5574.799655 kJ/mol
# Density = 2.403045 g / cm^3
# Si number density = 24.085266 Si / 1000 Ang^3
#
#
#
# Elastic Constant Matrix: (Units=GPa)
#
#
# Indices 1 2 3 4 5 6 
#
# 1 116.6484 7.5274 29.3689 -0.0009 18.5177 -0.0001
# 2 7.5274 79.5041 40.1303 -0.0005 24.7722 0.0000
# 3 29.3689 40.1303 105.5030 -0.0034 34.2053 -0.0004
# 4 -0.0009 -0.0005 -0.0034 39.7272 0.0013 4.2456
# 5 18.5177 24.7722 34.2053 0.0013 42.2187 0.0002
# 6 -0.0001 0.0000 -0.0004 4.2456 0.0002 21.5672
#
#
#
# Elastic Compliance Matrix: (Units=1/GPa)
#
#
# Indices 1 2 3 4 5 6 
#
# 1 0.009520 0.001121 -0.002047 0.000000 -0.003175 0.000000
# 2 0.001121 0.016856 -0.004554 0.000000 -0.006693 0.000000
# 3 -0.002047 -0.004554 0.014407 0.000001 -0.008103 0.000000
# 4 0.000000 0.000000 0.000001 0.025713 -0.000002 -0.005062
# 5 -0.003175 -0.006693 -0.008103 -0.000002 0.035571 0.000000
# 6 0.000000 0.000000 0.000000 -0.005062 0.000000 0.047363
#
#
# Mechanical properties :
#
#
# Convention : Reuss Voigt Hill
#
# Bulk Modulus (GPa) = 33.53053 50.63430 42.08242
# Shear Modulus (GPa) = 29.35480 35.67786 32.51633
#
# Velocity S-wave (km/s) = 3.49490 3.85296 3.67829
# Velocity P-wave (km/s) = 5.49887 6.39236 5.96238
#
# Compressibility (1/GPa) = 0.02982356
#
# Stress axis : x y z
#
# Youngs Moduli (GPa) = 105.04376 59.32729 69.40847
#
# Poissons Ratio (x) = -0.06652 0.14209
# Poissons Ratio (y) = -0.11778 0.31606
# Poissons Ratio (z) = 0.21505 0.27016
#
# Static dielectric constant tensor:
#      x y z
#    x 1.981900 0.000000 0.079120 
#    y 0.000000 1.927240 0.000000 
#    z 0.079120 0.000000 2.045430 
# 
# From -- ./inp_files/80573.got.cif
#   From: 2010.05.17/outbox.cif.g08.bks.cpg/sg12_41_cif.got.tgz:80573.got - 2010.06.03 13:09:07.
