data_PCOD9197868
_publ_section_title
;
Structure prediction by ZEFSAII (Michael W. Deem and Ramdas Pophale) SiO2 
 PCOD9197868
Probable space group: C 2/M
;
_chemical_formula_sum "Si O2"
_cell_formula_units_Z 44
_cell_length_a 25.097688
_cell_length_b 11.146771
_cell_length_c 25.500276
_cell_angle_alpha 90.000000
_cell_angle_beta 18.453346
_cell_angle_gamma 90.000000
_cell_volume 2258.113655
_symmetry_space_group_name_H-M "C 2/M"
_symmetry_group_IT_number 12
_symmetry_cell_setting 'monoclinic'
loop_
_space_group_symop_operation_xyz
x,y,z
-x,y,-z
-x,-y,-z
x,-y,z
1/2+x,1/2+y,z
1/2-x,1/2+y,-z
1/2-x,1/2-y,-z
1/2+x,1/2-y,z
loop_
_atom_site_type_symbol
_atom_site_label
_atom_site_fract_x
_atom_site_fract_y
_atom_site_fract_z
Si Si1 0.000000 0.696200 0.500000
Si Si2 0.463535 0.133631 0.267117
Si Si3 0.400874 0.721689 0.421242
Si Si4 0.736909 0.631511 0.661453
Si Si5 0.500131 0.139059 0.114498
Si Si6 0.157834 0.864821 0.268164
O O1 0.879445 0.627768 0.572747
O O2 0.882942 0.776649 0.646668
O O3 0.496954 0.231592 0.280275
O O4 0.262385 0.145630 0.443216
O O5 0.547279 0.150866 0.132124
O O6 0.503082 0.000000 0.248901
O O7 0.323861 0.835613 0.524773
O O8 0.520272 0.655778 0.350839
O O9 0.653022 0.500000 0.737249
O O10 0.625178 0.749737 0.777996
O O11 0.434452 0.000000 0.169853
O O12 0.660147 0.151872 0.927789
O O13 0.145213 0.000000 0.299574
#
# Coordination Sequence:
#
# PCOD9197868 Si02
#       6
#     4   8   8   8   8   8
#     4  10  22  36  56  78  99 134 179 222 267 314
#     4   9  16  30  50  75 105 139 173 213 258 306
#     4   9  18  30  52  78 104 138 179 213 254 308
#     4  10  20  37  56  79 108 139 174 217 263 313
#     4   9  20  36  55  79 110 140 174 215 261 312
#     4  10  20  36  54  77 105 138 178 223 264 310
#
# _framework density 19.485289999999999
#
# number of rings (size 3 to 8) (size 9 to 14) (size 15 to 20)
#    0.000    2.545    0.000    1.636    0.000    6.545 
#    0.000    9.091    0.000    0.000    0.000    0.000 
#    0.000    0.000    0.000    0.000    0.000    0.000 
#
# Total GULP energy -122611.171170 kJ/mol
# GULP energy per Si atom -5573.235053 kJ/mol
# Density = 1.944094 g / cm^3
# Si number density = 19.485290 Si / 1000 Ang^3
#
#
#
# Elastic Constant Matrix: (Units=GPa)
#
#
# Indices 1 2 3 4 5 6 
#
# 1 47.4109 17.0932 6.6561 0.0009 13.8601 0.0000
# 2 17.0932 114.4920 42.6053 -0.0027 15.1541 0.0010
# 3 6.6561 42.6053 49.9377 -0.0077 17.9112 0.0048
# 4 0.0009 -0.0027 -0.0077 8.5448 0.0018 -8.2634
# 5 13.8601 15.1541 17.9112 0.0018 24.0716 -0.0001
# 6 0.0000 0.0010 0.0048 -8.2634 -0.0001 -13.5918
#
#
#
# Elastic Compliance Matrix: (Units=1/GPa)
#
#
# Indices 1 2 3 4 5 6 
#
# 1 0.026757 -0.003937 0.006042 0.000004 -0.017423 -0.000001
# 2 -0.003937 0.013377 -0.011840 -0.000006 0.002656 0.000000
# 3 0.006042 -0.011840 0.038051 0.000030 -0.024337 -0.000005
# 4 0.000004 -0.000006 0.000030 0.073699 -0.000027 -0.044807
# 5 -0.017423 0.002656 -0.024337 -0.000027 0.068012 0.000007
# 6 -0.000001 0.000000 -0.000005 -0.044807 0.000007 -0.046333
#
#
# Mechanical properties :
#
#
# Convention : Reuss Voigt Hill
#
# Bulk Modulus (GPa) = 17.03195 38.28329 27.65762
# Shear Modulus (GPa) = 23.51788 13.50399 18.51094
#
# Velocity S-wave (km/s) = 3.47790 2.63541 3.08554
# Velocity P-wave (km/s) = 4.98875 5.38056 5.18835
#
# Compressibility (1/GPa) = 0.05871319
#
# Stress axis : x y z
#
# Youngs Moduli (GPa) = 37.37356 74.75787 26.28084
#
# Poissons Ratio (x) = 0.29431 -0.15878
# Poissons Ratio (y) = 0.14713 0.31117
# Poissons Ratio (z) = -0.22580 0.88515
#
# Static dielectric constant tensor:
#      x y z
#    x 1.671150 0.000000 -0.001890 
#    y 0.000000 1.688970 0.000000 
#    z -0.001890 0.000000 1.675150 
# 
# From -- ./inp_files/369014.got.cif
#   From: 2010.05.17/outbox.cif.g08.bks.cpg/sg12_185_cif.got.tgz:369014.got - 2010.06.03 13:09:07.
