data_PCOD9197325
_publ_section_title
;
Structure prediction by ZEFSAII (Michael W. Deem and Ramdas Pophale) SiO2 
 PCOD9197325
Probable space group: C 2/M
;
_chemical_formula_sum "Si O2"
_cell_formula_units_Z 58
_cell_length_a 28.689052
_cell_length_b 7.764172
_cell_length_c 24.069698
_cell_angle_alpha 90.000000
_cell_angle_beta 147.560115
_cell_angle_gamma 90.000000
_cell_volume 2875.957295
_symmetry_space_group_name_H-M "C 2/M"
_symmetry_group_IT_number 12
_symmetry_cell_setting 'monoclinic'
loop_
_space_group_symop_operation_xyz
x,y,z
-x,y,-z
-x,-y,-z
x,-y,z
1/2+x,1/2+y,z
1/2-x,1/2+y,-z
1/2-x,1/2-y,-z
1/2+x,1/2-y,z
loop_
_atom_site_type_symbol
_atom_site_label
_atom_site_fract_x
_atom_site_fract_y
_atom_site_fract_z
Si Si1 0.759741 0.207001 0.643541
Si Si2 0.645392 0.300474 0.146286
Si Si3 0.390701 0.705338 0.682023
Si Si4 0.587217 0.208318 0.886603
Si Si5 0.725904 0.201101 0.116956
Si Si6 0.108591 0.700056 0.782397
Si Si7 0.583393 0.702950 0.416075
Si Si8 0.500000 0.000000 0.000000
O O1 0.804663 0.248988 0.746852
O O2 0.819514 0.275550 0.652980
O O3 0.661787 0.268776 0.536921
O O4 0.757990 0.000000 0.638204
O O5 0.613761 0.500000 0.120388
O O6 0.710147 0.294226 0.159037
O O7 0.573160 0.154826 0.063880
O O8 0.377934 0.500000 0.666597
O O9 0.488697 0.739118 0.801372
O O10 0.387326 0.772707 0.615392
O O11 0.609157 0.270971 0.846301
O O12 0.588834 0.000000 0.886651
O O13 0.656733 0.267674 0.001598
O O14 0.821204 0.216155 0.186780
O O15 0.707255 0.000000 0.106684
O O16 0.132077 0.500000 0.809290
O O17 0.009262 0.716660 0.662641
O O18 0.567592 0.500000 0.393986
#
# Coordination Sequence:
#
# PCOD9197325 Si02
#       8
#     8   8   8   8   8   8   8   2
#     4  10  22  39  59  84 120 158 202 252 301 362
#     4  11  26  44  66  95 125 166 210 252 306 365
#     4   9  19  34  54  85 119 155 196 242 300 365
#     4   9  20  34  55  86 120 158 200 246 305 367
#     4  11  22  39  60  87 123 161 206 256 306 365
#     4  10  20  37  59  86 119 158 202 253 308 367
#     4  10  20  35  59  87 117 154 198 249 307 366
#     4  12  26  48  68  90 130 164 210 260 304 356
#
# _framework density 20.167199
#
# number of rings (size 3 to 8) (size 9 to 14) (size 15 to 20)
#    0.000    1.931    0.690    2.276    2.897    2.759 
#    0.000    0.690    0.000    4.138    0.000    0.000 
#    0.000    0.000    0.000    0.000    0.000    0.000 
#
# Total GULP energy -161688.235390 kJ/mol
# GULP energy per Si atom -5575.456393 kJ/mol
# Density = 2.012130 g / cm^3
# Si number density = 20.167199 Si / 1000 Ang^3
#
#
#
# Elastic Constant Matrix: (Units=GPa)
#
#
# Indices 1 2 3 4 5 6 
#
# 1 25.3815 1.9303 61.4794 0.0000 -6.8145 0.0000
# 2 1.9303 55.4511 4.1009 0.0000 -6.1388 0.0000
# 3 61.4794 4.1009 21.0044 0.0000 31.4279 0.0000
# 4 0.0000 0.0000 0.0000 22.1778 0.0000 9.5975
# 5 -6.8145 -6.1388 31.4279 0.0000 0.5231 0.0000
# 6 0.0000 0.0000 0.0000 9.5975 0.0000 21.2923
#
#
#
# Elastic Compliance Matrix: (Units=1/GPa)
#
#
# Indices 1 2 3 4 5 6 
#
# 1 0.019631 -0.005428 0.003867 0.000000 -0.040279 0.000000
# 2 -0.005428 0.018775 0.002381 0.000000 0.006578 0.000000
# 3 0.003867 0.002381 0.000915 0.000000 0.023332 0.000000
# 4 0.000000 0.000000 0.000000 0.056017 0.000000 -0.025249
# 5 -0.040279 0.006578 0.023332 0.000000 0.062341 0.000000
# 6 0.000000 0.000000 0.000000 -0.025249 0.000000 0.058346
#
#
# Mechanical properties :
#
#
# Convention : Reuss Voigt Hill
#
# Bulk Modulus (GPa) = 24.41434 26.31758 25.36596
# Shear Modulus (GPa) = 21.92592 11.08708 16.50650
#
# Velocity S-wave (km/s) = 3.30086 2.34724 2.86402
# Velocity P-wave (km/s) = 5.16331 4.51930 4.85200
#
# Compressibility (1/GPa) = 0.04095954
#
# Stress axis : x y z
#
# Youngs Moduli (GPa) = 50.93927 53.26216 1092.78914
#
# Poissons Ratio (x) = 0.28913 -4.22558
# Poissons Ratio (y) = 0.27652 -2.60170
# Poissons Ratio (z) = -0.19697 -0.12681
#
# Static dielectric constant tensor:
#      x y z
#    x 1.712310 0.000000 -0.012950 
#    y 0.000000 1.731810 0.000000 
#    z -0.012950 0.000000 1.693150 
# 
# From -- ./inp_files/351548.got.cif
#   From: 2010.05.17/outbox.cif.g08.bks.cpg/sg12_176_cif.got.tgz:351548.got - 2010.06.03 13:09:07.
