data_PCOD9197875
_publ_section_title
;
Structure prediction by ZEFSAII (Michael W. Deem and Ramdas Pophale) SiO2 
 PCOD9197875
Probable space group: C 2/M
;
_chemical_formula_sum "Si O2"
_cell_formula_units_Z 60
_cell_length_a 9.739616
_cell_length_b 21.081509
_cell_length_c 16.079118
_cell_angle_alpha 90.000000
_cell_angle_beta 109.763962
_cell_angle_gamma 90.000000
_cell_volume 3106.980952
_symmetry_space_group_name_H-M "C 2/M"
_symmetry_group_IT_number 12
_symmetry_cell_setting 'monoclinic'
loop_
_space_group_symop_operation_xyz
x,y,z
-x,y,-z
-x,-y,-z
x,-y,z
1/2+x,1/2+y,z
1/2-x,1/2+y,-z
1/2-x,1/2-y,-z
1/2+x,1/2-y,z
loop_
_atom_site_type_symbol
_atom_site_label
_atom_site_fract_x
_atom_site_fract_y
_atom_site_fract_z
Si Si1 0.847392 0.878558 0.672761
Si Si2 0.859871 0.069843 0.205546
Si Si3 0.914405 0.235098 0.565980
Si Si4 0.856056 0.425804 0.509645
Si Si5 0.315537 0.294441 0.118265
Si Si6 0.097440 0.683303 0.731504
Si Si7 0.121203 0.426276 0.298939
Si Si8 0.500000 0.252812 0.000000
O O1 0.911464 0.820659 0.632736
O O2 0.762011 0.916281 0.584547
O O3 0.740310 0.848884 0.720042
O O4 0.971926 0.921830 0.736042
O O5 0.825125 0.133407 0.149136
O O6 0.757404 0.073911 0.265621
O O7 0.834680 0.000000 0.162201
O O8 0.750000 0.250000 0.500000
O O9 0.000000 0.218238 0.500000
O O10 0.002763 0.288243 0.635609
O O11 0.883005 0.500000 0.524096
O O12 0.825721 0.406407 0.597626
O O13 0.000000 0.394311 0.500000
O O14 0.361602 0.240000 0.195660
O O15 0.428542 0.288507 0.064344
O O16 0.145480 0.283234 0.061003
O O17 0.000111 0.626068 0.750004
O O18 0.065372 0.500000 0.288758
#
# Coordination Sequence:
#
# PCOD9197875 Si02
#       8
#     8   8   8   8   8   8   8   4
#     4  12  24  36  58  88 123 175 222 274 318 366
#     4  11  25  43  64  94 131 166 209 260 321 387
#     4  12  26  38  54  90 131 172 223 275 320 365
#     4  10  20  36  54  77 120 172 228 276 307 350
#     4  11  23  45  70 102 127 161 201 258 324 391
#     4  12  24  40  66  92 127 172 219 264 321 378
#     4  10  23  39  59  87 126 177 224 269 312 366
#     4  10  24  44  76 102 126 150 198 258 324 404
#
# _framework density 19.311350000000001
#
# number of rings (size 3 to 8) (size 9 to 14) (size 15 to 20)
#    0.000    0.933    4.000    2.800    5.600    0.533 
#    0.000    2.667    0.000    3.200    0.000    0.000 
#    0.000    0.000    0.000    0.000    0.000    0.000 
#
# Total GULP energy -167280.896837 kJ/mol
# GULP energy per Si atom -5576.029895 kJ/mol
# Density = 1.926740 g / cm^3
# Si number density = 19.311350 Si / 1000 Ang^3
#
#
#
# Elastic Constant Matrix: (Units=GPa)
#
#
# Indices 1 2 3 4 5 6 
#
# 1 126.2962 49.1430 43.2468 0.0000 -9.2433 0.0000
# 2 49.1430 78.0855 59.4277 0.0000 -14.6177 0.0000
# 3 43.2468 59.4277 83.1455 0.0000 -1.7294 0.0000
# 4 0.0000 0.0000 0.0000 -0.4541 0.0000 -11.8400
# 5 -9.2433 -14.6177 -1.7294 0.0000 26.8221 0.0000
# 6 0.0000 0.0000 0.0000 -11.8400 0.0000 19.8245
#
#
#
# Elastic Compliance Matrix: (Units=1/GPa)
#
#
# Indices 1 2 3 4 5 6 
#
# 1 0.010597 -0.005153 -0.001814 0.000000 0.000727 0.000000
# 2 -0.005153 0.037078 -0.023469 0.000000 0.016918 0.000000
# 3 -0.001814 -0.023469 0.029506 0.000000 -0.011513 0.000000
# 4 0.000000 0.000000 0.000000 -0.132882 0.000000 -0.079363
# 5 0.000727 0.016918 -0.011513 0.000000 0.046011 0.000000
# 6 0.000000 0.000000 0.000000 -0.079363 0.000000 0.003044
#
#
# Mechanical properties :
#
#
# Convention : Reuss Voigt Hill
#
# Bulk Modulus (GPa) = 61.31614 65.68469 63.50041
# Shear Modulus (GPa) = 83.80519 18.28580 51.04550
#
# Velocity S-wave (km/s) = 6.59478 3.08050 5.14687
# Velocity P-wave (km/s) = 9.47673 6.83667 8.26282
#
# Compressibility (1/GPa) = 0.01630892
#
# Stress axis : x y z
#
# Youngs Moduli (GPa) = 94.36444 26.97021 33.89182
#
# Poissons Ratio (x) = 0.13897 0.06148
# Poissons Ratio (y) = 0.48624 0.79541
# Poissons Ratio (z) = 0.17117 0.63297
#
# Static dielectric constant tensor:
#      x y z
#    x 1.661520 0.000000 -0.011350 
#    y 0.000000 1.752810 0.000000 
#    z -0.011350 0.000000 1.665720 
# 
# From -- ./inp_files/198936.got.cif
#   From: 2010.05.17/outbox.cif.g08.bks.cpg/sg12_100_cif.got.tgz:198936.got - 2010.06.03 13:09:07.
