data_PCOD9197479
_publ_section_title
;
Structure prediction by ZEFSAII (Michael W. Deem and Ramdas Pophale) SiO2 
 PCOD9197479
Probable space group: C 2/M
;
_chemical_formula_sum "Si O2"
_cell_formula_units_Z 52
_cell_length_a 21.063859
_cell_length_b 24.414235
_cell_length_c 9.267983
_cell_angle_alpha 90.000000
_cell_angle_beta 37.360413
_cell_angle_gamma 90.000000
_cell_volume 2892.218180
_symmetry_space_group_name_H-M "C 2/M"
_symmetry_group_IT_number 12
_symmetry_cell_setting 'monoclinic'
loop_
_space_group_symop_operation_xyz
x,y,z
-x,y,-z
-x,-y,-z
x,-y,z
1/2+x,1/2+y,z
1/2-x,1/2+y,-z
1/2-x,1/2-y,-z
1/2+x,1/2-y,z
loop_
_atom_site_type_symbol
_atom_site_label
_atom_site_fract_x
_atom_site_fract_y
_atom_site_fract_z
Si Si1 0.410450 0.500000 0.460908
Si Si2 0.000000 0.348472 0.500000
Si Si3 0.420890 0.619313 0.336011
Si Si4 0.174452 0.183081 0.240157
Si Si5 0.112287 0.737022 0.098374
Si Si6 0.866778 0.836688 0.134425
Si Si7 0.279270 0.109882 0.814076
Si Si8 0.841269 0.000000 0.918299
O O1 0.384662 0.556926 0.425989
O O2 0.354382 0.500000 0.719224
O O3 0.537084 0.500000 0.252649
O O4 0.036863 0.310475 0.296751
O O5 0.097895 0.384127 0.378347
O O6 0.403500 0.654554 0.510601
O O7 0.364572 0.652112 0.308141
O O8 0.543841 0.621021 0.080058
O O9 0.124284 0.225242 0.219188
O O10 0.272602 0.212206 0.138767
O O11 0.225112 0.136776 0.050583
O O12 0.092526 0.777904 0.999638
O O13 0.759619 0.852731 0.249182
O O14 0.225846 0.051153 0.903679
#
# Coordination Sequence:
#
# PCOD9197479 Si02
#       8
#     4   4   8   8   8   8   8   4
#     4  11  22  34  59  87 110 149 170 229 291 335
#     4  10  20  35  60  78 110 145 194 232 272 302
#     4  11  21  35  52  83 113 146 173 220 278 343
#     4   9  18  33  56  78 111 140 187 224 272 325
#     4   9  18  34  54  79 104 150 182 227 271 314
#     4  10  22  33  52  81 117 139 178 220 272 338
#     4  10  20  36  55  84 107 145 185 237 265 319
#     4  11  20  34  60  88 107 139 188 231 277 329
#
# _framework density 17.979279999999999
#
# number of rings (size 3 to 8) (size 9 to 14) (size 15 to 20)
#    0.000    2.000    3.077    1.846    0.000    4.615 
#    0.000    1.538    0.000    2.769    0.000    1.077 
#    0.000    0.000    0.000    0.000    0.000    0.000 
#
# Total GULP energy -144829.450109 kJ/mol
# GULP energy per Si atom -5570.363466 kJ/mol
# Density = 1.793836 g / cm^3
# Si number density = 17.979280 Si / 1000 Ang^3
#
#
#
# Elastic Constant Matrix: (Units=GPa)
#
#
# Indices 1 2 3 4 5 6 
#
# 1 70.4043 7.9358 14.0681 0.0000 -5.3885 0.0000
# 2 7.9358 71.1813 3.6492 0.0000 -1.2323 0.0000
# 3 14.0681 3.6492 35.9412 0.0000 -9.7942 0.0000
# 4 0.0000 0.0000 0.0000 9.4912 0.0000 0.9572
# 5 -5.3885 -1.2323 -9.7942 0.0000 23.7458 0.0000
# 6 0.0000 0.0000 0.0000 0.9572 0.0000 16.0811
#
#
#
# Elastic Compliance Matrix: (Units=1/GPa)
#
#
# Indices 1 2 3 4 5 6 
#
# 1 0.015579 -0.001428 -0.005644 0.000000 0.001133 0.000000
# 2 -0.001428 0.014254 -0.000873 0.000000 0.000056 0.000000
# 3 -0.005644 -0.000873 0.033528 0.000000 0.012503 0.000000
# 4 0.000000 0.000000 0.000000 0.105997 0.000000 -0.006309
# 5 0.001133 0.000056 0.012503 0.000000 0.047530 0.000000
# 6 0.000000 0.000000 0.000000 -0.006309 0.000000 0.062560
#
#
# Mechanical properties :
#
#
# Convention : Reuss Voigt Hill
#
# Bulk Modulus (GPa) = 21.06575 25.42590 23.24582
# Shear Modulus (GPa) = 16.06882 19.98854 18.02868
#
# Velocity S-wave (km/s) = 2.99279 3.33792 3.17005
# Velocity P-wave (km/s) = 4.86668 5.38777 5.13384
#
# Compressibility (1/GPa) = 0.04747043
#
# Stress axis : x y z
#
# Youngs Moduli (GPa) = 64.18823 70.15795 29.82557
#
# Poissons Ratio (x) = 0.10018 0.16834
# Poissons Ratio (y) = 0.09166 0.02604
# Poissons Ratio (z) = 0.36229 0.06126
#
# Static dielectric constant tensor:
#      x y z
#    x 1.656200 0.000000 -0.008470 
#    y 0.000000 1.672620 0.000000 
#    z -0.008470 0.000000 1.613720 
# 
# From -- ./inp_files/52685.got.cif
#   From: 2010.05.17/outbox.cif.g08.bks.cpg/sg12_27_cif.got.tgz:52685.got - 2010.06.03 13:09:07.
