data_PCOD9197566
_publ_section_title
;
Structure prediction by ZEFSAII (Michael W. Deem and Ramdas Pophale) SiO2 
 PCOD9197566
Probable space group: C 2/M
;
_chemical_formula_sum "Si O2"
_cell_formula_units_Z 56
_cell_length_a 13.216556
_cell_length_b 25.192826
_cell_length_c 9.243262
_cell_angle_alpha 90.000000
_cell_angle_beta 73.564336
_cell_angle_gamma 90.000000
_cell_volume 2951.899506
_symmetry_space_group_name_H-M "C 2/M"
_symmetry_group_IT_number 12
_symmetry_cell_setting 'monoclinic'
loop_
_space_group_symop_operation_xyz
x,y,z
-x,y,-z
-x,-y,-z
x,-y,z
1/2+x,1/2+y,z
1/2-x,1/2+y,-z
1/2-x,1/2-y,-z
1/2+x,1/2-y,z
loop_
_atom_site_type_symbol
_atom_site_label
_atom_site_fract_x
_atom_site_fract_y
_atom_site_fract_z
Si Si1 0.290431 0.562398 0.732731
Si Si2 0.010603 0.249828 0.666823
Si Si3 0.777640 0.720678 0.278326
Si Si4 0.843313 0.327979 0.747169
Si Si5 0.987498 0.864707 0.679994
Si Si6 0.127227 0.630536 0.962250
Si Si7 0.718888 0.367721 0.534230
O O1 0.306605 0.500000 0.735304
O O2 0.394585 0.594069 0.748785
O O3 0.188092 0.582531 0.860022
O O4 0.273568 0.581617 0.573494
O O5 0.961563 0.306543 0.722415
O O6 0.000000 0.246533 0.500000
O O7 0.129468 0.252039 0.669312
O O8 0.960421 0.194825 0.744326
O O9 0.714572 0.770411 0.238750
O O10 0.830883 0.683591 0.136202
O O11 0.719893 0.680715 0.414896
O O12 0.811991 0.356366 0.610464
O O13 0.828198 0.363950 0.892891
O O14 0.110334 0.873065 0.669865
O O15 0.000000 0.865704 0.500000
O O16 0.000000 0.626486 0.000000
#
# Coordination Sequence:
#
# PCOD9197566 Si02
#       7
#     8   8   8   8   8   8   8
#     4  10  23  44  64  81 111 150 197 258 300 334
#     4  11  18  29  56  89 128 163 181 226 280 346
#     4  11  20  35  55  90 129 163 189 219 283 345
#     4  12  21  34  55  86 128 158 187 236 279 342
#     4   9  18  33  56  90 116 147 195 225 283 352
#     4  11  24  40  57  85 116 159 203 233 282 355
#     4  10  20  35  60  91 116 149 192 237 286 349
#
# _framework density 18.970835999999998
#
# number of rings (size 3 to 8) (size 9 to 14) (size 15 to 20)
#    0.000    1.429    4.286    4.286    0.000    2.857 
#    0.000    1.429    0.000    1.714    0.000    0.000 
#    0.000    0.000    0.000    0.000    0.000    0.000 
#
# Total GULP energy -155984.732171 kJ/mol
# GULP energy per Si atom -5570.883292 kJ/mol
# Density = 1.892766 g / cm^3
# Si number density = 18.970836 Si / 1000 Ang^3
#
#
#
# Elastic Constant Matrix: (Units=GPa)
#
#
# Indices 1 2 3 4 5 6 
#
# 1 82.4626 28.2532 28.0631 0.0000 -5.9629 0.0000
# 2 28.2532 104.4681 23.9760 0.0000 -7.3378 0.0000
# 3 28.0631 23.9760 53.7912 0.0000 -0.9823 0.0000
# 4 0.0000 0.0000 0.0000 10.0831 0.0000 2.1859
# 5 -5.9629 -7.3378 -0.9823 0.0000 26.5196 0.0000
# 6 0.0000 0.0000 0.0000 2.1859 0.0000 12.1703
#
#
#
# Elastic Compliance Matrix: (Units=1/GPa)
#
#
# Indices 1 2 3 4 5 6 
#
# 1 0.015511 -0.002416 -0.006969 0.000000 0.002561 0.000000
# 2 -0.002416 0.011248 -0.003709 0.000000 0.002432 0.000000
# 3 -0.006969 -0.003709 0.023848 0.000000 -0.001710 0.000000
# 4 0.000000 0.000000 0.000000 0.103194 0.000000 -0.018535
# 5 0.002561 0.002432 -0.001710 0.000000 0.038893 0.000000
# 6 0.000000 0.000000 0.000000 -0.018535 0.000000 0.085496
#
#
# Mechanical properties :
#
#
# Convention : Reuss Voigt Hill
#
# Bulk Modulus (GPa) = 40.94932 44.58959 42.76946
# Shear Modulus (GPa) = 15.99916 20.44991 18.22454
#
# Velocity S-wave (km/s) = 2.90721 3.28680 3.10282
# Velocity P-wave (km/s) = 5.73598 6.16112 5.95234
#
# Compressibility (1/GPa) = 0.02442043
#
# Stress axis : x y z
#
# Youngs Moduli (GPa) = 64.46992 88.90817 41.93265
#
# Poissons Ratio (x) = 0.21478 0.29222
# Poissons Ratio (y) = 0.15574 0.15551
# Poissons Ratio (z) = 0.44927 0.32973
#
# Static dielectric constant tensor:
#      x y z
#    x 1.758740 0.000000 -0.036920 
#    y 0.000000 1.669380 0.000000 
#    z -0.036920 0.000000 1.697750 
# 
# From -- ./inp_files/65317.got.cif
#   From: 2010.05.17/outbox.cif.g08.bks.cpg/sg12_33_cif.got.tgz:65317.got - 2010.06.03 13:09:07.
