data_PCOD9197399
_publ_section_title
;
Structure prediction by ZEFSAII (Michael W. Deem and Ramdas Pophale) SiO2 
 PCOD9197399
Probable space group: C 2/M
;
_chemical_formula_sum "Si O2"
_cell_formula_units_Z 40
_cell_length_a 9.264506
_cell_length_b 19.779532
_cell_length_c 10.066246
_cell_angle_alpha 90.000000
_cell_angle_beta 88.523151
_cell_angle_gamma 90.000000
_cell_volume 1844.002605
_symmetry_space_group_name_H-M "C 2/M"
_symmetry_group_IT_number 12
_symmetry_cell_setting 'monoclinic'
loop_
_space_group_symop_operation_xyz
x,y,z
-x,y,-z
-x,-y,-z
x,-y,z
1/2+x,1/2+y,z
1/2-x,1/2+y,-z
1/2-x,1/2-y,-z
1/2+x,1/2-y,z
loop_
_atom_site_type_symbol
_atom_site_label
_atom_site_fract_x
_atom_site_fract_y
_atom_site_fract_z
Si Si1 0.115955 0.330798 0.217709
Si Si2 0.833585 0.320661 0.495858
Si Si3 0.865975 0.578437 0.247820
Si Si4 0.439654 0.573307 0.851625
Si Si5 0.071831 0.207203 0.853233
O O1 0.185203 0.351883 0.357405
O O2 0.255614 0.301176 0.138973
O O3 0.014554 0.393591 0.181283
O O4 0.995409 0.270905 0.221180
O O5 0.750000 0.250000 0.500000
O O6 0.821277 0.373909 0.375232
O O7 0.000000 0.301419 0.500000
O O8 0.881731 0.500000 0.287467
O O9 0.732318 0.582927 0.149512
O O10 0.471030 0.500000 0.788621
O O11 0.512164 0.638839 0.787746
O O12 0.500000 0.571107 0.000000
O O13 0.000000 0.212307 0.000000
#
# Coordination Sequence:
#
# PCOD9197399 Si02
#       5
#     8   8   8   8   8
#     4  11  22  36  60  89 121 163 206 252 308 372
#     4  10  20  35  59  89 123 160 203 252 301 364
#     4  10  22  40  62  91 127 165 207 255 309 369
#     4   9  19  38  61  84 117 160 203 253 309 364
#     4  11  22  38  60  89 125 161 207 262 314 370
#
# _framework density 21.691942999999998
#
# number of rings (size 3 to 8) (size 9 to 14) (size 15 to 20)
#    0.000    1.800    0.000    5.400    0.000    6.000 
#    0.000    0.000    0.000   14.400    0.000    0.000 
#    0.000    0.000    0.000    0.000    0.000    0.400 
#
# Total GULP energy -111353.562879 kJ/mol
# GULP energy per Si atom -5567.678144 kJ/mol
# Density = 2.164257 g / cm^3
# Si number density = 21.691943 Si / 1000 Ang^3
#
#
#
# Elastic Constant Matrix: (Units=GPa)
#
#
# Indices 1 2 3 4 5 6 
#
# 1 156.7313 59.6208 46.0605 0.0000 6.6999 0.0000
# 2 59.6208 143.0855 13.1508 0.0000 10.7574 0.0000
# 3 46.0605 13.1508 79.6453 0.0000 3.1204 0.0000
# 4 0.0000 0.0000 0.0000 21.8884 0.0000 0.1794
# 5 6.6999 10.7574 3.1204 0.0000 32.3678 0.0000
# 6 0.0000 0.0000 0.0000 0.1794 0.0000 36.9763
#
#
#
# Elastic Compliance Matrix: (Units=1/GPa)
#
#
# Indices 1 2 3 4 5 6 
#
# 1 0.009021 -0.003307 -0.004658 0.000000 -0.000319 0.000000
# 2 -0.003307 0.008476 0.000599 0.000000 -0.002190 0.000000
# 3 -0.004658 0.000599 0.015178 0.000000 -0.000698 0.000000
# 4 0.000000 0.000000 0.000000 0.045688 0.000000 -0.000222
# 5 -0.000319 -0.002190 -0.000698 0.000000 0.031756 0.000000
# 6 0.000000 0.000000 0.000000 -0.000222 0.000000 0.027045
#
#
# Mechanical properties :
#
#
# Convention : Reuss Voigt Hill
#
# Bulk Modulus (GPa) = 55.73426 68.56959 62.15192
# Shear Modulus (GPa) = 31.66977 35.62182 33.64580
#
# Velocity S-wave (km/s) = 3.82511 4.05676 3.94264
# Velocity P-wave (km/s) = 6.72740 7.32273 7.03137
#
# Compressibility (1/GPa) = 0.01794229
#
# Stress axis : x y z
#
# Youngs Moduli (GPa) = 110.85372 117.97578 65.88363
#
# Poissons Ratio (x) = 0.39011 0.30692
# Poissons Ratio (y) = 0.36656 -0.03943
# Poissons Ratio (z) = 0.51641 -0.07061
#
# Static dielectric constant tensor:
#      x y z
#    x 1.769900 0.000000 0.009090 
#    y 0.000000 1.876230 0.000000 
#    z 0.009090 0.000000 1.886180 
# 
# From -- ./inp_files/120265.got.cif
#   From: 2010.05.17/outbox.cif.g08.bks.cpg/sg12_61_cif.got.tgz:120265.got - 2010.06.03 13:09:07.
