data_PCOD9197884
_publ_section_title
;
Structure prediction by ZEFSAII (Michael W. Deem and Ramdas Pophale) SiO2 
 PCOD9197884
Probable space group: C 2/M
;
_chemical_formula_sum "Si O2"
_cell_formula_units_Z 40
_cell_length_a 14.381637
_cell_length_b 27.477703
_cell_length_c 7.735743
_cell_angle_alpha 90.000000
_cell_angle_beta 42.051536
_cell_angle_gamma 90.000000
_cell_volume 2047.552892
_symmetry_space_group_name_H-M "C 2/M"
_symmetry_group_IT_number 12
_symmetry_cell_setting 'monoclinic'
loop_
_space_group_symop_operation_xyz
x,y,z
-x,y,-z
-x,-y,-z
x,-y,z
1/2+x,1/2+y,z
1/2-x,1/2+y,-z
1/2-x,1/2-y,-z
1/2+x,1/2-y,z
loop_
_atom_site_type_symbol
_atom_site_label
_atom_site_fract_x
_atom_site_fract_y
_atom_site_fract_z
Si Si1 0.500000 0.196889 0.500000
Si Si2 0.124166 0.945121 0.466151
Si Si3 0.500000 0.415112 0.000000
Si Si4 0.868598 0.739951 0.976335
Si Si5 0.340061 0.138846 0.213903
Si Si6 0.224086 0.837655 0.751660
O O1 0.501230 0.230554 0.669863
O O2 0.639318 0.165013 0.315490
O O3 0.238904 0.903140 0.284334
O O4 0.000000 0.937387 0.500000
O O5 0.178280 0.000000 0.363024
O O6 0.069087 0.942175 0.741461
O O7 0.384716 0.380571 0.069098
O O8 0.750000 0.750000 0.000000
O O9 0.841617 0.689527 0.108689
O O10 0.857140 0.786634 0.113657
O O11 0.283404 0.152929 0.480225
O O12 0.500000 0.121975 0.000000
#
# Coordination Sequence:
#
# PCOD9197884 Si02
#       6
#     4   8   4   8   8   8
#     4  10  20  36  54  80 121 168 203 244 290 348
#     4  10  24  44  66  91 121 158 206 264 321 373
#     4  10  23  38  66  92 122 158 205 256 310 374
#     4  10  22  35  54  85 125 165 197 240 290 365
#     4  11  22  40  63  87 121 162 206 259 301 361
#     4  10  22  37  56  88 123 165 201 245 293 364
#
# _framework density 19.535516000000001
#
# number of rings (size 3 to 8) (size 9 to 14) (size 15 to 20)
#    0.000    1.800    2.000    0.900    7.000    6.800 
#    1.800    0.000    0.000    0.000    0.000   11.200 
#    0.000    0.000    0.000    0.000    0.000    0.000 
#
# Total GULP energy -111521.807029 kJ/mol
# GULP energy per Si atom -5576.090351 kJ/mol
# Density = 1.949105 g / cm^3
# Si number density = 19.535516 Si / 1000 Ang^3
#
#
#
# Elastic Constant Matrix: (Units=GPa)
#
#
# Indices 1 2 3 4 5 6 
#
# 1 75.0253 39.0671 5.8191 0.0000 -17.6202 0.0000
# 2 39.0671 116.5505 27.9617 0.0000 -7.0831 0.0000
# 3 5.8191 27.9617 53.9922 0.0000 1.0118 0.0000
# 4 0.0000 0.0000 0.0000 -9.3184 0.0000 3.9214
# 5 -17.6202 -7.0831 1.0118 0.0000 32.9441 0.0000
# 6 0.0000 0.0000 0.0000 3.9214 0.0000 28.4367
#
#
#
# Elastic Compliance Matrix: (Units=1/GPa)
#
#
# Indices 1 2 3 4 5 6 
#
# 1 0.018291 -0.005827 0.000887 0.000000 0.008503 0.000000
# 2 -0.005827 0.011825 -0.005488 0.000000 -0.000406 0.000000
# 3 0.000887 -0.005488 0.021293 0.000000 -0.001360 0.000000
# 4 0.000000 0.000000 0.000000 -0.101428 0.000000 0.013987
# 5 0.008503 -0.000406 -0.001360 0.000000 0.034857 0.000000
# 6 0.000000 0.000000 0.000000 0.013987 0.000000 0.033237
#
#
# Mechanical properties :
#
#
# Convention : Reuss Voigt Hill
#
# Bulk Modulus (GPa) = 32.73011 43.47374 38.10193
# Shear Modulus (GPa) = 101.79730 21.92716 61.86223
#
# Velocity S-wave (km/s) = 7.22648 3.35390 5.63341
# Velocity P-wave (km/s) = 9.29623 6.10739 7.86511
#
# Compressibility (1/GPa) = 0.03055290
#
# Stress axis : x y z
#
# Youngs Moduli (GPa) = 54.67058 84.56434 46.96279
#
# Poissons Ratio (x) = 0.49278 -0.04166
# Poissons Ratio (y) = 0.31858 0.25775
# Poissons Ratio (z) = -0.04850 0.46413
#
# Static dielectric constant tensor:
#      x y z
#    x 1.739830 0.000000 0.032060 
#    y 0.000000 1.689580 0.000000 
#    z 0.032060 0.000000 1.679760 
# 
# From -- ./inp_files/65133.got.cif
#   From: 2010.05.17/outbox.cif.g08.bks.cpg/sg12_33_cif.got.tgz:65133.got - 2010.06.03 13:09:07.
