data_PCOD9197765
_publ_section_title
;
Structure prediction by ZEFSAII (Michael W. Deem and Ramdas Pophale) SiO2 
 PCOD9197765
Probable space group: C 2/M
;
_chemical_formula_sum "Si O2"
_cell_formula_units_Z 64
_cell_length_a 9.888867
_cell_length_b 17.361441
_cell_length_c 16.989289
_cell_angle_alpha 90.000000
_cell_angle_beta 96.750177
_cell_angle_gamma 90.000000
_cell_volume 2896.586735
_symmetry_space_group_name_H-M "C 2/M"
_symmetry_group_IT_number 12
_symmetry_cell_setting 'monoclinic'
loop_
_space_group_symop_operation_xyz
x,y,z
-x,y,-z
-x,-y,-z
x,-y,z
1/2+x,1/2+y,z
1/2-x,1/2+y,-z
1/2-x,1/2-y,-z
1/2+x,1/2-y,z
loop_
_atom_site_type_symbol
_atom_site_label
_atom_site_fract_x
_atom_site_fract_y
_atom_site_fract_z
Si Si1 0.628743 0.085813 0.108649
Si Si2 0.800429 0.671020 0.745401
Si Si3 0.643118 0.906721 0.408149
Si Si4 0.464382 0.284454 0.183123
Si Si5 0.835675 0.910140 0.746066
Si Si6 0.684011 0.090808 0.889710
Si Si7 0.366286 0.343184 0.021019
Si Si8 0.824980 0.406909 0.411354
O O1 0.675461 0.094190 0.201601
O O2 0.469927 0.106106 0.094770
O O3 0.742738 0.129636 0.067712
O O4 0.636698 0.000000 0.080122
O O5 0.790365 0.644325 0.655365
O O6 0.672124 0.714665 0.774447
O O7 0.931435 0.721704 0.777272
O O8 0.480589 0.889768 0.397711
O O9 0.695668 0.885922 0.499101
O O10 0.659471 0.000000 0.398408
O O11 0.539151 0.365259 0.207315
O O12 0.436096 0.282558 0.086494
O O13 0.709542 0.905310 0.798401
O O14 0.783755 0.877257 0.659352
O O15 0.871348 0.000000 0.740243
O O16 0.780685 0.155879 0.934387
O O17 0.717517 0.000000 0.912255
O O18 0.500000 0.389617 0.000000
O O19 0.816390 0.500000 0.407682
#
# Coordination Sequence:
#
# PCOD9197765 Si02
#       8
#     8   8   8   8   8   8   8   8
#     4  10  22  39  63  96 124 157 209 262 316 374
#     4  11  25  43  63  87 125 173 208 261 314 372
#     4   9  17  35  67 101 130 162 207 253 309 371
#     4  11  27  44  62  89 125 167 217 263 310 377
#     4  10  20  37  65  94 125 163 205 259 318 368
#     4  10  20  35  63  95 124 160 202 257 315 370
#     4  11  22  40  60  88 123 163 204 261 318 362
#     4   8  16  32  63 105 133 158 198 255 313 374
#
# _framework density 22.094971000000001
#
# number of rings (size 3 to 8) (size 9 to 14) (size 15 to 20)
#    0.000    2.000    1.250    2.625    3.500    7.000 
#    0.000    6.875    0.000    2.250    0.000    0.000 
#    0.000    0.000    0.000    0.000    0.000    0.000 
#
# Total GULP energy -178351.750705 kJ/mol
# GULP energy per Si atom -5573.492210 kJ/mol
# Density = 2.204468 g / cm^3
# Si number density = 22.094971 Si / 1000 Ang^3
#
#
#
# Elastic Constant Matrix: (Units=GPa)
#
#
# Indices 1 2 3 4 5 6 
#
# 1 92.2312 17.0955 17.4306 0.0000 -7.6796 0.0000
# 2 17.0955 60.2236 24.3533 0.0000 4.4069 0.0000
# 3 17.4306 24.3533 127.4174 0.0000 2.9439 0.0000
# 4 0.0000 0.0000 0.0000 -4.4874 0.0000 -0.7789
# 5 -7.6796 4.4069 2.9439 0.0000 30.6844 0.0000
# 6 0.0000 0.0000 0.0000 -0.7789 0.0000 11.5381
#
#
#
# Elastic Compliance Matrix: (Units=1/GPa)
#
#
# Indices 1 2 3 4 5 6 
#
# 1 0.011941 -0.003203 -0.001103 0.000000 0.003554 0.000000
# 2 -0.003203 0.019013 -0.003121 0.000000 -0.003233 0.000000
# 3 -0.001103 -0.003121 0.008611 0.000000 -0.000654 0.000000
# 4 0.000000 0.000000 0.000000 -0.220267 0.000000 -0.014870
# 5 0.003554 -0.003233 -0.000654 0.000000 0.034007 0.000000
# 6 0.000000 0.000000 0.000000 -0.014870 0.000000 0.085665
#
#
# Mechanical properties :
#
#
# Convention : Reuss Voigt Hill
#
# Bulk Modulus (GPa) = 40.47172 44.18122 42.32647
# Shear Modulus (GPa) = -131.79084 22.27987 -54.75548
#
# Velocity S-wave (km/s) = -7.73155 3.17893 -4.98354
# Velocity P-wave (km/s) = 7.83235 5.78909 3.73042
#
# Compressibility (1/GPa) = 0.02470861
#
# Stress axis : x y z
#
# Youngs Moduli (GPa) = 83.74816 52.59614 116.13351
#
# Poissons Ratio (x) = 0.16849 0.12813
# Poissons Ratio (y) = 0.26829 0.36245
# Poissons Ratio (z) = 0.09240 0.16415
#
# Static dielectric constant tensor:
#      x y z
#    x 1.815780 0.000000 0.013410 
#    y 0.000000 1.878840 0.000000 
#    z 0.013410 0.000000 1.851760 
# 
# From -- ./inp_files/258082.got.cif
#   From: 2010.05.17/outbox.cif.g08.bks.cpg/sg12_130_cif.got.tgz:258082.got - 2010.06.03 13:09:07.
