data_PCOD9197148
_publ_section_title
;
Structure prediction by ZEFSAII (Michael W. Deem and Ramdas Pophale) SiO2 
 PCOD9197148
Probable space group: C 2/M
;
_chemical_formula_sum "Si O2"
_cell_formula_units_Z 64
_cell_length_a 29.691572
_cell_length_b 8.469215
_cell_length_c 15.759536
_cell_angle_alpha 90.000000
_cell_angle_beta 53.299128
_cell_angle_gamma 90.000000
_cell_volume 3177.369402
_symmetry_space_group_name_H-M "C 2/M"
_symmetry_group_IT_number 12
_symmetry_cell_setting 'monoclinic'
loop_
_space_group_symop_operation_xyz
x,y,z
-x,y,-z
-x,-y,-z
x,-y,z
1/2+x,1/2+y,z
1/2-x,1/2+y,-z
1/2-x,1/2-y,-z
1/2+x,1/2-y,z
loop_
_atom_site_type_symbol
_atom_site_label
_atom_site_fract_x
_atom_site_fract_y
_atom_site_fract_z
Si Si1 0.740566 0.187126 0.416580
Si Si2 0.584426 0.811265 0.182002
Si Si3 0.033584 0.190317 0.740366
Si Si4 0.180538 0.806535 0.825180
Si Si5 0.620547 0.312287 0.498477
Si Si6 0.437023 0.810047 0.598716
Si Si7 0.060463 0.192049 0.898023
Si Si8 0.296089 0.312170 0.014176
O O1 0.750000 0.250000 0.500000
O O2 0.784110 0.247198 0.296255
O O3 0.678218 0.231086 0.458419
O O4 0.747457 0.000000 0.411529
O O5 0.528952 0.758455 0.194226
O O6 0.574251 0.765696 0.291714
O O7 0.641425 0.733485 0.085680
O O8 0.589992 0.000000 0.171300
O O9 0.070760 0.241932 0.618117
O O10 0.063404 0.233496 0.795176
O O11 0.029028 0.000000 0.743199
O O12 0.115657 0.755361 0.886709
O O13 0.180590 0.000000 0.825669
O O14 0.207646 0.754639 0.883799
O O15 0.626244 0.500000 0.502533
O O16 0.604260 0.269851 0.421310
O O17 0.500000 0.766299 0.500000
O O18 0.431749 0.000000 0.597576
O O19 0.059983 0.000000 0.903806
O O20 0.000000 0.247433 0.000000
O O21 0.290396 0.500000 0.022061
O O22 0.250000 0.250000 0.000000
#
# Coordination Sequence:
#
# PCOD9197148 Si02
#       8
#     8   8   8   8   8   8   8   8
#     4  11  23  41  64  90 124 166 209 253 306 369
#     4  11  23  39  61  87 121 160 203 252 307 366
#     4  10  20  35  58  88 120 152 193 246 300 363
#     4   9  20  39  62  87 120 161 205 249 302 368
#     4  11  23  37  58  89 122 156 203 256 309 365
#     4  10  21  39  60  85 120 164 205 247 306 375
#     4   9  16  30  57  87 111 142 189 240 290 351
#     4  11  24  43  65  90 120 161 210 259 310 365
#
# _framework density 20.142448999999999
#
# number of rings (size 3 to 8) (size 9 to 14) (size 15 to 20)
#    0.000    1.750    1.250    3.000    1.750    5.750 
#    0.000    1.875    0.000    4.125    0.000    0.000 
#    0.000    0.000    0.000    0.000    0.000    0.000 
#
# Total GULP energy -178814.084726 kJ/mol
# GULP energy per Si atom -5587.940148 kJ/mol
# Density = 2.009660 g / cm^3
# Si number density = 20.142449 Si / 1000 Ang^3
#
#
#
# Elastic Constant Matrix: (Units=GPa)
#
#
# Indices 1 2 3 4 5 6 
#
# 1 144.1788 23.4535 58.5405 0.0000 9.3451 0.0000
# 2 23.4535 15.8749 17.5250 0.0000 6.0396 -0.0001
# 3 58.5405 17.5250 104.3975 0.0000 5.2306 0.0000
# 4 0.0000 0.0000 0.0000 23.0284 0.0000 -3.1722
# 5 9.3451 6.0396 5.2306 0.0000 36.9754 0.0000
# 6 0.0000 -0.0001 0.0000 -3.1722 0.0000 32.1391
#
#
#
# Elastic Compliance Matrix: (Units=1/GPa)
#
#
# Indices 1 2 3 4 5 6 
#
# 1 0.010313 -0.010750 -0.003964 0.000000 -0.000290 0.000000
# 2 -0.010750 0.093124 -0.009043 0.000000 -0.011215 0.000000
# 3 -0.003964 -0.009043 0.013289 0.000000 0.000599 0.000000
# 4 0.000000 0.000000 0.000000 0.044023 0.000000 0.004345
# 5 -0.000290 -0.011215 0.000599 0.000000 0.028865 0.000000
# 6 0.000000 0.000000 0.000000 0.004345 0.000000 0.031544
#
#
# Mechanical properties :
#
#
# Convention : Reuss Voigt Hill
#
# Bulk Modulus (GPa) = 14.44808 51.49880 32.97344
# Shear Modulus (GPa) = 17.13843 29.42405 23.28124
#
# Velocity S-wave (km/s) = 2.92012 3.82619 3.40344
# Velocity P-wave (km/s) = 4.30790 6.71881 5.64360
#
# Compressibility (1/GPa) = 0.06921336
#
# Stress axis : x y z
#
# Youngs Moduli (GPa) = 96.96802 10.73838 75.24817
#
# Poissons Ratio (x) = 0.11544 0.29826
# Poissons Ratio (y) = 1.04240 0.68044
# Poissons Ratio (z) = 0.38435 0.09710
#
# Static dielectric constant tensor:
#      x y z
#    x 1.619130 0.000000 0.005000 
#    y 0.000000 1.697510 0.000000 
#    z 0.005000 0.000000 1.717990 
# 
# From -- ./inp_files/249841.got.cif
#   From: 2010.05.17/outbox.cif.g08.bks.cpg/sg12_125_cif.got.tgz:249841.got - 2010.06.03 13:09:07.
