data_PCOD9197888
_publ_section_title
;
Structure prediction by ZEFSAII (Michael W. Deem and Ramdas Pophale) SiO2 
 PCOD9197888
Probable space group: C 2/M
;
_chemical_formula_sum "Si O2"
_cell_formula_units_Z 64
_cell_length_a 11.811591
_cell_length_b 33.268230
_cell_length_c 17.596803
_cell_angle_alpha 90.000000
_cell_angle_beta 149.176975
_cell_angle_gamma 90.000000
_cell_volume 3542.997318
_symmetry_space_group_name_H-M "C 2/M"
_symmetry_group_IT_number 12
_symmetry_cell_setting 'monoclinic'
loop_
_space_group_symop_operation_xyz
x,y,z
-x,y,-z
-x,-y,-z
x,-y,z
1/2+x,1/2+y,z
1/2-x,1/2+y,-z
1/2-x,1/2-y,-z
1/2+x,1/2-y,z
loop_
_atom_site_type_symbol
_atom_site_label
_atom_site_fract_x
_atom_site_fract_y
_atom_site_fract_z
Si Si1 0.242130 0.236719 0.870271
Si Si2 0.189625 0.045990 0.427252
Si Si3 0.872285 0.801117 0.348804
Si Si4 0.849651 0.691561 0.079670
Si Si5 0.898913 0.104827 0.358926
Si Si6 0.660658 0.952655 0.775502
Si Si7 0.612423 0.097909 0.900752
Si Si8 0.998439 0.046755 0.841119
O O1 0.105965 0.224410 0.716583
O O2 0.206938 0.281801 0.879714
O O3 0.500000 0.231664 0.000000
O O4 0.212518 0.208607 0.928087
O O5 0.438769 0.051707 0.598331
O O6 0.168775 0.049864 0.325123
O O7 0.027337 0.077383 0.373634
O O8 0.124374 0.000000 0.409902
O O9 0.610942 0.801468 0.216406
O O10 0.935699 0.847474 0.367768
O O11 0.000000 0.788640 0.500000
O O12 0.819640 0.644179 0.070300
O O13 0.636074 0.097098 0.210191
O O14 0.000000 0.095424 0.500000
O O15 0.626112 0.925563 0.829051
O O16 0.870774 0.941977 0.844668
O O17 0.681610 0.000000 0.807688
O O18 0.792065 0.074557 0.054164
O O19 0.065241 0.000000 0.885396
#
# Coordination Sequence:
#
# PCOD9197888 Si02
#       8
#     8   8   8   8   8   8   8   8
#     4   9  18  36  57  78 109 142 179 216 265 330
#     4  10  21  36  57  79 107 149 187 228 275 324
#     4   9  19  34  58  81 105 142 179 222 270 319
#     4   9  20  35  54  82 106 144 180 215 269 330
#     4  10  20  36  54  81 111 143 185 223 272 338
#     4  10  20  37  58  76 106 150 189 223 272 334
#     4  11  21  34  56  84 111 142 181 231 278 320
#     4  10  22  37  53  80 111 144 188 232 275 322
#
# _framework density 18.063801999999999
#
# number of rings (size 3 to 8) (size 9 to 14) (size 15 to 20)
#    0.000    2.250    1.250    1.125    1.750    5.750 
#    0.000    1.250    0.000    0.000    0.000    0.000 
#    0.000    0.000    0.000    0.000    0.000    0.000 
#
# Total GULP energy -178438.796515 kJ/mol
# GULP energy per Si atom -5576.212391 kJ/mol
# Density = 1.802269 g / cm^3
# Si number density = 18.063802 Si / 1000 Ang^3
#
#
#
# Elastic Constant Matrix: (Units=GPa)
#
#
# Indices 1 2 3 4 5 6 
#
# 1 56.6300 29.7686 13.4930 0.0000 -9.3632 0.0000
# 2 29.7686 60.1422 25.8027 0.0000 -2.7646 0.0000
# 3 13.4930 25.8027 82.5686 0.0000 -18.1177 0.0000
# 4 0.0000 0.0000 0.0000 23.5567 0.0000 -0.2049
# 5 -9.3632 -2.7646 -18.1177 0.0000 25.7631 0.0000
# 6 0.0000 0.0000 0.0000 -0.2049 0.0000 44.7966
#
#
#
# Elastic Compliance Matrix: (Units=1/GPa)
#
#
# Indices 1 2 3 4 5 6 
#
# 1 0.025603 -0.013077 0.001935 0.000000 0.009263 0.000000
# 2 -0.013077 0.026024 -0.007598 0.000000 -0.007303 0.000000
# 3 0.001935 -0.007598 0.016726 0.000000 0.011650 0.000000
# 4 0.000000 0.000000 0.000000 0.042452 0.000000 0.000194
# 5 0.009263 -0.007303 0.011650 0.000000 0.049591 0.000000
# 6 0.000000 0.000000 0.000000 0.000194 0.000000 0.022324
#
#
# Mechanical properties :
#
#
# Convention : Reuss Voigt Hill
#
# Bulk Modulus (GPa) = 32.39115 37.49660 34.94388
# Shear Modulus (GPa) = 21.69278 27.50840 24.60059
#
# Velocity S-wave (km/s) = 3.46916 3.90660 3.69436
# Velocity P-wave (km/s) = 5.83242 6.41495 6.13061
#
# Compressibility (1/GPa) = 0.03087263
#
# Stress axis : x y z
#
# Youngs Moduli (GPa) = 39.05762 38.42577 59.78846
#
# Poissons Ratio (x) = 0.50250 -0.11570
# Poissons Ratio (y) = 0.51077 0.45428
# Poissons Ratio (z) = -0.07558 0.29196
#
# Static dielectric constant tensor:
#      x y z
#    x 1.607320 0.000000 -0.023030 
#    y 0.000000 1.604110 0.000000 
#    z -0.023030 0.000000 1.641630 
# 
# From -- ./inp_files/266337.got.cif
#   From: 2010.05.17/outbox.cif.g08.bks.cpg/sg12_134_cif.got.tgz:266337.got - 2010.06.03 13:09:07.
