data_PCOD9197997
_publ_section_title
;
Structure prediction by ZEFSAII (Michael W. Deem and Ramdas Pophale) SiO2 
 PCOD9197997
Probable space group: C 2/M
;
_chemical_formula_sum "Si O2"
_cell_formula_units_Z 56
_cell_length_a 9.709360
_cell_length_b 26.977742
_cell_length_c 14.811952
_cell_angle_alpha 90.000000
_cell_angle_beta 50.137481
_cell_angle_gamma 90.000000
_cell_volume 2978.068970
_symmetry_space_group_name_H-M "C 2/M"
_symmetry_group_IT_number 12
_symmetry_cell_setting 'monoclinic'
loop_
_space_group_symop_operation_xyz
x,y,z
-x,y,-z
-x,-y,-z
x,-y,z
1/2+x,1/2+y,z
1/2-x,1/2+y,-z
1/2-x,1/2-y,-z
1/2+x,1/2-y,z
loop_
_atom_site_type_symbol
_atom_site_label
_atom_site_fract_x
_atom_site_fract_y
_atom_site_fract_z
Si Si1 0.077320 0.557799 0.755512
Si Si2 0.186065 0.080307 0.868032
Si Si3 0.190407 0.618097 0.877747
Si Si4 0.469182 0.556374 0.248643
Si Si5 0.355290 0.304945 0.142152
Si Si6 0.845258 0.059686 0.495399
Si Si7 0.669052 0.275236 0.125685
O O1 0.124965 0.500000 0.756489
O O2 0.169561 0.596211 0.785681
O O3 0.156825 0.570029 0.623106
O O4 0.862968 0.562613 0.845039
O O5 0.204768 0.138828 0.841646
O O6 0.165724 0.056607 0.778168
O O7 0.000000 0.071243 0.000000
O O8 0.360175 0.589772 0.848216
O O9 0.225040 0.676077 0.883982
O O10 0.000000 0.604563 0.000000
O O11 0.530914 0.500000 0.237697
O O12 0.382535 0.576484 0.377851
O O13 0.469193 0.292071 0.183194
O O14 0.196466 0.266804 0.188947
O O15 0.500000 0.298910 0.000000
O O16 0.000000 0.076522 0.500000
O O17 0.857151 0.000000 0.485970
O O18 0.750000 0.250000 0.000000
#
# Coordination Sequence:
#
# PCOD9197997 Si02
#       7
#     8   8   8   8   8   8   8
#     4  11  24  38  58  86 120 164 206 247 292 350
#     4  11  23  38  55  86 130 162 198 240 307 372
#     4  12  23  34  56  88 121 153 200 235 299 376
#     4  11  22  38  60  82 118 166 201 249 302 348
#     4   9  19  33  54  77 112 149 190 237 290 346
#     4   9  18  38  60  81 111 153 215 265 288 331
#     4  10  20  36  55  82 113 153 195 244 289 354
#
# _framework density 18.804130000000001
#
# number of rings (size 3 to 8) (size 9 to 14) (size 15 to 20)
#    0.000    1.571    2.857    3.000    6.000    4.000 
#    0.000    2.143    0.000    0.000    0.000    6.000 
#    0.000    0.000    0.000    0.000    0.000    0.000 
#
# Total GULP energy -156081.314143 kJ/mol
# GULP energy per Si atom -5574.332648 kJ/mol
# Density = 1.876133 g / cm^3
# Si number density = 18.804130 Si / 1000 Ang^3
#
#
#
# Elastic Constant Matrix: (Units=GPa)
#
#
# Indices 1 2 3 4 5 6 
#
# 1 85.5061 23.6920 12.9015 0.0000 8.7875 0.0000
# 2 23.6920 87.8474 22.2213 0.0000 4.9200 0.0000
# 3 12.9015 22.2213 61.0965 0.0000 6.2323 0.0000
# 4 0.0000 0.0000 0.0000 -13.7129 0.0000 15.1847
# 5 8.7875 4.9200 6.2323 0.0000 25.8760 0.0000
# 6 0.0000 0.0000 0.0000 15.1847 0.0000 27.2769
#
#
#
# Elastic Compliance Matrix: (Units=1/GPa)
#
#
# Indices 1 2 3 4 5 6 
#
# 1 0.013090 -0.002999 -0.001310 0.000000 -0.003559 0.000000
# 2 -0.002999 0.013268 -0.004141 0.000000 -0.000507 0.000000
# 3 -0.001310 -0.004141 0.018478 0.000000 -0.003218 0.000000
# 4 0.000000 0.000000 0.000000 -0.045114 0.000000 0.025114
# 5 -0.003559 -0.000507 -0.003218 0.000000 0.040726 0.000000
# 6 0.000000 0.000000 0.000000 0.025114 0.000000 0.022680
#
#
# Mechanical properties :
#
#
# Convention : Reuss Voigt Hill
#
# Bulk Modulus (GPa) = 35.79626 39.11994 37.45810
# Shear Modulus (GPa) = 55.96548 19.59700 37.78124
#
# Velocity S-wave (km/s) = 5.46140 3.23176 4.48727
# Velocity P-wave (km/s) = 7.67118 5.89701 6.84185
#
# Compressibility (1/GPa) = 0.02793588
#
# Stress axis : x y z
#
# Youngs Moduli (GPa) = 76.39637 75.36883 54.11703
#
# Poissons Ratio (x) = 0.22607 0.07090
# Poissons Ratio (y) = 0.22915 0.22408
# Poissons Ratio (z) = 0.10008 0.31207
#
# Static dielectric constant tensor:
#      x y z
#    x 1.698550 0.000000 0.017140 
#    y 0.000000 1.724880 0.000000 
#    z 0.017140 0.000000 1.668870 
# 
# From -- ./inp_files/200854.got.cif
#   From: 2010.05.17/outbox.cif.g08.bks.cpg/sg12_101_cif.got.tgz:200854.got - 2010.06.03 13:09:07.
