data_PCOD9197512
_publ_section_title
;
Structure prediction by ZEFSAII (Michael W. Deem and Ramdas Pophale) SiO2 
 PCOD9197512
Probable space group: C 2/M
;
_chemical_formula_sum "Si O2"
_cell_formula_units_Z 50
_cell_length_a 16.350533
_cell_length_b 9.859517
_cell_length_c 17.819045
_cell_angle_alpha 90.000000
_cell_angle_beta 52.597992
_cell_angle_gamma 90.000000
_cell_volume 2281.957598
_symmetry_space_group_name_H-M "C 2/M"
_symmetry_group_IT_number 12
_symmetry_cell_setting 'monoclinic'
loop_
_space_group_symop_operation_xyz
x,y,z
-x,y,-z
-x,-y,-z
x,-y,z
1/2+x,1/2+y,z
1/2-x,1/2+y,-z
1/2-x,1/2-y,-z
1/2+x,1/2-y,z
loop_
_atom_site_type_symbol
_atom_site_label
_atom_site_fract_x
_atom_site_fract_y
_atom_site_fract_z
Si Si1 0.153200 0.152639 0.547302
Si Si2 0.646385 0.656556 0.793111
Si Si3 0.623523 0.844334 0.946160
Si Si4 0.067802 0.162338 0.280947
Si Si5 0.400902 0.658456 0.900656
Si Si6 0.342485 0.753454 0.611746
Si Si7 0.500000 0.000000 0.500000
O O1 0.250000 0.250000 0.500000
O O2 0.050388 0.209761 0.643551
O O3 0.134452 0.150558 0.468042
O O4 0.173508 0.000000 0.563080
O O5 0.671764 0.500000 0.797202
O O6 0.662127 0.753760 0.855708
O O7 0.525958 0.660182 0.839001
O O8 0.722328 0.707592 0.685969
O O9 0.662211 0.000000 0.925854
O O10 0.500000 0.851611 0.000000
O O11 0.639970 0.762131 0.014121
O O12 0.118408 0.204598 0.174084
O O13 0.124976 0.203086 0.324389
O O14 0.062086 0.000000 0.280262
O O15 0.369652 0.500000 0.929930
O O16 0.410853 0.883023 0.555643
#
# Coordination Sequence:
#
# PCOD9197512 Si02
#       7
#     8   8   8   8   8   8   2
#     4  11  24  39  61  87 118 154 200 251 300 355
#     4  10  20  35  60  87 115 152 199 242 288 353
#     4   9  18  34  56  86 121 150 185 241 300 350
#     4  10  21  39  59  82 114 156 197 243 296 359
#     4   9  18  36  60  86 113 151 195 240 290 350
#     4  12  23  40  60  87 120 160 201 245 300 354
#     4  12  24  40  62  84 126 164 198 252 296 360
#
# _framework density 21.911010999999998
#
# number of rings (size 3 to 8) (size 9 to 14) (size 15 to 20)
#    0.000    1.760    2.400    1.920    1.120    5.760 
#    1.440    4.000    0.000    0.000    0.000    0.000 
#    0.000    0.000    0.000    0.000    0.000    0.000 
#
# Total GULP energy -139473.119956 kJ/mol
# GULP energy per Si atom -5578.924798 kJ/mol
# Density = 2.186114 g / cm^3
# Si number density = 21.911011 Si / 1000 Ang^3
#
#
#
# Elastic Constant Matrix: (Units=GPa)
#
#
# Indices 1 2 3 4 5 6 
#
# 1 60.3147 0.2477 12.3626 0.0000 11.4356 0.0000
# 2 0.2477 65.3950 42.8333 0.0000 18.5401 0.0000
# 3 12.3626 42.8333 92.0557 0.0000 7.1678 0.0000
# 4 0.0000 0.0000 0.0000 -271.8991 0.0000 -242.7758
# 5 11.4356 18.5401 7.1678 0.0000 44.4848 0.0000
# 6 0.0000 0.0000 0.0000 -242.7758 0.0000 -229.6440
#
#
#
# Elastic Compliance Matrix: (Units=1/GPa)
#
#
# Indices 1 2 3 4 5 6 
#
# 1 0.018490 0.004199 -0.003980 0.000000 -0.005862 0.000000
# 2 0.004199 0.025828 -0.011808 0.000000 -0.009941 0.000000
# 3 -0.003980 -0.011808 0.016637 0.000000 0.003264 0.000000
# 4 0.000000 0.000000 0.000000 -0.065615 0.000000 0.069367
# 5 -0.005862 -0.009941 0.003264 0.000000 0.027604 0.000000
# 6 0.000000 0.000000 0.000000 0.069367 0.000000 -0.077688
#
#
# Mechanical properties :
#
#
# Convention : Reuss Voigt Hill
#
# Bulk Modulus (GPa) = 26.47093 36.51694 31.49394
# Shear Modulus (GPa) = -263.53658 -80.59019 -172.06339
#
# Velocity S-wave (km/s) = -10.97893 -6.07129 -8.87123
# Velocity P-wave (km/s) = 12.19051 5.69607 9.51456
#
# Compressibility (1/GPa) = 0.03777728
#
# Stress axis : x y z
#
# Youngs Moduli (GPa) = 54.08409 38.71741 60.10529
#
# Poissons Ratio (x) = -0.16257 0.23924
# Poissons Ratio (y) = -0.22710 0.70970
# Poissons Ratio (z) = 0.21528 0.45716
#
# Static dielectric constant tensor:
#      x y z
#    x 1.884870 0.000000 0.024000 
#    y 0.000000 1.743830 0.000000 
#    z 0.024000 0.000000 1.803500 
# 
# From -- ./inp_files/274942.got.cif
#   From: 2010.05.17/outbox.cif.g08.bks.cpg/sg12_138_cif.got.tgz:274942.got - 2010.06.03 13:09:07.
