data_PCOD9197240
_publ_section_title
;
Structure prediction by ZEFSAII (Michael W. Deem and Ramdas Pophale) SiO2 
 PCOD9197240
Probable space group: C 2/M
;
_chemical_formula_sum "Si O2"
_cell_formula_units_Z 40
_cell_length_a 11.080405
_cell_length_b 15.576614
_cell_length_c 13.956293
_cell_angle_alpha 90.000000
_cell_angle_beta 41.777570
_cell_angle_gamma 90.000000
_cell_volume 1604.833029
_symmetry_space_group_name_H-M "C 2/M"
_symmetry_group_IT_number 12
_symmetry_cell_setting 'monoclinic'
loop_
_space_group_symop_operation_xyz
x,y,z
-x,y,-z
-x,-y,-z
x,-y,z
1/2+x,1/2+y,z
1/2-x,1/2+y,-z
1/2-x,1/2-y,-z
1/2+x,1/2-y,z
loop_
_atom_site_type_symbol
_atom_site_label
_atom_site_fract_x
_atom_site_fract_y
_atom_site_fract_z
Si Si1 0.657923 0.000000 0.233835
Si Si2 0.738651 0.500000 0.517957
Si Si3 0.315083 0.500000 0.926393
Si Si4 0.712348 0.852236 0.357462
Si Si5 0.743389 0.830804 0.938931
Si Si6 0.166604 0.000000 0.310697
Si Si7 0.663129 0.828316 0.773383
O O1 0.440586 0.000000 0.355879
O O2 0.716806 0.085037 0.260170
O O3 0.731063 0.000000 0.082942
O O4 0.738771 0.415276 0.584602
O O5 0.546713 0.500000 0.579208
O O6 0.387258 0.403301 0.881452
O O7 0.249195 0.500000 0.850487
O O8 0.500000 0.828905 0.500000
O O9 0.819770 0.761542 0.291832
O O10 0.539623 0.862401 0.085187
O O11 0.750000 0.750000 0.000000
O O12 0.749688 0.806240 0.825327
O O13 0.230949 0.912445 0.322299
#
# Coordination Sequence:
#
# PCOD9197240 Si02
#       7
#     4   4   4   8   8   4   8
#     4   9  18  39  59  85 117 153 199 249 295 344
#     4   9  20  39  63  84 116 160 200 239 294 360
#     4  10  20  35  59  82 115 154 193 241 293 347
#     4   9  19  38  60  83 116 155 197 248 295 341
#     4  10  21  36  57  85 118 154 193 236 296 355
#     4  10  22  39  58  88 121 157 195 238 297 353
#     4  10  21  37  57  83 122 153 191 246 292 342
#
# _framework density 24.924713000000001
#
# number of rings (size 3 to 8) (size 9 to 14) (size 15 to 20)
#    0.000    2.400    0.000    3.000    5.600    2.400 
#    3.600    3.500    0.000    0.000    0.000    0.000 
#    0.000    0.000    0.000    0.000    0.000    0.000 
#
# Total GULP energy -111568.325399 kJ/mol
# GULP energy per Si atom -5578.416270 kJ/mol
# Density = 2.486798 g / cm^3
# Si number density = 24.924713 Si / 1000 Ang^3
#
#
#
# Elastic Constant Matrix: (Units=GPa)
#
#
# Indices 1 2 3 4 5 6 
#
# 1 63.2859 13.5903 4.5198 -0.0004 -8.7962 0.0002
# 2 13.5903 145.1281 -12.9397 -0.0006 -2.3612 0.0003
# 3 4.5198 -12.9397 86.2738 -0.0004 -6.7691 0.0003
# 4 -0.0004 -0.0006 -0.0004 36.6002 0.0003 -5.1712
# 5 -8.7962 -2.3612 -6.7691 0.0003 38.4226 -0.0003
# 6 0.0002 0.0003 0.0003 -5.1712 -0.0003 20.7728
#
#
#
# Elastic Compliance Matrix: (Units=1/GPa)
#
#
# Indices 1 2 3 4 5 6 
#
# 1 0.016697 -0.001579 -0.000831 0.000000 0.003579 0.000000
# 2 -0.001579 0.007148 0.001177 0.000000 0.000285 0.000000
# 3 -0.000831 0.001177 0.011967 0.000000 0.001990 0.000000
# 4 0.000000 0.000000 0.000000 0.028318 0.000000 0.007050
# 5 0.003579 0.000285 0.001990 0.000000 0.027214 0.000000
# 6 0.000000 0.000000 0.000000 0.007050 0.000000 0.049895
#
#
# Mechanical properties :
#
#
# Convention : Reuss Voigt Hill
#
# Bulk Modulus (GPa) = 29.98824 33.89205 31.94015
# Shear Modulus (GPa) = 32.29535 38.46030 35.37783
#
# Velocity S-wave (km/s) = 3.60351 3.93244 3.77156
# Velocity P-wave (km/s) = 5.41954 5.85201 5.63992
#
# Compressibility (1/GPa) = 0.03334640
#
# Stress axis : x y z
#
# Youngs Moduli (GPa) = 59.88998 139.89994 83.56128
#
# Poissons Ratio (x) = 0.22096 0.06942
# Poissons Ratio (y) = 0.09459 -0.09837
# Poissons Ratio (z) = 0.04976 -0.16469
#
# Static dielectric constant tensor:
#      x y z
#    x 2.028390 0.000000 -0.033710 
#    y 0.000000 1.991730 0.000000 
#    z -0.033710 0.000000 2.100020 
# 
# From -- ./inp_files/96109.got.cif
#   From: 2010.05.17/outbox.cif.g08.bks.cpg/sg12_49_cif.got.tgz:96109.got - 2010.06.03 13:09:07.
