data_PCOD9197449
_publ_section_title
;
Structure prediction by ZEFSAII (Michael W. Deem and Ramdas Pophale) SiO2 
 PCOD9197449
Probable space group: C 2/M
;
_chemical_formula_sum "Si O2"
_cell_formula_units_Z 44
_cell_length_a 18.510803
_cell_length_b 16.716829
_cell_length_c 18.923603
_cell_angle_alpha 90.000000
_cell_angle_beta 157.483605
_cell_angle_gamma 90.000000
_cell_volume 2242.448849
_symmetry_space_group_name_H-M "C 2/M"
_symmetry_group_IT_number 12
_symmetry_cell_setting 'monoclinic'
loop_
_space_group_symop_operation_xyz
x,y,z
-x,y,-z
-x,-y,-z
x,-y,z
1/2+x,1/2+y,z
1/2-x,1/2+y,-z
1/2-x,1/2-y,-z
1/2+x,1/2-y,z
loop_
_atom_site_type_symbol
_atom_site_label
_atom_site_fract_x
_atom_site_fract_y
_atom_site_fract_z
Si Si1 0.545994 0.147400 0.293092
Si Si2 0.000000 0.250116 0.000000
Si Si3 0.785521 0.911121 0.097816
Si Si4 0.735322 0.245745 0.340197
Si Si5 0.853332 0.750128 0.238981
Si Si6 0.856049 0.089590 0.680500
O O1 0.668394 0.202914 0.351590
O O2 0.416490 0.202307 0.226441
O O3 0.685410 0.099596 0.470203
O O4 0.408934 0.095956 0.120597
O O5 0.875488 0.292044 0.825970
O O6 0.826947 0.210181 0.886478
O O7 0.797192 0.839209 0.163920
O O8 0.953767 0.899630 0.193053
O O9 0.806906 0.000000 0.147966
O O10 0.671433 0.338331 0.289527
O O11 0.960908 0.244724 0.544800
O O12 0.854655 0.000000 0.709351
#
# Coordination Sequence:
#
# PCOD9197449 Si02
#       6
#     8   4   8   8   8   8
#     4  11  19  37  62  85 113 147 196 240 286 328
#     4  12  24  36  60  82 120 154 200 230 274 338
#     4  11  20  32  56  89 117 144 181 235 294 337
#     4  11  21  38  61  85 112 153 197 236 279 340
#     4  11  21  38  59  86 112 152 195 239 280 335
#     4  10  20  35  59  92 118 142 183 244 295 333
#
# _framework density 19.621404999999999
#
# number of rings (size 3 to 8) (size 9 to 14) (size 15 to 20)
#    0.000    1.091    5.455    3.818    0.000    0.000 
#    0.000    0.909    0.000   10.909    0.000    0.000 
#    0.000    0.000    0.000    0.000    0.000    0.000 
#
# Total GULP energy -122719.153432 kJ/mol
# GULP energy per Si atom -5578.143338 kJ/mol
# Density = 1.957675 g / cm^3
# Si number density = 19.621405 Si / 1000 Ang^3
#
#
#
# Elastic Constant Matrix: (Units=GPa)
#
#
# Indices 1 2 3 4 5 6 
#
# 1 65.8031 3.2051 33.6193 -0.0080 4.0885 -0.0072
# 2 3.2051 77.6471 18.0093 -0.0626 1.0092 -0.0252
# 3 33.6193 18.0093 126.5037 -0.0349 14.9142 -0.0102
# 4 -0.0080 -0.0626 -0.0349 9.8329 -0.0076 -3.4998
# 5 4.0885 1.0092 14.9142 -0.0076 36.5299 -0.0027
# 6 -0.0072 -0.0252 -0.0102 -3.4998 -0.0027 -2.3403
#
#
#
# Elastic Compliance Matrix: (Units=1/GPa)
#
#
# Indices 1 2 3 4 5 6 
#
# 1 0.017595 0.000370 -0.004723 -0.000009 -0.000051 -0.000024
# 2 0.000370 0.013333 -0.002047 0.000019 0.000426 -0.000165
# 3 -0.004723 -0.002047 0.009857 0.000010 -0.003439 -0.000017
# 4 -0.000009 0.000019 0.000010 0.066372 0.000003 -0.099255
# 5 -0.000051 0.000426 -0.003439 0.000003 0.028773 -0.000028
# 6 -0.000024 -0.000165 -0.000017 -0.099255 -0.000028 -0.278860
#
#
# Mechanical properties :
#
#
# Convention : Reuss Voigt Hill
#
# Bulk Modulus (GPa) = 35.73277 42.18014 38.95645
# Shear Modulus (GPa) = -41.38952 23.14584 -9.12184
#
# Velocity S-wave (km/s) = -4.59781 3.43829 -2.15848
# Velocity P-wave (km/s) = 3.15211 6.10787 3.69934
#
# Compressibility (1/GPa) = 0.02798551
#
# Stress axis : x y z
#
# Youngs Moduli (GPa) = 56.83494 75.00406 101.45321
#
# Poissons Ratio (x) = -0.02773 0.47912
# Poissons Ratio (y) = -0.02101 0.20763
# Poissons Ratio (z) = 0.26840 0.15350
#
# Static dielectric constant tensor:
#      x y z
#    x 1.708600 0.000000 -0.001320 
#    y 0.000000 1.694400 0.000000 
#    z -0.001320 0.000000 1.705850 
# 
# From -- ./inp_files/285278.got.cif
#   From: 2010.05.17/outbox.cif.g08.bks.cpg/sg12_143_cif.got.tgz:285278.got - 2010.06.03 13:09:07.
