data_PCOD9197578
_publ_section_title
;
Structure prediction by ZEFSAII (Michael W. Deem and Ramdas Pophale) SiO2 
 PCOD9197578
Probable space group: C 2/M
;
_chemical_formula_sum "Si O2"
_cell_formula_units_Z 56
_cell_length_a 14.352003
_cell_length_b 23.767203
_cell_length_c 9.771191
_cell_angle_alpha 90.000000
_cell_angle_beta 124.175147
_cell_angle_gamma 90.000000
_cell_volume 2757.489581
_symmetry_space_group_name_H-M "C 2/M"
_symmetry_group_IT_number 12
_symmetry_cell_setting 'monoclinic'
loop_
_space_group_symop_operation_xyz
x,y,z
-x,y,-z
-x,-y,-z
x,-y,z
1/2+x,1/2+y,z
1/2-x,1/2+y,-z
1/2-x,1/2-y,-z
1/2+x,1/2-y,z
loop_
_atom_site_type_symbol
_atom_site_label
_atom_site_fract_x
_atom_site_fract_y
_atom_site_fract_z
Si Si1 0.603784 0.361035 0.304218
Si Si2 0.306339 0.063971 0.384357
Si Si3 0.142891 0.853835 0.924293
Si Si4 0.122739 0.757398 0.135505
Si Si5 0.858622 0.566545 0.130019
Si Si6 0.901530 0.565743 0.768097
Si Si7 0.215541 0.153887 0.687127
O O1 0.700106 0.394991 0.304265
O O2 0.479776 0.381774 0.159242
O O3 0.606338 0.297880 0.250815
O O4 0.638824 0.359265 0.491940
O O5 0.368561 0.069273 0.579944
O O6 0.263967 0.000000 0.340161
O O7 0.381432 0.073089 0.312009
O O8 0.248142 0.895679 0.022609
O O9 0.143424 0.839079 0.764375
O O10 0.154222 0.799727 0.034671
O O11 0.211665 0.710859 0.251983
O O12 0.000000 0.731954 0.000000
O O13 0.838082 0.500000 0.088909
O O14 0.966802 0.582670 0.127622
O O15 0.893077 0.500000 0.801386
O O16 0.808961 0.603897 0.766013
#
# Coordination Sequence:
#
# PCOD9197578 Si02
#       7
#     8   8   8   8   8   8   8
#     4  10  21  41  60  86 117 155 199 245 286 349
#     4   9  17  34  61  88 118 157 197 243 295 346
#     4  11  23  38  59  87 123 154 192 246 294 346
#     4  10  22  40  62  85 115 151 201 252 290 341
#     4  10  20  35  60  91 123 156 195 244 296 351
#     4   9  20  37  59  89 122 155 197 245 295 353
#     4  11  23  39  63  83 119 161 196 235 301 355
#
# _framework density 20.308326999999998
#
# number of rings (size 3 to 8) (size 9 to 14) (size 15 to 20)
#    0.000    2.000    1.429    1.714    2.000    2.857 
#    0.000    2.857    3.143    4.286    0.000    0.000 
#    0.000    0.000    0.000    0.000    0.000    0.000 
#
# Total GULP energy -156137.362896 kJ/mol
# GULP energy per Si atom -5576.334389 kJ/mol
# Density = 2.026210 g / cm^3
# Si number density = 20.308327 Si / 1000 Ang^3
#
#
#
# Elastic Constant Matrix: (Units=GPa)
#
#
# Indices 1 2 3 4 5 6 
#
# 1 72.9156 18.5111 16.8804 0.0000 12.8243 0.0000
# 2 18.5111 38.0223 11.8319 0.0000 17.6138 0.0000
# 3 16.8804 11.8319 69.1307 0.0000 1.8611 0.0000
# 4 0.0000 0.0000 0.0000 -37.4296 0.0000 0.3052
# 5 12.8243 17.6138 1.8611 0.0000 41.9322 0.0000
# 6 0.0000 0.0000 0.0000 0.3052 0.0000 26.0752
#
#
#
# Elastic Compliance Matrix: (Units=1/GPa)
#
#
# Indices 1 2 3 4 5 6 
#
# 1 0.016311 -0.005943 -0.002902 0.000000 -0.002363 0.000000
# 2 -0.005943 0.036821 -0.004489 0.000000 -0.013450 0.000000
# 3 -0.002902 -0.004489 0.015887 0.000000 0.002068 0.000000
# 4 0.000000 0.000000 0.000000 -0.026714 0.000000 0.000313
# 5 -0.002363 -0.013450 0.002068 0.000000 0.030129 0.000000
# 6 0.000000 0.000000 0.000000 0.000313 0.000000 0.038347
#
#
# Mechanical properties :
#
#
# Convention : Reuss Voigt Hill
#
# Bulk Modulus (GPa) = 23.61226 30.50174 27.05700
# Shear Modulus (GPa) = 32.98924 14.97191 23.98058
#
# Velocity S-wave (km/s) = 4.03478 2.71814 3.44004
# Velocity P-wave (km/s) = 5.77564 4.99029 5.39727
#
# Compressibility (1/GPa) = 0.04235087
#
# Stress axis : x y z
#
# Youngs Moduli (GPa) = 61.30943 27.15822 62.94632
#
# Poissons Ratio (x) = 0.16140 0.18267
# Poissons Ratio (y) = 0.36437 0.28255
# Poissons Ratio (z) = 0.17792 0.12191
#
# Static dielectric constant tensor:
#      x y z
#    x 1.744320 0.000000 0.003190 
#    y 0.000000 1.683030 0.000000 
#    z 0.003190 0.000000 1.794550 
# 
# From -- ./inp_files/67081.got.cif
#   From: 2010.05.17/outbox.cif.g08.bks.cpg/sg12_34_cif.got.tgz:67081.got - 2010.06.03 13:09:07.
