data_PCOD9197724
_publ_section_title
;
Structure prediction by ZEFSAII (Michael W. Deem and Ramdas Pophale) SiO2 
 PCOD9197724
Probable space group: C 2/M
;
_chemical_formula_sum "Si O2"
_cell_formula_units_Z 60
_cell_length_a 8.234451
_cell_length_b 21.136032
_cell_length_c 24.550036
_cell_angle_alpha 90.000000
_cell_angle_beta 43.774690
_cell_angle_gamma 90.000000
_cell_volume 2956.010937
_symmetry_space_group_name_H-M "C 2/M"
_symmetry_group_IT_number 12
_symmetry_cell_setting 'monoclinic'
loop_
_space_group_symop_operation_xyz
x,y,z
-x,y,-z
-x,-y,-z
x,-y,z
1/2+x,1/2+y,z
1/2-x,1/2+y,-z
1/2-x,1/2-y,-z
1/2+x,1/2-y,z
loop_
_atom_site_type_symbol
_atom_site_label
_atom_site_fract_x
_atom_site_fract_y
_atom_site_fract_z
Si Si1 0.640762 0.819678 0.522498
Si Si2 0.914183 0.834174 0.929491
Si Si3 0.663381 0.681104 0.695040
Si Si4 0.577967 0.572701 0.797601
Si Si5 0.359870 0.067395 0.322229
Si Si6 0.000000 0.098682 0.500000
Si Si7 0.257066 0.814309 0.271650
Si Si8 0.148959 0.306682 0.097278
O O1 0.500000 0.830262 0.500000
O O2 0.750000 0.750000 0.500000
O O3 0.436362 0.828016 0.616748
O O4 0.854757 0.863723 0.488851
O O5 0.853184 0.768649 0.913625
O O6 0.955763 0.891705 0.878192
O O7 0.154973 0.822033 0.904816
O O8 0.719408 0.840802 0.023953
O O9 0.559664 0.621147 0.751726
O O10 0.645866 0.747293 0.730982
O O11 0.515945 0.690603 0.675875
O O12 0.497852 0.500000 0.809286
O O13 0.859987 0.569866 0.737968
O O14 0.207098 0.067073 0.414558
O O15 0.298966 0.129488 0.303050
O O16 0.305560 0.000000 0.306980
O O17 0.400709 0.826438 0.181561
#
# Coordination Sequence:
#
# PCOD9197724 Si02
#       8
#     8   8   8   8   8   4   8   8
#     4  12  24  39  59  96 132 167 214 278 332 382
#     4  10  20  38  60  94 124 156 206 254 313 375
#     4  12  24  40  64  94 128 163 216 258 323 380
#     4  11  23  42  63  88 127 169 210 257 312 381
#     4  11  24  43  65  90 125 169 214 257 320 389
#     4  12  23  42  66  88 128 172 219 264 327 390
#     4  12  23  39  66  95 126 165 206 267 313 380
#     4  10  20  35  62  94 123 155 202 258 310 365
#
# _framework density 20.297623999999999
#
# number of rings (size 3 to 8) (size 9 to 14) (size 15 to 20)
#    0.000    0.800    4.667    4.200    0.000    0.533 
#    0.000    2.000    0.000    2.800    0.000    0.000 
#    0.000    0.000    0.000    0.000    0.000    0.000 
#
# Total GULP energy -167467.829945 kJ/mol
# GULP energy per Si atom -5582.260998 kJ/mol
# Density = 2.025143 g / cm^3
# Si number density = 20.297624 Si / 1000 Ang^3
#
#
#
# Elastic Constant Matrix: (Units=GPa)
#
#
# Indices 1 2 3 4 5 6 
#
# 1 70.6311 36.9741 -6.2735 -0.0005 1.9075 0.0006
# 2 36.9741 142.4968 39.8249 -0.0002 19.4478 0.0002
# 3 -6.2735 39.8249 106.4735 -0.0016 4.7016 0.0009
# 4 -0.0005 -0.0002 -0.0016 2.7515 0.0009 2.4199
# 5 1.9075 19.4478 4.7016 0.0009 28.4684 -0.0006
# 6 0.0006 0.0002 0.0009 2.4199 -0.0006 19.8224
#
#
#
# Elastic Compliance Matrix: (Units=1/GPa)
#
#
# Indices 1 2 3 4 5 6 
#
# 1 0.017322 -0.005642 0.003034 0.000005 0.002192 -0.000001
# 2 -0.005642 0.010419 -0.003961 -0.000001 -0.006085 0.000000
# 3 0.003034 -0.003961 0.011022 0.000008 0.000682 -0.000001
# 4 0.000005 -0.000001 0.000008 0.407160 -0.000014 -0.049707
# 5 0.002192 -0.006085 0.000682 -0.000014 0.039024 0.000003
# 6 -0.000001 0.000000 -0.000001 -0.049707 0.000003 0.056516
#
#
# Mechanical properties :
#
#
# Convention : Reuss Voigt Hill
#
# Bulk Modulus (GPa) = 39.02301 51.18360 45.10330
# Shear Modulus (GPa) = 8.87875 26.81350 17.84612
#
# Velocity S-wave (km/s) = 2.09375 3.63852 2.96839
# Velocity P-wave (km/s) = 5.01120 6.55157 5.83246
#
# Compressibility (1/GPa) = 0.02562591
#
# Stress axis : x y z
#
# Youngs Moduli (GPa) = 57.73123 95.97796 90.72660
#
# Poissons Ratio (x) = 0.54147 -0.27526
# Poissons Ratio (y) = 0.32570 0.35935
# Poissons Ratio (z) = -0.17515 0.38015
#
# Static dielectric constant tensor:
#      x y z
#    x 1.600350 0.000000 0.054820 
#    y 0.000000 1.717950 0.000000 
#    z 0.054820 0.000000 1.742080 
# 
# From -- ./inp_files/356899.got.cif
#   From: 2010.05.17/outbox.cif.g08.bks.cpg/sg12_179_cif.got.tgz:356899.got - 2010.06.03 13:09:07.
