data_PCOD9197127
_publ_section_title
;
Structure prediction by ZEFSAII (Michael W. Deem and Ramdas Pophale) SiO2 
 PCOD9197127
Probable space group: C 2/M
;
_chemical_formula_sum "Si O2"
_cell_formula_units_Z 48
_cell_length_a 9.410949
_cell_length_b 18.194678
_cell_length_c 15.120960
_cell_angle_alpha 90.000000
_cell_angle_beta 110.959129
_cell_angle_gamma 90.000000
_cell_volume 2417.840730
_symmetry_space_group_name_H-M "C 2/M"
_symmetry_group_IT_number 12
_symmetry_cell_setting 'monoclinic'
loop_
_space_group_symop_operation_xyz
x,y,z
-x,y,-z
-x,-y,-z
x,-y,z
1/2+x,1/2+y,z
1/2-x,1/2+y,-z
1/2-x,1/2-y,-z
1/2+x,1/2-y,z
loop_
_atom_site_type_symbol
_atom_site_label
_atom_site_fract_x
_atom_site_fract_y
_atom_site_fract_z
Si Si1 0.700973 0.916179 0.783229
Si Si2 0.187276 0.911414 0.780092
Si Si3 0.367765 0.826334 0.406941
Si Si4 0.977071 0.168500 0.592892
Si Si5 0.012236 0.411065 0.901571
Si Si6 0.538881 0.415907 0.915986
O O1 0.649885 0.870342 0.687879
O O2 0.649483 0.887814 0.868555
O O3 0.882627 0.919391 0.827242
O O4 0.644058 0.000000 0.761765
O O5 0.364159 0.893849 0.808895
O O6 0.070711 0.877327 0.685669
O O7 0.154989 0.883526 0.872653
O O8 0.169796 0.000000 0.776289
O O9 0.500000 0.858855 0.500000
O O10 0.201016 0.823248 0.417890
O O11 0.436012 0.746601 0.396675
O O12 0.000000 0.134541 0.500000
O O13 0.020482 0.500000 0.911720
O O14 0.000000 0.383569 0.000000
O O15 0.592684 0.500000 0.948507
O O16 0.500000 0.379539 0.000000
#
# Coordination Sequence:
#
# PCOD9197127 Si02
#       6
#     8   8   8   8   8   8
#     4  10  20  35  58  88 117 147 188 235 280 327
#     4  10  20  35  58  88 117 147 188 235 280 327
#     4  11  24  41  62  83 110 149 190 232 285 347
#     4  11  24  41  62  83 110 149 190 232 285 347
#     4   9  18  32  54  87 122 154 187 227 278 333
#     4   9  16  30  54  83 114 146 183 227 274 329
#
# _framework density 19.852423000000002
#
# number of rings (size 3 to 8) (size 9 to 14) (size 15 to 20)
#    0.000    2.000    1.667    3.000    4.667    4.667 
#    0.000    0.000    0.000    6.000    0.000    0.000 
#    0.000    0.000    0.000    0.000    0.000    0.000 
#
# Total GULP energy -133672.130108 kJ/mol
# GULP energy per Si atom -5569.672088 kJ/mol
# Density = 1.980724 g / cm^3
# Si number density = 19.852423 Si / 1000 Ang^3
#
#
#
# Elastic Constant Matrix: (Units=GPa)
#
#
# Indices 1 2 3 4 5 6 
#
# 1 127.8164 12.9172 30.2615 0.0000 2.2434 0.0000
# 2 12.9172 17.0532 25.5927 0.0000 -0.5228 0.0000
# 3 30.2615 25.5927 108.6822 0.0000 -3.7207 0.0000
# 4 0.0000 0.0000 0.0000 130.0483 0.0000 6.9107
# 5 2.2434 -0.5228 -3.7207 0.0000 39.8104 0.0000
# 6 0.0000 0.0000 0.0000 6.9107 0.0000 17.7630
#
#
#
# Elastic Compliance Matrix: (Units=1/GPa)
#
#
# Indices 1 2 3 4 5 6 
#
# 1 0.008613 -0.004502 -0.001361 0.000000 -0.000672 0.000000
# 2 -0.004502 0.093069 -0.020678 0.000000 -0.000457 0.000000
# 3 -0.001361 -0.020678 0.014489 0.000000 0.001159 0.000000
# 4 0.000000 0.000000 0.000000 0.007852 0.000000 -0.003055
# 5 -0.000672 -0.000457 0.001159 0.000000 0.025259 0.000000
# 6 0.000000 0.000000 0.000000 -0.003055 0.000000 0.057485
#
#
# Mechanical properties :
#
#
# Convention : Reuss Voigt Hill
#
# Bulk Modulus (GPa) = 15.85073 43.45495 29.65284
# Shear Modulus (GPa) = 17.80131 49.84306 33.82218
#
# Velocity S-wave (km/s) = 2.99771 5.01610 4.13204
# Velocity P-wave (km/s) = 4.47027 7.44882 6.14281
#
# Compressibility (1/GPa) = 0.06308858
#
# Stress axis : x y z
#
# Youngs Moduli (GPa) = 116.10765 10.74474 69.01737
#
# Poissons Ratio (x) = 0.04837 0.09393
# Poissons Ratio (y) = 0.52270 1.42715
# Poissons Ratio (z) = 0.15802 0.22218
#
# Static dielectric constant tensor:
#      x y z
#    x 1.724290 0.000000 -0.016550 
#    y 0.000000 1.691860 0.000000 
#    z -0.016550 0.000000 1.724430 
# 
# From -- ./inp_files/170675.got.cif
#   From: 2010.05.17/outbox.cif.g08.bks.cpg/sg12_86_cif.got.tgz:170675.got - 2010.06.03 13:09:07.
