data_PCOD9197250
_publ_section_title
;
Structure prediction by ZEFSAII (Michael W. Deem and Ramdas Pophale) SiO2 
 PCOD9197250
Probable space group: C 2/M
;
_chemical_formula_sum "Si O2"
_cell_formula_units_Z 40
_cell_length_a 6.514435
_cell_length_b 22.773949
_cell_length_c 16.206213
_cell_angle_alpha 90.000000
_cell_angle_beta 58.225288
_cell_angle_gamma 90.000000
_cell_volume 2043.993568
_symmetry_space_group_name_H-M "C 2/M"
_symmetry_group_IT_number 12
_symmetry_cell_setting 'monoclinic'
loop_
_space_group_symop_operation_xyz
x,y,z
-x,y,-z
-x,-y,-z
x,-y,z
1/2+x,1/2+y,z
1/2-x,1/2+y,-z
1/2-x,1/2-y,-z
1/2+x,1/2-y,z
loop_
_atom_site_type_symbol
_atom_site_label
_atom_site_fract_x
_atom_site_fract_y
_atom_site_fract_z
Si Si1 0.850765 0.291055 0.787563
Si Si2 0.053454 0.127135 0.729203
Si Si3 0.831396 0.828387 0.606961
Si Si4 0.905997 0.331946 0.112103
Si Si5 0.521998 0.933876 0.593538
O O1 0.684755 0.325016 0.758540
O O2 0.727390 0.230809 0.842462
O O3 0.113901 0.288154 0.687485
O O4 0.890040 0.330527 0.860912
O O5 0.991752 0.151320 0.650820
O O6 0.791519 0.118576 0.825343
O O7 0.248839 0.075839 0.683151
O O8 0.697510 0.885432 0.596334
O O9 0.000000 0.801774 0.500000
O O10 0.000000 0.334261 0.000000
O O11 0.500000 0.924940 0.500000
O O12 0.607183 0.000000 0.591880
#
# Coordination Sequence:
#
# PCOD9197250 Si02
#       5
#     8   8   8   8   8
#     4  10  21  33  54  81 110 148 185 221 271 321
#     4  10  21  36  53  82 116 143 184 231 271 324
#     4  10  20  36  53  76 116 149 181 222 266 327
#     4  11  21  36  58  81 110 146 188 231 273 323
#     4  10  20  35  59  84 107 143 185 228 279 327
#
# _framework density 19.569533
#
# number of rings (size 3 to 8) (size 9 to 14) (size 15 to 20)
#    0.000    1.800    4.000    0.600    0.000    1.200 
#    0.000    5.000    0.000    0.600    0.000   12.600 
#    0.000    0.000    0.000    0.000    0.000    0.000 
#
# Total GULP energy -111584.447740 kJ/mol
# GULP energy per Si atom -5579.222387 kJ/mol
# Density = 1.952499 g / cm^3
# Si number density = 19.569533 Si / 1000 Ang^3
#
#
#
# Elastic Constant Matrix: (Units=GPa)
#
#
# Indices 1 2 3 4 5 6 
#
# 1 97.4755 10.6749 24.9264 0.0000 24.6628 0.0000
# 2 10.6749 44.7925 14.7531 0.0000 6.5632 0.0000
# 3 24.9264 14.7531 141.6604 0.0000 20.1834 0.0000
# 4 0.0000 0.0000 0.0000 11.2965 0.0000 -3.5827
# 5 24.6628 6.5632 20.1834 0.0000 23.1317 0.0000
# 6 0.0000 0.0000 0.0000 -3.5827 0.0000 22.2763
#
#
#
# Elastic Compliance Matrix: (Units=1/GPa)
#
#
# Indices 1 2 3 4 5 6 
#
# 1 0.014123 -0.001146 -0.000305 0.000000 -0.014467 0.000000
# 2 -0.001146 0.023748 -0.001697 0.000000 -0.004036 0.000000
# 3 -0.000305 -0.001697 0.008193 0.000000 -0.006343 0.000000
# 4 0.000000 0.000000 0.000000 0.093281 0.000000 0.015002
# 5 -0.014467 -0.004036 -0.006343 0.000000 0.065334 0.000000
# 6 0.000000 0.000000 0.000000 0.015002 0.000000 0.047304
#
#
# Mechanical properties :
#
#
# Convention : Reuss Voigt Hill
#
# Bulk Modulus (GPa) = 25.14422 42.73746 33.94084
# Shear Modulus (GPa) = 18.41393 26.91251 22.66322
#
# Velocity S-wave (km/s) = 3.07082 3.71243 3.40676
# Velocity P-wave (km/s) = 5.04478 6.34526 5.73202
#
# Compressibility (1/GPa) = 0.03977057
#
# Stress axis : x y z
#
# Youngs Moduli (GPa) = 70.80853 42.10806 122.05384
#
# Poissons Ratio (x) = 0.04824 0.03717
# Poissons Ratio (y) = 0.08112 0.20707
# Poissons Ratio (z) = 0.02156 0.07144
#
# Static dielectric constant tensor:
#      x y z
#    x 1.746500 0.000000 -0.021760 
#    y 0.000000 1.670750 0.000000 
#    z -0.021760 0.000000 1.702300 
# 
# From -- ./inp_files/115924.got.cif
#   From: 2010.05.17/outbox.cif.g08.bks.cpg/sg12_58_cif.got.tgz:115924.got - 2010.06.03 13:09:07.
