data_PCOD9197284
_publ_section_title
;
Structure prediction by ZEFSAII (Michael W. Deem and Ramdas Pophale) SiO2 
 PCOD9197284
Probable space group: C 2/M
;
_chemical_formula_sum "Si O2"
_cell_formula_units_Z 56
_cell_length_a 19.040967
_cell_length_b 14.569702
_cell_length_c 21.661645
_cell_angle_alpha 90.000000
_cell_angle_beta 26.662543
_cell_angle_gamma 90.000000
_cell_volume 2696.627229
_symmetry_space_group_name_H-M "C 2/M"
_symmetry_group_IT_number 12
_symmetry_cell_setting 'monoclinic'
loop_
_space_group_symop_operation_xyz
x,y,z
-x,y,-z
-x,-y,-z
x,-y,z
1/2+x,1/2+y,z
1/2-x,1/2+y,-z
1/2-x,1/2-y,-z
1/2+x,1/2-y,z
loop_
_atom_site_type_symbol
_atom_site_label
_atom_site_fract_x
_atom_site_fract_y
_atom_site_fract_z
Si Si1 0.313972 0.742922 0.851704
Si Si2 0.739128 0.390963 0.002711
Si Si3 0.311310 0.294688 0.647791
Si Si4 0.674053 0.101480 0.392617
Si Si5 0.107772 0.600968 0.714419
Si Si6 0.630644 0.824065 0.565366
Si Si7 0.317090 0.100387 0.135834
O O1 0.234884 0.833790 0.942277
O O2 0.463381 0.773382 0.694992
O O3 0.208430 0.679655 0.893038
O O4 0.357237 0.672871 0.874009
O O5 0.702191 0.500000 0.029813
O O6 0.925011 0.382647 0.874422
O O7 0.500000 0.294383 0.500000
O O8 0.254566 0.189165 0.698796
O O9 0.229086 0.329963 0.649951
O O10 0.257289 0.363593 0.742880
O O11 0.500000 0.094836 0.500000
O O12 0.666525 0.130919 0.471039
O O13 0.746451 0.000000 0.330116
O O14 0.149210 0.500000 0.704418
O O15 0.115663 0.605236 0.634098
O O16 0.750000 0.750000 0.500000
O O17 0.252191 0.000000 0.168095
O O18 0.500000 0.090952 0.000000
#
# Coordination Sequence:
#
# PCOD9197284 Si02
#       7
#     8   8   8   8   8   8   8
#     4  10  20  36  61  86 116 157 203 253 301 365
#     4   9  19  37  61  86 115 157 203 249 310 372
#     4  11  22  38  59  89 124 159 207 262 312 366
#     4  10  21  39  62  85 117 163 210 251 304 373
#     4  10  20  35  59  85 119 161 201 248 310 377
#     4  11  21  38  59  88 124 157 200 256 310 367
#     4  11  24  41  63  89 123 166 207 248 311 383
#
# _framework density 20.766681999999999
#
# number of rings (size 3 to 8) (size 9 to 14) (size 15 to 20)
#    0.000    1.714    1.429    3.857    0.000    4.000 
#    0.000    2.857    0.000    0.857    0.000    0.000 
#    0.000    0.000    0.000    0.000    0.000    0.000 
#
# Total GULP energy -156108.122131 kJ/mol
# GULP energy per Si atom -5575.290076 kJ/mol
# Density = 2.071942 g / cm^3
# Si number density = 20.766682 Si / 1000 Ang^3
#
#
#
# Elastic Constant Matrix: (Units=GPa)
#
#
# Indices 1 2 3 4 5 6 
#
# 1 68.8996 18.6580 -7.4037 0.0007 -1.3430 -0.0005
# 2 18.6580 157.5259 12.5267 -0.0007 -13.8637 -0.0006
# 3 -7.4037 12.5267 31.1161 0.0004 3.7213 -0.0007
# 4 0.0007 -0.0007 0.0004 11.1813 -0.0003 -3.8738
# 5 -1.3430 -13.8637 3.7213 -0.0003 15.1662 0.0004
# 6 -0.0005 -0.0006 -0.0007 -3.8738 0.0004 31.2007
#
#
#
# Elastic Compliance Matrix: (Units=1/GPa)
#
#
# Indices 1 2 3 4 5 6 
#
# 1 0.015664 -0.002429 0.004950 -0.000001 -0.002048 0.000000
# 2 -0.002429 0.007705 -0.004633 0.000001 0.007965 0.000000
# 3 0.004950 -0.004633 0.036712 -0.000002 -0.012804 0.000001
# 4 -0.000001 0.000001 -0.000002 0.093455 0.000003 0.011603
# 5 -0.002048 0.007965 -0.012804 0.000003 0.076177 -0.000001
# 6 0.000000 0.000000 0.000001 0.011603 -0.000001 0.033491
#
#
# Mechanical properties :
#
#
# Convention : Reuss Voigt Hill
#
# Bulk Modulus (GPa) = 17.90287 33.90039 25.90163
# Shear Modulus (GPa) = 17.47963 27.09368 22.28665
#
# Velocity S-wave (km/s) = 2.90438 3.61594 3.27952
# Velocity P-wave (km/s) = 4.45947 5.81319 5.18074
#
# Compressibility (1/GPa) = 0.05585697
#
# Stress axis : x y z
#
# Youngs Moduli (GPa) = 63.84216 129.78139 27.23923
#
# Poissons Ratio (x) = 0.31525 -0.13483
# Poissons Ratio (y) = 0.15508 0.12619
# Poissons Ratio (z) = -0.31601 0.60122
#
# Static dielectric constant tensor:
#      x y z
#    x 1.795100 0.000000 0.020190 
#    y 0.000000 1.793350 0.000000 
#    z 0.020190 0.000000 1.748320 
# 
# From -- ./inp_files/316705.got.cif
#   From: 2010.05.17/outbox.cif.g08.bks.cpg/sg12_159_cif.got.tgz:316705.got - 2010.06.03 13:09:07.
