data_PCOD9197231
_publ_section_title
;
Structure prediction by ZEFSAII (Michael W. Deem and Ramdas Pophale) SiO2 
 PCOD9197231
Probable space group: C 2/M
;
_chemical_formula_sum "Si O2"
_cell_formula_units_Z 34
_cell_length_a 9.805504
_cell_length_b 17.899034
_cell_length_c 15.628566
_cell_angle_alpha 90.000000
_cell_angle_beta 35.837256
_cell_angle_gamma 90.000000
_cell_volume 1605.958698
_symmetry_space_group_name_H-M "C 2/M"
_symmetry_group_IT_number 12
_symmetry_cell_setting 'monoclinic'
loop_
_space_group_symop_operation_xyz
x,y,z
-x,y,-z
-x,-y,-z
x,-y,z
1/2+x,1/2+y,z
1/2-x,1/2+y,-z
1/2-x,1/2-y,-z
1/2+x,1/2-y,z
loop_
_atom_site_type_symbol
_atom_site_label
_atom_site_fract_x
_atom_site_fract_y
_atom_site_fract_z
Si Si1 0.924782 0.213124 0.651082
Si Si2 0.338756 0.583670 0.165241
Si Si3 0.961347 0.777018 0.833653
Si Si4 0.144717 0.371402 0.552701
Si Si5 0.500000 0.000000 0.500000
O O1 0.060668 0.290316 0.561213
O O2 0.098785 0.145292 0.543171
O O3 0.889268 0.214090 0.772058
O O4 0.675172 0.219055 0.734121
O O5 0.325046 0.500000 0.212167
O O6 0.440149 0.645400 0.177401
O O7 0.073142 0.604412 0.277064
O O8 0.500000 0.582197 0.000000
O O9 0.750000 0.750000 0.000000
O O10 0.139083 0.433754 0.483148
#
# Coordination Sequence:
#
# PCOD9197231 Si02
#       5
#     8   8   8   8   2
#     4  10  22  37  61  95 133 163 220 271 327 383
#     4  10  20  36  60  93 125 164 221 273 317 392
#     4  11  21  39  64  93 127 177 215 269 327 403
#     4  10  20  35  58  94 123 163 213 276 310 383
#     4  12  20  36  66  94 126 178 232 250 332 410
#
# _framework density 21.171154000000001
#
# number of rings (size 3 to 8) (size 9 to 14) (size 15 to 20)
#    0.000    1.647    1.176    6.353    0.000    4.706 
#    0.000    0.000    2.588    2.824    0.000    0.000 
#    0.000    0.000    0.000    0.000    0.000    0.000 
#
# Total GULP energy -94739.821157 kJ/mol
# GULP energy per Si atom -5572.930656 kJ/mol
# Density = 2.112297 g / cm^3
# Si number density = 21.171154 Si / 1000 Ang^3
#
#
#
# Elastic Constant Matrix: (Units=GPa)
#
#
# Indices 1 2 3 4 5 6 
#
# 1 78.4305 23.1760 38.0131 -0.0058 8.7939 0.0030
# 2 23.1760 137.3251 34.7953 -0.0038 -4.6851 0.0042
# 3 38.0131 34.7953 145.1223 -0.0097 -10.7884 0.0086
# 4 -0.0058 -0.0038 -0.0097 34.7562 0.0054 0.4843
# 5 8.7939 -4.6851 -10.7884 0.0054 35.0384 -0.0025
# 6 0.0030 0.0042 0.0086 0.4843 -0.0025 24.0869
#
#
#
# Elastic Compliance Matrix: (Units=1/GPa)
#
#
# Indices 1 2 3 4 5 6 
#
# 1 0.015915 -0.001825 -0.004141 0.000002 -0.005513 -0.000001
# 2 -0.001825 0.007970 -0.001351 0.000000 0.001108 -0.000001
# 3 -0.004141 -0.001351 0.008559 0.000001 0.003494 -0.000002
# 4 0.000002 0.000000 0.000001 0.028780 -0.000005 -0.000579
# 5 -0.005513 0.001108 0.003494 -0.000005 0.031148 0.000003
# 6 -0.000001 -0.000001 -0.000002 -0.000579 0.000003 0.041528
#
#
# Mechanical properties :
#
#
# Convention : Reuss Voigt Hill
#
# Bulk Modulus (GPa) = 56.14544 61.42742 58.78643
# Shear Modulus (GPa) = 32.36902 36.43586 34.40244
#
# Velocity S-wave (km/s) = 3.91438 4.15301 4.03546
# Velocity P-wave (km/s) = 6.85618 7.21626 7.03852
#
# Compressibility (1/GPa) = 0.01781089
#
# Stress axis : x y z
#
# Youngs Moduli (GPa) = 62.83568 125.47128 116.83615
#
# Poissons Ratio (x) = 0.22895 0.48382
# Poissons Ratio (y) = 0.11466 0.15780
# Poissons Ratio (z) = 0.26020 0.16946
#
# Static dielectric constant tensor:
#      x y z
#    x 1.964850 -0.000080 0.524500 
#    y -0.000080 1.785320 -0.000200 
#    z 0.524500 -0.000200 3.200770 
# 
# From -- ./inp_files/256353.got.cif
#   From: 2010.05.17/outbox.cif.g08.bks.cpg/sg12_129_cif.got.tgz:256353.got - 2010.06.03 13:09:07.
