data_PCOD9197925
_publ_section_title
;
Structure prediction by ZEFSAII (Michael W. Deem and Ramdas Pophale) SiO2 
 PCOD9197925
Probable space group: C 2/M
;
_chemical_formula_sum "Si O2"
_cell_formula_units_Z 56
_cell_length_a 19.437128
_cell_length_b 7.452031
_cell_length_c 17.087451
_cell_angle_alpha 90.000000
_cell_angle_beta 120.292503
_cell_angle_gamma 90.000000
_cell_volume 2137.110793
_symmetry_space_group_name_H-M "C 2/M"
_symmetry_group_IT_number 12
_symmetry_cell_setting 'monoclinic'
loop_
_space_group_symop_operation_xyz
x,y,z
-x,y,-z
-x,-y,-z
x,-y,z
1/2+x,1/2+y,z
1/2-x,1/2+y,-z
1/2-x,1/2-y,-z
1/2+x,1/2-y,z
loop_
_atom_site_type_symbol
_atom_site_label
_atom_site_fract_x
_atom_site_fract_y
_atom_site_fract_z
Si Si1 0.080508 0.711157 0.511872
Si Si2 0.849450 0.712169 0.899936
Si Si3 0.008875 0.217033 0.687401
Si Si4 0.826958 0.201666 0.229017
Si Si5 0.410914 0.283923 0.772146
Si Si6 0.248013 0.784875 0.406186
Si Si7 0.656260 0.212634 0.934765
O O1 0.081456 0.500000 0.529758
O O2 0.064749 0.730969 0.409993
O O3 0.168127 0.783724 0.580253
O O4 0.000000 0.795297 0.500000
O O5 0.835520 0.500000 0.904563
O O6 0.761301 0.786331 0.823957
O O7 0.908209 0.734284 0.861368
O O8 0.878234 0.777966 0.001650
O O9 0.983536 0.279640 0.759708
O O10 0.090742 0.288744 0.694368
O O11 0.013250 0.000000 0.688545
O O12 0.856263 0.193102 0.154855
O O13 0.818427 0.000000 0.254298
O O14 0.411680 0.500000 0.769111
O O15 0.328944 0.217957 0.684600
O O16 0.250000 0.750000 0.500000
O O17 0.247267 0.000000 0.396454
O O18 0.642628 0.000000 0.916284
O O19 0.750000 0.250000 0.000000
#
# Coordination Sequence:
#
# PCOD9197925 Si02
#       7
#     8   8   8   8   8   8   8
#     4  10  22  37  54  78 108 138 174 221 267 314
#     4   9  19  34  53  79 106 133 171 215 258 308
#     4  10  21  38  55  76 107 140 177 219 263 313
#     4   9  19  35  55  79 107 138 175 220 263 310
#     4  10  21  35  53  77 105 138 177 217 259 311
#     4  10  20  36  55  76 103 138 178 217 258 311
#     4   9  17  32  54  80 109 139 174 216 260 311
#
# _framework density 26.203600000000002
#
# number of rings (size 3 to 8) (size 9 to 14) (size 15 to 20)
#    0.000    2.429    1.429    1.286    2.000    4.857 
#    0.000    0.714    0.000    4.286    0.000    0.000 
#    0.000    0.000    0.000    0.000    0.000    0.000 
#
# Total GULP energy -156372.549946 kJ/mol
# GULP energy per Si atom -5584.733927 kJ/mol
# Density = 2.614396 g / cm^3
# Si number density = 26.203600 Si / 1000 Ang^3
#
#
#
# Elastic Constant Matrix: (Units=GPa)
#
#
# Indices 1 2 3 4 5 6 
#
# 1 122.8187 4.0205 -0.0651 0.0000 -19.3963 0.0000
# 2 4.0205 112.3893 11.0610 0.0000 0.7032 0.0000
# 3 -0.0651 11.0610 46.0034 0.0000 -27.0971 0.0000
# 4 0.0000 0.0000 0.0000 25.7995 0.0000 -10.0280
# 5 -19.3963 0.7032 -27.0971 0.0000 53.1532 0.0000
# 6 0.0000 0.0000 0.0000 -10.0280 0.0000 13.6611
#
#
#
# Elastic Compliance Matrix: (Units=1/GPa)
#
#
# Indices 1 2 3 4 5 6 
#
# 1 0.008921 -0.000643 0.002986 0.000000 0.004786 0.000000
# 2 -0.000643 0.009277 -0.003490 0.000000 -0.002137 0.000000
# 3 0.002986 -0.003490 0.033228 0.000000 0.018075 0.000000
# 4 0.000000 0.000000 0.000000 0.054234 0.000000 0.039811
# 5 0.004786 -0.002137 0.018075 0.000000 0.029803 0.000000
# 6 0.000000 0.000000 0.000000 0.039811 0.000000 0.102424
#
#
# Mechanical properties :
#
#
# Convention : Reuss Voigt Hill
#
# Bulk Modulus (GPa) = 20.35318 34.58268 27.46793
# Shear Modulus (GPa) = 19.48877 36.26910 27.87894
#
# Velocity S-wave (km/s) = 2.73013 3.72442 3.26534
# Velocity P-wave (km/s) = 4.20979 5.63218 4.97211
#
# Compressibility (1/GPa) = 0.04913237
#
# Stress axis : x y z
#
# Youngs Moduli (GPa) = 112.10032 107.78775 30.09549
#
# Poissons Ratio (x) = 0.06930 -0.08988
# Poissons Ratio (y) = 0.07208 0.10504
# Poissons Ratio (z) = -0.33478 0.37619
#
# Static dielectric constant tensor:
#      x y z
#    x 2.085420 0.000000 0.023350 
#    y 0.000000 3.522020 0.000000 
#    z 0.023350 0.000000 2.299430 
# 
# From -- ./inp_files/275506.got.cif
#   From: 2010.05.17/outbox.cif.g08.bks.cpg/sg12_138_cif.got.tgz:275506.got - 2010.06.03 13:09:07.
