data_PCOD9197445
_publ_section_title
;
Structure prediction by ZEFSAII (Michael W. Deem and Ramdas Pophale) SiO2 
 PCOD9197445
Probable space group: C 2/M
;
_chemical_formula_sum "Si O2"
_cell_formula_units_Z 64
_cell_length_a 31.502042
_cell_length_b 17.673889
_cell_length_c 9.493952
_cell_angle_alpha 90.000000
_cell_angle_beta 140.930311
_cell_angle_gamma 90.000000
_cell_volume 3331.510363
_symmetry_space_group_name_H-M "C 2/M"
_symmetry_group_IT_number 12
_symmetry_cell_setting 'monoclinic'
loop_
_space_group_symop_operation_xyz
x,y,z
-x,y,-z
-x,-y,-z
x,-y,z
1/2+x,1/2+y,z
1/2-x,1/2+y,-z
1/2-x,1/2-y,-z
1/2+x,1/2-y,z
loop_
_atom_site_type_symbol
_atom_site_label
_atom_site_fract_x
_atom_site_fract_y
_atom_site_fract_z
Si Si1 0.592538 0.163332 0.440851
Si Si2 0.517183 0.712671 0.900642
Si Si3 0.330217 0.584947 0.998794
Si Si4 0.693213 0.090904 0.472460
Si Si5 0.978242 0.918919 0.282824
Si Si6 0.637307 0.803228 0.091185
Si Si7 0.322144 0.257520 0.109881
Si Si8 0.521736 0.919515 0.716591
O O1 0.536345 0.219124 0.232188
O O2 0.642930 0.129188 0.456470
O O3 0.628352 0.208840 0.661386
O O4 0.547182 0.095192 0.380064
O O5 0.496979 0.656551 0.724757
O O6 0.500000 0.669701 0.000000
O O7 0.593792 0.741110 0.068812
O O8 0.324302 0.500000 0.046564
O O9 0.266315 0.597287 0.733198
O O10 0.397435 0.585017 0.078840
O O11 0.336144 0.652760 0.126460
O O12 0.683680 0.143733 0.309596
O O13 0.680475 0.000000 0.417701
O O14 0.000000 0.918821 0.500000
O O15 0.999421 0.000000 0.275000
O O16 0.672467 0.772084 0.039233
O O17 0.576078 0.855674 0.881340
O O18 0.250000 0.250000 0.000000
O O19 0.500000 0.919130 0.500000
O O20 0.551666 0.000000 0.834556
#
# Coordination Sequence:
#
# PCOD9197445 Si02
#       8
#     8   8   8   8   8   8   8   8
#     4  11  22  38  59  94 126 165 209 257 314 372
#     4  11  22  37  60  92 127 162 206 257 312 378
#     4  10  22  41  65  91 123 167 211 256 320 382
#     4  11  23  42  63  90 132 173 207 250 313 390
#     4  10  21  40  67  92 119 161 208 267 328 372
#     4  11  23  40  60  93 126 168 208 262 307 373
#     4  12  23  41  64  94 121 163 215 266 316 370
#     4  10  20  35  59  91 126 163 205 256 314 365
#
# _framework density 19.210505999999999
#
# number of rings (size 3 to 8) (size 9 to 14) (size 15 to 20)
#    0.000    1.250    5.000    1.500    0.000    0.750 
#    2.250    3.125    0.000    0.000    0.000    0.000 
#    0.000    0.000    0.000    0.000    0.000    0.000 
#
# Total GULP energy -178305.053843 kJ/mol
# GULP energy per Si atom -5572.032933 kJ/mol
# Density = 1.916678 g / cm^3
# Si number density = 19.210506 Si / 1000 Ang^3
#
#
#
# Elastic Constant Matrix: (Units=GPa)
#
#
# Indices 1 2 3 4 5 6 
#
# 1 98.5648 25.7802 25.0630 0.0000 -3.7755 0.0000
# 2 25.7802 102.4115 13.4139 0.0000 -7.1665 0.0000
# 3 25.0630 13.4139 48.1290 0.0000 5.3895 0.0000
# 4 0.0000 0.0000 0.0000 22.7507 0.0000 11.8031
# 5 -3.7755 -7.1665 5.3895 0.0000 24.1730 0.0000
# 6 0.0000 0.0000 0.0000 11.8031 0.0000 37.1281
#
#
#
# Elastic Compliance Matrix: (Units=1/GPa)
#
#
# Indices 1 2 3 4 5 6 
#
# 1 0.012366 -0.002121 -0.006148 0.000000 0.002673 0.000000
# 2 -0.002121 0.010837 -0.002296 0.000000 0.003393 0.000000
# 3 -0.006148 -0.002296 0.025438 0.000000 -0.007312 0.000000
# 4 0.000000 0.000000 0.000000 0.052636 0.000000 -0.016733
# 5 0.002673 0.003393 -0.007312 0.000000 0.044422 0.000000
# 6 0.000000 0.000000 0.000000 -0.016733 0.000000 0.032253
#
#
# Mechanical properties :
#
#
# Convention : Reuss Voigt Hill
#
# Bulk Modulus (GPa) = 36.34850 41.95771 39.15310
# Shear Modulus (GPa) = 24.00952 29.13358 26.57155
#
# Velocity S-wave (km/s) = 3.53910 3.89851 3.72314
# Velocity P-wave (km/s) = 5.97181 6.49253 6.23761
#
# Compressibility (1/GPa) = 0.02751145
#
# Stress axis : x y z
#
# Youngs Moduli (GPa) = 80.86724 92.28050 39.31172
#
# Poissons Ratio (x) = 0.19569 0.24168
# Poissons Ratio (y) = 0.17149 0.09026
# Poissons Ratio (z) = 0.49716 0.21187
#
# Static dielectric constant tensor:
#      x y z
#    x 1.721270 0.000000 -0.020740 
#    y 0.000000 1.713700 0.000000 
#    z -0.020740 0.000000 1.687440 
# 
# From -- ./inp_files/112909.got.cif
#   From: 2010.05.17/outbox.cif.g08.bks.cpg/sg12_57_cif.got.tgz:112909.got - 2010.06.03 13:09:07.
