data_PCOD9197653
_publ_section_title
;
Structure prediction by ZEFSAII (Michael W. Deem and Ramdas Pophale) SiO2 
 PCOD9197653
Probable space group: C 2/M
;
_chemical_formula_sum "Si O2"
_cell_formula_units_Z 34
_cell_length_a 14.205789
_cell_length_b 14.268577
_cell_length_c 21.238635
_cell_angle_alpha 90.000000
_cell_angle_beta 23.838817
_cell_angle_gamma 90.000000
_cell_volume 1739.928517
_symmetry_space_group_name_H-M "C 2/M"
_symmetry_group_IT_number 12
_symmetry_cell_setting 'monoclinic'
loop_
_space_group_symop_operation_xyz
x,y,z
-x,y,-z
-x,-y,-z
x,-y,z
1/2+x,1/2+y,z
1/2-x,1/2+y,-z
1/2-x,1/2-y,-z
1/2+x,1/2-y,z
loop_
_atom_site_type_symbol
_atom_site_label
_atom_site_fract_x
_atom_site_fract_y
_atom_site_fract_z
Si Si1 0.024000 0.500000 0.211420
Si Si2 0.878947 0.299504 0.010247
Si Si3 0.792637 0.000000 0.912722
Si Si4 0.500000 0.163235 0.500000
Si Si5 0.744492 0.500000 0.716128
Si Si6 0.000000 0.000000 0.000000
Si Si7 0.587882 0.800774 0.746689
O O1 0.224830 0.500000 0.140805
O O2 0.876221 0.404764 0.301408
O O3 0.151014 0.500000 0.065214
O O4 0.779305 0.404887 0.078006
O O5 0.661869 0.233665 0.126255
O O6 0.000000 0.267120 0.000000
O O7 0.052658 0.299213 0.844201
O O8 0.061752 0.000000 0.769230
O O9 0.398444 0.092887 0.614569
O O10 0.291073 0.229427 0.605380
O O11 0.596493 0.500000 0.869234
#
# Coordination Sequence:
#
# PCOD9197653 Si02
#       7
#     4   8   4   4   4   2   8
#     4   9  21  36  58  86 122 158 208 252 297 357
#     4  10  20  35  61  91 118 158 210 256 302 371
#     4   9  16  37  59  87 118 154 202 256 303 367
#     4  11  22  41  64  86 128 167 190 257 324 358
#     4  10  21  39  66  90 123 160 201 249 312 365
#     4  10  22  40  66  94 118 160 208 254 292 374
#     4  10  22  38  58  88 124 165 204 250 312 365
#
# _framework density 19.541032999999999
#
# number of rings (size 3 to 8) (size 9 to 14) (size 15 to 20)
#    0.000    2.118    2.353    0.353    4.941    0.471 
#    0.000    4.706    0.000    0.000    0.000    0.000 
#    0.000    0.000    0.000    0.000    0.000    0.000 
#
# Total GULP energy -94647.853527 kJ/mol
# GULP energy per Si atom -5567.520796 kJ/mol
# Density = 1.949656 g / cm^3
# Si number density = 19.541033 Si / 1000 Ang^3
#
#
#
# Elastic Constant Matrix: (Units=GPa)
#
#
# Indices 1 2 3 4 5 6 
#
# 1 97.5672 7.0000 21.4320 0.0478 -13.2459 0.0154
# 2 7.0000 126.3762 39.1807 0.0196 -1.0186 0.0072
# 3 21.4320 39.1807 78.5063 0.0544 -2.1476 0.0358
# 4 0.0478 0.0196 0.0544 -35.3886 -0.0256 -0.2430
# 5 -13.2459 -1.0186 -2.1476 -0.0256 15.7829 -0.0122
# 6 0.0154 0.0072 0.0358 -0.2430 -0.0122 -1.5020
#
#
#
# Elastic Compliance Matrix: (Units=1/GPa)
#
#
# Indices 1 2 3 4 5 6 
#
# 1 0.012285 0.000420 -0.003293 0.000005 0.009889 -0.000031
# 2 0.000420 0.009376 -0.004786 -0.000001 0.000306 -0.000067
# 3 -0.003293 -0.004786 0.016000 0.000016 -0.000895 0.000329
# 4 0.000005 -0.000001 0.000016 -0.028289 -0.000036 0.004578
# 5 0.009889 0.000306 -0.000895 -0.000036 0.071557 -0.000492
# 6 -0.000031 -0.000067 0.000329 0.004578 -0.000492 -0.666530
#
#
# Mechanical properties :
#
#
# Convention : Reuss Voigt Hill
#
# Bulk Modulus (GPa) = 44.75322 48.63057 46.69189
# Shear Modulus (GPa) = -8.88358 11.43427 1.27535
#
# Velocity S-wave (km/s) = -2.13448 2.42159 0.80874
# Velocity P-wave (km/s) = 4.10819 5.72357 4.98179
#
# Compressibility (1/GPa) = 0.02234476
#
# Stress axis : x y z
#
# Youngs Moduli (GPa) = 81.39906 106.65818 62.49810
#
# Poissons Ratio (x) = -0.04481 0.20580
# Poissons Ratio (y) = -0.03420 0.29909
# Poissons Ratio (z) = 0.26804 0.51041
#
# Static dielectric constant tensor:
#      x y z
#    x 1.658380 0.000000 -0.010090 
#    y 0.000000 1.751010 0.000010 
#    z -0.010090 0.000010 1.664530 
# 
# From -- ./inp_files/141797.got.cif
#   From: 2010.05.17/outbox.cif.g08.bks.cpg/sg12_71_cif.got.tgz:141797.got - 2010.06.03 13:09:07.
