data_PCOD9197192
_publ_section_title
;
Structure prediction by ZEFSAII (Michael W. Deem and Ramdas Pophale) SiO2 
 PCOD9197192
Probable space group: C 2/M
;
_chemical_formula_sum "Si O2"
_cell_formula_units_Z 64
_cell_length_a 25.220155
_cell_length_b 21.955639
_cell_length_c 10.303158
_cell_angle_alpha 90.000000
_cell_angle_beta 147.991337
_cell_angle_gamma 90.000000
_cell_volume 3023.980370
_symmetry_space_group_name_H-M "C 2/M"
_symmetry_group_IT_number 12
_symmetry_cell_setting 'monoclinic'
loop_
_space_group_symop_operation_xyz
x,y,z
-x,y,-z
-x,-y,-z
x,-y,z
1/2+x,1/2+y,z
1/2-x,1/2+y,-z
1/2-x,1/2-y,-z
1/2+x,1/2-y,z
loop_
_atom_site_type_symbol
_atom_site_label
_atom_site_fract_x
_atom_site_fract_y
_atom_site_fract_z
Si Si1 0.152999 0.239092 0.089277
Si Si2 0.953924 0.933179 0.761985
Si Si3 0.615876 0.686306 0.741538
Si Si4 0.635255 0.433794 0.934719
Si Si5 0.854154 0.427066 0.855886
Si Si6 0.984131 0.675050 0.817514
Si Si7 0.730714 0.129020 0.589761
Si Si8 0.293152 0.342846 0.340651
O O1 0.179866 0.179293 0.228155
O O2 0.232290 0.291167 0.290615
O O3 0.166130 0.221145 0.965893
O O4 0.044289 0.270799 0.872450
O O5 0.886021 0.874695 0.601350
O O6 0.901653 0.000000 0.641596
O O7 0.000000 0.931765 0.000000
O O8 0.040203 0.931636 0.833418
O O9 0.500000 0.705096 0.500000
O O10 0.668454 0.686593 0.712451
O O11 0.620972 0.616316 0.796868
O O12 0.643517 0.500000 0.892906
O O13 0.729204 0.419003 0.222192
O O14 0.864203 0.500000 0.877389
O O15 0.801499 0.403926 0.611071
O O16 0.786090 0.398839 0.829759
O O17 0.957962 0.389419 0.081228
O O18 0.866737 0.664121 0.556441
O O19 0.000000 0.691259 0.000000
#
# Coordination Sequence:
#
# PCOD9197192 Si02
#       8
#     8   8   8   8   8   8   8   8
#     4  10  24  41  61  89 119 157 206 252 296 356
#     4  10  20  35  58  90 122 154 194 243 303 368
#     4  11  23  41  59  87 114 161 208 247 304 351
#     4  10  21  36  56  85 118 150 196 247 298 361
#     4  10  21  38  61  90 122 157 200 241 295 365
#     4   9  21  38  60  93 122 158 200 244 299 358
#     4  10  21  38  60  89 122 155 196 243 303 358
#     4  11  22  39  61  86 120 163 200 248 300 347
#
# _framework density 21.164159000000001
#
# number of rings (size 3 to 8) (size 9 to 14) (size 15 to 20)
#    0.000    1.875    1.250    1.875    1.750    9.500 
#    0.000    3.125    0.000    0.000    0.000    5.250 
#    0.000    0.000    0.000    0.000    0.000    0.000 
#
# Total GULP energy -178604.629438 kJ/mol
# GULP energy per Si atom -5581.394670 kJ/mol
# Density = 2.111599 g / cm^3
# Si number density = 21.164159 Si / 1000 Ang^3
#
#
#
# Elastic Constant Matrix: (Units=GPa)
#
#
# Indices 1 2 3 4 5 6 
#
# 1 59.6132 8.4042 -2.3871 0.0000 11.6304 0.0000
# 2 8.4042 115.5178 17.8706 0.0000 7.7537 0.0000
# 3 -2.3871 17.8706 62.2874 0.0000 9.5118 0.0000
# 4 0.0000 0.0000 0.0000 26.3250 0.0000 -3.5661
# 5 11.6304 7.7537 9.5118 0.0000 20.5756 0.0000
# 6 0.0000 0.0000 0.0000 -3.5661 0.0000 23.5192
#
#
#
# Elastic Compliance Matrix: (Units=1/GPa)
#
#
# Indices 1 2 3 4 5 6 
#
# 1 0.019352 -0.001053 0.002855 0.000000 -0.011862 0.000000
# 2 -0.001053 0.009226 -0.002418 0.000000 -0.001763 0.000000
# 3 0.002855 -0.002418 0.018254 0.000000 -0.009141 0.000000
# 4 0.000000 0.000000 0.000000 0.038783 0.000000 0.005880
# 5 -0.011862 -0.001763 -0.009141 0.000000 0.060197 0.000000
# 6 0.000000 0.000000 0.000000 0.005880 0.000000 0.043410
#
#
# Mechanical properties :
#
#
# Convention : Reuss Voigt Hill
#
# Bulk Modulus (GPa) = 21.93035 31.68819 26.80927
# Shear Modulus (GPa) = 24.31279 28.31935 26.31607
#
# Velocity S-wave (km/s) = 3.39303 3.66195 3.53005
# Velocity P-wave (km/s) = 5.07294 5.73453 5.41385
#
# Compressibility (1/GPa) = 0.04559891
#
# Stress axis : x y z
#
# Youngs Moduli (GPa) = 51.67471 108.39238 54.78340
#
# Poissons Ratio (x) = 0.11418 -0.15642
# Poissons Ratio (y) = 0.05444 0.13247
# Poissons Ratio (z) = -0.14754 0.26209
#
# Static dielectric constant tensor:
#      x y z
#    x 1.804020 0.000000 0.054160 
#    y 0.000000 1.787540 0.000000 
#    z 0.054160 0.000000 1.779100 
# 
# From -- ./inp_files/184743.got.cif
#   From: 2010.05.17/outbox.cif.g08.bks.cpg/sg12_93_cif.got.tgz:184743.got - 2010.06.03 13:09:07.
