data_PCOD9197468
_publ_section_title
;
Structure prediction by ZEFSAII (Michael W. Deem and Ramdas Pophale) SiO2 
 PCOD9197468
Probable space group: C 2/M
;
_chemical_formula_sum "Si O2"
_cell_formula_units_Z 36
_cell_length_a 16.461662
_cell_length_b 18.875108
_cell_length_c 5.751264
_cell_angle_alpha 90.000000
_cell_angle_beta 125.323193
_cell_angle_gamma 90.000000
_cell_volume 1458.026050
_symmetry_space_group_name_H-M "C 2/M"
_symmetry_group_IT_number 12
_symmetry_cell_setting 'monoclinic'
loop_
_space_group_symop_operation_xyz
x,y,z
-x,y,-z
-x,-y,-z
x,-y,z
1/2+x,1/2+y,z
1/2-x,1/2+y,-z
1/2-x,1/2-y,-z
1/2+x,1/2-y,z
loop_
_atom_site_type_symbol
_atom_site_label
_atom_site_fract_x
_atom_site_fract_y
_atom_site_fract_z
Si Si1 0.886815 0.887027 0.379145
Si Si2 0.120846 0.339125 0.193728
Si Si3 0.382536 0.780588 0.314085
Si Si4 0.746744 0.000000 0.910670
Si Si5 0.609340 0.000000 0.072167
Si Si6 0.883018 0.000000 0.741734
O O1 0.877173 0.803828 0.335668
O O2 0.876095 0.923090 0.609361
O O3 0.000000 0.906232 0.500000
O O4 0.808018 0.931708 0.101774
O O5 0.158075 0.313306 0.509894
O O6 0.143715 0.421769 0.201910
O O7 0.155318 0.302042 0.007652
O O8 0.000000 0.328919 0.000000
O O9 0.500000 0.801189 0.500000
O O10 0.637495 0.000000 0.840482
O O11 0.778323 0.000000 0.701756
O O12 0.500000 0.000000 0.000000
O O13 0.000000 0.000000 0.000000
#
# Coordination Sequence:
#
# PCOD9197468 Si02
#       6
#     8   8   8   4   4   4
#     4  10  20  35  59  94 130 168 197 247 314 385
#     4   9  19  38  61  90 117 161 213 262 316 369
#     4   9  19  34  62  92 123 160 204 253 320 383
#     4  11  22  39  59  92 126 165 215 252 307 375
#     4  10  23  45  69  85 118 163 218 275 316 359
#     4  11  19  33  61  89 133 172 203 243 303 381
#
# _framework density 24.690916000000001
#
# number of rings (size 3 to 8) (size 9 to 14) (size 15 to 20)
#    0.000    2.222    2.222    0.667    3.111    1.778 
#    8.000    6.667    0.000    0.000    0.000    0.000 
#    0.000    0.000    0.000    0.000    0.000    0.000 
#
# Total GULP energy -100300.440984 kJ/mol
# GULP energy per Si atom -5572.246721 kJ/mol
# Density = 2.463472 g / cm^3
# Si number density = 24.690916 Si / 1000 Ang^3
#
#
#
# Elastic Constant Matrix: (Units=GPa)
#
#
# Indices 1 2 3 4 5 6 
#
# 1 173.8516 25.0061 51.2816 0.0000 -27.8852 0.0000
# 2 25.0061 161.7974 63.1597 0.0000 -52.2823 0.0000
# 3 51.2816 63.1597 110.4387 0.0000 -39.3805 0.0000
# 4 0.0000 0.0000 0.0000 46.6358 0.0000 -27.0939
# 5 -27.8852 -52.2823 -39.3805 0.0000 48.8674 0.0000
# 6 0.0000 0.0000 0.0000 -27.0939 0.0000 31.5779
#
#
#
# Elastic Compliance Matrix: (Units=1/GPa)
#
#
# Indices 1 2 3 4 5 6 
#
# 1 0.006857 0.000857 -0.002739 0.000000 0.002622 0.000000
# 2 0.000857 0.010083 -0.003007 0.000000 0.008853 0.000000
# 3 -0.002739 -0.003007 0.014512 0.000000 0.006914 0.000000
# 4 0.000000 0.000000 0.000000 0.042755 0.000000 0.036684
# 5 0.002622 0.008853 0.006914 0.000000 0.037003 0.000000
# 6 0.000000 0.000000 0.000000 0.036684 0.000000 0.063142
#
#
# Mechanical properties :
#
#
# Convention : Reuss Voigt Hill
#
# Bulk Modulus (GPa) = 46.14102 80.55362 63.34732
# Shear Modulus (GPa) = 26.12928 45.85891 35.99409
#
# Velocity S-wave (km/s) = 3.25661 4.31434 3.82224
# Velocity P-wave (km/s) = 5.73312 7.58377 6.72244
#
# Compressibility (1/GPa) = 0.02167269
#
# Stress axis : x y z
#
# Youngs Moduli (GPa) = 145.82852 99.17935 68.90801
#
# Poissons Ratio (x) = -0.08498 0.18875
# Poissons Ratio (y) = -0.12494 0.20724
# Poissons Ratio (z) = 0.39944 0.29828
#
# Static dielectric constant tensor:
#      x y z
#    x 1.911130 0.000000 0.172920 
#    y 0.000000 1.858540 0.000000 
#    z 0.172920 0.000000 1.720100 
# 
# From -- ./inp_files/15376.got.cif
#   From: 2010.05.17/outbox.cif.g08.bks.cpg/sg12_8_cif.got.tgz:15376.got - 2010.06.03 13:09:07.
