data_PCOD9197582
_publ_section_title
;
Structure prediction by ZEFSAII (Michael W. Deem and Ramdas Pophale) SiO2 
 PCOD9197582
Probable space group: C 2/M
;
_chemical_formula_sum "Si O2"
_cell_formula_units_Z 48
_cell_length_a 28.464108
_cell_length_b 8.868323
_cell_length_c 17.679146
_cell_angle_alpha 90.000000
_cell_angle_beta 143.958628
_cell_angle_gamma 90.000000
_cell_volume 2625.731697
_symmetry_space_group_name_H-M "C 2/M"
_symmetry_group_IT_number 12
_symmetry_cell_setting 'monoclinic'
loop_
_space_group_symop_operation_xyz
x,y,z
-x,y,-z
-x,-y,-z
x,-y,z
1/2+x,1/2+y,z
1/2-x,1/2+y,-z
1/2-x,1/2-y,-z
1/2+x,1/2-y,z
loop_
_atom_site_type_symbol
_atom_site_label
_atom_site_fract_x
_atom_site_fract_y
_atom_site_fract_z
Si Si1 0.054520 0.175591 0.996559
Si Si2 0.773143 0.679804 0.756148
Si Si3 0.877016 0.179768 0.153406
Si Si4 0.725330 0.179744 0.848719
Si Si5 0.294530 0.819918 0.485755
Si Si6 0.481892 0.179681 0.752618
O O1 0.135656 0.266011 0.115759
O O2 0.074237 0.000000 0.006841
O O3 0.000000 0.183065 0.000000
O O4 0.007583 0.243621 0.864582
O O5 0.768931 0.500000 0.749384
O O6 0.727293 0.744769 0.769466
O O7 0.739092 0.747983 0.634558
O O8 0.841465 0.251446 0.183213
O O9 0.959389 0.252974 0.234174
O O10 0.884405 0.000000 0.170715
O O11 0.810265 0.209678 0.001341
O O12 0.716084 0.000000 0.830637
O O13 0.250000 0.750000 0.500000
O O14 0.389162 0.790996 0.615570
O O15 0.281759 0.000000 0.467936
O O16 0.493783 0.000000 0.773315
#
# Coordination Sequence:
#
# PCOD9197582 Si02
#       6
#     8   8   8   8   8   8
#     4  11  23  38  59  87 119 155 199 253 305 357
#     4  12  24  39  62  90 122 160 204 251 302 360
#     4  10  20  35  60  91 124 160 198 245 303 361
#     4  10  20  36  60  90 125 160 198 247 303 358
#     4  11  25  44  64  88 122 164 207 251 306 364
#     4  11  23  39  61  89 121 158 201 250 303 361
#
# _framework density 18.280618
#
# number of rings (size 3 to 8) (size 9 to 14) (size 15 to 20)
#    0.000    1.167    1.667    5.000    0.000    8.000 
#    0.000    0.833    0.000    5.000    0.000    0.000 
#    0.000    0.000    0.000    0.000    0.000    0.000 
#
# Total GULP energy -134247.768304 kJ/mol
# GULP energy per Si atom -5593.657013 kJ/mol
# Density = 1.823901 g / cm^3
# Si number density = 18.280618 Si / 1000 Ang^3
#
#
#
# Elastic Constant Matrix: (Units=GPa)
#
#
# Indices 1 2 3 4 5 6 
#
# 1 141.6523 76.0262 53.1170 0.0000 -15.9244 0.0000
# 2 76.0262 120.0346 65.7144 0.0000 -6.6131 0.0000
# 3 53.1170 65.7144 83.3663 0.0000 -22.7389 0.0000
# 4 0.0000 0.0000 0.0000 30.9743 0.0000 -1.4861
# 5 -15.9244 -6.6131 -22.7389 0.0000 32.4926 0.0000
# 6 0.0000 0.0000 0.0000 -1.4861 0.0000 38.6395
#
#
#
# Elastic Compliance Matrix: (Units=1/GPa)
#
#
# Indices 1 2 3 4 5 6 
#
# 1 0.011281 -0.006190 -0.001413 0.000000 0.003280 0.000000
# 2 -0.006190 0.019178 -0.013516 0.000000 -0.008589 0.000000
# 3 -0.001413 -0.013516 0.027945 0.000000 0.016113 0.000000
# 4 0.000000 0.000000 0.000000 0.032345 0.000000 0.001244
# 5 0.003280 -0.008589 0.016113 0.000000 0.041911 0.000000
# 6 0.000000 0.000000 0.000000 0.001244 0.000000 0.025928
#
#
# Mechanical properties :
#
#
# Convention : Reuss Voigt Hill
#
# Bulk Modulus (GPa) = 61.86507 81.64094 71.75301
# Shear Modulus (GPa) = 24.24663 30.43432 27.34047
#
# Velocity S-wave (km/s) = 3.64587 4.08467 3.87149
# Velocity P-wave (km/s) = 7.18599 8.18553 7.70199
#
# Compressibility (1/GPa) = 0.01616421
#
# Stress axis : x y z
#
# Youngs Moduli (GPa) = 88.64742 52.14322 35.78508
#
# Poissons Ratio (x) = 0.32279 0.05057
# Poissons Ratio (y) = 0.54877 0.48366
# Poissons Ratio (z) = 0.12528 0.70476
#
# Static dielectric constant tensor:
#      x y z
#    x 1.613710 0.000000 0.004890 
#    y 0.000000 1.608280 0.000000 
#    z 0.004890 0.000000 1.596010 
# 
# From -- ./inp_files/295889.got.cif
#   From: 2010.05.17/outbox.cif.g08.bks.cpg/sg12_148_cif.got.tgz:295889.got - 2010.06.03 13:09:07.
