data_PCOD9197779
_publ_section_title
;
Structure prediction by ZEFSAII (Michael W. Deem and Ramdas Pophale) SiO2 
 PCOD9197779
Probable space group: C 2/M
;
_chemical_formula_sum "Si O2"
_cell_formula_units_Z 40
_cell_length_a 8.814521
_cell_length_b 25.890274
_cell_length_c 10.902488
_cell_angle_alpha 90.000000
_cell_angle_beta 60.262133
_cell_angle_gamma 90.000000
_cell_volume 2160.392792
_symmetry_space_group_name_H-M "C 2/M"
_symmetry_group_IT_number 12
_symmetry_cell_setting 'monoclinic'
loop_
_space_group_symop_operation_xyz
x,y,z
-x,y,-z
-x,-y,-z
x,-y,z
1/2+x,1/2+y,z
1/2-x,1/2+y,-z
1/2-x,1/2-y,-z
1/2+x,1/2-y,z
loop_
_atom_site_type_symbol
_atom_site_label
_atom_site_fract_x
_atom_site_fract_y
_atom_site_fract_z
Si Si1 0.041574 0.303429 0.679516
Si Si2 0.918457 0.597428 0.166652
Si Si3 0.531459 0.000000 0.278714
Si Si4 0.512317 0.600799 0.351364
Si Si5 0.282513 0.500000 0.399153
Si Si6 0.200157 0.806740 0.658548
O O1 0.064349 0.348632 0.768084
O O2 0.092487 0.246471 0.705134
O O3 0.179212 0.311132 0.512479
O O4 0.844778 0.306634 0.706957
O O5 0.009359 0.551205 0.206026
O O6 0.711517 0.587317 0.242528
O O7 0.000000 0.600658 0.000000
O O8 0.703419 0.000000 0.294123
O O9 0.373976 0.000000 0.440079
O O10 0.500000 0.616791 0.500000
O O11 0.394854 0.550638 0.379137
O O12 0.434081 0.646132 0.298544
#
# Coordination Sequence:
#
# PCOD9197779 Si02
#       6
#     8   8   4   8   4   8
#     4  10  20  37  59  91 122 155 203 253 307 348
#     4  12  25  41  60  90 130 165 198 247 311 374
#     4  11  22  41  64  93 124 161 202 252 311 353
#     4  12  21  38  62  93 121 157 208 250 300 354
#     4  11  22  38  68  96 120 152 211 266 291 351
#     4  10  20  35  64  90 117 154 207 261 294 353
#
# _framework density 18.515153000000002
#
# number of rings (size 3 to 8) (size 9 to 14) (size 15 to 20)
#    0.000    1.000    4.000    3.600    2.800    3.200 
#    0.000    9.000    0.000    0.000    0.000    0.000 
#    0.000    0.000    0.000    0.000    0.000    0.000 
#
# Total GULP energy -111760.180185 kJ/mol
# GULP energy per Si atom -5588.009009 kJ/mol
# Density = 1.847301 g / cm^3
# Si number density = 18.515153 Si / 1000 Ang^3
#
#
#
# Elastic Constant Matrix: (Units=GPa)
#
#
# Indices 1 2 3 4 5 6 
#
# 1 127.8054 44.6492 28.6365 0.0000 11.6682 0.0000
# 2 44.6492 120.0745 22.0283 0.0000 24.8662 0.0000
# 3 28.6365 22.0283 73.1179 0.0000 8.6307 0.0000
# 4 0.0000 0.0000 0.0000 3.0956 0.0000 -3.5891
# 5 11.6682 24.8662 8.6307 0.0000 16.6293 0.0000
# 6 0.0000 0.0000 0.0000 -3.5891 0.0000 40.2681
#
#
#
# Elastic Compliance Matrix: (Units=1/GPa)
#
#
# Indices 1 2 3 4 5 6 
#
# 1 0.009522 -0.002821 -0.002758 0.000000 -0.001031 0.000000
# 2 -0.002821 0.013079 -0.000810 0.000000 -0.017157 0.000000
# 3 -0.002758 -0.000810 0.015584 0.000000 -0.004942 0.000000
# 4 0.000000 0.000000 0.000000 0.360264 0.000000 0.032111
# 5 -0.001031 -0.017157 -0.004942 0.000000 0.089079 0.000000
# 6 0.000000 0.000000 0.000000 0.032111 0.000000 0.027696
#
#
# Mechanical properties :
#
#
# Convention : Reuss Voigt Hill
#
# Bulk Modulus (GPa) = 39.35926 56.84732 48.10329
# Shear Modulus (GPa) = 9.32018 27.04420 18.18219
#
# Velocity S-wave (km/s) = 2.24605 3.82599 3.13711
# Velocity P-wave (km/s) = 5.29437 7.09136 6.25771
#
# Compressibility (1/GPa) = 0.02540698
#
# Stress axis : x y z
#
# Youngs Moduli (GPa) = 105.01945 76.45877 64.16862
#
# Poissons Ratio (x) = 0.21571 0.17695
# Poissons Ratio (y) = 0.29629 0.05199
# Poissons Ratio (z) = 0.28960 0.06194
#
# Static dielectric constant tensor:
#      x y z
#    x 1.634070 0.000000 0.003700 
#    y 0.000000 1.615160 0.000000 
#    z 0.003700 0.000000 1.609810 
# 
# From -- ./inp_files/121723.got.cif
#   From: 2010.05.17/outbox.cif.g08.bks.cpg/sg12_61_cif.got.tgz:121723.got - 2010.06.03 13:09:07.
