data_PCOD9197519
_publ_section_title
;
Structure prediction by ZEFSAII (Michael W. Deem and Ramdas Pophale) SiO2 
 PCOD9197519
Probable space group: C 2/M
;
_chemical_formula_sum "Si O2"
_cell_formula_units_Z 56
_cell_length_a 26.240309
_cell_length_b 11.278937
_cell_length_c 13.660607
_cell_angle_alpha 90.000000
_cell_angle_beta 141.276411
_cell_angle_gamma 90.000000
_cell_volume 2529.174528
_symmetry_space_group_name_H-M "C 2/M"
_symmetry_group_IT_number 12
_symmetry_cell_setting 'monoclinic'
loop_
_space_group_symop_operation_xyz
x,y,z
-x,y,-z
-x,-y,-z
x,-y,z
1/2+x,1/2+y,z
1/2-x,1/2+y,-z
1/2-x,1/2-y,-z
1/2+x,1/2-y,z
loop_
_atom_site_type_symbol
_atom_site_label
_atom_site_fract_x
_atom_site_fract_y
_atom_site_fract_z
Si Si1 0.080751 0.000000 0.236508
Si Si2 0.281429 0.636014 0.235855
Si Si3 0.323971 0.301520 0.668401
Si Si4 0.430923 0.637071 0.316630
Si Si5 0.681928 0.868642 0.584684
Si Si6 0.601739 0.500000 0.028584
Si Si7 0.892662 0.248340 0.056357
Si Si8 0.446086 0.136268 0.788120
O O1 0.129808 0.114098 0.337302
O O2 0.992808 0.000000 0.145522
O O3 0.086565 0.000000 0.124784
O O4 0.284237 0.500000 0.280992
O O5 0.342339 0.636309 0.234956
O O6 0.315966 0.745447 0.352846
O O7 0.187769 0.669581 0.070061
O O8 0.250000 0.250000 0.500000
O O9 0.272403 0.369617 0.672311
O O10 0.393007 0.204202 0.792270
O O11 0.500000 0.671316 0.500000
O O12 0.449627 0.500000 0.316163
O O13 0.424381 0.721743 0.213397
O O14 0.613276 0.863541 0.396748
O O15 0.671871 0.000000 0.618347
O O16 0.632618 0.620727 0.026404
O O17 0.969616 0.300533 0.112369
O O18 0.459314 0.000000 0.834123
#
# Coordination Sequence:
#
# PCOD9197519 Si02
#       8
#     4   8   8   8   8   4   8   8
#     4  11  20  40  56  94 126 155 218 268 304 369
#     4  11  25  42  62  96 129 169 205 271 330 383
#     4  10  20  35  60  87 123 165 206 264 312 368
#     4  10  22  42  67  96 129 160 211 273 322 383
#     4  10  21  40  64  90 127 171 221 270 314 383
#     4  11  24  36  67  90 125 170 219 262 308 375
#     4  12  22  41  65  93 124 175 213 259 323 390
#     4  10  22  39  59  90 128 171 214 263 326 383
#
# _framework density 22.141611999999999
#
# number of rings (size 3 to 8) (size 9 to 14) (size 15 to 20)
#    0.000    1.429    2.857    2.571    2.000    0.571 
#    5.143    1.429    0.000    6.429    0.000    0.000 
#    0.000    0.000    0.000    0.000    0.000    0.000 
#
# Total GULP energy -156088.968256 kJ/mol
# GULP energy per Si atom -5574.606009 kJ/mol
# Density = 2.209122 g / cm^3
# Si number density = 22.141612 Si / 1000 Ang^3
#
#
#
# Elastic Constant Matrix: (Units=GPa)
#
#
# Indices 1 2 3 4 5 6 
#
# 1 62.2023 26.2545 38.0976 0.0000 17.0428 0.0000
# 2 26.2545 159.2625 33.8378 0.0000 -4.5927 0.0000
# 3 38.0976 33.8378 127.4876 0.0000 3.1440 0.0000
# 4 0.0000 0.0000 0.0000 31.0787 0.0000 -6.7465
# 5 17.0428 -4.5927 3.1440 0.0000 36.1261 0.0000
# 6 0.0000 0.0000 0.0000 -6.7465 0.0000 41.3605
#
#
#
# Elastic Compliance Matrix: (Units=1/GPa)
#
#
# Indices 1 2 3 4 5 6 
#
# 1 0.024203 -0.003007 -0.006157 0.000000 -0.011264 0.000000
# 2 -0.003007 0.007064 -0.001036 0.000000 0.002407 0.000000
# 3 -0.006157 -0.001036 0.009912 0.000000 0.001910 0.000000
# 4 0.000000 0.000000 0.000000 0.033357 0.000000 0.005441
# 5 -0.011264 0.002407 0.001910 0.000000 0.033135 0.000000
# 6 0.000000 0.000000 0.000000 0.005441 0.000000 0.025065
#
#
# Mechanical properties :
#
#
# Convention : Reuss Voigt Hill
#
# Bulk Modulus (GPa) = 48.12312 60.59247 54.35780
# Shear Modulus (GPa) = 31.23811 38.43056 34.83433
#
# Velocity S-wave (km/s) = 3.76018 4.17066 3.97073
# Velocity P-wave (km/s) = 6.37443 7.11462 6.75467
#
# Compressibility (1/GPa) = 0.02078003
#
# Stress axis : x y z
#
# Youngs Moduli (GPa) = 41.31744 141.56183 100.89197
#
# Poissons Ratio (x) = 0.42562 0.62118
# Poissons Ratio (y) = 0.12422 0.10451
# Poissons Ratio (z) = 0.25438 0.14663
#
# Static dielectric constant tensor:
#      x y z
#    x 1.806200 0.000000 -0.050660 
#    y 0.000000 1.929560 0.000000 
#    z -0.050660 0.000000 1.858730 
# 
# From -- ./inp_files/245720.got.cif
#   From: 2010.05.17/outbox.cif.g08.bks.cpg/sg12_123_cif.got.tgz:245720.got - 2010.06.03 13:09:07.
