data_PCOD9197611
_publ_section_title
;
Structure prediction by ZEFSAII (Michael W. Deem and Ramdas Pophale) SiO2 
 PCOD9197611
Probable space group: C 2/M
;
_chemical_formula_sum "Si O2"
_cell_formula_units_Z 36
_cell_length_a 5.380223
_cell_length_b 16.858916
_cell_length_c 19.156245
_cell_angle_alpha 90.000000
_cell_angle_beta 118.986397
_cell_angle_gamma 90.000000
_cell_volume 1519.905909
_symmetry_space_group_name_H-M "C 2/M"
_symmetry_group_IT_number 12
_symmetry_cell_setting 'monoclinic'
loop_
_space_group_symop_operation_xyz
x,y,z
-x,y,-z
-x,-y,-z
x,-y,z
1/2+x,1/2+y,z
1/2-x,1/2+y,-z
1/2-x,1/2-y,-z
1/2+x,1/2-y,z
loop_
_atom_site_type_symbol
_atom_site_label
_atom_site_fract_x
_atom_site_fract_y
_atom_site_fract_z
Si Si1 0.329277 0.000000 0.550162
Si Si2 0.320340 0.910623 0.301668
Si Si3 0.736222 0.832944 0.090752
Si Si4 0.721018 0.799929 0.587916
Si Si5 0.344829 0.154019 0.153255
O O1 0.500000 0.000000 0.500000
O O2 0.410701 0.072602 0.612182
O O3 0.000000 0.000000 0.500000
O O4 0.156023 0.854379 0.332662
O O5 0.392864 0.868761 0.239667
O O6 0.201265 0.000000 0.274021
O O7 0.580532 0.878677 0.132324
O O8 0.843835 0.748252 0.135726
O O9 0.017238 0.872102 0.097019
O O10 0.500000 0.817584 0.000000
O O11 0.500000 0.835910 0.500000
O O12 0.501056 0.736745 0.591232
#
# Coordination Sequence:
#
# PCOD9197611 Si02
#       5
#     4   8   8   8   8
#     4  10  24  44  66  86 121 180 229 254 308 394
#     4  10  25  43  65  97 132 178 218 274 330 394
#     4  10  20  37  66  94 126 169 213 257 325 405
#     4  10  23  41  64  92 126 164 217 276 328 379
#     4  10  20  35  60  94 126 158 212 268 312 373
#
# _framework density 23.685675
#
# number of rings (size 3 to 8) (size 9 to 14) (size 15 to 20)
#    0.667    1.333    0.000    4.000    6.222    6.222 
#    0.000    0.000    0.000    7.333    0.000    0.000 
#    0.000    0.000    0.000    0.000    0.000    0.000 
#
# Total GULP energy -100294.289370 kJ/mol
# GULP energy per Si atom -5571.904965 kJ/mol
# Density = 2.363177 g / cm^3
# Si number density = 23.685675 Si / 1000 Ang^3
#
#
#
# Elastic Constant Matrix: (Units=GPa)
#
#
# Indices 1 2 3 4 5 6 
#
# 1 123.6856 3.6274 3.5292 0.0000 -0.2143 0.0000
# 2 3.6274 45.0152 31.0571 0.0000 -16.3887 0.0000
# 3 3.5292 31.0571 105.9839 0.0000 -25.8609 0.0000
# 4 0.0000 0.0000 0.0000 6.2512 0.0000 -3.4108
# 5 -0.2143 -16.3887 -25.8609 0.0000 41.8361 0.0000
# 6 0.0000 0.0000 0.0000 -3.4108 0.0000 0.8286
#
#
#
# Elastic Compliance Matrix: (Units=1/GPa)
#
#
# Indices 1 2 3 4 5 6 
#
# 1 0.008108 -0.000662 -0.000152 0.000000 -0.000312 0.000000
# 2 -0.000662 0.029702 -0.006881 0.000000 0.007378 0.000000
# 3 -0.000152 -0.006881 0.012717 0.000000 0.005165 0.000000
# 4 0.000000 0.000000 0.000000 -0.128399 0.000000 -0.528513
# 5 -0.000312 0.007378 0.005165 0.000000 0.029984 0.000000
# 6 0.000000 0.000000 0.000000 -0.528513 0.000000 -0.968642
#
#
# Mechanical properties :
#
#
# Convention : Reuss Voigt Hill
#
# Bulk Modulus (GPa) = 28.46045 39.01245 33.73645
# Shear Modulus (GPa) = -5.05344 25.54790 10.24723
#
# Velocity S-wave (km/s) = -1.46225 3.28780 2.08224
# Velocity P-wave (km/s) = 3.03168 5.56053 4.47831
#
# Compressibility (1/GPa) = 0.03513648
#
# Stress axis : x y z
#
# Youngs Moduli (GPa) = 123.33148 33.66791 78.63393
#
# Poissons Ratio (x) = 0.02229 0.01196
# Poissons Ratio (y) = 0.08164 0.54111
# Poissons Ratio (z) = 0.01876 0.23168
#
# Static dielectric constant tensor:
#      x y z
#    x 1.967140 0.000000 0.002220 
#    y 0.000000 2.154470 0.000000 
#    z 0.002220 0.000000 1.930380 
# 
# From -- ./inp_files/297588.got.cif
#   From: 2010.05.17/outbox.cif.g08.bks.cpg/sg12_149_cif.got.tgz:297588.got - 2010.06.03 13:09:07.
