data_PCOD9197561
_publ_section_title
;
Structure prediction by ZEFSAII (Michael W. Deem and Ramdas Pophale) SiO2 
 PCOD9197561
Probable space group: C 2/M
;
_chemical_formula_sum "Si O2"
_cell_formula_units_Z 56
_cell_length_a 9.046144
_cell_length_b 22.374846
_cell_length_c 19.509837
_cell_angle_alpha 90.000000
_cell_angle_beta 139.005927
_cell_angle_gamma 90.000000
_cell_volume 2590.409491
_symmetry_space_group_name_H-M "C 2/M"
_symmetry_group_IT_number 12
_symmetry_cell_setting 'monoclinic'
loop_
_space_group_symop_operation_xyz
x,y,z
-x,y,-z
-x,-y,-z
x,-y,z
1/2+x,1/2+y,z
1/2-x,1/2+y,-z
1/2-x,1/2-y,-z
1/2+x,1/2-y,z
loop_
_atom_site_type_symbol
_atom_site_label
_atom_site_fract_x
_atom_site_fract_y
_atom_site_fract_z
Si Si1 0.327480 0.432040 0.098353
Si Si2 0.593517 0.316108 0.799603
Si Si3 0.735168 0.131573 0.921227
Si Si4 0.850393 0.431034 0.517265
Si Si5 0.500322 0.242327 0.884223
Si Si6 0.648633 0.933933 0.751020
Si Si7 0.748524 0.695122 0.444955
O O1 0.246562 0.500000 0.082749
O O2 0.303001 0.381605 0.148753
O O3 0.595930 0.436707 0.185580
O O4 0.241351 0.405457 0.995181
O O5 0.453496 0.297561 0.818286
O O6 0.437804 0.301860 0.680392
O O7 0.803835 0.270988 0.867936
O O8 0.540725 0.181036 0.858325
O O9 0.664043 0.096788 0.829010
O O10 0.000000 0.150444 0.000000
O O11 0.762851 0.500000 0.495030
O O12 0.699343 0.371816 0.457054
O O13 0.000000 0.433690 0.500000
O O14 0.003026 0.413217 0.635848
O O15 0.750000 0.250000 0.000000
O O16 0.561698 0.000000 0.734764
O O17 0.750000 0.750000 0.500000
O O18 0.000000 0.694969 0.500000
#
# Coordination Sequence:
#
# PCOD9197561 Si02
#       7
#     8   8   8   8   8   8   8
#     4  10  20  36  60  92 131 166 210 264 323 394
#     4  12  26  42  66  97 125 176 217 264 333 386
#     4  10  20  35  60  90 126 168 208 264 320 382
#     4   9  18  35  61  90 123 165 216 268 316 378
#     4  12  25  43  65  91 128 167 218 263 320 392
#     4   9  18  33  59  93 125 167 213 259 318 388
#     4  11  24  42  64  95 129 164 215 274 328 382
#
# _framework density 21.618203999999999
#
# number of rings (size 3 to 8) (size 9 to 14) (size 15 to 20)
#    0.000    1.571    1.429    4.286    4.000    3.429 
#    0.000    2.143    0.000    0.429    0.000    0.000 
#    0.000    0.000    0.000    0.000    0.000    0.000 
#
# Total GULP energy -156011.556044 kJ/mol
# GULP energy per Si atom -5571.841287 kJ/mol
# Density = 2.156900 g / cm^3
# Si number density = 21.618204 Si / 1000 Ang^3
#
#
#
# Elastic Constant Matrix: (Units=GPa)
#
#
# Indices 1 2 3 4 5 6 
#
# 1 47.9130 28.9859 25.2418 0.0000 -3.6422 0.0000
# 2 28.9859 131.1772 41.2347 0.0000 -12.6153 0.0000
# 3 25.2418 41.2347 138.5179 0.0000 -23.8419 0.0000
# 4 0.0000 0.0000 0.0000 20.9421 0.0000 -2.9021
# 5 -3.6422 -12.6153 -23.8419 0.0000 20.7273 0.0000
# 6 0.0000 0.0000 0.0000 -2.9021 0.0000 19.2369
#
#
#
# Elastic Compliance Matrix: (Units=1/GPa)
#
#
# Indices 1 2 3 4 5 6 
#
# 1 0.025472 -0.004722 -0.003691 0.000000 -0.002644 0.000000
# 2 -0.004722 0.009417 -0.001370 0.000000 0.003325 0.000000
# 3 -0.003691 -0.001370 0.010031 0.000000 0.010055 0.000000
# 4 0.000000 0.000000 0.000000 0.048770 0.000000 0.007358
# 5 -0.002644 0.003325 0.010055 0.000000 0.061371 0.000000
# 6 0.000000 0.000000 0.000000 0.007358 0.000000 0.053094
#
#
# Mechanical properties :
#
#
# Convention : Reuss Voigt Hill
#
# Bulk Modulus (GPa) = 39.44476 56.50365 47.97420
# Shear Modulus (GPa) = 21.17097 26.99098 24.08097
#
# Velocity S-wave (km/s) = 3.13279 3.53729 3.34117
# Velocity P-wave (km/s) = 5.60103 6.54805 6.09297
#
# Compressibility (1/GPa) = 0.02535191
#
# Stress axis : x y z
#
# Youngs Moduli (GPa) = 39.25946 106.18656 99.69572
#
# Poissons Ratio (x) = 0.50146 0.36796
# Poissons Ratio (y) = 0.18540 0.13663
# Poissons Ratio (z) = 0.14490 0.14553
#
# Static dielectric constant tensor:
#      x y z
#    x 2.431500 0.000000 -1.159210 
#    y 0.000000 1.701570 0.000000 
#    z -1.159210 0.000000 3.750610 
# 
# From -- ./inp_files/259275.got.cif
#   From: 2010.05.17/outbox.cif.g08.bks.cpg/sg12_130_cif.got.tgz:259275.got - 2010.06.03 13:09:07.
