data_PCOD9197356
_publ_section_title
;
Structure prediction by ZEFSAII (Michael W. Deem and Ramdas Pophale) SiO2 
 PCOD9197356
Probable space group: C 2/M
;
_chemical_formula_sum "Si O2"
_cell_formula_units_Z 64
_cell_length_a 9.338454
_cell_length_b 16.185685
_cell_length_c 30.561990
_cell_angle_alpha 90.000000
_cell_angle_beta 45.956915
_cell_angle_gamma 90.000000
_cell_volume 3320.520582
_symmetry_space_group_name_H-M "C 2/M"
_symmetry_group_IT_number 12
_symmetry_cell_setting 'monoclinic'
loop_
_space_group_symop_operation_xyz
x,y,z
-x,y,-z
-x,-y,-z
x,-y,z
1/2+x,1/2+y,z
1/2-x,1/2+y,-z
1/2-x,1/2-y,-z
1/2+x,1/2-y,z
loop_
_atom_site_type_symbol
_atom_site_label
_atom_site_fract_x
_atom_site_fract_y
_atom_site_fract_z
Si Si1 0.398695 0.651057 0.743051
Si Si2 0.896391 0.808978 0.880183
Si Si3 0.648656 0.904366 0.632435
Si Si4 0.000766 0.908296 0.370934
Si Si5 0.190786 0.588275 0.991904
Si Si6 0.267607 0.752706 0.547649
Si Si7 0.429436 0.853962 0.122324
Si Si8 0.266943 0.671062 0.254433
O O1 0.444875 0.595947 0.691576
O O2 0.230509 0.609732 0.809795
O O3 0.590897 0.670587 0.732770
O O4 0.316087 0.738101 0.740998
O O5 0.713695 0.816075 0.885171
O O6 0.957474 0.715572 0.874662
O O7 0.084699 0.853102 0.816953
O O8 0.833755 0.844034 0.940650
O O9 0.703158 0.832095 0.585982
O O10 0.424906 0.885476 0.696522
O O11 0.806493 0.896525 0.638782
O O12 0.661797 0.000000 0.613583
O O13 0.856120 0.830781 0.408807
O O14 0.918188 0.000000 0.398832
O O15 0.293368 0.500000 0.966382
O O16 0.096694 0.598153 0.059671
O O17 0.000000 0.587527 0.000000
O O18 0.500000 0.766985 0.500000
O O19 0.250000 0.750000 0.500000
#
# Coordination Sequence:
#
# PCOD9197356 Si02
#       8
#     8   8   8   8   8   8   8   8
#     4  10  20  35  59  88 121 157 202 252 305 359
#     4   9  18  32  53  81 109 147 195 244 291 350
#     4  11  25  44  67  95 128 166 206 248 303 365
#     4  11  25  44  66  96 129 163 205 252 303 361
#     4   9  17  30  49  73 108 149 191 243 298 347
#     4  12  26  46  71  95 124 163 201 248 298 357
#     4   9  18  32  53  81 109 148 194 243 293 350
#     4  10  20  35  59  88 120 158 202 251 306 358
#
# _framework density 19.274087000000002
#
# number of rings (size 3 to 8) (size 9 to 14) (size 15 to 20)
#    0.000    1.875    2.500    1.125    1.750    3.500 
#    0.000    2.500    0.000    1.500    0.000    0.000 
#    0.000    0.000    0.000    0.000    0.000    0.000 
#
# Total GULP energy -178226.322062 kJ/mol
# GULP energy per Si atom -5569.572564 kJ/mol
# Density = 1.923022 g / cm^3
# Si number density = 19.274087 Si / 1000 Ang^3
#
#
#
# Elastic Constant Matrix: (Units=GPa)
#
#
# Indices 1 2 3 4 5 6 
#
# 1 75.3719 32.5303 41.7179 0.0002 -0.0594 0.0004
# 2 32.5303 97.7623 43.7612 0.0000 -0.8005 0.0002
# 3 41.7179 43.7612 105.5265 -0.0008 11.5823 0.0005
# 4 0.0002 0.0000 -0.0008 1.9813 -0.0002 -0.0987
# 5 -0.0594 -0.8005 11.5823 -0.0002 30.5096 -0.0004
# 6 0.0004 0.0002 0.0005 -0.0987 -0.0004 14.6602
#
#
#
# Elastic Compliance Matrix: (Units=1/GPa)
#
#
# Indices 1 2 3 4 5 6 
#
# 1 0.018010 -0.003289 -0.006001 -0.000004 0.002227 0.000000
# 2 -0.003289 0.013333 -0.004452 -0.000001 0.002034 0.000000
# 3 -0.006001 -0.004452 0.014305 0.000006 -0.005559 0.000000
# 4 -0.000004 -0.000001 0.000006 0.504900 0.000001 0.003398
# 5 0.002227 0.002034 -0.005559 0.000001 0.034945 0.000001
# 6 0.000000 0.000000 0.000000 0.003398 0.000001 0.068235
#
#
# Mechanical properties :
#
#
# Convention : Reuss Voigt Hill
#
# Bulk Modulus (GPa) = 55.05061 57.18660 56.11861
# Shear Modulus (GPa) = 7.27523 20.14030 13.70777
#
# Velocity S-wave (km/s) = 1.94494 3.23606 2.66973
# Velocity P-wave (km/s) = 5.80239 6.61040 6.21953
#
# Compressibility (1/GPa) = 0.01816510
#
# Stress axis : x y z
#
# Youngs Moduli (GPa) = 55.52510 75.00356 69.90616
#
# Poissons Ratio (x) = 0.24665 0.41947
# Poissons Ratio (y) = 0.18260 0.31123
# Poissons Ratio (z) = 0.33318 0.33392
#
# Static dielectric constant tensor:
#      x y z
#    x 1.637020 0.000000 0.012430 
#    y 0.000000 1.688260 0.000000 
#    z 0.012430 0.000000 1.733890 
# 
# From -- ./inp_files/372548.got.cif
#   From: 2010.05.17/outbox.cif.g08.bks.cpg/sg12_187_cif.got.tgz:372548.got - 2010.06.03 13:09:07.
