data_PCOD9197758
_publ_section_title
;
Structure prediction by ZEFSAII (Michael W. Deem and Ramdas Pophale) SiO2 
 PCOD9197758
Probable space group: C 2/M
;
_chemical_formula_sum "Si O2"
_cell_formula_units_Z 36
_cell_length_a 13.634994
_cell_length_b 10.657975
_cell_length_c 13.588329
_cell_angle_alpha 90.000000
_cell_angle_beta 118.043561
_cell_angle_gamma 90.000000
_cell_volume 1742.829508
_symmetry_space_group_name_H-M "C 2/M"
_symmetry_group_IT_number 12
_symmetry_cell_setting 'monoclinic'
loop_
_space_group_symop_operation_xyz
x,y,z
-x,y,-z
-x,-y,-z
x,-y,z
1/2+x,1/2+y,z
1/2-x,1/2+y,-z
1/2-x,1/2-y,-z
1/2+x,1/2-y,z
loop_
_atom_site_type_symbol
_atom_site_label
_atom_site_fract_x
_atom_site_fract_y
_atom_site_fract_z
Si Si1 0.110602 0.255571 0.991708
Si Si2 0.975567 0.755021 0.604469
Si Si3 0.611554 0.000000 0.483792
Si Si4 0.134278 0.000000 0.350536
Si Si5 0.528857 0.500000 0.899237
Si Si6 0.323161 0.145216 0.175648
O O1 0.095102 0.128170 0.919309
O O2 0.137532 0.354240 0.920107
O O3 0.207690 0.221017 0.113878
O O4 0.000000 0.283431 0.000000
O O5 0.900083 0.630100 0.579930
O O6 0.000000 0.774737 0.500000
O O7 0.088866 0.716754 0.714095
O O8 0.914825 0.876382 0.619285
O O9 0.500000 0.000000 0.500000
O O10 0.732641 0.000000 0.589390
O O11 0.079331 0.000000 0.217528
O O12 0.500000 0.500000 0.000000
O O13 0.311081 0.000000 0.200493
#
# Coordination Sequence:
#
# PCOD9197758 Si02
#       6
#     8   8   4   4   4   8
#     4  10  22  40  63  95 125 166 209 253 323 379
#     4  11  24  43  64  95 126 173 215 263 323 376
#     4  10  24  43  67  94 123 165 217 262 326 372
#     4  12  23  44  68  92 131 166 217 269 312 391
#     4  10  20  35  63  94 115 158 208 246 311 368
#     4  11  22  40  66  92 131 164 209 268 311 384
#
# _framework density 20.656065000000002
#
# number of rings (size 3 to 8) (size 9 to 14) (size 15 to 20)
#    0.000    1.333    4.444    1.000    0.000    7.556 
#    4.000    0.000    0.000    0.000    0.000    0.000 
#    0.000    0.000    0.000    0.000    0.000    0.000 
#
# Total GULP energy -100488.222705 kJ/mol
# GULP energy per Si atom -5582.679039 kJ/mol
# Density = 2.060905 g / cm^3
# Si number density = 20.656065 Si / 1000 Ang^3
#
#
#
# Elastic Constant Matrix: (Units=GPa)
#
#
# Indices 1 2 3 4 5 6 
#
# 1 108.5201 39.2233 66.3479 0.0000 16.8644 0.0000
# 2 39.2233 139.2776 52.9079 0.0000 3.6350 0.0000
# 3 66.3479 52.9079 187.4193 0.0000 37.6854 0.0000
# 4 0.0000 0.0000 0.0000 25.1292 0.0000 1.7506
# 5 16.8644 3.6350 37.6854 0.0000 43.4525 0.0000
# 6 0.0000 0.0000 0.0000 1.7506 0.0000 7.7741
#
#
#
# Elastic Compliance Matrix: (Units=1/GPa)
#
#
# Indices 1 2 3 4 5 6 
#
# 1 0.012340 -0.002125 -0.003441 0.000000 -0.001627 0.000000
# 2 -0.002125 0.008498 -0.002022 0.000000 0.001868 0.000000
# 3 -0.003441 -0.002022 0.008263 0.000000 -0.005662 0.000000
# 4 0.000000 0.000000 0.000000 0.040428 0.000000 -0.009104
# 5 -0.001627 0.001868 -0.005662 0.000000 0.028399 0.000000
# 6 0.000000 0.000000 0.000000 -0.009104 0.000000 0.130682
#
#
# Mechanical properties :
#
#
# Convention : Reuss Voigt Hill
#
# Bulk Modulus (GPa) = 71.82201 83.57503 77.69852
# Shear Modulus (GPa) = 20.12648 33.72036 26.92342
#
# Velocity S-wave (km/s) = 3.12486 4.04476 3.61420
# Velocity P-wave (km/s) = 6.91850 7.89694 7.42385
#
# Compressibility (1/GPa) = 0.01392331
#
# Stress axis : x y z
#
# Youngs Moduli (GPa) = 81.03802 117.67683 121.01991
#
# Poissons Ratio (x) = 0.25012 0.41646
# Poissons Ratio (y) = 0.17224 0.24471
# Poissons Ratio (z) = 0.27887 0.23795
#
# Static dielectric constant tensor:
#      x y z
#    x 1.759160 0.000000 -0.003790 
#    y 0.000000 1.821090 0.000000 
#    z -0.003790 0.000000 1.754590 
# 
# From -- ./inp_files/212163.got.cif
#   From: 2010.05.17/outbox.cif.g08.bks.cpg/sg12_107_cif.got.tgz:212163.got - 2010.06.03 13:09:07.
