data_PCOD9197264
_publ_section_title
;
Structure prediction by ZEFSAII (Michael W. Deem and Ramdas Pophale) SiO2 
 PCOD9197264
Probable space group: C 2/M
;
_chemical_formula_sum "Si O2"
_cell_formula_units_Z 56
_cell_length_a 30.726172
_cell_length_b 7.523420
_cell_length_c 11.512585
_cell_angle_alpha 90.000000
_cell_angle_beta 114.181145
_cell_angle_gamma 90.000000
_cell_volume 2427.799681
_symmetry_space_group_name_H-M "C 2/M"
_symmetry_group_IT_number 12
_symmetry_cell_setting 'monoclinic'
loop_
_space_group_symop_operation_xyz
x,y,z
-x,y,-z
-x,-y,-z
x,-y,z
1/2+x,1/2+y,z
1/2-x,1/2+y,-z
1/2-x,1/2-y,-z
1/2+x,1/2-y,z
loop_
_atom_site_type_symbol
_atom_site_label
_atom_site_fract_x
_atom_site_fract_y
_atom_site_fract_z
Si Si1 0.168475 0.785436 0.084673
Si Si2 0.120482 0.794790 0.265833
Si Si3 0.774706 0.282877 0.192177
Si Si4 0.974022 0.718308 0.351996
Si Si5 0.202672 0.289552 0.521691
Si Si6 0.870740 0.707679 0.188394
Si Si7 0.012639 0.297495 0.142743
O O1 0.152850 0.725703 0.195011
O O2 0.221251 0.718758 0.107912
O O3 0.170478 0.000000 0.088259
O O4 0.129083 0.726428 0.949803
O O5 0.154744 0.786961 0.414231
O O6 0.069892 0.701232 0.217681
O O7 0.108972 0.000000 0.228746
O O8 0.773065 0.500000 0.181894
O O9 0.786531 0.232015 0.336576
O O10 0.819752 0.214713 0.169428
O O11 0.975891 0.500000 0.352568
O O12 0.918951 0.778315 0.295821
O O13 0.993985 0.777332 0.246806
O O14 0.000000 0.773296 0.500000
O O15 0.195882 0.500000 0.516247
O O16 0.250000 0.250000 0.500000
O O17 0.869320 0.500000 0.218160
O O18 0.993792 0.500000 0.117957
O O19 0.000000 0.219729 0.000000
#
# Coordination Sequence:
#
# PCOD9197264 Si02
#       7
#     8   8   8   8   8   8   8
#     4  10  20  37  55  79 118 152 181 228 288 343
#     4  11  23  38  58  85 118 156 196 237 290 351
#     4   9  19  35  56  82 114 149 186 229 281 342
#     4   9  19  35  57  84 114 147 189 241 295 348
#     4  11  21  37  59  85 118 155 193 237 288 342
#     4  10  20  35  59  85 108 143 193 236 279 342
#     4  10  21  38  61  89 116 147 198 256 298 347
#
# _framework density 23.066153
#
# number of rings (size 3 to 8) (size 9 to 14) (size 15 to 20)
#    0.000    2.000    1.429    2.143    2.000    2.571 
#    0.000    2.143    0.000    0.857    0.000    0.000 
#    0.000    0.000    0.000    0.000    0.000    0.000 
#
# Total GULP energy -156345.881456 kJ/mol
# GULP energy per Si atom -5583.781481 kJ/mol
# Density = 2.301365 g / cm^3
# Si number density = 23.066153 Si / 1000 Ang^3
#
#
#
# Elastic Constant Matrix: (Units=GPa)
#
#
# Indices 1 2 3 4 5 6 
#
# 1 108.4058 5.2107 55.0340 0.0000 10.3587 0.0000
# 2 5.2107 58.1929 -5.6169 0.0000 -1.5487 0.0000
# 3 55.0340 -5.6169 169.5509 0.0000 10.6280 0.0000
# 4 0.0000 0.0000 0.0000 11.1861 0.0000 3.6828
# 5 10.3587 -1.5487 10.6280 0.0000 41.1671 0.0000
# 6 0.0000 0.0000 0.0000 3.6828 0.0000 10.2384
#
#
#
# Elastic Compliance Matrix: (Units=1/GPa)
#
#
# Indices 1 2 3 4 5 6 
#
# 1 0.011305 -0.001411 -0.003593 0.000000 -0.001970 0.000000
# 2 -0.001411 0.017426 0.000988 0.000000 0.000756 0.000000
# 3 -0.003593 0.000988 0.007154 0.000000 -0.000906 0.000000
# 4 0.000000 0.000000 0.000000 0.101405 0.000000 -0.036476
# 5 -0.001970 0.000756 -0.000906 0.000000 0.025049 0.000000
# 6 0.000000 0.000000 0.000000 -0.036476 0.000000 0.110792
#
#
# Mechanical properties :
#
#
# Convention : Reuss Voigt Hill
#
# Bulk Modulus (GPa) = 35.90369 49.48946 42.69658
# Shear Modulus (GPa) = 17.21485 31.28644 24.25064
#
# Velocity S-wave (km/s) = 2.73486 3.68690 3.24597
# Velocity P-wave (km/s) = 5.05687 6.29495 5.70956
#
# Compressibility (1/GPa) = 0.02785229
#
# Stress axis : x y z
#
# Youngs Moduli (GPa) = 88.46016 57.38525 139.79099
#
# Poissons Ratio (x) = 0.08099 0.50221
# Poissons Ratio (y) = 0.12485 -0.13812
# Poissons Ratio (z) = 0.31780 -0.05670
#
# Static dielectric constant tensor:
#      x y z
#    x 1.859700 0.000000 -0.032820 
#    y 0.000000 1.869510 0.000000 
#    z -0.032820 0.000000 1.831790 
# 
# From -- ./inp_files/180731.got.cif
#   From: 2010.05.17/outbox.cif.g08.bks.cpg/sg12_91_cif.got.tgz:180731.got - 2010.06.03 13:09:07.
