data_PCOD9197655
_publ_section_title
;
Structure prediction by ZEFSAII (Michael W. Deem and Ramdas Pophale) SiO2 
 PCOD9197655
Probable space group: C 2/M
;
_chemical_formula_sum "Si O2"
_cell_formula_units_Z 64
_cell_length_a 7.948614
_cell_length_b 22.107096
_cell_length_c 19.108531
_cell_angle_alpha 90.000000
_cell_angle_beta 89.127010
_cell_angle_gamma 90.000000
_cell_volume 3357.376084
_symmetry_space_group_name_H-M "C 2/M"
_symmetry_group_IT_number 12
_symmetry_cell_setting 'monoclinic'
loop_
_space_group_symop_operation_xyz
x,y,z
-x,y,-z
-x,-y,-z
x,-y,z
1/2+x,1/2+y,z
1/2-x,1/2+y,-z
1/2-x,1/2-y,-z
1/2+x,1/2-y,z
loop_
_atom_site_type_symbol
_atom_site_label
_atom_site_fract_x
_atom_site_fract_y
_atom_site_fract_z
Si Si1 0.971322 0.573270 0.579021
Si Si2 0.043645 0.432052 0.918647
Si Si3 0.842347 0.927247 0.329332
Si Si4 0.841951 0.659431 0.185748
Si Si5 0.367198 0.230265 0.865471
Si Si6 0.576833 0.335327 0.928455
Si Si7 0.768469 0.927015 0.687332
Si Si8 0.198120 0.931636 0.830575
O O1 0.957515 0.500000 0.575599
O O2 0.798173 0.596118 0.615789
O O3 0.000000 0.595542 0.500000
O O4 0.132597 0.584770 0.627211
O O5 0.117349 0.500000 0.912286
O O6 0.159351 0.379832 0.885847
O O7 0.873053 0.432735 0.872636
O O8 0.000000 0.422182 0.000000
O O9 0.782566 0.914358 0.250491
O O10 0.039218 0.910419 0.334588
O O11 0.841008 0.000000 0.336485
O O12 0.736648 0.721000 0.178751
O O13 0.787268 0.614175 0.246853
O O14 0.030613 0.686333 0.186293
O O15 0.481860 0.274058 0.910177
O O16 0.267253 0.188640 0.921097
O O17 0.572126 0.385512 0.868376
O O18 0.500000 0.359652 0.000000
O O19 0.763273 0.000000 0.703202
O O20 0.130429 0.000000 0.832431
#
# Coordination Sequence:
#
# PCOD9197655 Si02
#       8
#     8   8   8   8   8   8   8   8
#     4   9  18  32  54  89 131 164 186 219 277 351
#     4  10  21  35  55  79 108 146 191 244 302 359
#     4   9  18  33  53  82 119 156 192 230 276 343
#     4  11  21  39  57  79 109 143 196 242 294 348
#     4  10  24  37  53  76 104 141 193 243 295 340
#     4  11  22  37  54  74 102 143 184 241 296 347
#     4  10  20  35  61  91 119 157 192 231 291 349
#     4  10  20  36  55  79 110 148 190 239 295 345
#
# _framework density 19.062505999999999
#
# number of rings (size 3 to 8) (size 9 to 14) (size 15 to 20)
#    0.000    2.000    1.250    2.250    1.750    4.750 
#    0.000    3.125    0.000    0.000    0.000    0.875 
#    0.000    0.000    0.000    0.000    0.000    0.000 
#
# Total GULP energy -178379.724404 kJ/mol
# GULP energy per Si atom -5574.366388 kJ/mol
# Density = 1.901912 g / cm^3
# Si number density = 19.062506 Si / 1000 Ang^3
#
#
#
# Elastic Constant Matrix: (Units=GPa)
#
#
# Indices 1 2 3 4 5 6 
#
# 1 96.8697 24.1794 58.1074 0.0000 -22.8164 0.0000
# 2 24.1794 85.1032 38.2563 0.0000 -15.0616 0.0000
# 3 58.1074 38.2563 134.6700 0.0000 -29.7181 0.0000
# 4 0.0000 0.0000 0.0000 8.5082 0.0000 13.3651
# 5 -22.8164 -15.0616 -29.7181 0.0000 24.6293 0.0000
# 6 0.0000 0.0000 0.0000 13.3651 0.0000 -40.6525
#
#
#
# Elastic Compliance Matrix: (Units=1/GPa)
#
#
# Indices 1 2 3 4 5 6 
#
# 1 0.015141 -0.000846 -0.004513 0.000000 0.008063 0.000000
# 2 -0.000846 0.013973 -0.002578 0.000000 0.004650 0.000000
# 3 -0.004513 -0.002578 0.012041 0.000000 0.008771 0.000000
# 4 0.000000 0.000000 0.000000 0.077506 0.000000 0.025481
# 5 0.008063 0.004650 0.008771 0.000000 0.061499 0.000000
# 6 0.000000 0.000000 0.000000 0.025481 0.000000 -0.016221
#
#
# Mechanical properties :
#
#
# Convention : Reuss Voigt Hill
#
# Bulk Modulus (GPa) = 39.55729 61.96988 50.76358
# Shear Modulus (GPa) = 26.56197 11.57032 19.06615
#
# Velocity S-wave (km/s) = 3.73690 2.46634 3.16601
# Velocity P-wave (km/s) = 6.27818 6.37886 6.32872
#
# Compressibility (1/GPa) = 0.02527979
#
# Stress axis : x y z
#
# Youngs Moduli (GPa) = 66.04681 71.56797 83.05057
#
# Poissons Ratio (x) = 0.06054 0.37483
# Poissons Ratio (y) = 0.05587 0.21411
# Poissons Ratio (z) = 0.29809 0.18451
#
# Static dielectric constant tensor:
#      x y z
#    x 1.775780 0.000000 -0.005320 
#    y 0.000000 1.654370 0.000000 
#    z -0.005320 0.000000 1.641840 
# 
# From -- ./inp_files/258918.got.cif
#   From: 2010.05.17/outbox.cif.g08.bks.cpg/sg12_130_cif.got.tgz:258918.got - 2010.06.03 13:09:07.
