data_PCOD9197182
_publ_section_title
;
Structure prediction by ZEFSAII (Michael W. Deem and Ramdas Pophale) SiO2 
 PCOD9197182
Probable space group: C 2/M
;
_chemical_formula_sum "Si O2"
_cell_formula_units_Z 64
_cell_length_a 15.416125
_cell_length_b 8.674813
_cell_length_c 29.429256
_cell_angle_alpha 90.000000
_cell_angle_beta 58.646316
_cell_angle_gamma 90.000000
_cell_volume 3360.919409
_symmetry_space_group_name_H-M "C 2/M"
_symmetry_group_IT_number 12
_symmetry_cell_setting 'monoclinic'
loop_
_space_group_symop_operation_xyz
x,y,z
-x,y,-z
-x,-y,-z
x,-y,z
1/2+x,1/2+y,z
1/2-x,1/2+y,-z
1/2-x,1/2-y,-z
1/2+x,1/2-y,z
loop_
_atom_site_type_symbol
_atom_site_label
_atom_site_fract_x
_atom_site_fract_y
_atom_site_fract_z
Si Si1 0.579559 0.675838 0.441964
Si Si2 0.613119 0.685659 0.257571
Si Si3 0.256307 0.314159 0.865516
Si Si4 0.333705 0.686247 0.942550
Si Si5 0.389840 0.186905 0.328919
Si Si6 0.533613 0.314067 0.939968
Si Si7 0.785136 0.672130 0.444343
Si Si8 0.193823 0.683493 0.330046
O O1 0.500000 0.741643 0.500000
O O2 0.546703 0.500000 0.439268
O O3 0.685103 0.664893 0.440290
O O4 0.605309 0.769905 0.389980
O O5 0.606719 0.500000 0.260359
O O6 0.680143 0.733636 0.195865
O O7 0.500198 0.754974 0.284897
O O8 0.665590 0.744951 0.289324
O O9 0.253586 0.500000 0.866515
O O10 0.308779 0.263111 0.898291
O O11 0.141911 0.253104 0.897268
O O12 0.329418 0.500000 0.945269
O O13 0.444476 0.733358 0.929963
O O14 0.250000 0.750000 0.000000
O O15 0.366903 0.242278 0.387201
O O16 0.299539 0.249590 0.321426
O O17 0.385172 0.000000 0.330360
O O18 0.540547 0.500000 0.938109
O O19 0.500000 0.266261 0.000000
O O20 0.819602 0.500000 0.446681
O O21 0.750000 0.750000 0.500000
O O22 0.200912 0.500000 0.325042
#
# Coordination Sequence:
#
# PCOD9197182 Si02
#       8
#     8   8   8   8   8   8   8   8
#     4   9  19  36  56  82 115 153 193 242 303 364
#     4  11  24  42  63  88 121 164 211 257 305 362
#     4  10  23  40  59  88 121 156 203 248 293 352
#     4  10  20  36  58  86 121 157 194 240 292 350
#     4  10  22  42  63  88 120 158 203 255 309 367
#     4  10  20  35  58  89 124 160 196 240 297 352
#     4   9  19  33  52  81 115 147 185 236 296 359
#     4  11  23  40  62  89 119 159 205 253 310 367
#
# _framework density 19.042407999999998
#
# number of rings (size 3 to 8) (size 9 to 14) (size 15 to 20)
#    0.000    2.000    1.250    2.625    1.750    5.500 
#    0.000    1.250    0.000    0.000    0.000    0.000 
#    0.000    0.000    0.000    0.000    0.000    0.000 
#
# Total GULP energy -178632.012617 kJ/mol
# GULP energy per Si atom -5582.250394 kJ/mol
# Density = 1.899907 g / cm^3
# Si number density = 19.042408 Si / 1000 Ang^3
#
#
#
# Elastic Constant Matrix: (Units=GPa)
#
#
# Indices 1 2 3 4 5 6 
#
# 1 134.6670 33.0114 97.1268 0.0000 -2.4740 0.0000
# 2 33.0114 49.2867 46.7363 0.0000 2.9185 0.0000
# 3 97.1268 46.7363 202.2925 0.0000 -6.0930 0.0000
# 4 0.0000 0.0000 0.0000 24.9064 0.0000 -6.7021
# 5 -2.4740 2.9185 -6.0930 0.0000 35.8320 0.0000
# 6 0.0000 0.0000 0.0000 -6.7021 0.0000 26.7729
#
#
#
# Elastic Compliance Matrix: (Units=1/GPa)
#
#
# Indices 1 2 3 4 5 6 
#
# 1 0.011749 -0.003255 -0.004882 0.000000 0.000246 0.000000
# 2 -0.003255 0.027242 -0.004830 0.000000 -0.003265 0.000000
# 3 -0.004882 -0.004830 0.008448 0.000000 0.001493 0.000000
# 4 0.000000 0.000000 0.000000 0.043050 0.000000 0.010777
# 5 0.000246 -0.003265 0.001493 0.000000 0.028445 0.000000
# 6 0.000000 0.000000 0.000000 0.010777 0.000000 0.040049
#
#
# Mechanical properties :
#
#
# Convention : Reuss Voigt Hill
#
# Bulk Modulus (GPa) = 46.49573 82.22169 64.35871
# Shear Modulus (GPa) = 26.03023 31.46037 28.74530
#
# Velocity S-wave (km/s) = 3.70125 4.06904 3.88950
# Velocity P-wave (km/s) = 6.53725 8.08381 7.35132
#
# Compressibility (1/GPa) = 0.02150735
#
# Stress axis : x y z
#
# Youngs Moduli (GPa) = 85.11425 36.70747 118.37254
#
# Poissons Ratio (x) = 0.11947 0.57785
# Poissons Ratio (y) = 0.27703 0.57168
# Poissons Ratio (z) = 0.41550 0.17728
#
# Static dielectric constant tensor:
#      x y z
#    x 1.649780 0.000000 0.003440 
#    y 0.000000 1.667270 0.000000 
#    z 0.003440 0.000000 1.658390 
# 
# From -- ./inp_files/375021.got.cif
#   From: 2010.05.17/outbox.cif.g08.bks.cpg/sg12_188_cif.got.tgz:375021.got - 2010.06.03 13:09:07.
