data_PCOD9197001
_publ_section_title
;
Structure prediction by ZEFSAII (Michael W. Deem and Ramdas Pophale) SiO2 
 PCOD9197001
Probable space group: C 2/M
;
_chemical_formula_sum "Si O2"
_cell_formula_units_Z 56
_cell_length_a 17.756976
_cell_length_b 11.019688
_cell_length_c 17.050324
_cell_angle_alpha 90.000000
_cell_angle_beta 55.476709
_cell_angle_gamma 90.000000
_cell_volume 2748.800810
_symmetry_space_group_name_H-M "C 2/M"
_symmetry_group_IT_number 12
_symmetry_cell_setting 'monoclinic'
loop_
_space_group_symop_operation_xyz
x,y,z
-x,y,-z
-x,-y,-z
x,-y,z
1/2+x,1/2+y,z
1/2-x,1/2+y,-z
1/2-x,1/2-y,-z
1/2+x,1/2-y,z
loop_
_atom_site_type_symbol
_atom_site_label
_atom_site_fract_x
_atom_site_fract_y
_atom_site_fract_z
Si Si1 0.393139 0.137543 0.038344
Si Si2 0.040039 0.860703 0.586874
Si Si3 0.145986 0.253991 0.276300
Si Si4 0.081458 0.358467 0.159800
Si Si5 0.396323 0.717123 0.284621
Si Si6 0.823126 0.870723 0.170924
Si Si7 0.714059 0.636701 0.379065
O O1 0.344268 0.251189 0.107794
O O2 0.362091 0.000000 0.078229
O O3 0.500000 0.143911 0.000000
O O4 0.385795 0.150447 0.948902
O O5 0.077815 0.855560 0.653077
O O6 0.121587 0.830284 0.479610
O O7 0.957984 0.763658 0.633420
O O8 0.008911 0.000000 0.589059
O O9 0.134128 0.270932 0.189818
O O10 0.215760 0.361582 0.256982
O O11 0.195017 0.147717 0.297075
O O12 0.089484 0.500000 0.179455
O O13 0.975953 0.316043 0.224073
O O14 0.384258 0.640348 0.212635
O O15 0.298774 0.780956 0.352485
O O16 0.840536 0.000000 0.120842
O O17 0.736246 0.500000 0.387290
#
# Coordination Sequence:
#
# PCOD9197001 Si02
#       7
#     8   8   8   8   8   8   8
#     4  10  21  39  63  91 118 153 200 248 295 356
#     4  10  20  36  57  84 117 155 203 255 300 348
#     4  10  22  36  55  81 115 156 194 239 296 356
#     4  10  20  38  60  83 115 152 195 245 295 354
#     4  10  20  35  58  87 117 154 197 245 299 359
#     4  11  23  39  59  88 125 159 195 246 304 360
#     4  10  20  35  58  85 116 156 204 253 298 352
#
# _framework density 20.372520999999999
#
# number of rings (size 3 to 8) (size 9 to 14) (size 15 to 20)
#    0.000    1.857    1.429    2.571    0.000    4.857 
#    0.000    1.429    0.000   32.571    0.000    0.000 
#    0.000    0.000    0.000    0.000    0.000    0.000 
#
# Total GULP energy -155956.739406 kJ/mol
# GULP energy per Si atom -5569.883550 kJ/mol
# Density = 2.032615 g / cm^3
# Si number density = 20.372521 Si / 1000 Ang^3
#
#
#
# Elastic Constant Matrix: (Units=GPa)
#
#
# Indices 1 2 3 4 5 6 
#
# 1 90.4657 22.5894 24.2898 0.0000 8.6989 0.0000
# 2 22.5894 113.8306 60.0208 0.0000 -5.6567 0.0000
# 3 24.2898 60.0208 78.7268 0.0000 7.9617 0.0000
# 4 0.0000 0.0000 0.0000 22.8673 0.0000 3.1750
# 5 8.6989 -5.6567 7.9617 0.0000 29.1390 0.0000
# 6 0.0000 0.0000 0.0000 3.1750 0.0000 9.3405
#
#
#
# Elastic Compliance Matrix: (Units=1/GPa)
#
#
# Indices 1 2 3 4 5 6 
#
# 1 0.012362 -0.001301 -0.002492 0.000000 -0.003262 0.000000
# 2 -0.001301 0.015955 -0.012460 0.000000 0.006890 0.000000
# 3 -0.002492 -0.012460 0.023797 0.000000 -0.008177 0.000000
# 4 0.000000 0.000000 0.000000 0.045897 0.000000 -0.015601
# 5 -0.003262 0.006890 -0.008177 0.000000 0.038864 0.000000
# 6 0.000000 0.000000 0.000000 -0.015601 0.000000 0.112364
#
#
# Mechanical properties :
#
#
# Convention : Reuss Voigt Hill
#
# Bulk Modulus (GPa) = 50.99869 55.20255 53.10062
# Shear Modulus (GPa) = 17.34425 24.01089 20.67757
#
# Velocity S-wave (km/s) = 2.92096 3.43679 3.18932
# Velocity P-wave (km/s) = 6.03850 6.55012 6.29951
#
# Compressibility (1/GPa) = 0.01960835
#
# Stress axis : x y z
#
# Youngs Moduli (GPa) = 80.89569 62.67513 42.02206
#
# Poissons Ratio (x) = 0.08156 0.10472
# Poissons Ratio (y) = 0.10527 0.52358
# Poissons Ratio (z) = 0.20159 0.78090
#
# Static dielectric constant tensor:
#      x y z
#    x 1.744810 0.000000 -0.002880 
#    y 0.000000 1.723620 0.000000 
#    z -0.002880 0.000000 1.735390 
# 
# From -- ./inp_files/276955.got.cif
#   From: 2010.05.17/outbox.cif.g08.bks.cpg/sg12_139_cif.got.tgz:276955.got - 2010.06.03 13:09:07.
