data_PCOD9197985
_publ_section_title
;
Structure prediction by ZEFSAII (Michael W. Deem and Ramdas Pophale) SiO2 
 PCOD9197985
Probable space group: C 2/M
;
_chemical_formula_sum "Si O2"
_cell_formula_units_Z 64
_cell_length_a 9.567909
_cell_length_b 21.699562
_cell_length_c 22.270069
_cell_angle_alpha 90.000000
_cell_angle_beta 130.565356
_cell_angle_gamma 90.000000
_cell_volume 3512.460832
_symmetry_space_group_name_H-M "C 2/M"
_symmetry_group_IT_number 12
_symmetry_cell_setting 'monoclinic'
loop_
_space_group_symop_operation_xyz
x,y,z
-x,y,-z
-x,-y,-z
x,-y,z
1/2+x,1/2+y,z
1/2-x,1/2+y,-z
1/2-x,1/2-y,-z
1/2+x,1/2-y,z
loop_
_atom_site_type_symbol
_atom_site_label
_atom_site_fract_x
_atom_site_fract_y
_atom_site_fract_z
Si Si1 0.686361 0.630015 0.087018
Si Si2 0.929252 0.572505 0.829029
Si Si3 0.817977 0.195101 0.411162
Si Si4 0.749873 0.880834 0.758513
Si Si5 0.429409 0.748293 0.314944
Si Si6 0.794430 0.731283 0.944558
Si Si7 0.605505 0.647732 0.799528
Si Si8 0.859667 0.430483 0.666606
O O1 0.684635 0.607866 0.155088
O O2 0.702964 0.704280 0.090746
O O3 0.869896 0.602947 0.107873
O O4 0.500000 0.613947 0.000000
O O5 0.937550 0.500000 0.844453
O O6 0.775128 0.606240 0.825236
O O7 0.878356 0.579452 0.743944
O O8 0.638362 0.230375 0.384977
O O9 0.846718 0.218172 0.351279
O O10 0.768676 0.122780 0.395202
O O11 0.000000 0.207001 0.500000
O O12 0.683547 0.809675 0.733961
O O13 0.565419 0.920359 0.698118
O O14 0.918518 0.889221 0.760335
O O15 0.424186 0.699363 0.259685
O O16 0.656764 0.684137 0.874959
O O17 0.750000 0.750000 0.000000
O O18 0.000000 0.704821 0.000000
O O19 0.796859 0.500000 0.638245
#
# Coordination Sequence:
#
# PCOD9197985 Si02
#       8
#     8   8   8   8   8   8   8   8
#     4  10  20  36  55  80 114 147 192 239 290 338
#     4  10  22  38  58  82 110 153 201 244 284 337
#     4  11  22  37  60  88 120 151 181 233 293 349
#     4  10  21  34  56  83 112 154 187 233 285 339
#     4  11  21  36  55  88 120 148 184 229 287 357
#     4  11  22  32  51  82 115 142 183 234 286 336
#     4  12  21  34  60  82 118 154 187 240 290 340
#     4   9  20  39  59  81 112 152 201 238 274 341
#
# _framework density 18.220844
#
# number of rings (size 3 to 8) (size 9 to 14) (size 15 to 20)
#    0.000    1.500    3.750    2.625    1.750    1.000 
#    0.000    0.000    0.000    8.625    0.000    0.875 
#    0.000    0.000    0.000    0.000    0.000    0.000 
#
# Total GULP energy -178717.127610 kJ/mol
# GULP energy per Si atom -5584.910238 kJ/mol
# Density = 1.817937 g / cm^3
# Si number density = 18.220844 Si / 1000 Ang^3
#
#
#
# Elastic Constant Matrix: (Units=GPa)
#
#
# Indices 1 2 3 4 5 6 
#
# 1 107.5807 14.9093 9.7152 0.0000 17.7974 0.0000
# 2 14.9093 60.1365 8.5295 0.0000 12.9886 0.0000
# 3 9.7152 8.5295 47.3728 0.0000 17.0152 0.0000
# 4 0.0000 0.0000 0.0000 10.7824 0.0000 0.8816
# 5 17.7974 12.9886 17.0152 0.0000 28.4539 0.0000
# 6 0.0000 0.0000 0.0000 0.8816 0.0000 17.3191
#
#
#
# Elastic Compliance Matrix: (Units=1/GPa)
#
#
# Indices 1 2 3 4 5 6 
#
# 1 0.010463 -0.001314 0.000288 0.000000 -0.006117 0.000000
# 2 -0.001314 0.018618 -0.000414 0.000000 -0.007429 0.000000
# 3 0.000288 -0.000414 0.026899 0.000000 -0.016076 0.000000
# 4 0.000000 0.000000 0.000000 0.093131 0.000000 -0.004740
# 5 -0.006117 -0.007429 -0.016076 0.000000 0.051975 0.000000
# 6 0.000000 0.000000 0.000000 -0.004740 0.000000 0.057981
#
#
# Mechanical properties :
#
#
# Convention : Reuss Voigt Hill
#
# Bulk Modulus (GPa) = 18.83250 31.26644 25.04947
# Shear Modulus (GPa) = 17.87959 23.44014 20.65986
#
# Velocity S-wave (km/s) = 3.13592 3.59060 3.37094
# Velocity P-wave (km/s) = 4.84460 5.86403 5.37852
#
# Compressibility (1/GPa) = 0.05309968
#
# Stress axis : x y z
#
# Youngs Moduli (GPa) = 95.57132 53.71174 37.17616
#
# Poissons Ratio (x) = 0.07056 -0.01070
# Poissons Ratio (y) = 0.12556 0.01540
# Poissons Ratio (z) = -0.02751 0.02226
#
# Static dielectric constant tensor:
#      x y z
#    x 1.639020 0.000000 -0.001700 
#    y 0.000000 1.607180 0.000000 
#    z -0.001700 0.000000 1.617370 
# 
# From -- ./inp_files/301751.got.cif
#   From: 2010.05.17/outbox.cif.g08.bks.cpg/sg12_151_cif.got.tgz:301751.got - 2010.06.03 13:09:07.
