data_PCOD9197282
_publ_section_title
;
Structure prediction by ZEFSAII (Michael W. Deem and Ramdas Pophale) SiO2 
 PCOD9197282
Probable space group: C 2/M
;
_chemical_formula_sum "Si O2"
_cell_formula_units_Z 58
_cell_length_a 28.120884
_cell_length_b 9.444285
_cell_length_c 25.271470
_cell_angle_alpha 90.000000
_cell_angle_beta 152.677633
_cell_angle_gamma 90.000000
_cell_volume 3080.618027
_symmetry_space_group_name_H-M "C 2/M"
_symmetry_group_IT_number 12
_symmetry_cell_setting 'monoclinic'
loop_
_space_group_symop_operation_xyz
x,y,z
-x,y,-z
-x,-y,-z
x,-y,z
1/2+x,1/2+y,z
1/2-x,1/2+y,-z
1/2-x,1/2-y,-z
1/2+x,1/2-y,z
loop_
_atom_site_type_symbol
_atom_site_label
_atom_site_fract_x
_atom_site_fract_y
_atom_site_fract_z
Si Si1 0.094905 0.833671 0.133272
Si Si2 0.613205 0.833565 0.473490
Si Si3 0.051612 0.663819 0.290432
Si Si4 0.823627 0.667942 0.692263
Si Si5 0.500000 0.000000 0.500000
Si Si6 0.351594 0.337195 0.114259
Si Si7 0.699715 0.845835 0.731753
Si Si8 0.590004 0.662373 0.704610
O O1 0.098641 0.733981 0.187947
O O2 0.203229 0.813828 0.209227
O O3 0.089195 0.000000 0.143108
O O4 0.000000 0.804316 0.000000
O O5 0.601172 0.820824 0.397760
O O6 0.715987 0.751520 0.591363
O O7 0.511037 0.762269 0.396699
O O8 0.616481 0.000000 0.490874
O O9 0.016944 0.500000 0.251862
O O10 0.131669 0.690941 0.322470
O O11 0.953198 0.765592 0.189765
O O12 0.809556 0.500000 0.686063
O O13 0.593078 0.879016 0.595422
O O14 0.341535 0.500000 0.087807
O O15 0.369836 0.332971 0.195472
O O16 0.250000 0.250000 0.000000
O O17 0.675114 0.726385 0.749786
O O18 0.722032 0.000000 0.780692
O O19 0.563788 0.500000 0.665990
#
# Coordination Sequence:
#
# PCOD9197282 Si02
#       8
#     8   8   8   8   2   8   8   8
#     4  10  23  42  60  82 113 154 203 246 285 346
#     4  10  20  35  59  85 118 155 189 225 281 353
#     4   9  20  38  56  83 118 152 188 230 280 343
#     4  11  23  37  58  86 115 150 190 240 295 339
#     4   8  20  36  60  88 112 148 190 242 292 344
#     4  10  21  36  56  82 115 149 191 234 281 339
#     4   9  20  37  60  82 114 148 191 239 288 345
#     4  10  21  36  56  86 116 146 184 239 294 346
#
# _framework density 18.827392
#
# number of rings (size 3 to 8) (size 9 to 14) (size 15 to 20)
#    0.414    1.793    0.000    2.069    1.931    5.241 
#    0.000    3.103    0.000    0.000    0.000    0.000 
#    0.000    0.000    0.000    0.000    0.000    0.000 
#
# Total GULP energy -161610.043809 kJ/mol
# GULP energy per Si atom -5572.760131 kJ/mol
# Density = 1.878454 g / cm^3
# Si number density = 18.827392 Si / 1000 Ang^3
#
#
#
# Elastic Constant Matrix: (Units=GPa)
#
#
# Indices 1 2 3 4 5 6 
#
# 1 58.0933 41.1431 15.9399 0.0000 1.0404 0.0000
# 2 41.1431 109.2571 43.8048 0.0000 -0.7319 0.0000
# 3 15.9399 43.8048 75.8826 0.0000 12.1026 0.0000
# 4 0.0000 0.0000 0.0000 30.9996 0.0000 0.1603
# 5 1.0404 -0.7319 12.1026 0.0000 16.5651 0.0000
# 6 0.0000 0.0000 0.0000 0.1603 0.0000 29.3197
#
#
#
# Elastic Compliance Matrix: (Units=1/GPa)
#
#
# Indices 1 2 3 4 5 6 
#
# 1 0.023559 -0.009185 0.000740 0.000000 -0.002426 0.000000
# 2 -0.009185 0.016096 -0.008566 0.000000 0.007547 0.000000
# 3 0.000740 -0.008566 0.020414 0.000000 -0.015340 0.000000
# 4 0.000000 0.000000 0.000000 0.032259 0.000000 -0.000176
# 5 -0.002426 0.007547 -0.015340 0.000000 0.072061 0.000000
# 6 0.000000 0.000000 0.000000 -0.000176 0.000000 0.034108
#
#
# Mechanical properties :
#
#
# Convention : Reuss Voigt Hill
#
# Bulk Modulus (GPa) = 38.39031 49.44543 43.91787
# Shear Modulus (GPa) = 20.72950 24.86656 22.79803
#
# Velocity S-wave (km/s) = 3.32177 3.63818 3.48357
# Velocity P-wave (km/s) = 5.92851 6.63083 6.28948
#
# Compressibility (1/GPa) = 0.02604824
#
# Stress axis : x y z
#
# Youngs Moduli (GPa) = 42.44697 62.12544 48.98497
#
# Poissons Ratio (x) = 0.57060 -0.03626
# Poissons Ratio (y) = 0.38986 0.41962
# Poissons Ratio (z) = -0.03142 0.53219
#
# Static dielectric constant tensor:
#      x y z
#    x 1.666840 0.000000 -0.023490 
#    y 0.000000 1.638690 0.000000 
#    z -0.023490 0.000000 1.640910 
# 
# From -- ./inp_files/351471.got.cif
#   From: 2010.05.17/outbox.cif.g08.bks.cpg/sg12_176_cif.got.tgz:351471.got - 2010.06.03 13:09:07.
