data_PCOD9197599
_publ_section_title
;
Structure prediction by ZEFSAII (Michael W. Deem and Ramdas Pophale) SiO2 
 PCOD9197599
Probable space group: C 2/M
;
_chemical_formula_sum "Si O2"
_cell_formula_units_Z 64
_cell_length_a 18.820577
_cell_length_b 18.108590
_cell_length_c 15.152781
_cell_angle_alpha 90.000000
_cell_angle_beta 141.424991
_cell_angle_gamma 90.000000
_cell_volume 3220.129221
_symmetry_space_group_name_H-M "C 2/M"
_symmetry_group_IT_number 12
_symmetry_cell_setting 'monoclinic'
loop_
_space_group_symop_operation_xyz
x,y,z
-x,y,-z
-x,-y,-z
x,-y,z
1/2+x,1/2+y,z
1/2-x,1/2+y,-z
1/2-x,1/2-y,-z
1/2+x,1/2-y,z
loop_
_atom_site_type_symbol
_atom_site_label
_atom_site_fract_x
_atom_site_fract_y
_atom_site_fract_z
Si Si1 0.386261 0.813450 0.624658
Si Si2 0.878461 0.418405 0.350670
Si Si3 0.212471 0.084363 0.548278
Si Si4 0.345325 0.411298 0.151961
Si Si5 0.767505 0.193226 0.700824
Si Si6 0.946494 0.847865 0.742550
Si Si7 0.870567 0.831557 0.365668
Si Si8 0.098115 0.580969 0.834219
O O1 0.306433 0.852271 0.620487
O O2 0.314210 0.816587 0.464705
O O3 0.420077 0.728808 0.667281
O O4 0.500808 0.859084 0.743968
O O5 0.873804 0.500000 0.387710
O O6 0.771392 0.371740 0.274107
O O7 0.876963 0.424008 0.245040
O O8 0.000000 0.385676 0.500000
O O9 0.129957 0.091817 0.383326
O O10 0.147960 0.107941 0.574881
O O11 0.254667 0.000000 0.595155
O O12 0.367832 0.500000 0.180681
O O13 0.426348 0.374782 0.155526
O O14 0.362641 0.369858 0.262178
O O15 0.213848 0.401867 0.997217
O O16 0.894111 0.174599 0.787142
O O17 0.724699 0.268324 0.707276
O O18 0.000000 0.801124 0.500000
O O19 0.056298 0.500000 0.823487
#
# Coordination Sequence:
#
# PCOD9197599 Si02
#       8
#     8   8   8   8   8   8   8   8
#     4  11  20  39  61  90 125 160 205 257 315 370
#     4  10  20  35  60  93 118 150 204 261 312 366
#     4  11  21  35  61  93 126 163 207 261 316 372
#     4  11  25  43  64  92 126 168 213 259 314 378
#     4  11  21  37  62  93 125 157 202 264 317 370
#     4  11  22  39  59  90 128 161 204 252 312 376
#     4  12  22  38  62  95 126 164 209 266 312 367
#     4  10  23  42  63  90 125 162 208 257 312 377
#
# _framework density 19.874980000000001
#
# number of rings (size 3 to 8) (size 9 to 14) (size 15 to 20)
#    0.000    1.125    5.000    2.250    1.750    3.500 
#    0.000    1.250    0.000    4.500    0.000    0.000 
#    0.000    0.000    0.000    0.000    0.000    0.000 
#
# Total GULP energy -178363.163600 kJ/mol
# GULP energy per Si atom -5573.848862 kJ/mol
# Density = 1.982974 g / cm^3
# Si number density = 19.874980 Si / 1000 Ang^3
#
#
#
# Elastic Constant Matrix: (Units=GPa)
#
#
# Indices 1 2 3 4 5 6 
#
# 1 94.6712 39.9663 15.4296 0.0000 11.5535 0.0000
# 2 39.9663 95.8156 24.7042 0.0000 15.5923 0.0000
# 3 15.4296 24.7042 37.8439 0.0000 -2.0199 0.0000
# 4 0.0000 0.0000 0.0000 22.4350 0.0000 8.9907
# 5 11.5535 15.5923 -2.0199 0.0000 15.4072 0.0000
# 6 0.0000 0.0000 0.0000 8.9907 0.0000 35.0073
#
#
#
# Elastic Compliance Matrix: (Units=1/GPa)
#
#
# Indices 1 2 3 4 5 6 
#
# 1 0.013503 -0.003589 -0.003534 0.000000 -0.006957 0.000000
# 2 -0.003589 0.017348 -0.010730 0.000000 -0.016272 0.000000
# 3 -0.003534 -0.010730 0.035841 0.000000 0.018208 0.000000
# 4 0.000000 0.000000 0.000000 0.049687 0.000000 -0.012761
# 5 -0.006957 -0.016272 0.018208 0.000000 0.088976 0.000000
# 6 0.000000 0.000000 0.000000 -0.012761 0.000000 0.031843
#
#
# Mechanical properties :
#
#
# Convention : Reuss Voigt Hill
#
# Bulk Modulus (GPa) = 32.27166 43.17010 37.72088
# Shear Modulus (GPa) = 17.65331 24.45195 21.05263
#
# Velocity S-wave (km/s) = 2.98353 3.51135 3.25815
# Velocity P-wave (km/s) = 5.30483 6.18122 5.75971
#
# Compressibility (1/GPa) = 0.03098694
#
# Stress axis : x y z
#
# Youngs Moduli (GPa) = 74.05780 57.64258 27.90074
#
# Poissons Ratio (x) = 0.20689 0.09859
# Poissons Ratio (y) = 0.26580 0.29937
# Poissons Ratio (z) = 0.26170 0.61850
#
# Static dielectric constant tensor:
#      x y z
#    x 1.761490 0.000000 0.026600 
#    y 0.000000 1.660590 0.000000 
#    z 0.026600 0.000000 1.699310 
# 
# From -- ./inp_files/226907.got.cif
#   From: 2010.05.17/outbox.cif.g08.bks.cpg/sg12_114_cif.got.tgz:226907.got - 2010.06.03 13:09:07.
