data_PCOD9197361
_publ_section_title
;
Structure prediction by ZEFSAII (Michael W. Deem and Ramdas Pophale) SiO2 
 PCOD9197361
Probable space group: C 2/M
;
_chemical_formula_sum "Si O2"
_cell_formula_units_Z 64
_cell_length_a 15.582671
_cell_length_b 18.129273
_cell_length_c 15.313487
_cell_angle_alpha 90.000000
_cell_angle_beta 136.483087
_cell_angle_gamma 90.000000
_cell_volume 2978.815747
_symmetry_space_group_name_H-M "C 2/M"
_symmetry_group_IT_number 12
_symmetry_cell_setting 'monoclinic'
loop_
_space_group_symop_operation_xyz
x,y,z
-x,y,-z
-x,-y,-z
x,-y,z
1/2+x,1/2+y,z
1/2-x,1/2+y,-z
1/2-x,1/2-y,-z
1/2+x,1/2-y,z
loop_
_atom_site_type_symbol
_atom_site_label
_atom_site_fract_x
_atom_site_fract_y
_atom_site_fract_z
Si Si1 0.943814 0.376539 0.055545
Si Si2 0.960295 0.415936 0.369658
Si Si3 0.150512 0.915383 0.866527
Si Si4 0.457534 0.348019 0.379406
Si Si5 0.865084 0.419401 0.663674
Si Si6 0.714752 0.273927 0.569071
Si Si7 0.269564 0.785196 0.244041
Si Si8 0.369895 0.278535 0.032437
O O1 0.960101 0.291559 0.099951
O O2 0.022418 0.420990 0.184070
O O3 0.797079 0.397841 0.952398
O O4 0.000000 0.385572 0.000000
O O5 0.914040 0.500000 0.318744
O O6 0.859978 0.351748 0.283582
O O7 0.000000 0.412226 0.500000
O O8 0.073538 0.404335 0.385726
O O9 0.066438 0.901086 0.718854
O O10 0.102283 0.856076 0.901948
O O11 0.142952 0.000000 0.889329
O O12 0.500000 0.387659 0.500000
O O13 0.567044 0.287116 0.456048
O O14 0.336367 0.295033 0.289009
O O15 0.804076 0.500000 0.616394
O O16 0.775428 0.354245 0.627017
O O17 0.750000 0.250000 0.500000
O O18 0.757395 0.214796 0.672878
O O19 0.163106 0.786856 0.093638
O O20 0.250000 0.250000 0.000000
#
# Coordination Sequence:
#
# PCOD9197361 Si02
#       8
#     8   8   8   8   8   8   8   8
#     4  11  23  41  64  93 123 161 206 262 320 369
#     4  10  20  35  59  88 122 158 198 257 308 357
#     4  11  24  41  63  96 128 166 213 259 321 381
#     4  10  22  39  60  87 123 171 211 251 303 380
#     4  11  24  39  60  93 127 157 200 259 322 368
#     4  11  24  38  63  93 124 169 210 258 307 375
#     4  11  19  38  61  91 120 159 214 252 307 374
#     4  10  20  37  64  86 121 159 206 260 301 372
#
# _framework density 21.485049
#
# number of rings (size 3 to 8) (size 9 to 14) (size 15 to 20)
#    0.000    1.375    2.500    5.250    3.500    3.250 
#    0.000    0.000    0.000    0.375    0.000    0.000 
#    0.000    0.000    0.000    0.000    0.000    0.000 
#
# Total GULP energy -178611.621062 kJ/mol
# GULP energy per Si atom -5581.613158 kJ/mol
# Density = 2.143615 g / cm^3
# Si number density = 21.485049 Si / 1000 Ang^3
#
#
#
# Elastic Constant Matrix: (Units=GPa)
#
#
# Indices 1 2 3 4 5 6 
#
# 1 58.4572 11.4187 22.9299 0.0000 -25.3981 0.0000
# 2 11.4187 133.0017 25.9651 0.0000 -5.3577 0.0000
# 3 22.9299 25.9651 91.6147 0.0000 -18.7292 0.0000
# 4 0.0000 0.0000 0.0000 12.0433 0.0000 17.4643
# 5 -25.3981 -5.3577 -18.7292 0.0000 25.5288 0.0000
# 6 0.0000 0.0000 0.0000 17.4643 0.0000 -3.3003
#
#
#
# Elastic Compliance Matrix: (Units=1/GPa)
#
#
# Indices 1 2 3 4 5 6 
#
# 1 0.030522 -0.001184 -0.001349 0.000000 0.029128 0.000000
# 2 -0.001184 0.008005 -0.002200 0.000000 -0.001111 0.000000
# 3 -0.001349 -0.002200 0.013538 0.000000 0.008128 0.000000
# 4 0.000000 0.000000 0.000000 0.009573 0.000000 0.050658
# 5 0.029128 -0.001111 0.008128 0.000000 0.073880 0.000000
# 6 0.000000 0.000000 0.000000 0.050658 0.000000 -0.034934
#
#
# Mechanical properties :
#
#
# Convention : Reuss Voigt Hill
#
# Bulk Modulus (GPa) = 23.47411 44.85565 34.16488
# Shear Modulus (GPa) = 40.24165 21.70503 30.97334
#
# Velocity S-wave (km/s) = 4.33252 3.18187 3.80099
# Velocity P-wave (km/s) = 5.99810 5.86703 5.93292
#
# Compressibility (1/GPa) = 0.04260012
#
# Stress axis : x y z
#
# Youngs Moduli (GPa) = 32.76320 124.92215 73.86567
#
# Poissons Ratio (x) = 0.14787 0.09965
# Poissons Ratio (y) = 0.03878 0.16248
# Poissons Ratio (z) = 0.04420 0.27479
#
# Static dielectric constant tensor:
#      x y z
#    x 2.065660 0.000000 0.057440 
#    y 0.000000 1.789100 0.000000 
#    z 0.057440 0.000000 1.818370 
# 
# From -- ./inp_files/226897.got.cif
#   From: 2010.05.17/outbox.cif.g08.bks.cpg/sg12_114_cif.got.tgz:226897.got - 2010.06.03 13:09:07.
