data_PCOD9197314
_publ_section_title
;
Structure prediction by ZEFSAII (Michael W. Deem and Ramdas Pophale) SiO2 
 PCOD9197314
Probable space group: C 2/M
;
_chemical_formula_sum "Si O2"
_cell_formula_units_Z 64
_cell_length_a 23.170211
_cell_length_b 8.827883
_cell_length_c 21.568637
_cell_angle_alpha 90.000000
_cell_angle_beta 128.339229
_cell_angle_gamma 90.000000
_cell_volume 3460.351194
_symmetry_space_group_name_H-M "C 2/M"
_symmetry_group_IT_number 12
_symmetry_cell_setting 'monoclinic'
loop_
_space_group_symop_operation_xyz
x,y,z
-x,y,-z
-x,-y,-z
x,-y,z
1/2+x,1/2+y,z
1/2-x,1/2+y,-z
1/2-x,1/2-y,-z
1/2+x,1/2-y,z
loop_
_atom_site_type_symbol
_atom_site_label
_atom_site_fract_x
_atom_site_fract_y
_atom_site_fract_z
Si Si1 0.344129 0.178499 0.272516
Si Si2 0.175279 0.176773 0.869611
Si Si3 0.363550 0.818634 0.546258
Si Si4 0.007549 0.177101 0.579018
Si Si5 0.669308 0.676734 0.001390
Si Si6 0.199012 0.319211 0.238666
Si Si7 0.292967 0.681218 0.620217
Si Si8 0.087407 0.675500 0.055212
O O1 0.349523 0.222055 0.203834
O O2 0.418680 0.235830 0.353276
O O3 0.272930 0.260375 0.254213
O O4 0.334919 0.000000 0.274428
O O5 0.138548 0.205773 0.911943
O O6 0.167535 0.000000 0.848282
O O7 0.260367 0.217903 0.939064
O O8 0.436113 0.745688 0.565154
O O9 0.344308 0.754811 0.601587
O O10 0.291497 0.783234 0.456174
O O11 0.371428 0.000000 0.554107
O O12 0.000000 0.188287 0.500000
O O13 0.014536 0.000000 0.600404
O O14 0.692087 0.500000 0.018131
O O15 0.613815 0.714996 0.018615
O O16 0.203903 0.500000 0.249545
O O17 0.192267 0.243517 0.301436
O O18 0.130529 0.285967 0.147264
O O19 0.301359 0.500000 0.624372
O O20 0.107881 0.500000 0.054169
O O21 0.000000 0.682795 0.000000
#
# Coordination Sequence:
#
# PCOD9197314 Si02
#       8
#     8   8   8   8   8   8   8   8
#     4  12  24  38  60  89 120 156 199 247 299 357
#     4  10  20  36  58  85 117 152 191 239 294 351
#     4  10  21  39  62  89 122 158 201 246 292 349
#     4  11  24  41  62  89 123 161 199 243 299 356
#     4  10  20  35  59  87 114 148 192 241 293 350
#     4  11  22  38  61  87 118 154 198 250 298 353
#     4  10  21  38  63  91 120 159 201 245 293 350
#     4  10  22  40  60  83 115 157 198 243 297 354
#
# _framework density 18.495232000000001
#
# number of rings (size 3 to 8) (size 9 to 14) (size 15 to 20)
#    0.000    1.500    1.250    4.125    0.000    6.750 
#    2.250    0.000    0.000    0.000    0.000    0.000 
#    0.000    0.000    0.000    0.000    0.000    0.000 
#
# Total GULP energy -178764.849262 kJ/mol
# GULP energy per Si atom -5586.401539 kJ/mol
# Density = 1.845314 g / cm^3
# Si number density = 18.495232 Si / 1000 Ang^3
#
#
#
# Elastic Constant Matrix: (Units=GPa)
#
#
# Indices 1 2 3 4 5 6 
#
# 1 73.5423 33.9270 54.3182 0.0000 -7.7894 0.0000
# 2 33.9270 61.3075 35.3120 0.0000 -7.9700 0.0000
# 3 54.3182 35.3120 87.1540 0.0000 -10.9409 0.0000
# 4 0.0000 0.0000 0.0000 29.6003 0.0000 -4.8912
# 5 -7.7894 -7.9700 -10.9409 0.0000 28.2254 0.0000
# 6 0.0000 0.0000 0.0000 -4.8912 0.0000 30.2254
#
#
#
# Elastic Compliance Matrix: (Units=1/GPa)
#
#
# Indices 1 2 3 4 5 6 
#
# 1 0.027273 -0.006911 -0.014188 0.000000 0.000075 0.000000
# 2 -0.006911 0.023241 -0.004756 0.000000 0.002812 0.000000
# 3 -0.014188 -0.004756 0.022688 0.000000 0.003536 0.000000
# 4 0.000000 0.000000 0.000000 0.034712 0.000000 0.005617
# 5 0.000075 0.002812 0.003536 0.000000 0.037614 0.000000
# 6 0.000000 0.000000 0.000000 0.005617 0.000000 0.033994
#
#
# Mechanical properties :
#
#
# Convention : Reuss Voigt Hill
#
# Bulk Modulus (GPa) = 46.53173 52.12425 49.32799
# Shear Modulus (GPa) = 20.97353 24.17333 22.57343
#
# Velocity S-wave (km/s) = 3.37114 3.61917 3.49736
# Velocity P-wave (km/s) = 6.35344 6.76079 6.56028
#
# Compressibility (1/GPa) = 0.02149071
#
# Stress axis : x y z
#
# Youngs Moduli (GPa) = 36.66604 43.02816 44.07662
#
# Poissons Ratio (x) = 0.29735 0.62538
# Poissons Ratio (y) = 0.25339 0.20964
# Poissons Ratio (z) = 0.52023 0.20466
#
# Static dielectric constant tensor:
#      x y z
#    x 1.622210 0.000000 -0.003070 
#    y 0.000000 1.625000 0.000000 
#    z -0.003070 0.000000 1.679540 
# 
# From -- ./inp_files/324303.got.cif
#   From: 2010.05.17/outbox.cif.g08.bks.cpg/sg12_163_cif.got.tgz:324303.got - 2010.06.03 13:09:07.
