data_PCOD9197075
_publ_section_title
;
Structure prediction by ZEFSAII (Michael W. Deem and Ramdas Pophale) SiO2 
 PCOD9197075
Probable space group: C 2/M
;
_chemical_formula_sum "Si O2"
_cell_formula_units_Z 48
_cell_length_a 22.642007
_cell_length_b 14.868825
_cell_length_c 8.728025
_cell_angle_alpha 90.000000
_cell_angle_beta 112.673442
_cell_angle_gamma 90.000000
_cell_volume 2711.290245
_symmetry_space_group_name_H-M "C 2/M"
_symmetry_group_IT_number 12
_symmetry_cell_setting 'monoclinic'
loop_
_space_group_symop_operation_xyz
x,y,z
-x,y,-z
-x,-y,-z
x,-y,z
1/2+x,1/2+y,z
1/2-x,1/2+y,-z
1/2-x,1/2-y,-z
1/2+x,1/2-y,z
loop_
_atom_site_type_symbol
_atom_site_label
_atom_site_fract_x
_atom_site_fract_y
_atom_site_fract_z
Si Si1 0.069138 0.692125 0.502602
Si Si2 0.732263 0.500000 0.797398
Si Si3 0.232262 0.000000 0.167131
Si Si4 0.624482 0.000000 0.189628
Si Si5 0.314396 0.304820 0.249025
Si Si6 0.124484 0.500000 0.559333
Si Si7 0.685604 0.695180 0.120233
Si Si8 0.930862 0.307875 0.864326
O O1 0.124399 0.758700 0.615070
O O2 0.088850 0.591013 0.573262
O O3 0.066659 0.693254 0.316658
O O4 0.000000 0.715392 0.500000
O O5 0.803574 0.500000 0.801536
O O6 0.696423 0.408445 0.716711
O O7 0.737875 0.500000 0.987878
O O8 0.303572 0.000000 0.305619
O O9 0.196421 0.091555 0.176135
O O10 0.588847 0.908986 0.104432
O O11 0.627132 0.000000 0.377130
O O12 0.250000 0.249999 0.226262
O O13 0.320788 0.300193 0.070787
O O14 0.624400 0.741302 0.133729
O O15 0.000000 0.284604 0.000000
#
# Coordination Sequence:
#
# PCOD9197075 Si02
#       8
#     8   4   4   4   8   4   8   8
#     4  11  23  38  57  83 116 152 189 232 283 336
#     4  10  20  35  58  87 115 147 185 229 278 333
#     4  10  20  35  58  87 115 147 185 229 278 333
#     4  10  21  35  55  85 117 147 182 231 284 335
#     4  10  20  36  59  85 114 148 188 231 278 333
#     4  10  21  35  55  85 117 147 182 231 284 335
#     4  10  20  36  59  85 114 148 188 231 278 333
#     4  11  23  38  57  83 116 152 189 232 283 336
#
# _framework density 17.703748000000001
#
# number of rings (size 3 to 8) (size 9 to 14) (size 15 to 20)
#    0.000    1.667    3.333    1.500    0.000    3.333 
#    0.000    0.833    0.000    0.000    0.000    0.000 
#    0.000    0.000    0.000    0.000    0.000    0.000 
#
# Total GULP energy -134071.337909 kJ/mol
# GULP energy per Si atom -5586.305746 kJ/mol
# Density = 1.766345 g / cm^3
# Si number density = 17.703748 Si / 1000 Ang^3
#
#
#
# Elastic Constant Matrix: (Units=GPa)
#
#
# Indices 1 2 3 4 5 6 
#
# 1 158.1309 81.0174 43.1565 0.0000 24.5076 0.0000
# 2 81.0174 151.5580 44.7497 0.0000 18.1562 0.0000
# 3 43.1565 44.7497 49.1289 0.0000 30.0693 0.0000
# 4 0.0000 0.0000 0.0000 16.5054 0.0000 0.4720
# 5 24.5076 18.1562 30.0693 0.0000 30.2257 0.0000
# 6 0.0000 0.0000 0.0000 0.4720 0.0000 17.4497
#
#
#
# Elastic Compliance Matrix: (Units=1/GPa)
#
#
# Indices 1 2 3 4 5 6 
#
# 1 0.009588 -0.003723 -0.004198 0.000000 -0.001361 0.000000
# 2 -0.003723 0.011099 -0.011778 0.000000 0.008068 0.000000
# 3 -0.004198 -0.011778 0.072503 0.000000 -0.061649 0.000000
# 4 0.000000 0.000000 0.000000 0.060633 0.000000 -0.001640
# 5 -0.001361 0.008068 -0.061649 0.000000 0.090671 0.000000
# 6 0.000000 0.000000 0.000000 -0.001640 0.000000 0.057352
#
#
# Mechanical properties :
#
#
# Convention : Reuss Voigt Hill
#
# Bulk Modulus (GPa) = 18.59015 77.40723 47.99869
# Shear Modulus (GPa) = 13.92081 25.49576 19.70829
#
# Velocity S-wave (km/s) = 2.80718 3.79903 3.34012
# Velocity P-wave (km/s) = 4.58590 7.94116 6.48431
#
# Compressibility (1/GPa) = 0.05379193
#
# Stress axis : x y z
#
# Youngs Moduli (GPa) = 104.29777 90.09673 13.79263
#
# Poissons Ratio (x) = 0.33540 0.05791
# Poissons Ratio (y) = 0.38827 0.16245
# Poissons Ratio (z) = 0.43787 1.06115
#
# Static dielectric constant tensor:
#      x y z
#    x 1.559980 0.000000 -0.014080 
#    y 0.000000 1.610040 0.000000 
#    z -0.014080 0.000000 1.588090 
# 
# From -- ./inp_files/85758.got.cif
#   From: 2010.05.17/outbox.cif.g08.bks.cpg/sg12_43_cif.got.tgz:85758.got - 2010.06.03 13:09:07.
