data_PCOD9197463
_publ_section_title
;
Structure prediction by ZEFSAII (Michael W. Deem and Ramdas Pophale) SiO2 
 PCOD9197463
Probable space group: C 2/M
;
_chemical_formula_sum "Si O2"
_cell_formula_units_Z 58
_cell_length_a 25.167216
_cell_length_b 7.742988
_cell_length_c 22.316362
_cell_angle_alpha 90.000000
_cell_angle_beta 142.697198
_cell_angle_gamma 90.000000
_cell_volume 2635.477725
_symmetry_space_group_name_H-M "C 2/M"
_symmetry_group_IT_number 12
_symmetry_cell_setting 'monoclinic'
loop_
_space_group_symop_operation_xyz
x,y,z
-x,y,-z
-x,-y,-z
x,-y,z
1/2+x,1/2+y,z
1/2-x,1/2+y,-z
1/2-x,1/2-y,-z
1/2+x,1/2-y,z
loop_
_atom_site_type_symbol
_atom_site_label
_atom_site_fract_x
_atom_site_fract_y
_atom_site_fract_z
Si Si1 0.845458 0.705772 0.110841
Si Si2 0.365542 0.798186 0.264941
Si Si3 0.093286 0.799848 0.139031
Si Si4 0.148300 0.792646 0.413812
Si Si5 0.000000 0.500000 0.000000
Si Si6 0.018855 0.795419 0.195842
Si Si7 0.063971 0.790178 0.463614
Si Si8 0.214927 0.198836 0.687153
O O1 0.854582 0.500000 0.121423
O O2 0.857736 0.771669 0.190079
O O3 0.922965 0.769932 0.137249
O O4 0.750000 0.750000 0.000000
O O5 0.465689 0.778366 0.376191
O O6 0.305090 0.711092 0.260416
O O7 0.341654 0.000000 0.242367
O O8 0.195500 0.793925 0.247955
O O9 0.036455 0.730623 0.144744
O O10 0.072789 0.000000 0.106510
O O11 0.074656 0.656169 0.072490
O O12 0.250000 0.750000 0.500000
O O13 0.107734 0.734676 0.440297
O O14 0.089860 0.723623 0.306593
O O15 0.140002 0.000000 0.405984
O O16 0.034539 0.000000 0.204844
O O17 0.129433 0.734874 0.575045
O O18 0.057202 0.000000 0.459615
O O19 0.226394 0.000000 0.679194
#
# Coordination Sequence:
#
# PCOD9197463 Si02
#       8
#     8   8   8   8   2   8   8   8
#     4  11  25  43  67  95 128 173 225 279 343 406
#     4  11  24  41  62  95 134 178 226 281 338 408
#     4  11  25  46  72 103 137 176 230 287 339 412
#     4  10  20  35  59  93 131 172 215 266 332 398
#     4  12  26  48  72  98 134 180 226 278 356 396
#     4  10  22  42  68  96 133 172 216 277 337 397
#     4  10  21  38  62  93 132 176 223 273 331 406
#     4  11  23  41  66  98 135 180 229 278 339 408
#
# _framework density 22.007394000000001
#
# number of rings (size 3 to 8) (size 9 to 14) (size 15 to 20)
#    0.000    1.379    2.069    2.690    0.966    6.621 
#    0.000    1.379    0.000    0.000    0.000    0.000 
#    0.000    0.000    0.000    0.000    0.000    0.000 
#
# Total GULP energy -161863.788980 kJ/mol
# GULP energy per Si atom -5581.509965 kJ/mol
# Density = 2.195730 g / cm^3
# Si number density = 22.007394 Si / 1000 Ang^3
#
#
#
# Elastic Constant Matrix: (Units=GPa)
#
#
# Indices 1 2 3 4 5 6 
#
# 1 99.8867 -2.7305 38.0306 0.0000 -2.3024 0.0000
# 2 -2.7305 70.5141 4.4911 0.0000 -7.9708 0.0000
# 3 38.0306 4.4911 125.0763 0.0000 11.3774 0.0000
# 4 0.0000 0.0000 0.0000 24.9793 0.0000 13.9859
# 5 -2.3024 -7.9708 11.3774 0.0000 26.7422 0.0000
# 6 0.0000 0.0000 0.0000 13.9859 0.0000 21.5682
#
#
#
# Elastic Compliance Matrix: (Units=1/GPa)
#
#
# Indices 1 2 3 4 5 6 
#
# 1 0.011560 0.001021 -0.003818 0.000000 0.002924 0.000000
# 2 0.001021 0.014878 -0.001307 0.000000 0.005079 0.000000
# 3 -0.003818 -0.001307 0.009641 0.000000 -0.004820 0.000000
# 4 0.000000 0.000000 0.000000 0.062853 0.000000 -0.040757
# 5 0.002924 0.005079 -0.004820 0.000000 0.041210 0.000000
# 6 0.000000 0.000000 0.000000 -0.040757 0.000000 0.072793
#
#
# Mechanical properties :
#
#
# Convention : Reuss Voigt Hill
#
# Bulk Modulus (GPa) = 35.87606 41.67327 38.77467
# Shear Modulus (GPa) = 21.69822 31.70366 26.70094
#
# Velocity S-wave (km/s) = 3.14339 3.79963 3.48698
# Velocity P-wave (km/s) = 5.43247 6.18278 5.81973
#
# Compressibility (1/GPa) = 0.02787374
#
# Stress axis : x y z
#
# Youngs Moduli (GPa) = 86.50393 67.21152 103.72082
#
# Poissons Ratio (x) = -0.06864 0.39597
# Poissons Ratio (y) = -0.08835 0.13554
# Poissons Ratio (z) = 0.33024 0.08783
#
# Static dielectric constant tensor:
#      x y z
#    x 1.782430 0.000000 -0.039460 
#    y 0.000000 1.831580 0.000000 
#    z -0.039460 0.000000 1.847150 
# 
# From -- ./inp_files/324646.got.cif
#   From: 2010.05.17/outbox.cif.g08.bks.cpg/sg12_163_cif.got.tgz:324646.got - 2010.06.03 13:09:07.
