data_PCOD9197841
_publ_section_title
;
Structure prediction by ZEFSAII (Michael W. Deem and Ramdas Pophale) SiO2 
 PCOD9197841
Probable space group: C 2/M
;
_chemical_formula_sum "Si O2"
_cell_formula_units_Z 36
_cell_length_a 15.924987
_cell_length_b 22.720201
_cell_length_c 12.721733
_cell_angle_alpha 90.000000
_cell_angle_beta 152.451986
_cell_angle_gamma 90.000000
_cell_volume 2128.832733
_symmetry_space_group_name_H-M "C 2/M"
_symmetry_group_IT_number 12
_symmetry_cell_setting 'monoclinic'
loop_
_space_group_symop_operation_xyz
x,y,z
-x,y,-z
-x,-y,-z
x,-y,z
1/2+x,1/2+y,z
1/2-x,1/2+y,-z
1/2-x,1/2-y,-z
1/2+x,1/2-y,z
loop_
_atom_site_type_symbol
_atom_site_label
_atom_site_fract_x
_atom_site_fract_y
_atom_site_fract_z
Si Si1 0.420771 0.836531 0.682879
Si Si2 0.916987 0.788907 0.793358
Si Si3 0.186478 0.568209 0.272869
Si Si4 0.182867 0.816384 0.909823
Si Si5 0.000000 0.136635 0.500000
O O1 0.287163 0.813454 0.443477
O O2 0.421171 0.780010 0.763051
O O3 0.339159 0.891854 0.653016
O O4 0.626408 0.850802 0.877003
O O5 0.038280 0.824288 0.842478
O O6 0.000000 0.794420 0.000000
O O7 0.223250 0.500000 0.337177
O O8 0.345130 0.596406 0.379365
O O9 0.000000 0.572005 0.000000
O O10 0.087222 0.825855 0.691521
O O11 0.250000 0.750000 0.000000
#
# Coordination Sequence:
#
# PCOD9197841 Si02
#       5
#     8   8   8   8   4
#     4  10  20  36  53  81 114 145 182 232 276 333
#     4  10  21  34  55  82 113 149 182 220 283 339
#     4  11  22  36  58  84 111 149 189 235 284 330
#     4  10  22  32  54  82 111 153 177 225 281 332
#     4  12  21  38  56  82 124 142 187 230 282 344
#
# _framework density 16.910675000000001
#
# number of rings (size 3 to 8) (size 9 to 14) (size 15 to 20)
#    0.000    1.556    4.444    1.000    3.111    0.889 
#    0.000    0.000    0.000    0.667    0.000    1.556 
#    0.000    0.000    0.000    0.000    0.000    0.000 
#
# Total GULP energy -100399.594705 kJ/mol
# GULP energy per Si atom -5577.755261 kJ/mol
# Density = 1.687219 g / cm^3
# Si number density = 16.910675 Si / 1000 Ang^3
#
#
#
# Elastic Constant Matrix: (Units=GPa)
#
#
# Indices 1 2 3 4 5 6 
#
# 1 67.4229 35.6033 52.8585 0.0000 -2.4590 0.0000
# 2 35.6033 88.1741 37.4958 0.0000 -6.1004 0.0000
# 3 52.8585 37.4958 135.5577 0.0000 -13.3199 0.0000
# 4 0.0000 0.0000 0.0000 14.9229 0.0000 -5.4246
# 5 -2.4590 -6.1004 -13.3199 0.0000 38.1608 0.0000
# 6 0.0000 0.0000 0.0000 -5.4246 0.0000 10.1806
#
#
#
# Elastic Compliance Matrix: (Units=1/GPa)
#
#
# Indices 1 2 3 4 5 6 
#
# 1 0.024485 -0.006673 -0.007923 0.000000 -0.002255 0.000000
# 2 -0.006673 0.014698 -0.001320 0.000000 0.001459 0.000000
# 3 -0.007923 -0.001320 0.011143 0.000000 0.003168 0.000000
# 4 0.000000 0.000000 0.000000 0.083108 0.000000 0.044282
# 5 -0.002255 0.001459 0.003168 0.000000 0.027399 0.000000
# 6 0.000000 0.000000 0.000000 0.044282 0.000000 0.121821
#
#
# Mechanical properties :
#
#
# Convention : Reuss Voigt Hill
#
# Bulk Modulus (GPa) = 54.07504 60.34110 57.20807
# Shear Modulus (GPa) = 15.59329 23.66600 19.62965
#
# Velocity S-wave (km/s) = 3.03990 3.74501 3.41072
# Velocity P-wave (km/s) = 6.66090 7.37969 7.02949
#
# Compressibility (1/GPa) = 0.01849282
#
# Stress axis : x y z
#
# Youngs Moduli (GPa) = 40.84111 68.03612 89.74360
#
# Poissons Ratio (x) = 0.45403 0.71106
# Poissons Ratio (y) = 0.27255 0.11846
# Poissons Ratio (z) = 0.32359 0.08981
#
# Static dielectric constant tensor:
#      x y z
#    x 1.596720 0.000000 0.055880 
#    y 0.000000 1.552180 0.000000 
#    z 0.055880 0.000000 1.611540 
# 
# From -- ./inp_files/76634.got.cif
#   From: 2010.05.17/outbox.cif.g08.bks.cpg/sg12_39_cif.got.tgz:76634.got - 2010.06.03 13:09:07.
