data_PCOD9197893
_publ_section_title
;
Structure prediction by ZEFSAII (Michael W. Deem and Ramdas Pophale) SiO2 
 PCOD9197893
Probable space group: C 2/M
;
_chemical_formula_sum "Si O2"
_cell_formula_units_Z 64
_cell_length_a 13.144287
_cell_length_b 15.835976
_cell_length_c 15.371245
_cell_angle_alpha 90.000000
_cell_angle_beta 86.501813
_cell_angle_gamma 90.000000
_cell_volume 3193.603165
_symmetry_space_group_name_H-M "C 2/M"
_symmetry_group_IT_number 12
_symmetry_cell_setting 'monoclinic'
loop_
_space_group_symop_operation_xyz
x,y,z
-x,y,-z
-x,-y,-z
x,-y,z
1/2+x,1/2+y,z
1/2-x,1/2+y,-z
1/2-x,1/2-y,-z
1/2+x,1/2-y,z
loop_
_atom_site_type_symbol
_atom_site_label
_atom_site_fract_x
_atom_site_fract_y
_atom_site_fract_z
Si Si1 0.820566 0.398651 0.865514
Si Si2 0.855932 0.338901 0.678042
Si Si3 0.256697 0.101741 0.053178
Si Si4 0.530415 0.729611 0.731610
Si Si5 0.467427 0.812736 0.092605
Si Si6 0.885201 0.594742 0.502357
Si Si7 0.721554 0.803268 0.639816
Si Si8 0.352546 0.398791 0.768985
O O1 0.815571 0.500000 0.857650
O O2 0.799555 0.358239 0.772038
O O3 0.935746 0.370861 0.885465
O O4 0.751489 0.370788 0.951924
O O5 0.968341 0.312581 0.702492
O O6 0.850890 0.408270 0.604439
O O7 0.817926 0.257106 0.627498
O O8 0.366221 0.132975 0.081792
O O9 0.174169 0.128359 0.129999
O O10 0.255855 0.000000 0.052419
O O11 0.552900 0.746290 0.831166
O O12 0.633543 0.737591 0.672944
O O13 0.454340 0.649960 0.732084
O O14 0.500000 0.771755 0.000000
O O15 0.892214 0.500000 0.465993
O O16 0.813269 0.647656 0.443167
O O17 0.000000 0.630852 0.500000
O O18 0.757511 0.867396 0.714332
O O19 0.362644 0.500000 0.764011
#
# Coordination Sequence:
#
# PCOD9197893 Si02
#       8
#     8   8   8   8   8   8   8   8
#     4   9  17  30  50  80 115 147 186 235 286 336
#     4  10  21  37  56  82 114 149 184 233 286 342
#     4   9  16  29  52  80 113 152 190 233 284 333
#     4  10  20  36  54  82 114 148 194 235 283 328
#     4   9  16  29  47  79 109 147 189 233 281 334
#     4  11  22  37  60  88 114 140 177 232 295 344
#     4  11  21  39  60  83 113 150 193 232 279 346
#     4  10  21  37  58  83 116 155 196 237 280 335
#
# _framework density 20.04006
#
# number of rings (size 3 to 8) (size 9 to 14) (size 15 to 20)
#    0.000    2.125    2.500    1.500    0.000    1.500 
#    2.250    3.750    0.000    0.375    0.000    4.375 
#    0.000    0.000    0.000    0.000    0.000    0.000 
#
# Total GULP energy -178220.658950 kJ/mol
# GULP energy per Si atom -5569.395592 kJ/mol
# Density = 1.999445 g / cm^3
# Si number density = 20.040060 Si / 1000 Ang^3
#
#
#
# Elastic Constant Matrix: (Units=GPa)
#
#
# Indices 1 2 3 4 5 6 
#
# 1 32.2025 3.7877 19.3651 0.0000 5.0953 0.0000
# 2 3.7877 40.6963 24.5398 0.0000 6.6214 0.0000
# 3 19.3651 24.5398 121.3686 0.0000 15.2308 0.0000
# 4 0.0000 0.0000 0.0000 26.9890 0.0000 1.9677
# 5 5.0953 6.6214 15.2308 0.0000 22.8535 0.0000
# 6 0.0000 0.0000 0.0000 1.9677 0.0000 20.5004
#
#
#
# Elastic Compliance Matrix: (Units=1/GPa)
#
#
# Indices 1 2 3 4 5 6 
#
# 1 0.034766 0.000572 -0.005095 0.000000 -0.004521 0.000000
# 2 0.000572 0.028471 -0.005234 0.000000 -0.004888 0.000000
# 3 -0.005095 -0.005234 0.010670 0.000000 -0.004459 0.000000
# 4 0.000000 0.000000 0.000000 0.037313 0.000000 -0.003582
# 5 -0.004521 -0.004888 -0.004459 0.000000 0.049153 0.000000
# 6 0.000000 0.000000 0.000000 -0.003582 0.000000 0.049123
#
#
# Mechanical properties :
#
#
# Convention : Reuss Voigt Hill
#
# Bulk Modulus (GPa) = 18.38522 32.18364 25.28443
# Shear Modulus (GPa) = 20.23133 23.84022 22.03578
#
# Velocity S-wave (km/s) = 3.18078 3.45284 3.31960
# Velocity P-wave (km/s) = 4.76277 5.65603 5.22851
#
# Compressibility (1/GPa) = 0.05439152
#
# Stress axis : x y z
#
# Youngs Moduli (GPa) = 28.76401 35.12395 93.71840
#
# Poissons Ratio (x) = -0.02011 0.47754
# Poissons Ratio (y) = -0.01646 0.49057
# Poissons Ratio (z) = 0.14657 0.18386
#
# Static dielectric constant tensor:
#      x y z
#    x 1.707420 0.000000 -0.031960 
#    y 0.000000 1.721390 0.000000 
#    z -0.031960 0.000000 1.769760 
# 
# From -- ./inp_files/215924.got.cif
#   From: 2010.05.17/outbox.cif.g08.bks.cpg/sg12_108_cif.got.tgz:215924.got - 2010.06.03 13:09:07.
