data_PCOD9197178
_publ_section_title
;
Structure prediction by ZEFSAII (Michael W. Deem and Ramdas Pophale) SiO2 
 PCOD9197178
Probable space group: C 2/M
;
_chemical_formula_sum "Si O2"
_cell_formula_units_Z 48
_cell_length_a 31.133580
_cell_length_b 15.037217
_cell_length_c 13.936890
_cell_angle_alpha 90.000000
_cell_angle_beta 19.068380
_cell_angle_gamma 90.000000
_cell_volume 2131.604821
_symmetry_space_group_name_H-M "C 2/M"
_symmetry_group_IT_number 12
_symmetry_cell_setting 'monoclinic'
loop_
_space_group_symop_operation_xyz
x,y,z
-x,y,-z
-x,-y,-z
x,-y,z
1/2+x,1/2+y,z
1/2-x,1/2+y,-z
1/2-x,1/2-y,-z
1/2+x,1/2-y,z
loop_
_atom_site_type_symbol
_atom_site_label
_atom_site_fract_x
_atom_site_fract_y
_atom_site_fract_z
Si Si1 0.158050 0.329520 0.146805
Si Si2 0.471398 0.108517 0.168653
Si Si3 0.632054 0.599806 0.174102
Si Si4 0.190578 0.391662 0.861376
Si Si5 0.305014 0.608824 0.167191
Si Si6 0.961607 0.108262 0.187152
O O1 0.000000 0.329558 0.500000
O O2 0.250000 0.250000 0.000000
O O3 0.240320 0.405231 0.028630
O O4 0.178174 0.346507 0.991344
O O5 0.329738 0.139802 0.502190
O O6 0.472012 0.000000 0.164096
O O7 0.500000 0.138566 0.000000
O O8 0.574465 0.132597 0.033338
O O9 0.500000 0.640088 0.500000
O O10 0.589323 0.500000 0.238163
O O11 0.672178 0.641836 0.988537
O O12 0.189289 0.500000 0.877788
O O13 0.323201 0.366672 0.525151
O O14 0.297912 0.500000 0.181599
O O15 0.425629 0.635521 0.977965
O O16 0.960129 0.000000 0.185960
O O17 0.000000 0.139570 0.000000
#
# Coordination Sequence:
#
# PCOD9197178 Si02
#       6
#     8   8   8   8   8   8
#     4  12  26  42  59  82 113 158 210 260 313 365
#     4   9  16  27  46  77 116 149 177 219 279 345
#     4  10  20  36  59  86 115 147 188 242 301 363
#     4  10  20  35  58  89 122 155 194 242 297 360
#     4   9  16  26  43  70 103 139 175 214 267 326
#     4   9  16  27  47  80 120 154 183 223 281 350
#
# _framework density 22.518245
#
# number of rings (size 3 to 8) (size 9 to 14) (size 15 to 20)
#    0.000    2.167    0.000    4.000    0.000    9.333 
#    0.000    0.000    0.000    0.000    0.000   19.833 
#    0.000    0.000    0.000    0.000    0.000    0.333 
#
# Total GULP energy -133939.521658 kJ/mol
# GULP energy per Si atom -5580.813402 kJ/mol
# Density = 2.246699 g / cm^3
# Si number density = 22.518245 Si / 1000 Ang^3
#
#
#
# Elastic Constant Matrix: (Units=GPa)
#
#
# Indices 1 2 3 4 5 6 
#
# 1 391.6010 27.4888 294.3712 -0.0002 21.5171 0.0001
# 2 27.4888 75.6383 28.5051 0.0001 4.9336 -0.0001
# 3 294.3712 28.5051 399.8997 -0.0001 7.2660 0.0000
# 4 -0.0002 0.0001 -0.0001 -13.0093 0.0000 5.9790
# 5 21.5171 4.9336 7.2660 0.0000 57.1342 0.0000
# 6 0.0001 -0.0001 0.0000 5.9790 0.0000 -29.9962
#
#
#
# Elastic Compliance Matrix: (Units=1/GPa)
#
#
# Indices 1 2 3 4 5 6 
#
# 1 0.005884 -0.000422 -0.004272 0.000000 -0.001636 0.000000
# 2 -0.000422 0.013679 -0.000647 0.000000 -0.000940 0.000000
# 3 -0.004272 -0.000647 0.005674 0.000000 0.000943 0.000000
# 4 0.000000 0.000000 0.000000 -0.084620 0.000000 -0.016867
# 5 -0.001636 -0.000940 0.000943 0.000000 0.018080 0.000000
# 6 0.000000 0.000000 0.000000 -0.016867 0.000000 -0.036700
#
#
# Mechanical properties :
#
#
# Convention : Reuss Voigt Hill
#
# Bulk Modulus (GPa) = 68.70135 174.20770 121.45453
# Shear Modulus (GPa) = -80.04124 37.27734 -21.38195
#
# Velocity S-wave (km/s) = -5.96844 4.07311 -3.08480
# Velocity P-wave (km/s) = 4.11350 9.98254 6.43157
#
# Compressibility (1/GPa) = 0.01455575
#
# Stress axis : x y z
#
# Youngs Moduli (GPa) = 169.94789 73.10234 176.24202
#
# Poissons Ratio (x) = 0.03084 0.75283
# Poissons Ratio (y) = 0.07170 0.11410
# Poissons Ratio (z) = 0.72595 0.04733
#
# Static dielectric constant tensor:
#      x y z
#    x 1.745480 0.000000 0.040630 
#    y 0.000000 2.063840 0.000000 
#    z 0.040630 0.000000 1.718720 
# 
# From -- ./inp_files/190255.got.cif
#   From: 2010.05.17/outbox.cif.g08.bks.cpg/sg12_96_cif.got.tgz:190255.got - 2010.06.03 13:09:07.
