data_PCOD9197701
_publ_section_title
;
Structure prediction by ZEFSAII (Michael W. Deem and Ramdas Pophale) SiO2 
 PCOD9197701
Probable space group: C 2/M
;
_chemical_formula_sum "Si O2"
_cell_formula_units_Z 58
_cell_length_a 17.572101
_cell_length_b 19.759627
_cell_length_c 9.303849
_cell_angle_alpha 90.000000
_cell_angle_beta 72.548483
_cell_angle_gamma 90.000000
_cell_volume 3081.770457
_symmetry_space_group_name_H-M "C 2/M"
_symmetry_group_IT_number 12
_symmetry_cell_setting 'monoclinic'
loop_
_space_group_symop_operation_xyz
x,y,z
-x,y,-z
-x,-y,-z
x,-y,z
1/2+x,1/2+y,z
1/2-x,1/2+y,-z
1/2-x,1/2-y,-z
1/2+x,1/2-y,z
loop_
_atom_site_type_symbol
_atom_site_label
_atom_site_fract_x
_atom_site_fract_y
_atom_site_fract_z
Si Si1 0.156309 0.298719 0.196232
Si Si2 0.563953 0.614786 0.646174
Si Si3 0.405206 0.421968 0.063494
Si Si4 0.016412 0.264291 0.661488
Si Si5 0.188976 0.313348 0.511504
Si Si6 0.712808 0.350968 0.083755
Si Si7 0.290569 0.419212 0.617085
Si Si8 0.500000 0.500000 0.500000
O O1 0.175501 0.321033 0.348333
O O2 0.187208 0.221430 0.163462
O O3 0.061119 0.298368 0.225436
O O4 0.206336 0.340833 0.052328
O O5 0.612028 0.591344 0.759266
O O6 0.523336 0.685800 0.699038
O O7 0.628683 0.617527 0.482195
O O8 0.503618 0.558451 0.624457
O O9 0.389026 0.500000 0.037025
O O10 0.500000 0.410396 0.000000
O O11 0.354730 0.375057 0.988477
O O12 0.103816 0.295776 0.632031
O O13 0.000000 0.265305 0.500000
O O14 0.250000 0.250000 0.500000
O O15 0.223402 0.381191 0.563227
O O16 0.721444 0.402976 0.209417
O O17 0.300552 0.500000 0.587265
#
# Coordination Sequence:
#
# PCOD9197701 Si02
#       8
#     8   8   8   8   8   8   8   2
#     4  10  22  39  62  88 120 164 208 266 313 365
#     4  12  22  35  59  89 126 166 209 248 312 385
#     4  11  24  36  52  83 126 169 207 251 314 384
#     4  10  20  35  62  90 117 155 206 261 314 362
#     4  11  20  39  66  92 121 156 211 262 313 379
#     4  11  23  39  58  84 126 165 214 254 312 377
#     4  12  24  39  63  91 126 169 208 262 325 381
#     4  12  24  32  58  92 132 168 208 252 304 404
#
# _framework density 18.820350999999999
#
# number of rings (size 3 to 8) (size 9 to 14) (size 15 to 20)
#    0.000    0.966    4.828    2.897    1.931    0.000 
#    0.000    2.759    0.000    6.207    0.000    0.000 
#    0.000    0.000    0.000    0.000    0.000    0.000 
#
# Total GULP energy -161770.256514 kJ/mol
# GULP energy per Si atom -5578.284707 kJ/mol
# Density = 1.877751 g / cm^3
# Si number density = 18.820351 Si / 1000 Ang^3
#
#
#
# Elastic Constant Matrix: (Units=GPa)
#
#
# Indices 1 2 3 4 5 6 
#
# 1 81.5927 10.1431 32.0919 0.0000 -5.3991 0.0000
# 2 10.1431 28.0393 19.9552 0.0000 10.4702 0.0000
# 3 32.0919 19.9552 92.5077 0.0000 0.3537 0.0000
# 4 0.0000 0.0000 0.0000 26.0975 0.0000 4.3796
# 5 -5.3991 10.4702 0.3537 0.0000 36.6043 0.0000
# 6 0.0000 0.0000 0.0000 4.3796 0.0000 -49.6930
#
#
#
# Elastic Compliance Matrix: (Units=1/GPa)
#
#
# Indices 1 2 3 4 5 6 
#
# 1 0.014594 -0.003362 -0.004349 0.000000 0.003156 0.000000
# 2 -0.003362 0.048891 -0.009325 0.000000 -0.014390 0.000000
# 3 -0.004349 -0.009325 0.014323 0.000000 0.001887 0.000000
# 4 0.000000 0.000000 0.000000 0.037759 0.000000 0.003328
# 5 0.003156 -0.014390 0.001887 0.000000 0.031883 0.000000
# 6 0.000000 0.000000 0.000000 0.003328 0.000000 -0.019830
#
#
# Mechanical properties :
#
#
# Convention : Reuss Voigt Hill
#
# Bulk Modulus (GPa) = 22.86558 36.28000 29.57279
# Shear Modulus (GPa) = 28.36555 11.93174 20.14864
#
# Velocity S-wave (km/s) = 3.88645 2.52063 3.27552
# Velocity P-wave (km/s) = 5.68463 5.27165 5.48203
#
# Compressibility (1/GPa) = 0.04373386
#
# Stress axis : x y z
#
# Youngs Moduli (GPa) = 68.52347 20.45385 69.81748
#
# Poissons Ratio (x) = 0.06877 0.30367
# Poissons Ratio (y) = 0.23040 0.65104
# Poissons Ratio (z) = 0.29804 0.19073
#
# Static dielectric constant tensor:
#      x y z
#    x 1.691380 0.000000 -0.027990 
#    y 0.000000 1.628620 0.000000 
#    z -0.027990 0.000000 1.704260 
# 
# From -- ./inp_files/77435.got.cif
#   From: 2010.05.17/outbox.cif.g08.bks.cpg/sg12_39_cif.got.tgz:77435.got - 2010.06.03 13:09:07.
