data_PCOD9197549
_publ_section_title
;
Structure prediction by ZEFSAII (Michael W. Deem and Ramdas Pophale) SiO2 
 PCOD9197549
Probable space group: C 2/M
;
_chemical_formula_sum "Si O2"
_cell_formula_units_Z 40
_cell_length_a 16.792765
_cell_length_b 22.979753
_cell_length_c 10.573492
_cell_angle_alpha 90.000000
_cell_angle_beta 31.683074
_cell_angle_gamma 90.000000
_cell_volume 2143.026295
_symmetry_space_group_name_H-M "C 2/M"
_symmetry_group_IT_number 12
_symmetry_cell_setting 'monoclinic'
loop_
_space_group_symop_operation_xyz
x,y,z
-x,y,-z
-x,-y,-z
x,-y,z
1/2+x,1/2+y,z
1/2-x,1/2+y,-z
1/2-x,1/2-y,-z
1/2+x,1/2-y,z
loop_
_atom_site_type_symbol
_atom_site_label
_atom_site_fract_x
_atom_site_fract_y
_atom_site_fract_z
Si Si1 0.023153 0.900718 0.113854
Si Si2 0.231486 0.318871 0.522778
Si Si3 0.000000 0.609487 0.000000
Si Si4 0.043377 0.000000 0.592913
Si Si5 0.642020 0.879027 0.401867
Si Si6 0.365518 0.000000 0.050034
Si Si7 0.465658 0.000000 0.400690
O O1 0.894467 0.851148 0.299142
O O2 0.002949 0.945423 0.257211
O O3 0.195592 0.877947 0.885861
O O4 0.000000 0.924580 0.000000
O O5 0.250000 0.250000 0.500000
O O6 0.145242 0.332691 0.508559
O O7 0.132132 0.349397 0.767034
O O8 0.054673 0.561706 0.028656
O O9 0.223793 0.000000 0.332844
O O10 0.000000 0.000000 0.500000
O O11 0.500000 0.873017 0.500000
O O12 0.629102 0.941644 0.489981
O O13 0.372745 0.000000 0.889020
O O14 0.500000 0.000000 0.500000
#
# Coordination Sequence:
#
# PCOD9197549 Si02
#       7
#     8   8   4   4   8   4   4
#     4  10  23  42  62  91 127 173 212 257 313 397
#     4  11  24  42  65  91 121 171 217 258 310 379
#     4  11  22  38  66  86 128 161 212 264 320 373
#     4  12  25  36  60  97 136 163 199 270 337 377
#     4  10  22  40  66  90 122 161 217 256 312 378
#     4  11  22  39  58  96 127 161 205 267 335 376
#     4  10  20  35  60  89 123 160 198 250 324 386
#
# _framework density 18.665192000000001
#
# number of rings (size 3 to 8) (size 9 to 14) (size 15 to 20)
#    0.000    1.400    4.000    0.900    9.800    2.400 
#    0.000    2.000    0.000    0.000    0.000    0.000 
#    0.000    0.000    0.000    0.000    0.000    0.000 
#
# Total GULP energy -111340.722488 kJ/mol
# GULP energy per Si atom -5567.036124 kJ/mol
# Density = 1.862271 g / cm^3
# Si number density = 18.665192 Si / 1000 Ang^3
#
#
#
# Elastic Constant Matrix: (Units=GPa)
#
#
# Indices 1 2 3 4 5 6 
#
# 1 107.0213 53.2408 48.6969 0.0008 6.1904 0.0006
# 2 53.2408 154.8713 43.4037 -0.0005 8.0946 0.0000
# 3 48.6969 43.4037 144.8917 -0.0013 8.1799 -0.0003
# 4 0.0008 -0.0005 -0.0013 24.5377 -0.0006 5.4160
# 5 6.1904 8.0946 8.1799 -0.0006 38.8228 -0.0002
# 6 0.0006 0.0000 -0.0003 5.4160 -0.0002 24.4873
#
#
#
# Elastic Compliance Matrix: (Units=1/GPa)
#
#
# Indices 1 2 3 4 5 6 
#
# 1 0.012496 -0.003380 -0.003152 -0.000001 -0.000624 0.000000
# 2 -0.003380 0.008004 -0.001213 0.000000 -0.000875 0.000000
# 3 -0.003152 -0.001213 0.008381 0.000000 -0.001011 0.000000
# 4 -0.000001 0.000000 0.000000 0.042845 0.000001 -0.009476
# 5 -0.000624 -0.000875 -0.001011 0.000001 0.026253 0.000000
# 6 0.000000 0.000000 0.000000 -0.009476 0.000000 0.042933
#
#
# Mechanical properties :
#
#
# Convention : Reuss Voigt Hill
#
# Bulk Modulus (GPa) = 74.66704 77.49635 76.08170
# Shear Modulus (GPa) = 31.08188 34.99907 33.04047
#
# Velocity S-wave (km/s) = 4.08515 4.33494 4.21190
# Velocity P-wave (km/s) = 7.89566 8.16486 8.03139
#
# Compressibility (1/GPa) = 0.01339279
#
# Stress axis : x y z
#
# Youngs Moduli (GPa) = 80.02831 124.93199 119.31252
#
# Poissons Ratio (x) = 0.42223 0.37608
# Poissons Ratio (y) = 0.27047 0.14467
# Poissons Ratio (z) = 0.25225 0.15148
#
# Static dielectric constant tensor:
#      x y z
#    x 1.675530 0.000000 -0.023900 
#    y 0.000000 1.705390 0.000000 
#    z -0.023900 0.000000 1.699150 
# 
# From -- ./inp_files/159443.got.cif
#   From: 2010.05.17/outbox.cif.g08.bks.cpg/sg12_80_cif.got.tgz:159443.got - 2010.06.03 13:09:07.
