data_PCOD9197348
_publ_section_title
;
Structure prediction by ZEFSAII (Michael W. Deem and Ramdas Pophale) SiO2 
 PCOD9197348
Probable space group: C 2/M
;
_chemical_formula_sum "Si O2"
_cell_formula_units_Z 40
_cell_length_a 23.012997
_cell_length_b 8.935275
_cell_length_c 15.433301
_cell_angle_alpha 90.000000
_cell_angle_beta 139.222690
_cell_angle_gamma 90.000000
_cell_volume 2072.685582
_symmetry_space_group_name_H-M "C 2/M"
_symmetry_group_IT_number 12
_symmetry_cell_setting 'monoclinic'
loop_
_space_group_symop_operation_xyz
x,y,z
-x,y,-z
-x,-y,-z
x,-y,z
1/2+x,1/2+y,z
1/2-x,1/2+y,-z
1/2-x,1/2-y,-z
1/2+x,1/2-y,z
loop_
_atom_site_type_symbol
_atom_site_label
_atom_site_fract_x
_atom_site_fract_y
_atom_site_fract_z
Si Si1 0.996027 0.177277 0.724782
Si Si2 0.036121 0.324874 0.946033
Si Si3 0.174005 0.322115 0.852924
Si Si4 0.756363 0.676418 0.783796
Si Si5 0.294035 0.679514 0.464793
O O1 0.077777 0.263289 0.773385
O O2 0.898822 0.216486 0.578945
O O3 0.010030 0.000000 0.730906
O O4 0.997161 0.223295 0.826845
O O5 0.014029 0.500000 0.904061
O O6 0.142526 0.310392 0.069213
O O7 0.000000 0.287140 0.000000
O O8 0.178435 0.500000 0.866673
O O9 0.195345 0.269854 0.779591
O O10 0.250000 0.250000 0.000000
O O11 0.731735 0.500000 0.760543
O O12 0.749993 0.723560 0.676324
O O13 0.285917 0.500000 0.463509
O O14 0.250000 0.750000 0.500000
#
# Coordination Sequence:
#
# PCOD9197348 Si02
#       5
#     8   8   8   8   8
#     4  11  23  39  61  90 124 162 204 251 306 362
#     4  10  20  35  59  88 117 157 207 254 303 359
#     4  12  24  40  63  91 123 159 203 257 311 366
#     4  10  21  39  62  88 122 163 206 250 303 361
#     4  10  23  42  64  91 126 167 205 250 303 361
#
# _framework density 19.298634
#
# number of rings (size 3 to 8) (size 9 to 14) (size 15 to 20)
#    0.000    1.400    2.000    3.600    0.000    5.200 
#    0.000    4.000    0.000    0.000    0.000    0.000 
#    0.000    0.000    0.000    0.000    0.000    0.000 
#
# Total GULP energy -111811.865048 kJ/mol
# GULP energy per Si atom -5590.593252 kJ/mol
# Density = 1.925471 g / cm^3
# Si number density = 19.298634 Si / 1000 Ang^3
#
#
#
# Elastic Constant Matrix: (Units=GPa)
#
#
# Indices 1 2 3 4 5 6 
#
# 1 73.5005 22.5779 -18.0637 0.0000 -4.9421 0.0000
# 2 22.5779 61.2468 14.1200 0.0000 3.0302 0.0000
# 3 -18.0637 14.1200 50.0119 0.0000 -11.1590 0.0000
# 4 0.0000 0.0000 0.0000 23.6726 0.0000 -3.8025
# 5 -4.9421 3.0302 -11.1590 0.0000 27.1933 0.0000
# 6 0.0000 0.0000 0.0000 -3.8025 0.0000 39.0766
#
#
#
# Elastic Compliance Matrix: (Units=1/GPa)
#
#
# Indices 1 2 3 4 5 6 
#
# 1 0.020988 -0.011272 0.013093 0.000000 0.010443 0.000000
# 2 -0.011272 0.024003 -0.013102 0.000000 -0.010100 0.000000
# 3 0.013093 -0.013102 0.032231 0.000000 0.017066 0.000000
# 4 0.000000 0.000000 0.000000 0.042914 0.000000 0.004176
# 5 0.010443 -0.010100 0.017066 0.000000 0.046800 0.000000
# 6 0.000000 0.000000 0.000000 0.004176 0.000000 0.025997
#
#
# Mechanical properties :
#
#
# Convention : Reuss Voigt Hill
#
# Bulk Modulus (GPa) = 18.29456 24.66973 21.48215
# Shear Modulus (GPa) = 21.39355 29.06350 25.22852
#
# Velocity S-wave (km/s) = 3.33311 3.88492 3.61954
# Velocity P-wave (km/s) = 4.93083 5.73884 5.35011
#
# Compressibility (1/GPa) = 0.05466104
#
# Stress axis : x y z
#
# Youngs Moduli (GPa) = 47.64615 41.66145 31.02569
#
# Poissons Ratio (x) = 0.46962 -0.40623
# Poissons Ratio (y) = 0.53708 0.40649
# Poissons Ratio (z) = -0.62385 0.54584
#
# Static dielectric constant tensor:
#      x y z
#    x 1.665610 0.000000 -0.000200 
#    y 0.000000 1.652310 0.000000 
#    z -0.000200 0.000000 1.661840 
# 
# From -- ./inp_files/229638.got.cif
#   From: 2010.05.17/outbox.cif.g08.bks.cpg/sg12_115_cif.got.tgz:229638.got - 2010.06.03 13:09:07.
