data_PCOD9197161
_publ_section_title
;
Structure prediction by ZEFSAII (Michael W. Deem and Ramdas Pophale) SiO2 
 PCOD9197161
Probable space group: C 2/M
;
_chemical_formula_sum "Si O2"
_cell_formula_units_Z 40
_cell_length_a 27.346526
_cell_length_b 8.421221
_cell_length_c 8.367061
_cell_angle_alpha 90.000000
_cell_angle_beta 96.731848
_cell_angle_gamma 90.000000
_cell_volume 1913.575550
_symmetry_space_group_name_H-M "C 2/M"
_symmetry_group_IT_number 12
_symmetry_cell_setting 'monoclinic'
loop_
_space_group_symop_operation_xyz
x,y,z
-x,y,-z
-x,-y,-z
x,-y,z
1/2+x,1/2+y,z
1/2-x,1/2+y,-z
1/2-x,1/2-y,-z
1/2+x,1/2-y,z
loop_
_atom_site_type_symbol
_atom_site_label
_atom_site_fract_x
_atom_site_fract_y
_atom_site_fract_z
Si Si1 0.804630 0.810544 0.058479
Si Si2 0.851974 0.691085 0.406082
Si Si3 0.472223 0.182900 0.847202
Si Si4 0.361005 0.807632 0.763905
Si Si5 0.042498 0.175118 0.644904
O O1 0.821456 0.745668 0.238803
O O2 0.805779 0.000000 0.066513
O O3 0.750000 0.750000 0.000000
O O4 0.837802 0.755604 0.919653
O O5 0.854402 0.500000 0.404921
O O6 0.836929 0.739089 0.582783
O O7 0.906162 0.763271 0.400650
O O8 0.418614 0.245321 0.779969
O O9 0.515974 0.191015 0.738137
O O10 0.461921 0.000000 0.886362
O O11 0.500000 0.271855 0.000000
O O12 0.358341 0.000000 0.768901
O O13 0.000000 0.152786 0.500000
O O14 0.050381 0.000000 0.724200
#
# Coordination Sequence:
#
# PCOD9197161 Si02
#       5
#     8   8   8   8   8
#     4  12  27  47  71  97 129 166 212 272 334 393
#     4  11  23  42  69  97 132 175 220 268 322 387
#     4  10  20  35  58  88 124 169 216 263 314 376
#     4  10  22  41  66  97 130 170 219 269 324 386
#     4  11  22  35  56  90 131 170 210 257 309 371
#
# _framework density 20.903275000000001
#
# number of rings (size 3 to 8) (size 9 to 14) (size 15 to 20)
#    0.000    1.200    2.000    4.200    0.000    6.000 
#    0.000    0.000    0.000    0.000    0.000    0.000 
#    0.000    0.000    0.000    0.000    0.000    0.000 
#
# Total GULP energy -111380.566693 kJ/mol
# GULP energy per Si atom -5569.028335 kJ/mol
# Density = 2.085570 g / cm^3
# Si number density = 20.903275 Si / 1000 Ang^3
#
#
#
# Elastic Constant Matrix: (Units=GPa)
#
#
# Indices 1 2 3 4 5 6 
#
# 1 42.3408 17.6328 31.6247 0.0000 8.9657 0.0000
# 2 17.6328 82.0437 44.2620 0.0000 7.2420 0.0000
# 3 31.6247 44.2620 152.5050 0.0000 16.4601 0.0000
# 4 0.0000 0.0000 0.0000 21.6711 0.0000 5.6371
# 5 8.9657 7.2420 16.4601 0.0000 29.6856 0.0000
# 6 0.0000 0.0000 0.0000 5.6371 0.0000 49.5555
#
#
#
# Elastic Compliance Matrix: (Units=1/GPa)
#
#
# Indices 1 2 3 4 5 6 
#
# 1 0.029622 -0.003420 -0.004547 0.000000 -0.005591 0.000000
# 2 -0.003420 0.014892 -0.003544 0.000000 -0.000635 0.000000
# 3 -0.004547 -0.003544 0.008815 0.000000 -0.002650 0.000000
# 4 0.000000 0.000000 0.000000 0.047551 0.000000 -0.005409
# 5 -0.005591 -0.000635 -0.002650 0.000000 0.036999 0.000000
# 6 0.000000 0.000000 0.000000 -0.005409 0.000000 0.020795
#
#
# Mechanical properties :
#
#
# Convention : Reuss Voigt Hill
#
# Bulk Modulus (GPa) = 32.99616 51.54761 42.27188
# Shear Modulus (GPa) = 26.06913 32.40711 29.23812
#
# Velocity S-wave (km/s) = 3.53531 3.94170 3.74402
# Velocity P-wave (km/s) = 5.69947 6.74015 6.24154
#
# Compressibility (1/GPa) = 0.03030656
#
# Stress axis : x y z
#
# Youngs Moduli (GPa) = 33.75873 67.15079 113.44720
#
# Poissons Ratio (x) = 0.22965 0.51580
# Poissons Ratio (y) = 0.11545 0.40210
# Poissons Ratio (z) = 0.15349 0.23801
#
# Static dielectric constant tensor:
#      x y z
#    x 1.721630 0.000000 0.012380 
#    y 0.000000 1.770760 0.000000 
#    z 0.012380 0.000000 1.789910 
# 
# From -- ./inp_files/93019.got.cif
#   From: 2010.05.17/outbox.cif.g08.bks.cpg/sg12_47_cif.got.tgz:93019.got - 2010.06.03 13:09:07.
