data_PCOD9197212
_publ_section_title
;
Structure prediction by ZEFSAII (Michael W. Deem and Ramdas Pophale) SiO2 
 PCOD9197212
Probable space group: C 2/M
;
_chemical_formula_sum "Si O2"
_cell_formula_units_Z 60
_cell_length_a 26.572595
_cell_length_b 12.073397
_cell_length_c 7.983545
_cell_angle_alpha 90.000000
_cell_angle_beta 96.969589
_cell_angle_gamma 90.000000
_cell_volume 2542.366623
_symmetry_space_group_name_H-M "C 2/M"
_symmetry_group_IT_number 12
_symmetry_cell_setting 'monoclinic'
loop_
_space_group_symop_operation_xyz
x,y,z
-x,y,-z
-x,-y,-z
x,-y,z
1/2+x,1/2+y,z
1/2-x,1/2+y,-z
1/2-x,1/2-y,-z
1/2+x,1/2-y,z
loop_
_atom_site_type_symbol
_atom_site_label
_atom_site_fract_x
_atom_site_fract_y
_atom_site_fract_z
Si Si1 0.379801 0.762811 0.423294
Si Si2 0.735622 0.157206 0.252264
Si Si3 0.525383 0.124780 0.694120
Si Si4 0.904029 0.000000 0.920529
Si Si5 0.729162 0.877412 0.623244
Si Si6 0.164946 0.843724 0.879682
Si Si7 0.939224 0.229740 0.797279
Si Si8 0.637253 0.124286 0.031263
O O1 0.418250 0.835169 0.325763
O O2 0.327169 0.828126 0.425575
O O3 0.366082 0.654164 0.308410
O O4 0.406695 0.736356 0.610158
O O5 0.751773 0.121648 0.444801
O O6 0.737851 0.290849 0.259024
O O7 0.778081 0.121743 0.137627
O O8 0.679869 0.116949 0.192581
O O9 0.500000 0.119802 0.500000
O O10 0.494204 0.217577 0.781748
O O11 0.522036 0.000000 0.763465
O O12 0.938340 0.897331 0.857030
O O13 0.865566 0.906025 0.990708
O O14 0.727996 0.000000 0.693640
O O15 0.164193 0.712841 0.921784
O O16 0.911928 0.315662 0.913453
O O17 0.628373 0.000000 0.966187
#
# Coordination Sequence:
#
# PCOD9197212 Si02
#       8
#     8   8   8   4   8   8   8   8
#     4  10  20  39  64  93 125 153 202 259 317 363
#     4  10  21  37  54  87 118 159 211 246 299 365
#     4   9  18  34  64 100 126 152 196 259 316 367
#     4  10  24  44  60  82 127 166 205 257 294 370
#     4  10  20  35  58  91 125 157 199 257 306 359
#     4  10  24  41  57  88 124 163 209 251 307 364
#     4  10  21  41  64  94 120 161 210 253 306 365
#     4  11  22  39  60  84 122 167 205 254 306 364
#
# _framework density 23.600057
#
# number of rings (size 3 to 8) (size 9 to 14) (size 15 to 20)
#    0.000    2.000    1.333    1.600    1.867    4.267 
#    4.800    7.000    0.000    4.000    0.000    0.000 
#    0.000    0.000    0.000    0.000    0.000    0.000 
#
# Total GULP energy -167171.701912 kJ/mol
# GULP energy per Si atom -5572.390064 kJ/mol
# Density = 2.354634 g / cm^3
# Si number density = 23.600057 Si / 1000 Ang^3
#
#
#
# Elastic Constant Matrix: (Units=GPa)
#
#
# Indices 1 2 3 4 5 6 
#
# 1 108.8155 58.5486 17.3230 0.0000 -21.7895 0.0000
# 2 58.5486 208.5358 21.7618 0.0000 -18.2170 0.0000
# 3 17.3230 21.7618 50.8958 0.0000 -14.6019 0.0000
# 4 0.0000 0.0000 0.0000 15.7525 0.0000 -7.9687
# 5 -21.7895 -18.2170 -14.6019 0.0000 45.7276 0.0000
# 6 0.0000 0.0000 0.0000 -7.9687 0.0000 13.9317
#
#
#
# Elastic Compliance Matrix: (Units=1/GPa)
#
#
# Indices 1 2 3 4 5 6 
#
# 1 0.011742 -0.002777 -0.001675 0.000000 0.003954 0.000000
# 2 -0.002777 0.005764 -0.001365 0.000000 0.000537 0.000000
# 3 -0.001675 -0.001365 0.022476 0.000000 0.005835 0.000000
# 4 0.000000 0.000000 0.000000 0.089329 0.000000 0.051095
# 5 0.003954 0.000537 0.005835 0.000000 0.025830 0.000000
# 6 0.000000 0.000000 0.000000 0.051095 0.000000 0.101004
#
#
# Mechanical properties :
#
#
# Convention : Reuss Voigt Hill
#
# Bulk Modulus (GPa) = 35.27513 62.61266 48.94390
# Shear Modulus (GPa) = 18.03560 33.12326 25.57943
#
# Velocity S-wave (km/s) = 2.76745 3.75043 3.29579
# Velocity P-wave (km/s) = 5.01908 6.73369 5.93859
#
# Compressibility (1/GPa) = 0.02834858
#
# Stress axis : x y z
#
# Youngs Moduli (GPa) = 85.16251 173.48114 44.49188
#
# Poissons Ratio (x) = 0.48168 0.07452
# Poissons Ratio (y) = 0.23646 0.06075
# Poissons Ratio (z) = 0.14264 0.23689
#
# Static dielectric constant tensor:
#      x y z
#    x 1.870170 0.000000 0.053190 
#    y 0.000000 1.908970 0.000000 
#    z 0.053190 0.000000 2.001430 
# 
# From -- ./inp_files/103229.got.cif
#   From: 2010.05.17/outbox.cif.g08.bks.cpg/sg12_52_cif.got.tgz:103229.got - 2010.06.03 13:09:07.
