data_PCOD9197721
_publ_section_title
;
Structure prediction by ZEFSAII (Michael W. Deem and Ramdas Pophale) SiO2 
 PCOD9197721
Probable space group: C 2/M
;
_chemical_formula_sum "Si O2"
_cell_formula_units_Z 48
_cell_length_a 31.341945
_cell_length_b 13.518653
_cell_length_c 13.999915
_cell_angle_alpha 90.000000
_cell_angle_beta 153.678837
_cell_angle_gamma 90.000000
_cell_volume 2630.163193
_symmetry_space_group_name_H-M "C 2/M"
_symmetry_group_IT_number 12
_symmetry_cell_setting 'monoclinic'
loop_
_space_group_symop_operation_xyz
x,y,z
-x,y,-z
-x,-y,-z
x,-y,z
1/2+x,1/2+y,z
1/2-x,1/2+y,-z
1/2-x,1/2-y,-z
1/2+x,1/2-y,z
loop_
_atom_site_type_symbol
_atom_site_label
_atom_site_fract_x
_atom_site_fract_y
_atom_site_fract_z
Si Si1 0.157933 0.500000 0.260675
Si Si2 0.774630 0.385155 0.171103
Si Si3 0.246170 0.292499 0.386083
Si Si4 0.056534 0.500000 0.253315
Si Si5 0.410703 0.784236 0.589902
Si Si6 0.098794 0.384785 0.754204
Si Si7 0.615224 0.273057 0.949271
O O1 0.212699 0.404412 0.332532
O O2 0.140089 0.500000 0.339592
O O3 0.049476 0.500000 0.004044
O O4 0.793765 0.500000 0.235899
O O5 0.842207 0.308792 0.363458
O O6 0.809674 0.375433 0.132585
O O7 0.667828 0.356320 0.990947
O O8 0.250000 0.250000 0.500000
O O9 0.349111 0.272747 0.545198
O O10 0.172083 0.240965 0.162966
O O11 0.063323 0.395305 0.321722
O O12 0.503053 0.720348 0.747873
O O13 0.084076 0.500000 0.747854
O O14 0.118413 0.323938 0.888576
O O15 0.000000 0.353498 0.500000
#
# Coordination Sequence:
#
# PCOD9197721 Si02
#       7
#     4   8   8   4   8   8   8
#     4  11  22  38  60  83 115 157 196 256 298 351
#     4  10  21  38  60  87 122 159 194 239 293 355
#     4  11  24  39  58  90 122 155 199 247 301 350
#     4  11  20  34  64  85 111 154 197 249 302 339
#     4  11  21  37  61  89 118 155 197 244 295 355
#     4  10  20  35  62  94 120 150 197 248 298 352
#     4  11  23  37  61  88 122 157 198 245 297 356
#
# _framework density 18.249818000000001
#
# number of rings (size 3 to 8) (size 9 to 14) (size 15 to 20)
#    0.000    1.333    5.833    0.500    2.333    0.667 
#    1.500    0.000    0.000    1.500    0.000    0.000 
#    0.000    0.000    0.000    0.000    0.000    0.000 
#
# Total GULP energy -133813.155874 kJ/mol
# GULP energy per Si atom -5575.548161 kJ/mol
# Density = 1.820828 g / cm^3
# Si number density = 18.249818 Si / 1000 Ang^3
#
#
#
# Elastic Constant Matrix: (Units=GPa)
#
#
# Indices 1 2 3 4 5 6 
#
# 1 123.2576 27.2328 41.7917 0.0000 24.5204 0.0000
# 2 27.2328 44.4842 12.5908 0.0000 11.9252 0.0000
# 3 41.7917 12.5908 59.8788 0.0000 15.0584 0.0000
# 4 0.0000 0.0000 0.0000 20.7924 0.0000 3.0381
# 5 24.5204 11.9252 15.0584 0.0000 41.7350 0.0000
# 6 0.0000 0.0000 0.0000 3.0381 0.0000 31.8558
#
#
#
# Elastic Compliance Matrix: (Units=1/GPa)
#
#
# Indices 1 2 3 4 5 6 
#
# 1 0.012033 -0.004597 -0.006581 0.000000 -0.003382 0.000000
# 2 -0.004597 0.026872 -0.001309 0.000000 -0.004505 0.000000
# 3 -0.006581 -0.001309 0.022548 0.000000 -0.003895 0.000000
# 4 0.000000 0.000000 0.000000 0.048774 0.000000 -0.004652
# 5 -0.003382 -0.004505 -0.003895 0.000000 0.028640 0.000000
# 6 0.000000 0.000000 0.000000 -0.004652 0.000000 0.031835
#
#
# Mechanical properties :
#
#
# Convention : Reuss Voigt Hill
#
# Bulk Modulus (GPa) = 27.41299 43.42793 35.42046
# Shear Modulus (GPa) = 24.05724 28.61032 26.33378
#
# Velocity S-wave (km/s) = 3.63467 3.96372 3.80275
# Velocity P-wave (km/s) = 5.71559 6.69299 6.22351
#
# Compressibility (1/GPa) = 0.03647906
#
# Stress axis : x y z
#
# Youngs Moduli (GPa) = 83.10531 37.21280 44.34898
#
# Poissons Ratio (x) = 0.17107 0.29187
# Poissons Ratio (y) = 0.38205 0.05805
# Poissons Ratio (z) = 0.54693 0.04871
#
# Static dielectric constant tensor:
#      x y z
#    x 1.672280 0.000000 0.002000 
#    y 0.000000 1.613930 0.000000 
#    z 0.002000 0.000000 1.651200 
# 
# From -- ./inp_files/183920.got.cif
#   From: 2010.05.17/outbox.cif.g08.bks.cpg/sg12_92_cif.got.tgz:183920.got - 2010.06.03 13:09:07.
