data_PCOD9197215
_publ_section_title
;
Structure prediction by ZEFSAII (Michael W. Deem and Ramdas Pophale) SiO2 
 PCOD9197215
Probable space group: C 2/M
;
_chemical_formula_sum "Si O2"
_cell_formula_units_Z 52
_cell_length_a 8.493048
_cell_length_b 15.936380
_cell_length_c 19.537691
_cell_angle_alpha 90.000000
_cell_angle_beta 84.329655
_cell_angle_gamma 90.000000
_cell_volume 2631.456557
_symmetry_space_group_name_H-M "C 2/M"
_symmetry_group_IT_number 12
_symmetry_cell_setting 'monoclinic'
loop_
_space_group_symop_operation_xyz
x,y,z
-x,y,-z
-x,-y,-z
x,-y,z
1/2+x,1/2+y,z
1/2-x,1/2+y,-z
1/2-x,1/2-y,-z
1/2+x,1/2-y,z
loop_
_atom_site_type_symbol
_atom_site_label
_atom_site_fract_x
_atom_site_fract_y
_atom_site_fract_z
Si Si1 0.050697 0.674776 0.249207
Si Si2 0.307992 0.278282 0.342230
Si Si3 0.634373 0.787834 0.948494
Si Si4 0.917748 0.000000 0.789991
Si Si5 0.581941 0.337945 0.423338
Si Si6 0.931269 0.826905 0.856908
Si Si7 0.937189 0.500000 0.223805
Si Si8 0.292557 0.500000 0.647497
O O1 0.194992 0.671404 0.296099
O O2 0.082250 0.753226 0.198390
O O3 0.028075 0.587241 0.211440
O O4 0.890677 0.702285 0.296235
O O5 0.448427 0.328945 0.370628
O O6 0.198149 0.240147 0.406258
O O7 0.754977 0.837945 0.895381
O O8 0.549709 0.713736 0.908066
O O9 0.500000 0.832837 0.000000
O O10 0.750000 0.750000 0.000000
O O11 0.983219 0.085720 0.820174
O O12 0.727070 0.000000 0.810110
O O13 0.625193 0.000000 0.694126
O O14 0.500000 0.340125 0.500000
O O15 0.679749 0.420200 0.400776
O O16 0.583990 0.500000 0.293000
#
# Coordination Sequence:
#
# PCOD9197215 Si02
#       8
#     8   8   8   4   8   8   4   4
#     4  11  20  37  60  87 116 154 193 254 317 351
#     4  10  21  35  56  83 114 145 198 258 304 353
#     4   9  20  38  58  84 121 160 194 231 273 335
#     4  10  20  35  58  92 116 147 193 253 298 342
#     4  11  21  37  57  79 111 159 201 239 298 378
#     4  11  20  36  63  88 116 161 199 237 296 359
#     4  10  20  36  56  84 122 149 187 249 318 356
#     4  10  21  37  54  82 119 148 188 248 314 346
#
# _framework density 19.760919000000001
#
# number of rings (size 3 to 8) (size 9 to 14) (size 15 to 20)
#    0.462    1.231    1.538    5.308    0.000    0.615 
#    0.000    6.923    0.000    6.462    0.000    0.000 
#    0.000    0.000    0.000    0.000    0.000    0.000 
#
# Total GULP energy -144962.936265 kJ/mol
# GULP energy per Si atom -5575.497549 kJ/mol
# Density = 1.971594 g / cm^3
# Si number density = 19.760919 Si / 1000 Ang^3
#
#
#
# Elastic Constant Matrix: (Units=GPa)
#
#
# Indices 1 2 3 4 5 6 
#
# 1 51.9142 -7.3013 -4.8242 0.0000 -1.5844 0.0000
# 2 -7.3013 80.3981 12.7654 0.0000 4.5455 0.0000
# 3 -4.8242 12.7654 56.1547 0.0000 -17.2075 0.0000
# 4 0.0000 0.0000 0.0000 7.5206 0.0000 3.1514
# 5 -1.5844 4.5455 -17.2075 0.0000 38.8933 0.0000
# 6 0.0000 0.0000 0.0000 3.1514 0.0000 13.4985
#
#
#
# Elastic Compliance Matrix: (Units=1/GPa)
#
#
# Indices 1 2 3 4 5 6 
#
# 1 0.019674 0.001419 0.001808 0.000000 0.001435 0.000000
# 2 0.001419 0.013370 -0.003909 0.000000 -0.003234 0.000000
# 3 0.001808 -0.003909 0.021996 0.000000 0.010262 0.000000
# 4 0.000000 0.000000 0.000000 0.147387 0.000000 -0.034409
# 5 0.001435 -0.003234 0.010262 0.000000 0.030688 0.000000
# 6 0.000000 0.000000 0.000000 -0.034409 0.000000 0.082116
#
#
# Mechanical properties :
#
#
# Convention : Reuss Voigt Hill
#
# Bulk Modulus (GPa) = 18.63048 21.08299 19.85673
# Shear Modulus (GPa) = 14.94822 24.50427 19.72625
#
# Velocity S-wave (km/s) = 2.75335 3.52524 3.16293
# Velocity P-wave (km/s) = 4.42226 5.22129 4.83830
#
# Compressibility (1/GPa) = 0.05367549
#
# Stress axis : x y z
#
# Youngs Moduli (GPa) = 50.82896 74.79219 45.46200
#
# Poissons Ratio (x) = -0.10609 -0.08217
# Poissons Ratio (y) = -0.07210 0.17769
# Poissons Ratio (z) = -0.09187 0.29233
#
# Static dielectric constant tensor:
#      x y z
#    x 1.716390 0.000000 -0.036920 
#    y 0.000000 1.685190 0.000000 
#    z -0.036920 0.000000 1.723330 
# 
# From -- ./inp_files/299866.got.cif
#   From: 2010.05.17/outbox.cif.g08.bks.cpg/sg12_150_cif.got.tgz:299866.got - 2010.06.03 13:09:07.
