data_PCOD9197941
_publ_section_title
;
Structure prediction by ZEFSAII (Michael W. Deem and Ramdas Pophale) SiO2 
 PCOD9197941
Probable space group: C 2/M
;
_chemical_formula_sum "Si O2"
_cell_formula_units_Z 64
_cell_length_a 25.819147
_cell_length_b 8.783850
_cell_length_c 14.818627
_cell_angle_alpha 90.000000
_cell_angle_beta 86.032352
_cell_angle_gamma 90.000000
_cell_volume 3352.684105
_symmetry_space_group_name_H-M "C 2/M"
_symmetry_group_IT_number 12
_symmetry_cell_setting 'monoclinic'
loop_
_space_group_symop_operation_xyz
x,y,z
-x,y,-z
-x,-y,-z
x,-y,z
1/2+x,1/2+y,z
1/2-x,1/2+y,-z
1/2-x,1/2-y,-z
1/2+x,1/2-y,z
loop_
_atom_site_type_symbol
_atom_site_label
_atom_site_fract_x
_atom_site_fract_y
_atom_site_fract_z
Si Si1 0.697011 0.173262 0.977496
Si Si2 0.819662 0.815925 0.414090
Si Si3 0.389743 0.816919 0.716849
Si Si4 0.579618 0.685637 0.711642
Si Si5 0.093904 0.326505 0.090602
Si Si6 0.203611 0.683789 0.388114
Si Si7 0.017906 0.182419 0.396498
Si Si8 0.102130 0.180946 0.907783
O O1 0.662168 0.264476 0.909500
O O2 0.705527 0.000000 0.946986
O O3 0.750000 0.250000 0.000000
O O4 0.656416 0.169328 0.066011
O O5 0.868966 0.765891 0.349256
O O6 0.818471 0.749452 0.515219
O O7 0.764259 0.772953 0.376272
O O8 0.821487 0.000000 0.420399
O O9 0.411210 0.755699 0.810048
O O10 0.332832 0.766842 0.690430
O O11 0.429855 0.767452 0.635785
O O12 0.388548 0.000000 0.726578
O O13 0.580633 0.500000 0.712463
O O14 0.528079 0.731044 0.665059
O O15 0.580216 0.737291 0.815378
O O16 0.074509 0.500000 0.091414
O O17 0.075191 0.242852 0.002310
O O18 0.201347 0.500000 0.393122
O O19 0.000000 0.212853 0.500000
O O20 0.025763 0.000000 0.386934
O O21 0.100419 0.000000 0.909930
#
# Coordination Sequence:
#
# PCOD9197941 Si02
#       8
#     8   8   8   8   8   8   8   8
#     4   9  17  30  49  73 104 140 178 220 265 312
#     4   9  17  32  53  74 101 137 173 210 261 322
#     4  10  20  36  55  77 106 141 179 218 266 325
#     4   9  18  33  54  79 105 137 178 217 265 325
#     4   8  18  34  50  70 102 136 172 217 263 313
#     4   9  18  31  50  76 104 132 169 215 263 316
#     4  10  21  37  57  82 109 138 177 227 272 316
#     4   9  17  31  51  73 101 135 174 217 262 316
#
# _framework density 19.089182999999998
#
# number of rings (size 3 to 8) (size 9 to 14) (size 15 to 20)
#    0.750    2.125    0.000    1.125    0.000    3.250 
#    0.000    7.500    0.000    5.250    0.000    0.000 
#    0.000    0.000    0.000    0.000    0.000    0.000 
#
# Total GULP energy -178140.995167 kJ/mol
# GULP energy per Si atom -5566.906099 kJ/mol
# Density = 1.904574 g / cm^3
# Si number density = 19.089183 Si / 1000 Ang^3
#
#
#
# Elastic Constant Matrix: (Units=GPa)
#
#
# Indices 1 2 3 4 5 6 
#
# 1 50.1485 2.2531 15.5012 0.0000 19.0603 0.0000
# 2 2.2531 17.3882 12.1600 0.0000 7.0616 0.0000
# 3 15.5012 12.1600 55.6283 0.0000 26.2508 0.0000
# 4 0.0000 0.0000 0.0000 22.9583 0.0000 -1.0056
# 5 19.0603 7.0616 26.2508 0.0000 28.8522 0.0000
# 6 0.0000 0.0000 0.0000 -1.0056 0.0000 13.4653
#
#
#
# Elastic Compliance Matrix: (Units=1/GPa)
#
#
# Indices 1 2 3 4 5 6 
#
# 1 0.026915 0.003827 0.000869 0.000000 -0.019508 0.000000
# 2 0.003827 0.068926 -0.012231 0.000000 -0.008270 0.000000
# 3 0.000869 -0.012231 0.033762 0.000000 -0.028298 0.000000
# 4 0.000000 0.000000 0.000000 0.043700 0.000000 0.003264
# 5 -0.019508 -0.008270 -0.028298 0.000000 0.075318 0.000000
# 6 0.000000 0.000000 0.000000 0.003264 0.000000 0.074509
#
#
# Mechanical properties :
#
#
# Convention : Reuss Voigt Hill
#
# Bulk Modulus (GPa) = 8.73106 20.33262 14.53184
# Shear Modulus (GPa) = 13.28458 19.27187 16.27822
#
# Velocity S-wave (km/s) = 2.64090 3.18082 2.92335
# Velocity P-wave (km/s) = 3.72597 4.91576 4.36162
#
# Compressibility (1/GPa) = 0.11453369
#
# Stress axis : x y z
#
# Youngs Moduli (GPa) = 37.15443 14.50828 29.61931
#
# Poissons Ratio (x) = -0.05553 -0.02574
# Poissons Ratio (y) = -0.14220 0.36227
# Poissons Ratio (z) = -0.03229 0.17745
#
# Static dielectric constant tensor:
#      x y z
#    x 1.663250 0.000000 0.013560 
#    y 0.000000 1.668000 0.000000 
#    z 0.013560 0.000000 1.661140 
# 
# From -- ./inp_files/243942.got.cif
#   From: 2010.05.17/outbox.cif.g08.bks.cpg/sg12_122_cif.got.tgz:243942.got - 2010.06.03 13:09:07.
