data_PCOD9197848
_publ_section_title
;
Structure prediction by ZEFSAII (Michael W. Deem and Ramdas Pophale) SiO2 
 PCOD9197848
Probable space group: C 2/M
;
_chemical_formula_sum "Si O2"
_cell_formula_units_Z 56
_cell_length_a 30.985934
_cell_length_b 7.633237
_cell_length_c 12.087242
_cell_angle_alpha 90.000000
_cell_angle_beta 69.813155
_cell_angle_gamma 90.000000
_cell_volume 2683.294114
_symmetry_space_group_name_H-M "C 2/M"
_symmetry_group_IT_number 12
_symmetry_cell_setting 'monoclinic'
loop_
_space_group_symop_operation_xyz
x,y,z
-x,y,-z
-x,-y,-z
x,-y,z
1/2+x,1/2+y,z
1/2-x,1/2+y,-z
1/2-x,1/2-y,-z
1/2+x,1/2-y,z
loop_
_atom_site_type_symbol
_atom_site_label
_atom_site_fract_x
_atom_site_fract_y
_atom_site_fract_z
Si Si1 0.650160 0.205969 0.626356
Si Si2 0.062989 0.211519 0.850339
Si Si3 0.766871 0.704350 0.304802
Si Si4 0.164640 0.204211 0.374680
Si Si5 0.462391 0.713782 0.880509
Si Si6 0.379859 0.714504 0.809747
Si Si7 0.294325 0.291196 0.036099
O O1 0.608272 0.229735 0.747555
O O2 0.696769 0.280923 0.640408
O O3 0.640951 0.285116 0.514413
O O4 0.656473 0.000000 0.603279
O O5 0.015501 0.269935 0.833968
O O6 0.063407 0.000000 0.849900
O O7 0.059208 0.266228 0.981869
O O8 0.761678 0.500000 0.339499
O O9 0.715793 0.783187 0.343221
O O10 0.788073 0.713937 0.163289
O O11 0.135533 0.276143 0.297979
O O12 0.172119 0.000000 0.339361
O O13 0.463002 0.500000 0.879290
O O14 0.429071 0.773126 0.812197
O O15 0.381098 0.500000 0.808404
O O16 0.339828 0.767076 0.930961
O O17 0.297241 0.500000 0.046773
O O18 0.250000 0.250000 0.000000
#
# Coordination Sequence:
#
# PCOD9197848 Si02
#       7
#     8   8   8   8   8   8   8
#     4  11  23  36  52  75 106 139 176 220 264 315
#     4   9  17  33  57  82 106 131 168 216 260 312
#     4  10  21  37  53  75 105 138 178 222 264 307
#     4  10  20  36  54  71 101 140 180 221 257 306
#     4   8  15  30  56  85 105 127 168 217 260 306
#     4   9  17  31  52  78 106 136 170 214 261 303
#     4  11  20  32  53  80 111 141 171 211 259 313
#
# _framework density 20.869869000000001
#
# number of rings (size 3 to 8) (size 9 to 14) (size 15 to 20)
#    0.000    2.286    1.429    3.000    0.000    2.857 
#    0.000    2.143    0.000    7.714    0.000    0.000 
#    0.000    0.000    0.000    0.000    0.000    0.000 
#
# Total GULP energy -156350.047490 kJ/mol
# GULP energy per Si atom -5583.930267 kJ/mol
# Density = 2.082237 g / cm^3
# Si number density = 20.869869 Si / 1000 Ang^3
#
#
#
# Elastic Constant Matrix: (Units=GPa)
#
#
# Indices 1 2 3 4 5 6 
#
# 1 146.3576 10.7977 44.4797 0.0000 23.4885 0.0000
# 2 10.7977 41.8368 -3.5852 0.0000 0.2913 0.0000
# 3 44.4797 -3.5852 67.7265 0.0000 14.7680 0.0000
# 4 0.0000 0.0000 0.0000 18.0924 0.0000 -6.2259
# 5 23.4885 0.2913 14.7680 0.0000 19.2065 0.0000
# 6 0.0000 0.0000 0.0000 -6.2259 0.0000 3.3226
#
#
#
# Elastic Compliance Matrix: (Units=1/GPa)
#
#
# Indices 1 2 3 4 5 6 
#
# 1 0.009837 -0.002893 -0.004806 0.000000 -0.008291 0.000000
# 2 -0.002893 0.024904 0.003039 0.000000 0.000824 0.000000
# 3 -0.004806 0.003039 0.020197 0.000000 -0.009699 0.000000
# 4 0.000000 0.000000 0.000000 0.155611 0.000000 0.291582
# 5 -0.008291 0.000824 -0.009699 0.000000 0.069650 0.000000
# 6 0.000000 0.000000 0.000000 0.291582 0.000000 0.847330
#
#
# Mechanical properties :
#
#
# Convention : Reuss Voigt Hill
#
# Bulk Modulus (GPa) = 21.92125 39.92283 30.92204
# Shear Modulus (GPa) = 4.34007 21.73955 13.03981
#
# Velocity S-wave (km/s) = 1.44364 3.23099 2.50234
# Velocity P-wave (km/s) = 3.64765 5.75239 4.81640
#
# Compressibility (1/GPa) = 0.04561783
#
# Stress axis : x y z
#
# Youngs Moduli (GPa) = 101.65496 40.15466 49.51177
#
# Poissons Ratio (x) = 0.11617 0.23795
# Poissons Ratio (y) = 0.29409 -0.15045
# Poissons Ratio (z) = 0.48854 -0.12202
#
# Static dielectric constant tensor:
#      x y z
#    x 1.763160 0.000000 0.015180 
#    y 0.000000 1.805890 0.000000 
#    z 0.015180 0.000000 1.709190 
# 
# From -- ./inp_files/186452.got.cif
#   From: 2010.05.17/outbox.cif.g08.bks.cpg/sg12_94_cif.got.tgz:186452.got - 2010.06.03 13:09:07.
