data_PCOD9197956
_publ_section_title
;
Structure prediction by ZEFSAII (Michael W. Deem and Ramdas Pophale) SiO2 
 PCOD9197956
Probable space group: C 2/M
;
_chemical_formula_sum "Si O2"
_cell_formula_units_Z 64
_cell_length_a 21.245246
_cell_length_b 7.532098
_cell_length_c 19.374966
_cell_angle_alpha 90.000000
_cell_angle_beta 60.801947
_cell_angle_gamma 90.000000
_cell_volume 2706.464908
_symmetry_space_group_name_H-M "C 2/M"
_symmetry_group_IT_number 12
_symmetry_cell_setting 'monoclinic'
loop_
_space_group_symop_operation_xyz
x,y,z
-x,y,-z
-x,-y,-z
x,-y,z
1/2+x,1/2+y,z
1/2-x,1/2+y,-z
1/2-x,1/2-y,-z
1/2+x,1/2-y,z
loop_
_atom_site_type_symbol
_atom_site_label
_atom_site_fract_x
_atom_site_fract_y
_atom_site_fract_z
Si Si1 0.475631 0.799319 0.650213
Si Si2 0.332590 0.288469 0.964724
Si Si3 0.812427 0.717539 0.719907
Si Si4 0.032650 0.290424 0.909298
Si Si5 0.545397 0.295480 0.189011
Si Si6 0.632981 0.212278 0.561703
Si Si7 0.245701 0.786646 0.610164
Si Si8 0.317465 0.713242 0.122397
O O1 0.395898 0.722465 0.677387
O O2 0.482054 0.805282 0.729926
O O3 0.552821 0.716015 0.589167
O O4 0.473784 0.000000 0.622450
O O5 0.346372 0.500000 0.957353
O O6 0.346621 0.216116 0.033593
O O7 0.250000 0.250000 0.000000
O O8 0.378687 0.216604 0.877217
O O9 0.814512 0.500000 0.721067
O O10 0.770034 0.771363 0.673082
O O11 0.760339 0.777238 0.810357
O O12 0.018409 0.500000 0.915098
O O13 0.117927 0.256473 0.860929
O O14 0.998721 0.210599 0.858509
O O15 0.000000 0.220396 0.000000
O O16 0.551453 0.500000 0.208257
O O17 0.693019 0.280001 0.475935
O O18 0.668032 0.241868 0.618684
O O19 0.628069 0.000000 0.555966
O O20 0.248550 0.000000 0.609572
O O21 0.312192 0.500000 0.118931
#
# Coordination Sequence:
#
# PCOD9197956 Si02
#       8
#     8   8   8   8   8   8   8   8
#     4  10  21  38  58  83 116 149 189 238 286 335
#     4  10  21  35  54  76 104 144 186 227 277 331
#     4   9  19  35  58  85 112 148 189 232 282 335
#     4  11  23  38  57  82 108 142 187 236 288 335
#     4  11  23  38  56  80 111 148 188 231 280 335
#     4   9  19  35  57  85 116 149 185 233 285 333
#     4   9  18  35  58  85 115 149 190 229 277 343
#     4  10  20  36  55  78 109 145 185 230 280 332
#
# _framework density 23.647082000000001
#
# number of rings (size 3 to 8) (size 9 to 14) (size 15 to 20)
#    0.000    2.125    1.250    1.500    1.750    4.000 
#    0.000    3.750    0.000    0.000    0.000    4.375 
#    0.000    0.000    0.000    0.000    0.000    0.000 
#
# Total GULP energy -178612.619599 kJ/mol
# GULP energy per Si atom -5581.644362 kJ/mol
# Density = 2.359326 g / cm^3
# Si number density = 23.647082 Si / 1000 Ang^3
#
#
#
# Elastic Constant Matrix: (Units=GPa)
#
#
# Indices 1 2 3 4 5 6 
#
# 1 96.2278 -11.3804 2.9751 0.0000 -24.7938 0.0008
# 2 -11.3804 70.0923 0.7381 0.0006 -2.2075 0.0011
# 3 2.9751 0.7381 35.1549 0.0000 -11.4672 0.0002
# 4 0.0000 0.0006 0.0000 4.2070 -0.0001 -0.7132
# 5 -24.7938 -2.2075 -11.4672 -0.0001 44.3515 0.0002
# 6 0.0008 0.0011 0.0002 -0.7132 0.0002 20.1238
#
#
#
# Elastic Compliance Matrix: (Units=1/GPa)
#
#
# Indices 1 2 3 4 5 6 
#
# 1 0.012542 0.002258 0.001327 0.000000 0.007467 -0.000001
# 2 0.002258 0.014696 0.000165 -0.000002 0.002036 -0.000001
# 3 0.001327 0.000165 0.031206 0.000000 0.008818 0.000000
# 4 0.000000 -0.000002 0.000000 0.239134 0.000000 0.008475
# 5 0.007467 0.002036 0.008818 0.000000 0.029103 -0.000001
# 6 -0.000001 -0.000001 0.000000 0.008475 -0.000001 0.049993
#
#
# Mechanical properties :
#
#
# Convention : Reuss Voigt Hill
#
# Bulk Modulus (GPa) = 15.16495 20.68227 17.92361
# Shear Modulus (GPa) = 12.78261 27.67929 20.23095
#
# Velocity S-wave (km/s) = 2.32751 3.42499 2.92813
# Velocity P-wave (km/s) = 3.69460 4.94024 4.36211
#
# Compressibility (1/GPa) = 0.06594154
#
# Stress axis : x y z
#
# Youngs Moduli (GPa) = 79.73330 68.04650 32.04488
#
# Poissons Ratio (x) = -0.15362 -0.04252
# Poissons Ratio (y) = -0.18000 -0.00527
# Poissons Ratio (z) = -0.10579 -0.01120
#
# Static dielectric constant tensor:
#      x y z
#    x 1.956620 0.000000 0.011020 
#    y 0.000000 1.925160 0.000000 
#    z 0.011020 0.000000 1.893330 
# 
# From -- ./inp_files/319837.got.cif
#   From: 2010.05.17/outbox.cif.g08.bks.cpg/sg12_160_cif.got.tgz:319837.got - 2010.06.03 13:09:07.
