data_PCOD9197689
_publ_section_title
;
Structure prediction by ZEFSAII (Michael W. Deem and Ramdas Pophale) SiO2 
 PCOD9197689
Probable space group: C 2/M
;
_chemical_formula_sum "Si O2"
_cell_formula_units_Z 56
_cell_length_a 22.111372
_cell_length_b 12.301410
_cell_length_c 10.536807
_cell_angle_alpha 90.000000
_cell_angle_beta 70.193170
_cell_angle_gamma 90.000000
_cell_volume 2696.469795
_symmetry_space_group_name_H-M "C 2/M"
_symmetry_group_IT_number 12
_symmetry_cell_setting 'monoclinic'
loop_
_space_group_symop_operation_xyz
x,y,z
-x,y,-z
-x,-y,-z
x,-y,z
1/2+x,1/2+y,z
1/2-x,1/2+y,-z
1/2-x,1/2-y,-z
1/2+x,1/2-y,z
loop_
_atom_site_type_symbol
_atom_site_label
_atom_site_fract_x
_atom_site_fract_y
_atom_site_fract_z
Si Si1 0.261436 0.879772 0.456810
Si Si2 0.461702 0.272409 0.402959
Si Si3 0.900098 0.379485 0.251807
Si Si4 0.220133 0.372463 0.153874
Si Si5 0.652255 0.232581 0.963591
Si Si6 0.839828 0.817702 0.652994
Si Si7 0.427759 0.617393 0.816466
O O1 0.250000 0.750000 0.500000
O O2 0.336956 0.886106 0.384542
O O3 0.222320 0.879016 0.352831
O O4 0.242851 0.000000 0.531928
O O5 0.500000 0.229927 0.500000
O O6 0.450390 0.186410 0.300028
O O7 0.393699 0.314223 0.504941
O O8 0.507059 0.362546 0.307419
O O9 0.923517 0.500000 0.205002
O O10 0.873851 0.322444 0.144219
O O11 0.220417 0.500000 0.177448
O O12 0.291917 0.321849 0.102756
O O13 0.180688 0.302809 0.286265
O O14 0.186300 0.346398 0.042400
O O15 0.591350 0.289941 0.072206
O O16 0.871540 0.874269 0.751363
O O17 0.428214 0.500000 0.878027
#
# Coordination Sequence:
#
# PCOD9197689 Si02
#       7
#     8   8   8   8   8   8   8
#     4  11  22  38  61  95 131 165 208 263 329 392
#     4  10  23  42  62  89 123 159 214 262 311 375
#     4  11  23  41  63  88 127 167 208 261 319 381
#     4  10  20  35  61  94 132 168 203 259 320 381
#     4  10  21  39  60  92 127 162 216 254 313 382
#     4  10  20  38  62  95 126 160 207 255 318 392
#     4  10  22  41  65  89 122 166 209 263 311 375
#
# _framework density 20.767893999999998
#
# number of rings (size 3 to 8) (size 9 to 14) (size 15 to 20)
#    0.000    1.714    2.857    1.286    0.000    5.143 
#    0.000    9.286    0.000    0.000    0.000    0.000 
#    0.000    0.000    0.000    0.000    0.000    0.000 
#
# Total GULP energy -156068.630699 kJ/mol
# GULP energy per Si atom -5573.879668 kJ/mol
# Density = 2.072063 g / cm^3
# Si number density = 20.767894 Si / 1000 Ang^3
#
#
#
# Elastic Constant Matrix: (Units=GPa)
#
#
# Indices 1 2 3 4 5 6 
#
# 1 52.7005 12.0351 0.4841 0.0000 9.4840 0.0000
# 2 12.0351 136.6074 19.1936 0.0000 14.8418 0.0000
# 3 0.4841 19.1936 46.7997 0.0000 4.5914 0.0000
# 4 0.0000 0.0000 0.0000 7.1214 0.0000 -3.8280
# 5 9.4840 14.8418 4.5914 0.0000 37.5611 0.0000
# 6 0.0000 0.0000 0.0000 -3.8280 0.0000 10.0273
#
#
#
# Elastic Compliance Matrix: (Units=1/GPa)
#
#
# Indices 1 2 3 4 5 6 
#
# 1 0.020117 -0.001383 0.000814 0.000000 -0.004632 0.000000
# 2 -0.001383 0.008146 -0.003082 0.000000 -0.002493 0.000000
# 3 0.000814 -0.003082 0.022797 0.000000 -0.001774 0.000000
# 4 0.000000 0.000000 0.000000 0.176678 0.000000 0.067448
# 5 -0.004632 -0.002493 -0.001774 0.000000 0.028995 0.000000
# 6 0.000000 0.000000 0.000000 0.067448 0.000000 0.125476
#
#
# Mechanical properties :
#
#
# Convention : Reuss Voigt Hill
#
# Bulk Modulus (GPa) = 22.85333 33.28146 28.06740
# Shear Modulus (GPa) = 12.37323 24.56827 18.47075
#
# Velocity S-wave (km/s) = 2.44352 3.44320 2.98550
# Velocity P-wave (km/s) = 4.35765 5.64515 5.04266
#
# Compressibility (1/GPa) = 0.04375731
#
# Stress axis : x y z
#
# Youngs Moduli (GPa) = 49.70856 122.76008 43.86482
#
# Poissons Ratio (x) = 0.16982 -0.03569
# Poissons Ratio (y) = 0.06877 0.13519
# Poissons Ratio (z) = -0.04045 0.37834
#
# Static dielectric constant tensor:
#      x y z
#    x 1.715710 0.000000 0.000580 
#    y 0.000000 1.802300 0.000000 
#    z 0.000580 0.000000 1.774040 
# 
# From -- ./inp_files/164839.got.cif
#   From: 2010.05.17/outbox.cif.g08.bks.cpg/sg12_83_cif.got.tgz:164839.got - 2010.06.03 13:09:07.
