data_PCOD9197685
_publ_section_title
;
Structure prediction by ZEFSAII (Michael W. Deem and Ramdas Pophale) SiO2 
 PCOD9197685
Probable space group: C 2/M
;
_chemical_formula_sum "Si O2"
_cell_formula_units_Z 64
_cell_length_a 8.124300
_cell_length_b 32.747149
_cell_length_c 12.852862
_cell_angle_alpha 90.000000
_cell_angle_beta 84.323909
_cell_angle_gamma 90.000000
_cell_volume 3402.707968
_symmetry_space_group_name_H-M "C 2/M"
_symmetry_group_IT_number 12
_symmetry_cell_setting 'monoclinic'
loop_
_space_group_symop_operation_xyz
x,y,z
-x,y,-z
-x,-y,-z
x,-y,z
1/2+x,1/2+y,z
1/2-x,1/2+y,-z
1/2-x,1/2-y,-z
1/2+x,1/2-y,z
loop_
_atom_site_type_symbol
_atom_site_label
_atom_site_fract_x
_atom_site_fract_y
_atom_site_fract_z
Si Si1 0.707861 0.666478 0.735695
Si Si2 0.666624 0.952776 0.556640
Si Si3 0.817421 0.290012 0.053462
Si Si4 0.571219 0.190001 0.731714
Si Si5 0.416536 0.364961 0.906363
Si Si6 0.239693 0.894261 0.278031
Si Si7 0.105914 0.235788 0.583791
Si Si8 0.598273 0.604626 0.586827
O O1 0.564105 0.652545 0.823733
O O2 0.646387 0.705709 0.675144
O O3 0.722620 0.631922 0.645331
O O4 0.887596 0.674369 0.773097
O O5 0.500000 0.950362 0.500000
O O6 0.653744 0.926976 0.664562
O O7 0.807135 0.931937 0.475776
O O8 0.704483 0.000000 0.575758
O O9 0.841406 0.287054 0.176966
O O10 0.688303 0.326471 0.045723
O O11 0.750000 0.250000 0.000000
O O12 0.000000 0.299332 0.000000
O O13 0.687301 0.150869 0.698120
O O14 0.543569 0.222291 0.641123
O O15 0.289033 0.391067 0.844012
O O16 0.500000 0.386268 0.000000
O O17 0.054276 0.905009 0.328244
O O18 0.250000 0.250000 0.500000
O O19 0.000000 0.215080 0.500000
O O20 0.500000 0.626961 0.500000
#
# Coordination Sequence:
#
# PCOD9197685 Si02
#       8
#     8   8   8   8   8   8   8   8
#     4  11  23  39  57  78 111 150 198 245 291 346
#     4  10  20  35  61  94 125 155 188 227 281 347
#     4  11  25  38  58  78 105 142 191 258 313 341
#     4  11  25  38  55  79 108 151 199 239 296 351
#     4  10  22  40  60  81 109 148 196 247 301 350
#     4   9  21  37  56  83 116 149 189 232 285 348
#     4  12  27  37  51  73 108 152 199 242 281 348
#     4   9  19  33  56  79 115 151 184 227 280 334
#
# _framework density 18.80855
#
# number of rings (size 3 to 8) (size 9 to 14) (size 15 to 20)
#    0.000    1.625    1.250    2.250   14.000    2.750 
#    0.000    0.000    0.000    0.375    0.000    0.000 
#    0.000   25.000    0.000    0.000    0.000    0.500 
#
# Total GULP energy -178242.178229 kJ/mol
# GULP energy per Si atom -5570.068070 kJ/mol
# Density = 1.876574 g / cm^3
# Si number density = 18.808550 Si / 1000 Ang^3
#
#
#
# Elastic Constant Matrix: (Units=GPa)
#
#
# Indices 1 2 3 4 5 6 
#
# 1 71.0026 26.7469 21.4692 0.0000 5.1965 0.0000
# 2 26.7469 105.3612 53.7525 0.0000 11.1101 0.0000
# 3 21.4692 53.7525 90.6976 0.0000 20.3245 0.0000
# 4 0.0000 0.0000 0.0000 37.7494 0.0000 2.9977
# 5 5.1965 11.1101 20.3245 0.0000 40.9748 0.0000
# 6 0.0000 0.0000 0.0000 2.9977 0.0000 19.9794
#
#
#
# Elastic Compliance Matrix: (Units=1/GPa)
#
#
# Indices 1 2 3 4 5 6 
#
# 1 0.015814 -0.003020 -0.001899 0.000000 -0.000245 0.000000
# 2 -0.003020 0.014186 -0.007781 0.000000 0.000396 0.000000
# 3 -0.001899 -0.007781 0.017506 0.000000 -0.006333 0.000000
# 4 0.000000 0.000000 0.000000 0.026810 0.000000 -0.004023
# 5 -0.000245 0.000396 -0.006333 0.000000 0.027470 0.000000
# 6 0.000000 0.000000 0.000000 -0.004023 0.000000 0.050655
#
#
# Mechanical properties :
#
#
# Convention : Reuss Voigt Hill
#
# Bulk Modulus (GPa) = 45.23746 52.33318 48.78532
# Shear Modulus (GPa) = 26.99660 30.74690 28.87175
#
# Velocity S-wave (km/s) = 3.79269 4.04757 3.92220
# Velocity P-wave (km/s) = 6.57899 7.05183 6.81951
#
# Compressibility (1/GPa) = 0.02210557
#
# Stress axis : x y z
#
# Youngs Moduli (GPa) = 63.23659 70.49290 57.12409
#
# Poissons Ratio (x) = 0.21289 0.10845
# Poissons Ratio (y) = 0.19098 0.44450
# Poissons Ratio (z) = 0.12006 0.54852
#
# Static dielectric constant tensor:
#      x y z
#    x 1.839860 0.000000 -0.005690 
#    y 0.000000 1.641700 0.000000 
#    z -0.005690 0.000000 1.698100 
# 
# From -- ./inp_files/125773.got.cif
#   From: 2010.05.17/outbox.cif.g08.bks.cpg/sg12_63_cif.got.tgz:125773.got - 2010.06.03 13:09:07.
