data_PCOD9197066
_publ_section_title
;
Structure prediction by ZEFSAII (Michael W. Deem and Ramdas Pophale) SiO2 
 PCOD9197066
Probable space group: C 2/M
;
_chemical_formula_sum "Si O2"
_cell_formula_units_Z 58
_cell_length_a 21.570694
_cell_length_b 15.478339
_cell_length_c 7.137395
_cell_angle_alpha 90.000000
_cell_angle_beta 99.163053
_cell_angle_gamma 90.000000
_cell_volume 2352.613462
_symmetry_space_group_name_H-M "C 2/M"
_symmetry_group_IT_number 12
_symmetry_cell_setting 'monoclinic'
loop_
_space_group_symop_operation_xyz
x,y,z
-x,y,-z
-x,-y,-z
x,-y,z
1/2+x,1/2+y,z
1/2-x,1/2+y,-z
1/2-x,1/2-y,-z
1/2+x,1/2-y,z
loop_
_atom_site_type_symbol
_atom_site_label
_atom_site_fract_x
_atom_site_fract_y
_atom_site_fract_z
Si Si1 0.462660 0.600125 0.739809
Si Si2 0.445928 0.143293 0.210230
Si Si3 0.297303 0.224685 0.695235
Si Si4 0.283623 0.595127 0.192534
Si Si5 0.085629 0.168017 0.881474
Si Si6 0.500000 0.000000 0.000000
Si Si7 0.412424 0.104903 0.607695
Si Si8 0.828862 0.094860 0.629692
O O1 0.480245 0.500000 0.753637
O O2 0.524877 0.650501 0.721259
O O3 0.399803 0.608604 0.590153
O O4 0.437297 0.629964 0.931280
O O5 0.412730 0.228890 0.119869
O O6 0.412056 0.110345 0.381535
O O7 0.520631 0.147653 0.302306
O O8 0.450502 0.074122 0.049823
O O9 0.250000 0.250000 0.500000
O O10 0.264878 0.173152 0.848091
O O11 0.354997 0.163740 0.654215
O O12 0.315869 0.323054 0.753068
O O13 0.265067 0.500000 0.115348
O O14 0.352036 0.621581 0.155756
O O15 0.287475 0.590146 0.422827
O O16 0.415376 0.000000 0.658041
O O17 0.826299 0.000000 0.720189
#
# Coordination Sequence:
#
# PCOD9197066 Si02
#       8
#     8   8   8   8   8   2   8   8
#     4  10  20  36  55  81 113 155 188 232 298 366
#     4  11  22  36  59  88 121 151 189 247 293 368
#     4  10  20  35  58  87 113 150 200 248 289 348
#     4  10  20  36  57  86 113 149 197 256 289 334
#     4  11  21  35  56  84 114 151 190 233 300 349
#     4  12  20  38  56  88 126 142 196 236 300 338
#     4  11  21  41  60  86 118 162 194 236 310 360
#     4   9  19  35  56  82 114 148 190 241 301 347
#
# _framework density 24.653435000000002
#
# number of rings (size 3 to 8) (size 9 to 14) (size 15 to 20)
#    0.000    1.655    1.379    5.793    0.000    2.207 
#    0.000    2.759    0.000    3.310    7.172    0.000 
#    0.000    0.000    0.000    0.000    0.000    0.000 
#
# Total GULP energy -161673.925764 kJ/mol
# GULP energy per Si atom -5574.962957 kJ/mol
# Density = 2.459732 g / cm^3
# Si number density = 24.653435 Si / 1000 Ang^3
#
#
#
# Elastic Constant Matrix: (Units=GPa)
#
#
# Indices 1 2 3 4 5 6 
#
# 1 83.4056 41.5307 4.0712 0.0000 -21.5613 0.0000
# 2 41.5307 185.2534 15.5874 0.0000 -29.8702 0.0000
# 3 4.0712 15.5874 59.1592 0.0000 -17.7513 0.0000
# 4 0.0000 0.0000 0.0000 -7.9489 0.0000 9.2998
# 5 -21.5613 -29.8702 -17.7513 0.0000 36.8116 0.0000
# 6 0.0000 0.0000 0.0000 9.2998 0.0000 37.5277
#
#
#
# Elastic Compliance Matrix: (Units=1/GPa)
#
#
# Indices 1 2 3 4 5 6 
#
# 1 0.015071 -0.002264 0.001937 0.000000 0.007924 0.000000
# 2 -0.002264 0.006552 -0.000436 0.000000 0.003780 0.000000
# 3 0.001937 -0.000436 0.020016 0.000000 0.010433 0.000000
# 4 0.000000 0.000000 0.000000 -0.097528 0.000000 0.024168
# 5 0.007924 0.003780 0.010433 0.000000 0.039905 0.000000
# 6 0.000000 0.000000 0.000000 0.024168 0.000000 0.020658
#
#
# Mechanical properties :
#
#
# Convention : Reuss Voigt Hill
#
# Bulk Modulus (GPa) = 24.93012 50.02187 37.47599
# Shear Modulus (GPa) = 255.49778 31.05335 143.27556
#
# Velocity S-wave (km/s) = 10.19121 3.55293 7.63165
# Velocity P-wave (km/s) = 12.19078 6.09632 9.63795
#
# Compressibility (1/GPa) = 0.04011213
#
# Stress axis : x y z
#
# Youngs Moduli (GPa) = 66.35314 152.63167 49.96115
#
# Poissons Ratio (x) = 0.34554 -0.09678
# Poissons Ratio (y) = 0.15022 0.02180
# Poissons Ratio (z) = -0.12854 0.06659
#
# Static dielectric constant tensor:
#      x y z
#    x 1.997050 0.000000 0.082340 
#    y 0.000000 2.009720 0.000000 
#    z 0.082340 0.000000 2.012720 
# 
# From -- ./inp_files/96329.got.cif
#   From: 2010.05.17/outbox.cif.g08.bks.cpg/sg12_49_cif.got.tgz:96329.got - 2010.06.03 13:09:07.
