data_PCOD9197273
_publ_section_title
;
Structure prediction by ZEFSAII (Michael W. Deem and Ramdas Pophale) SiO2 
 PCOD9197273
Probable space group: C 2/M
;
_chemical_formula_sum "Si O2"
_cell_formula_units_Z 60
_cell_length_a 23.319300
_cell_length_b 12.518178
_cell_length_c 15.237631
_cell_angle_alpha 90.000000
_cell_angle_beta 132.631948
_cell_angle_gamma 90.000000
_cell_volume 3272.550673
_symmetry_space_group_name_H-M "C 2/M"
_symmetry_group_IT_number 12
_symmetry_cell_setting 'monoclinic'
loop_
_space_group_symop_operation_xyz
x,y,z
-x,y,-z
-x,-y,-z
x,-y,z
1/2+x,1/2+y,z
1/2-x,1/2+y,-z
1/2-x,1/2-y,-z
1/2+x,1/2-y,z
loop_
_atom_site_type_symbol
_atom_site_label
_atom_site_fract_x
_atom_site_fract_y
_atom_site_fract_z
Si Si1 0.882098 0.375785 0.513779
Si Si2 0.251872 0.878581 0.246590
Si Si3 0.972809 0.248937 0.755025
Si Si4 0.500000 0.218286 0.500000
Si Si5 0.918386 0.817054 0.881870
Si Si6 0.093490 0.376726 0.998180
Si Si7 0.430286 0.621881 0.285215
Si Si8 0.240584 0.200415 0.894332
O O1 0.881869 0.500000 0.538499
O O2 0.799009 0.348076 0.383811
O O3 0.913616 0.305240 0.626471
O O4 0.942334 0.353741 0.497042
O O5 0.159816 0.874941 0.169826
O O6 0.269562 0.795398 0.187535
O O7 0.275395 0.000000 0.247960
O O8 0.926227 0.195065 0.786169
O O9 0.031727 0.332784 0.862654
O O10 0.026821 0.166186 0.757320
O O11 0.544604 0.296679 0.612602
O O12 0.913343 0.701020 0.924738
O O13 0.000000 0.865418 0.000000
O O14 0.079338 0.500000 0.004056
O O15 0.180653 0.360834 0.050736
O O16 0.453894 0.500000 0.326987
O O17 0.337145 0.630158 0.183039
O O18 0.250000 0.250000 0.000000
#
# Coordination Sequence:
#
# PCOD9197273 Si02
#       8
#     8   8   8   4   8   8   8   8
#     4  10  20  35  59  85 113 149 185 230 283 329
#     4  10  22  39  60  83 112 150 188 230 284 334
#     4  10  21  37  56  85 114 145 190 236 272 334
#     4  10  20  38  56  82 116 146 186 228 272 344
#     4   9  21  39  57  81 116 148 188 236 277 327
#     4  10  20  36  59  83 112 150 186 230 286 333
#     4  11  22  37  58  81 112 150 186 229 281 336
#     4  11  21  39  53  84 117 145 186 233 281 334
#
# _framework density 18.334323000000001
#
# number of rings (size 3 to 8) (size 9 to 14) (size 15 to 20)
#    0.000    1.867    2.667    1.200    0.000    5.333 
#    0.000    0.000    0.000    0.000    0.000    0.000 
#    0.000    0.000    0.000    0.000    0.000    0.000 
#
# Total GULP energy -167404.974061 kJ/mol
# GULP energy per Si atom -5580.165802 kJ/mol
# Density = 1.829259 g / cm^3
# Si number density = 18.334323 Si / 1000 Ang^3
#
#
#
# Elastic Constant Matrix: (Units=GPa)
#
#
# Indices 1 2 3 4 5 6 
#
# 1 78.0634 5.7538 23.4322 0.0000 -6.3941 0.0000
# 2 5.7538 60.0184 14.7026 0.0000 -0.1143 0.0000
# 3 23.4322 14.7026 75.9547 0.0000 -2.2883 0.0000
# 4 0.0000 0.0000 0.0000 7.0471 0.0000 4.5935
# 5 -6.3941 -0.1143 -2.2883 0.0000 34.0972 0.0000
# 6 0.0000 0.0000 0.0000 4.5935 0.0000 6.5652
#
#
#
# Elastic Compliance Matrix: (Units=1/GPa)
#
#
# Indices 1 2 3 4 5 6 
#
# 1 0.014315 -0.000319 -0.004282 0.000000 0.002396 0.000000
# 2 -0.000319 0.017499 -0.003296 0.000000 -0.000222 0.000000
# 3 -0.004282 -0.003296 0.015131 0.000000 0.000201 0.000000
# 4 0.000000 0.000000 0.000000 0.260887 0.000000 -0.182537
# 5 0.002396 -0.000222 0.000201 0.000000 0.029790 0.000000
# 6 0.000000 0.000000 0.000000 -0.182537 0.000000 0.280035
#
#
# Mechanical properties :
#
#
# Convention : Reuss Voigt Hill
#
# Bulk Modulus (GPa) = 32.10112 33.53485 32.81799
# Shear Modulus (GPa) = 7.76596 20.88509 14.32552
#
# Velocity S-wave (km/s) = 2.06033 3.37875 2.79830
# Velocity P-wave (km/s) = 4.81733 5.79239 5.32722
#
# Compressibility (1/GPa) = 0.03115156
#
# Stress axis : x y z
#
# Youngs Moduli (GPa) = 69.85529 57.14609 66.08993
#
# Poissons Ratio (x) = 0.01821 0.28303
# Poissons Ratio (y) = 0.02227 0.21781
# Poissons Ratio (z) = 0.29915 0.18833
#
# Static dielectric constant tensor:
#      x y z
#    x 1.619950 0.000000 0.021600 
#    y 0.000000 1.602300 0.000000 
#    z 0.021600 0.000000 1.634390 
# 
# From -- ./inp_files/240008.got.cif
#   From: 2010.05.17/outbox.cif.g08.bks.cpg/sg12_121_cif.got.tgz:240008.got - 2010.06.03 13:09:07.
