data_PCOD9197465
_publ_section_title
;
Structure prediction by ZEFSAII (Michael W. Deem and Ramdas Pophale) SiO2 
 PCOD9197465
Probable space group: C 2/M
;
_chemical_formula_sum "Si O2"
_cell_formula_units_Z 56
_cell_length_a 13.978721
_cell_length_b 19.860522
_cell_length_c 14.696390
_cell_angle_alpha 90.000000
_cell_angle_beta 43.711459
_cell_angle_gamma 90.000000
_cell_volume 2819.445953
_symmetry_space_group_name_H-M "C 2/M"
_symmetry_group_IT_number 12
_symmetry_cell_setting 'monoclinic'
loop_
_space_group_symop_operation_xyz
x,y,z
-x,y,-z
-x,-y,-z
x,-y,z
1/2+x,1/2+y,z
1/2-x,1/2+y,-z
1/2-x,1/2-y,-z
1/2+x,1/2-y,z
loop_
_atom_site_type_symbol
_atom_site_label
_atom_site_fract_x
_atom_site_fract_y
_atom_site_fract_z
Si Si1 0.357281 0.500000 0.541574
Si Si2 0.155211 0.370748 0.935712
Si Si3 0.685846 0.641271 0.529974
Si Si4 0.663813 0.723842 0.875225
Si Si5 0.619744 0.143561 0.161142
Si Si6 0.659169 0.000000 0.841154
Si Si7 0.560357 0.920156 0.556010
Si Si8 0.617607 0.752125 0.703943
O O1 0.500000 0.500000 0.500000
O O2 0.359352 0.571519 0.485828
O O3 0.210053 0.500000 0.700597
O O4 0.213098 0.296850 0.878156
O O5 0.223663 0.431185 0.833719
O O6 0.153824 0.391211 0.042185
O O7 0.000000 0.364913 0.000000
O O8 0.796590 0.617299 0.528173
O O9 0.588390 0.692493 0.652051
O O10 0.770109 0.692395 0.406448
O O11 0.748716 0.670193 0.874468
O O12 0.676372 0.724082 0.757879
O O13 0.500000 0.715262 0.000000
O O14 0.533146 0.100783 0.293509
O O15 0.523265 0.205241 0.192298
O O16 0.500000 0.000000 0.000000
O O17 0.500000 0.900481 0.500000
O O18 0.579914 0.000000 0.543635
#
# Coordination Sequence:
#
# PCOD9197465 Si02
#       8
#     4   8   8   8   8   4   8   8
#     4  12  26  44  61  98 139 182 208 266 340 406
#     4  10  20  35  59  94 120 158 204 266 316 378
#     4  10  22  39  63  89 127 168 207 261 324 390
#     4  11  21  37  57  86 124 156 205 261 318 375
#     4  11  22  36  61  89 119 160 209 263 323 371
#     4  10  24  38  68  94 128 163 215 264 318 378
#     4  10  21  37  62  88 115 153 207 262 315 377
#     4  10  21  38  61  92 122 163 214 262 317 386
#
# _framework density 19.862058000000001
#
# number of rings (size 3 to 8) (size 9 to 14) (size 15 to 20)
#    0.000    1.571    3.571    2.143    7.000    2.286 
#    0.000    1.429    0.000    0.429    0.000    0.000 
#    0.000    0.000    0.000    0.000    0.000    0.000 
#
# Total GULP energy -155974.063572 kJ/mol
# GULP energy per Si atom -5570.502270 kJ/mol
# Density = 1.981685 g / cm^3
# Si number density = 19.862058 Si / 1000 Ang^3
#
#
#
# Elastic Constant Matrix: (Units=GPa)
#
#
# Indices 1 2 3 4 5 6 
#
# 1 64.6334 -1.9007 19.2802 0.0004 24.9887 0.0005
# 2 -1.9007 63.4125 20.5860 0.0002 11.1498 0.0004
# 3 19.2802 20.5860 44.3777 0.0005 22.5778 0.0006
# 4 0.0004 0.0002 0.0005 17.8116 -0.0003 13.3900
# 5 24.9887 11.1498 22.5778 -0.0003 30.6056 -0.0002
# 6 0.0005 0.0004 0.0006 13.3900 -0.0002 10.7099
#
#
#
# Elastic Compliance Matrix: (Units=1/GPa)
#
#
# Indices 1 2 3 4 5 6 
#
# 1 0.023924 0.005057 -0.002985 0.000004 -0.019174 -0.000006
# 2 0.005057 0.019643 -0.008913 0.000003 -0.004710 -0.000005
# 3 -0.002985 -0.008913 0.040138 0.000007 -0.023925 -0.000011
# 4 0.000004 0.000003 0.000007 0.933870 -0.000008 -1.167568
# 5 -0.019174 -0.004710 -0.023925 -0.000008 0.067694 0.000013
# 6 -0.000006 -0.000005 -0.000011 -1.167568 0.000013 1.553119
#
#
# Mechanical properties :
#
#
# Convention : Reuss Voigt Hill
#
# Bulk Modulus (GPa) = 14.28089 27.59495 20.93792
# Shear Modulus (GPa) = 1.86887 20.78929 11.32908
#
# Velocity S-wave (km/s) = 0.97107 3.23876 2.39087
# Velocity P-wave (km/s) = 2.90911 5.28295 4.26453
#
# Compressibility (1/GPa) = 0.07002365
#
# Stress axis : x y z
#
# Youngs Moduli (GPa) = 41.79900 50.90875 24.91432
#
# Poissons Ratio (x) = -0.25747 0.07437
# Poissons Ratio (y) = -0.21140 0.22206
# Poissons Ratio (z) = 0.12478 0.45374
#
# Static dielectric constant tensor:
#      x y z
#    x 1.668760 0.000000 0.030550 
#    y 0.000000 1.727440 0.000000 
#    z 0.030550 0.000000 1.717890 
# 
# From -- ./inp_files/216335.got.cif
#   From: 2010.05.17/outbox.cif.g08.bks.cpg/sg12_109_cif.got.tgz:216335.got - 2010.06.03 13:09:07.
