data_PCOD9197040
_publ_section_title
;
Structure prediction by ZEFSAII (Michael W. Deem and Ramdas Pophale) SiO2 
 PCOD9197040
Probable space group: C 2/M
;
_chemical_formula_sum "Si O2"
_cell_formula_units_Z 48
_cell_length_a 10.410176
_cell_length_b 17.343369
_cell_length_c 11.234012
_cell_angle_alpha 90.000000
_cell_angle_beta 72.343200
_cell_angle_gamma 90.000000
_cell_volume 1932.722009
_symmetry_space_group_name_H-M "C 2/M"
_symmetry_group_IT_number 12
_symmetry_cell_setting 'monoclinic'
loop_
_space_group_symop_operation_xyz
x,y,z
-x,y,-z
-x,-y,-z
x,-y,z
1/2+x,1/2+y,z
1/2-x,1/2+y,-z
1/2-x,1/2-y,-z
1/2+x,1/2-y,z
loop_
_atom_site_type_symbol
_atom_site_label
_atom_site_fract_x
_atom_site_fract_y
_atom_site_fract_z
Si Si1 0.675338 0.092663 0.532836
Si Si2 0.131071 0.911900 0.730109
Si Si3 0.540783 0.182727 0.268265
Si Si4 0.192998 0.847025 0.949395
Si Si5 0.369669 0.174786 0.089437
Si Si6 0.593031 0.655407 0.364141
O O1 0.750456 0.122485 0.390387
O O2 0.535830 0.132871 0.610590
O O3 0.781412 0.113338 0.609386
O O4 0.658670 0.000000 0.531655
O O5 0.101362 0.884456 0.872778
O O6 0.997625 0.900657 0.689695
O O7 0.169339 0.000000 0.730486
O O8 0.664303 0.144004 0.163176
O O9 0.417376 0.194030 0.208884
O O10 0.604825 0.264126 0.290308
O O11 0.142927 0.759057 0.966133
O O12 0.237791 0.867673 0.072200
O O13 0.500000 0.132168 0.000000
O O14 0.500000 0.680160 0.500000
#
# Coordination Sequence:
#
# PCOD9197040 Si02
#       6
#     8   8   8   8   8   8
#     4  10  23  40  58  87 131 171 198 239 307 372
#     4  10  21  38  59  86 123 162 201 247 303 363
#     4  11  21  35  61  90 120 155 204 249 298 364
#     4  10  20  35  58  86 116 152 195 252 307 354
#     4   9  19  37  58  85 115 154 199 256 307 352
#     4  10  21  34  59  86 120 159 206 248 290 350
#
# _framework density 24.835438
#
# number of rings (size 3 to 8) (size 9 to 14) (size 15 to 20)
#    0.000    2.000    1.667    1.500    2.333    4.000 
#    0.000    2.500    0.000    3.500    0.000    0.000 
#    0.000    0.000    0.000    0.000    0.000    0.000 
#
# Total GULP energy -133676.965903 kJ/mol
# GULP energy per Si atom -5569.873579 kJ/mol
# Density = 2.477891 g / cm^3
# Si number density = 24.835438 Si / 1000 Ang^3
#
#
#
# Elastic Constant Matrix: (Units=GPa)
#
#
# Indices 1 2 3 4 5 6 
#
# 1 84.1297 -14.5546 44.4240 0.0000 9.5872 0.0000
# 2 -14.5546 34.6385 17.1844 0.0000 2.8769 0.0000
# 3 44.4240 17.1844 99.1532 0.0000 16.1514 0.0000
# 4 0.0000 0.0000 0.0000 19.0587 0.0000 -1.3436
# 5 9.5872 2.8769 16.1514 0.0000 64.8612 0.0000
# 6 0.0000 0.0000 0.0000 -1.3436 0.0000 1.1675
#
#
#
# Elastic Compliance Matrix: (Units=1/GPa)
#
#
# Indices 1 2 3 4 5 6 
#
# 1 0.020622 0.014497 -0.011622 0.000000 -0.000797 0.000000
# 2 0.014497 0.041777 -0.013638 0.000000 -0.000600 0.000000
# 3 -0.011622 -0.013638 0.018008 0.000000 -0.002162 0.000000
# 4 0.000000 0.000000 0.000000 0.057102 0.000000 0.065711
# 5 -0.000797 -0.000600 -0.002162 0.000000 0.016100 0.000000
# 6 0.000000 0.000000 0.000000 0.065711 0.000000 0.932117
#
#
# Mechanical properties :
#
#
# Convention : Reuss Voigt Hill
#
# Bulk Modulus (GPa) = 16.98323 34.66988 25.82656
# Shear Modulus (GPa) = 4.43703 28.40867 16.42285
#
# Velocity S-wave (km/s) = 1.33808 3.38579 2.57430
# Velocity P-wave (km/s) = 3.03981 5.41063 4.38836
#
# Compressibility (1/GPa) = 0.05888162
#
# Stress axis : x y z
#
# Youngs Moduli (GPa) = 48.49113 23.93671 55.53007
#
# Poissons Ratio (x) = -0.34702 0.64538
# Poissons Ratio (y) = -0.70299 0.75732
# Poissons Ratio (z) = 0.56357 0.32645
#
# Static dielectric constant tensor:
#      x y z
#    x 2.132330 0.000000 0.008530 
#    y 0.000000 1.900580 0.000000 
#    z 0.008530 0.000000 2.218520 
# 
# From -- ./inp_files/131029.got.cif
#   From: 2010.05.17/outbox.cif.g08.bks.cpg/sg12_66_cif.got.tgz:131029.got - 2010.06.03 13:09:07.
