data_PCOD9197267
_publ_section_title
;
Structure prediction by ZEFSAII (Michael W. Deem and Ramdas Pophale) SiO2 
 PCOD9197267
Probable space group: C 2/M
;
_chemical_formula_sum "Si O2"
_cell_formula_units_Z 64
_cell_length_a 11.486072
_cell_length_b 25.472787
_cell_length_c 12.294333
_cell_angle_alpha 90.000000
_cell_angle_beta 78.093762
_cell_angle_gamma 90.000000
_cell_volume 3519.717614
_symmetry_space_group_name_H-M "C 2/M"
_symmetry_group_IT_number 12
_symmetry_cell_setting 'monoclinic'
loop_
_space_group_symop_operation_xyz
x,y,z
-x,y,-z
-x,-y,-z
x,-y,z
1/2+x,1/2+y,z
1/2-x,1/2+y,-z
1/2-x,1/2-y,-z
1/2+x,1/2-y,z
loop_
_atom_site_type_symbol
_atom_site_label
_atom_site_fract_x
_atom_site_fract_y
_atom_site_fract_z
Si Si1 0.783732 0.703033 0.915216
Si Si2 0.370924 0.119558 0.064341
Si Si3 0.164607 0.794182 0.712220
Si Si4 0.726487 0.061572 0.491927
Si Si5 0.785648 0.937662 0.728047
Si Si6 0.469894 0.192857 0.228815
Si Si7 0.904988 0.344861 0.598087
Si Si8 0.969886 0.884302 0.383256
O O1 0.689623 0.698002 0.835854
O O2 0.910729 0.719469 0.839610
O O3 0.750000 0.750000 0.000000
O O4 0.805885 0.648656 0.976287
O O5 0.288909 0.082056 0.153510
O O6 0.404790 0.165842 0.141602
O O7 0.500000 0.097606 0.000000
O O8 0.116030 0.735928 0.703006
O O9 0.291013 0.807925 0.633883
O O10 0.074258 0.836480 0.681410
O O11 0.723965 0.073588 0.622143
O O12 0.639786 0.100410 0.443428
O O13 0.859605 0.075504 0.423171
O O14 0.701550 0.000000 0.481249
O O15 0.914602 0.910728 0.691936
O O16 0.800682 0.000000 0.730831
O O17 0.524648 0.150876 0.302155
O O18 0.000000 0.319770 0.500000
O O19 0.000000 0.865847 0.500000
#
# Coordination Sequence:
#
# PCOD9197267 Si02
#       8
#     8   8   8   8   8   8   8   8
#     4  10  20  36  56  80 104 141 190 233 272 322
#     4  10  21  37  56  79 113 144 185 244 278 318
#     4  10  21  35  56  82 112 148 187 223 281 332
#     4   9  18  36  60  83 111 146 185 232 280 331
#     4  10  20  35  59  85 109 148 191 227 280 337
#     4  10  21  35  53  79 111 143 185 228 274 331
#     4  10  21  35  51  80 116 145 184 226 272 335
#     4   9  19  35  56  87 118 143 180 227 275 339
#
# _framework density 18.183277
#
# number of rings (size 3 to 8) (size 9 to 14) (size 15 to 20)
#    0.000    2.250    1.250    1.125    1.750    3.000 
#    0.000    0.625    0.000   11.250    0.000    0.000 
#    0.000    0.000    0.000    0.000    0.000    0.000 
#
# Total GULP energy -178392.864549 kJ/mol
# GULP energy per Si atom -5574.777017 kJ/mol
# Density = 1.814189 g / cm^3
# Si number density = 18.183277 Si / 1000 Ang^3
#
#
#
# Elastic Constant Matrix: (Units=GPa)
#
#
# Indices 1 2 3 4 5 6 
#
# 1 94.5708 56.2484 57.1799 0.0000 7.2373 0.0000
# 2 56.2484 59.1854 39.6825 0.0000 3.3052 0.0000
# 3 57.1799 39.6825 94.8848 0.0000 -4.2723 0.0000
# 4 0.0000 0.0000 0.0000 33.2949 0.0000 3.3770
# 5 7.2373 3.3052 -4.2723 0.0000 35.5432 0.0000
# 6 0.0000 0.0000 0.0000 3.3770 0.0000 0.3463
#
#
#
# Elastic Compliance Matrix: (Units=1/GPa)
#
#
# Indices 1 2 3 4 5 6 
#
# 1 0.028947 -0.021385 -0.008724 0.000000 -0.004954 0.000000
# 2 -0.021385 0.039690 -0.003702 0.000000 0.000219 0.000000
# 3 -0.008724 -0.003702 0.017535 0.000000 0.004228 0.000000
# 4 0.000000 0.000000 0.000000 2.719181 0.000000-26.512996
# 5 -0.004954 0.000219 0.004228 0.000000 0.029631 0.000000
# 6 0.000000 0.000000 0.000000-26.512996 0.000000261.398508
#
#
# Mechanical properties :
#
#
# Convention : Reuss Voigt Hill
#
# Bulk Modulus (GPa) = 53.90744 61.65139 57.77941
# Shear Modulus (GPa) = 0.01892 20.20558 10.11225
#
# Velocity S-wave (km/s) = 0.10211 3.33711 2.36080
# Velocity P-wave (km/s) = 5.45206 6.98767 6.26708
#
# Compressibility (1/GPa) = 0.01855032
#
# Stress axis : x y z
#
# Youngs Moduli (GPa) = 34.54605 25.19554 57.02920
#
# Poissons Ratio (x) = 0.53880 0.49751
# Poissons Ratio (y) = 0.73876 0.21113
# Poissons Ratio (z) = 0.30137 0.09328
#
# Static dielectric constant tensor:
#      x y z
#    x 1.644000 0.000000 -0.008540 
#    y 0.000000 1.590850 0.000000 
#    z -0.008540 0.000000 1.674200 
# 
# From -- ./inp_files/135352.got.cif
#   From: 2010.05.17/outbox.cif.g08.bks.cpg/sg12_68_cif.got.tgz:135352.got - 2010.06.03 13:09:07.
