data_PCOD9197989
_publ_section_title
;
Structure prediction by ZEFSAII (Michael W. Deem and Ramdas Pophale) SiO2 
 PCOD9197989
Probable space group: C 2/M
;
_chemical_formula_sum "Si O2"
_cell_formula_units_Z 56
_cell_length_a 14.379761
_cell_length_b 24.949705
_cell_length_c 10.172134
_cell_angle_alpha 90.000000
_cell_angle_beta 132.348829
_cell_angle_gamma 90.000000
_cell_volume 2697.163335
_symmetry_space_group_name_H-M "C 2/M"
_symmetry_group_IT_number 12
_symmetry_cell_setting 'monoclinic'
loop_
_space_group_symop_operation_xyz
x,y,z
-x,y,-z
-x,-y,-z
x,-y,z
1/2+x,1/2+y,z
1/2-x,1/2+y,-z
1/2-x,1/2-y,-z
1/2+x,1/2-y,z
loop_
_atom_site_type_symbol
_atom_site_label
_atom_site_fract_x
_atom_site_fract_y
_atom_site_fract_z
Si Si1 0.227681 0.293967 0.087709
Si Si2 0.357504 0.435525 0.824401
Si Si3 0.385729 0.598151 0.561629
Si Si4 0.830720 0.912330 0.216787
Si Si5 0.356345 0.059771 0.176744
Si Si6 0.513579 0.863564 0.160313
Si Si7 0.766419 0.797177 0.414343
O O1 0.304099 0.349963 0.155558
O O2 0.261056 0.272832 0.263813
O O3 0.250000 0.250000 0.000000
O O4 0.084371 0.314211 0.940646
O O5 0.359753 0.500000 0.838574
O O6 0.332169 0.419428 0.650030
O O7 0.242046 0.417664 0.808254
O O8 0.500000 0.416613 0.000000
O O9 0.527250 0.575851 0.689153
O O10 0.320756 0.579645 0.363815
O O11 0.383830 0.663162 0.549614
O O12 0.730512 0.943324 0.036015
O O13 0.468612 0.097937 0.234993
O O14 0.398378 0.000000 0.254924
O O15 0.649934 0.838817 0.311078
O O16 0.500000 0.888835 0.000000
O O17 0.750000 0.750000 0.500000
#
# Coordination Sequence:
#
# PCOD9197989 Si02
#       7
#     8   8   8   8   8   8   8
#     4   9  19  36  58  80 110 148 191 240 290 341
#     4  10  20  36  57  86 121 153 191 243 300 355
#     4  10  20  36  55  80 123 152 187 245 298 347
#     4   9  19  34  56  85 113 150 192 243 297 345
#     4  10  20  37  62  88 114 152 202 244 288 353
#     4   9  20  40  59  82 119 155 195 242 286 343
#     4  10  22  38  55  83 115 152 193 239 287 345
#
# _framework density 20.762554000000002
#
# number of rings (size 3 to 8) (size 9 to 14) (size 15 to 20)
#    0.000    2.429    1.429    0.857    2.000    3.143 
#    0.000    4.286    0.000    1.714    0.000    0.000 
#    0.000    0.000    0.000    0.000    0.000    0.000 
#
# Total GULP energy -156141.946079 kJ/mol
# GULP energy per Si atom -5576.498074 kJ/mol
# Density = 2.071530 g / cm^3
# Si number density = 20.762554 Si / 1000 Ang^3
#
#
#
# Elastic Constant Matrix: (Units=GPa)
#
#
# Indices 1 2 3 4 5 6 
#
# 1 111.8689 25.4475 32.5474 0.0000 -30.6650 0.0000
# 2 25.4475 33.8297 12.4855 0.0000 -14.6004 0.0000
# 3 32.5474 12.4855 50.1605 0.0000 -16.6972 0.0000
# 4 0.0000 0.0000 0.0000 13.3333 0.0000 -3.4786
# 5 -30.6650 -14.6004 -16.6972 0.0000 43.0099 0.0000
# 6 0.0000 0.0000 0.0000 -3.4786 0.0000 3.2406
#
#
#
# Elastic Compliance Matrix: (Units=1/GPa)
#
#
# Indices 1 2 3 4 5 6 
#
# 1 0.013293 -0.005648 -0.005401 0.000000 0.005463 0.000000
# 2 -0.005648 0.038359 -0.003318 0.000000 0.007707 0.000000
# 3 -0.005401 -0.003318 0.025965 0.000000 0.005103 0.000000
# 4 0.000000 0.000000 0.000000 0.104175 0.000000 0.111827
# 5 0.005463 0.007707 0.005103 0.000000 0.031743 0.000000
# 6 0.000000 0.000000 0.000000 0.111827 0.000000 0.428629
#
#
# Mechanical properties :
#
#
# Convention : Reuss Voigt Hill
#
# Bulk Modulus (GPa) = 20.45678 37.42444 28.94061
# Shear Modulus (GPa) = 7.27600 20.27532 13.77566
#
# Velocity S-wave (km/s) = 1.87403 3.12834 2.57862
# Velocity P-wave (km/s) = 3.81533 5.57789 4.77858
#
# Compressibility (1/GPa) = 0.04888356
#
# Stress axis : x y z
#
# Youngs Moduli (GPa) = 75.22923 26.06951 38.51354
#
# Poissons Ratio (x) = 0.14724 0.20800
# Poissons Ratio (y) = 0.42489 0.12778
# Poissons Ratio (z) = 0.40629 0.08650
#
# Static dielectric constant tensor:
#      x y z
#    x 1.801810 0.000000 0.021860 
#    y 0.000000 1.747290 0.000000 
#    z 0.021860 0.000000 1.770010 
# 
# From -- ./inp_files/68304.got.cif
#   From: 2010.05.17/outbox.cif.g08.bks.cpg/sg12_35_cif.got.tgz:68304.got - 2010.06.03 13:09:07.
