data_PCOD9197568
_publ_section_title
;
Structure prediction by ZEFSAII (Michael W. Deem and Ramdas Pophale) SiO2 
 PCOD9197568
Probable space group: C 2/M
;
_chemical_formula_sum "Si O2"
_cell_formula_units_Z 64
_cell_length_a 32.212424
_cell_length_b 8.782960
_cell_length_c 18.272469
_cell_angle_alpha 90.000000
_cell_angle_beta 138.638389
_cell_angle_gamma 90.000000
_cell_volume 3416.155109
_symmetry_space_group_name_H-M "C 2/M"
_symmetry_group_IT_number 12
_symmetry_cell_setting 'monoclinic'
loop_
_space_group_symop_operation_xyz
x,y,z
-x,y,-z
-x,-y,-z
x,-y,z
1/2+x,1/2+y,z
1/2-x,1/2+y,-z
1/2-x,1/2-y,-z
1/2+x,1/2-y,z
loop_
_atom_site_type_symbol
_atom_site_label
_atom_site_fract_x
_atom_site_fract_y
_atom_site_fract_z
Si Si1 0.021661 0.817326 0.295758
Si Si2 0.337172 0.317751 0.564164
Si Si3 0.817526 0.181794 0.111272
Si Si4 0.287986 0.319362 0.660215
Si Si5 0.544221 0.316595 0.490607
Si Si6 0.603004 0.181167 0.914251
Si Si7 0.198555 0.681228 0.169723
Si Si8 0.829349 0.318475 0.286267
O O1 0.092390 0.778291 0.365424
O O2 0.015184 0.778568 0.373297
O O3 0.968915 0.732985 0.179421
O O4 0.014008 0.000000 0.278110
O O5 0.328971 0.500000 0.543043
O O6 0.323449 0.283223 0.631211
O O7 0.283862 0.233581 0.447089
O O8 0.865404 0.232138 0.111904
O O9 0.836545 0.249188 0.214654
O O10 0.813696 0.000000 0.111057
O O11 0.750000 0.250000 0.000000
O O12 0.290069 0.500000 0.674372
O O13 0.315247 0.235274 0.766603
O O14 0.500000 0.271123 0.500000
O O15 0.551755 0.500000 0.503200
O O16 0.612256 0.241720 0.589364
O O17 0.607776 0.000000 0.908844
O O18 0.643176 0.219165 0.039600
O O19 0.208257 0.500000 0.180602
O O20 0.262920 0.760665 0.229274
O O21 0.829517 0.500000 0.283377
#
# Coordination Sequence:
#
# PCOD9197568 Si02
#       8
#     8   8   8   8   8   8   8   8
#     4  10  21  38  60  83 115 159 198 236 292 357
#     4   9  19  37  60  88 120 155 191 233 295 358
#     4  12  23  38  59  83 115 154 196 241 288 342
#     4  10  20  35  60  91 119 147 190 244 292 349
#     4  10  21  37  57  84 118 156 193 235 291 349
#     4  11  24  40  59  84 115 154 198 245 293 344
#     4  11  23  39  58  82 116 153 190 239 297 351
#     4  12  24  37  59  88 117 151 193 243 293 345
#
# _framework density 18.734513
#
# number of rings (size 3 to 8) (size 9 to 14) (size 15 to 20)
#    0.000    1.375    1.250    4.875    0.000    5.250 
#    0.000    0.625    0.000    3.750    0.000    0.000 
#    0.000    0.000    0.000    0.000    0.000    0.000 
#
# Total GULP energy -178944.423401 kJ/mol
# GULP energy per Si atom -5592.013231 kJ/mol
# Density = 1.869187 g / cm^3
# Si number density = 18.734513 Si / 1000 Ang^3
#
#
#
# Elastic Constant Matrix: (Units=GPa)
#
#
# Indices 1 2 3 4 5 6 
#
# 1 72.1367 27.0324 37.3069 0.0000 2.2606 0.0000
# 2 27.0324 63.2632 48.9878 0.0000 -3.4863 0.0000
# 3 37.3069 48.9878 116.7997 0.0000 -2.0052 0.0000
# 4 0.0000 0.0000 0.0000 33.7326 0.0000 -0.0210
# 5 2.2606 -3.4863 -2.0052 0.0000 30.2626 0.0000
# 6 0.0000 0.0000 0.0000 -0.0210 0.0000 27.0085
#
#
#
# Elastic Compliance Matrix: (Units=1/GPa)
#
#
# Indices 1 2 3 4 5 6 
#
# 1 0.017620 -0.004827 -0.003640 0.000000 -0.002113 0.000000
# 2 -0.004827 0.024860 -0.008840 0.000000 0.002639 0.000000
# 3 -0.003640 -0.008840 0.013434 0.000000 0.000144 0.000000
# 4 0.000000 0.000000 0.000000 0.029645 0.000000 0.000023
# 5 -0.002113 0.002639 0.000144 0.000000 0.033515 0.000000
# 6 0.000000 0.000000 0.000000 0.000023 0.000000 0.037025
#
#
# Mechanical properties :
#
#
# Convention : Reuss Voigt Hill
#
# Bulk Modulus (GPa) = 46.94536 53.20600 50.07568
# Shear Modulus (GPa) = 25.27638 27.45892 26.36765
#
# Velocity S-wave (km/s) = 3.67711 3.83258 3.75565
# Velocity P-wave (km/s) = 6.56817 6.93156 6.75231
#
# Compressibility (1/GPa) = 0.02130136
#
# Stress axis : x y z
#
# Youngs Moduli (GPa) = 56.75354 40.22540 74.43711
#
# Poissons Ratio (x) = 0.19417 0.27093
# Poissons Ratio (y) = 0.27395 0.65799
# Poissons Ratio (z) = 0.20657 0.35557
#
# Static dielectric constant tensor:
#      x y z
#    x 1.650820 0.000000 -0.005170 
#    y 0.000000 1.627330 0.000000 
#    z -0.005170 0.000000 1.635380 
# 
# From -- ./inp_files/295680.got.cif
#   From: 2010.05.17/outbox.cif.g08.bks.cpg/sg12_148_cif.got.tgz:295680.got - 2010.06.03 13:09:07.
