data_PCOD9197315
_publ_section_title
;
Structure prediction by ZEFSAII (Michael W. Deem and Ramdas Pophale) SiO2 
 PCOD9197315
Probable space group: C 2/M
;
_chemical_formula_sum "Si O2"
_cell_formula_units_Z 48
_cell_length_a 14.426873
_cell_length_b 19.932668
_cell_length_c 7.078393
_cell_angle_alpha 90.000000
_cell_angle_beta 70.060524
_cell_angle_gamma 90.000000
_cell_volume 1913.483986
_symmetry_space_group_name_H-M "C 2/M"
_symmetry_group_IT_number 12
_symmetry_cell_setting 'monoclinic'
loop_
_space_group_symop_operation_xyz
x,y,z
-x,y,-z
-x,-y,-z
x,-y,z
1/2+x,1/2+y,z
1/2-x,1/2+y,-z
1/2-x,1/2-y,-z
1/2+x,1/2-y,z
loop_
_atom_site_type_symbol
_atom_site_label
_atom_site_fract_x
_atom_site_fract_y
_atom_site_fract_z
Si Si1 0.706819 0.000000 0.108417
Si Si2 0.430035 0.143295 0.366730
Si Si3 0.710723 0.352760 0.476185
Si Si4 0.158304 0.124901 0.111287
Si Si5 0.482904 0.500000 0.734547
Si Si6 0.015536 0.500000 0.717635
Si Si7 0.514814 0.714514 0.723297
Si Si8 0.693201 0.500000 0.593166
O O1 0.594784 0.000000 0.122972
O O2 0.716846 0.000000 0.327563
O O3 0.758073 0.072683 0.025556
O O4 0.500000 0.137415 0.500000
O O5 0.316479 0.161016 0.492505
O O6 0.432731 0.070323 0.268647
O O7 0.470885 0.208279 0.233785
O O8 0.707031 0.337061 0.257044
O O9 0.620072 0.323871 0.658493
O O10 0.695848 0.432695 0.476511
O O11 0.075254 0.067636 0.195050
O O12 0.079707 0.183175 0.105161
O O13 0.500000 0.500000 0.500000
O O14 0.587152 0.500000 0.770825
O O15 0.000000 0.500000 0.500000
O O16 0.500000 0.710973 0.500000
#
# Coordination Sequence:
#
# PCOD9197315 Si02
#       8
#     4   8   8   8   4   4   8   4
#     4  11  25  38  59  90 120 155 197 243 295 353
#     4  10  20  35  59  87 114 150 205 254 281 330
#     4  11  19  34  61  90 117 160 198 237 290 347
#     4  10  20  36  55  86 125 153 189 241 300 350
#     4  11  15  31  53  85 121 151 188 233 286 348
#     4  10  21  42  59  79 113 147 196 249 287 335
#     4   9  18  34  58  88 122 153 190 242 293 350
#     4  12  19  30  58  86 119 159 195 233 290 340
#
# _framework density 25.085132999999999
#
# number of rings (size 3 to 8) (size 9 to 14) (size 15 to 20)
#    0.000    1.667    3.333    4.000    0.000    1.333 
#    0.000    2.500    0.000    2.000    0.000    0.000 
#    0.000    0.000    0.000    0.000    0.000    0.000 
#
# Total GULP energy -133774.672537 kJ/mol
# GULP energy per Si atom -5573.944689 kJ/mol
# Density = 2.502804 g / cm^3
# Si number density = 25.085133 Si / 1000 Ang^3
#
#
#
# Elastic Constant Matrix: (Units=GPa)
#
#
# Indices 1 2 3 4 5 6 
#
# 1 151.6221 20.2875 31.4830 0.0000 -18.9887 0.0000
# 2 20.2875 165.9861 24.9200 0.0000 -20.2462 0.0000
# 3 31.4830 24.9200 57.8498 0.0000 -7.4458 0.0000
# 4 0.0000 0.0000 0.0000 -24.5638 0.0000 -131.4296
# 5 -18.9887 -20.2462 -7.4458 0.0000 29.6954 0.0000
# 6 0.0000 0.0000 0.0000 -131.4296 0.0000 -609.7112
#
#
#
# Elastic Compliance Matrix: (Units=1/GPa)
#
#
# Indices 1 2 3 4 5 6 
#
# 1 0.007893 0.000116 -0.003809 0.000000 0.004171 0.000000
# 2 0.000116 0.006891 -0.002498 0.000000 0.004146 0.000000
# 3 -0.003809 -0.002498 0.020566 0.000000 0.001018 0.000000
# 4 0.000000 0.000000 0.000000 0.265449 0.000000 -0.057220
# 5 0.004171 0.004146 0.001018 0.000000 0.039425 0.000000
# 6 0.000000 0.000000 0.000000 -0.057220 0.000000 0.010694
#
#
# Mechanical properties :
#
#
# Convention : Reuss Voigt Hill
#
# Bulk Modulus (GPa) = 43.53716 58.75989 51.14853
# Shear Modulus (GPa) = 13.47871 -100.99810 -43.75970
#
# Velocity S-wave (km/s) = 2.32053 -6.35213 -4.18119
# Velocity P-wave (km/s) = 4.95714 5.50675 1.69575
#
# Compressibility (1/GPa) = 0.02296888
#
# Stress axis : x y z
#
# Youngs Moduli (GPa) = 126.69369 145.11277 48.62403
#
# Poissons Ratio (x) = -0.01681 0.18519
# Poissons Ratio (y) = -0.01468 0.12146
# Poissons Ratio (z) = 0.48252 0.36248
#
# Static dielectric constant tensor:
#      x y z
#    x 2.064480 0.000000 0.017870 
#    y 0.000000 1.787990 0.000000 
#    z 0.017870 0.000000 2.092010 
# 
# From -- ./inp_files/63421.got.cif
#   From: 2010.05.17/outbox.cif.g08.bks.cpg/sg12_32_cif.got.tgz:63421.got - 2010.06.03 13:09:07.
