data_PCOD9197165
_publ_section_title
;
Structure prediction by ZEFSAII (Michael W. Deem and Ramdas Pophale) SiO2 
 PCOD9197165
Probable space group: C 2/M
;
_chemical_formula_sum "Si O2"
_cell_formula_units_Z 56
_cell_length_a 14.018539
_cell_length_b 14.153130
_cell_length_c 33.641013
_cell_angle_alpha 90.000000
_cell_angle_beta 23.564983
_cell_angle_gamma 90.000000
_cell_volume 2668.425361
_symmetry_space_group_name_H-M "C 2/M"
_symmetry_group_IT_number 12
_symmetry_cell_setting 'monoclinic'
loop_
_space_group_symop_operation_xyz
x,y,z
-x,y,-z
-x,-y,-z
x,-y,z
1/2+x,1/2+y,z
1/2-x,1/2+y,-z
1/2-x,1/2-y,-z
1/2+x,1/2-y,z
loop_
_atom_site_type_symbol
_atom_site_label
_atom_site_fract_x
_atom_site_fract_y
_atom_site_fract_z
Si Si1 0.782272 0.800327 0.552553
Si Si2 0.232661 0.894531 0.094025
Si Si3 0.205949 0.608027 0.499774
Si Si4 0.433448 0.780315 0.746187
Si Si5 0.664017 0.601546 0.688006
Si Si6 0.283073 0.888760 0.884034
Si Si7 0.951966 0.736259 0.890064
O O1 0.741930 0.692749 0.551292
O O2 0.818391 0.861288 0.498788
O O3 0.551949 0.837647 0.664875
O O4 0.000000 0.807581 0.500000
O O5 0.079289 0.830304 0.123899
O O6 0.071154 0.900468 0.194765
O O7 0.267060 0.000000 0.064430
O O8 0.500000 0.856012 0.000000
O O9 0.273865 0.500000 0.462880
O O10 0.916190 0.608329 0.614264
O O11 0.627790 0.698639 0.679254
O O12 0.369874 0.834673 0.811080
O O13 0.198277 0.731732 0.818893
O O14 0.672965 0.500000 0.662623
O O15 0.410758 0.847344 0.874407
O O16 0.325297 0.000000 0.863316
O O17 0.000000 0.874219 0.000000
O O18 0.750000 0.750000 0.000000
#
# Coordination Sequence:
#
# PCOD9197165 Si02
#       7
#     8   8   8   8   8   8   8
#     4  11  24  42  68 101 133 175 222 277 330 396
#     4  10  20  35  58  88 125 165 213 269 323 381
#     4  10  23  44  68  96 135 177 218 275 336 395
#     4  12  24  40  69  97 133 172 224 274 332 391
#     4  10  20  38  64  91 125 169 218 266 325 390
#     4  11  25  46  66  94 137 180 219 268 330 400
#     4  12  23  38  65  94 128 174 217 268 325 390
#
# _framework density 20.986159000000001
#
# number of rings (size 3 to 8) (size 9 to 14) (size 15 to 20)
#    0.000    1.143    4.286    2.143    0.000    3.429 
#    0.000    1.429    0.000    0.000    0.000    0.000 
#    0.000    0.000    0.000    0.000    0.000    0.000 
#
# Total GULP energy -156224.875012 kJ/mol
# GULP energy per Si atom -5579.459822 kJ/mol
# Density = 2.093839 g / cm^3
# Si number density = 20.986159 Si / 1000 Ang^3
#
#
#
# Elastic Constant Matrix: (Units=GPa)
#
#
# Indices 1 2 3 4 5 6 
#
# 1 128.3261 45.2337 31.8046 -0.0326 1.3847 0.0447
# 2 45.2337 112.5652 3.6528 -0.0205 0.8811 0.0261
# 3 31.8046 3.6528 81.5760 -0.0167 12.6793 0.0259
# 4 -0.0326 -0.0205 -0.0167 10.6402 0.0125 17.0567
# 5 1.3847 0.8811 12.6793 0.0125 35.6518 -0.0115
# 6 0.0447 0.0261 0.0259 17.0567 -0.0115 -62.2779
#
#
#
# Elastic Compliance Matrix: (Units=1/GPa)
#
#
# Indices 1 2 3 4 5 6 
#
# 1 0.010158 -0.003962 -0.003955 0.000007 0.001110 0.000006
# 2 -0.003962 0.010442 0.001157 0.000005 -0.000516 0.000003
# 3 -0.003955 0.001157 0.014533 0.000008 -0.005043 0.000007
# 4 0.000007 0.000005 0.000008 0.065310 -0.000020 0.017887
# 5 0.001110 -0.000516 -0.005043 -0.000020 0.029812 -0.000013
# 6 0.000006 0.000003 0.000007 0.017887 -0.000013 -0.011158
#
#
# Mechanical properties :
#
#
# Convention : Reuss Voigt Hill
#
# Bulk Modulus (GPa) = 46.26980 53.76106 50.01543
# Shear Modulus (GPa) = 35.76007 12.92123 24.34065
#
# Velocity S-wave (km/s) = 4.13241 2.48403 3.40934
# Velocity P-wave (km/s) = 6.69811 5.82239 6.27554
#
# Compressibility (1/GPa) = 0.02161237
#
# Stress axis : x y z
#
# Youngs Moduli (GPa) = 98.44876 95.76371 68.81050
#
# Poissons Ratio (x) = 0.37943 0.27217
# Poissons Ratio (y) = 0.39006 -0.07964
# Poissons Ratio (z) = 0.38940 -0.11083
#
# Static dielectric constant tensor:
#      x y z
#    x 1.733270 0.000150 -0.061350 
#    y 0.000150 1.781910 0.000180 
#    z -0.061350 0.000180 1.728670 
# 
# From -- ./inp_files/263229.got.cif
#   From: 2010.05.17/outbox.cif.g08.bks.cpg/sg12_132_cif.got.tgz:263229.got - 2010.06.03 13:09:07.
