data_PCOD9197495
_publ_section_title
;
Structure prediction by ZEFSAII (Michael W. Deem and Ramdas Pophale) SiO2 
 PCOD9197495
Probable space group: C 2/M
;
_chemical_formula_sum "Si O2"
_cell_formula_units_Z 48
_cell_length_a 28.020770
_cell_length_b 19.892931
_cell_length_c 8.587156
_cell_angle_alpha 90.000000
_cell_angle_beta 147.342558
_cell_angle_gamma 90.000000
_cell_volume 2582.928008
_symmetry_space_group_name_H-M "C 2/M"
_symmetry_group_IT_number 12
_symmetry_cell_setting 'monoclinic'
loop_
_space_group_symop_operation_xyz
x,y,z
-x,y,-z
-x,-y,-z
x,-y,z
1/2+x,1/2+y,z
1/2-x,1/2+y,-z
1/2-x,1/2-y,-z
1/2+x,1/2-y,z
loop_
_atom_site_type_symbol
_atom_site_label
_atom_site_fract_x
_atom_site_fract_y
_atom_site_fract_z
Si Si1 0.328102 0.204394 0.648208
Si Si2 0.010567 0.211643 0.839186
Si Si3 0.273230 0.074543 0.659921
Si Si4 0.429049 0.573575 0.943792
Si Si5 0.402153 0.921549 0.307647
Si Si6 0.840120 0.284884 0.310071
O O1 0.250000 0.250000 0.500000
O O2 0.309341 0.128763 0.641673
O O3 0.332430 0.210476 0.475390
O O4 0.416033 0.231035 0.974114
O O5 0.921754 0.233582 0.510848
O O6 0.045834 0.138580 0.887245
O O7 0.000000 0.207533 0.000000
O O8 0.168450 0.085708 0.394985
O O9 0.284364 0.000000 0.626534
O O10 0.328907 0.079182 0.970116
O O11 0.428331 0.500000 0.019843
O O12 0.500000 0.569722 0.000000
O O13 0.500000 0.910630 0.500000
O O14 0.371085 0.858236 0.329408
O O15 0.402943 0.000000 0.372913
O O16 0.750000 0.250000 0.000000
#
# Coordination Sequence:
#
# PCOD9197495 Si02
#       6
#     8   8   8   8   8   8
#     4  11  20  36  58  82 117 157 195 241 286 350
#     4   9  19  34  53  78 110 148 191 236 278 342
#     4  10  20  35  60  86 110 149 196 241 291 351
#     4   9  17  30  53  82 108 140 187 236 276 331
#     4  10  22  41  62  86 120 159 201 251 308 363
#     4  11  24  37  57  89 120 154 195 245 303 355
#
# _framework density 18.583562000000001
#
# number of rings (size 3 to 8) (size 9 to 14) (size 15 to 20)
#    0.000    2.000    1.667    2.000    4.667    0.667 
#    0.000    0.000    0.000    6.000    0.000    2.333 
#    0.000    0.000    0.000    0.000    0.000    0.000 
#
# Total GULP energy -133667.188100 kJ/mol
# GULP energy per Si atom -5569.466171 kJ/mol
# Density = 1.854126 g / cm^3
# Si number density = 18.583562 Si / 1000 Ang^3
#
#
#
# Elastic Constant Matrix: (Units=GPa)
#
#
# Indices 1 2 3 4 5 6 
#
# 1 49.0142 50.4147 32.1403 0.0000 14.4618 0.0000
# 2 50.4147 163.3215 78.8911 0.0000 14.3742 0.0000
# 3 32.1403 78.8911 140.2894 0.0000 32.6642 0.0000
# 4 0.0000 0.0000 0.0000 26.6625 0.0000 9.1209
# 5 14.4618 14.3742 32.6642 0.0000 25.5751 0.0000
# 6 0.0000 0.0000 0.0000 9.1209 0.0000 25.4825
#
#
#
# Elastic Compliance Matrix: (Units=1/GPa)
#
#
# Indices 1 2 3 4 5 6 
#
# 1 0.034232 -0.009826 0.001287 0.000000 -0.015478 0.000000
# 2 -0.009826 0.011290 -0.005571 0.000000 0.006326 0.000000
# 3 0.001287 -0.005571 0.013387 0.000000 -0.014695 0.000000
# 4 0.000000 0.000000 0.000000 0.042739 0.000000 -0.015297
# 5 -0.015478 0.006326 -0.014695 0.000000 0.063066 0.000000
# 6 0.000000 0.000000 0.000000 -0.015297 0.000000 0.044718
#
#
# Mechanical properties :
#
#
# Convention : Reuss Voigt Hill
#
# Bulk Modulus (GPa) = 32.58384 75.05746 53.82065
# Shear Modulus (GPa) = 20.17081 28.28928 24.23004
#
# Velocity S-wave (km/s) = 3.29813 3.90587 3.61479
# Velocity P-wave (km/s) = 5.66351 7.79858 6.81518
#
# Compressibility (1/GPa) = 0.03069006
#
# Stress axis : x y z
#
# Youngs Moduli (GPa) = 29.21213 88.57193 74.69713
#
# Poissons Ratio (x) = 0.87034 -0.09614
# Poissons Ratio (y) = 0.28705 0.41611
# Poissons Ratio (z) = -0.03760 0.49340
#
# Static dielectric constant tensor:
#      x y z
#    x 1.642480 0.000000 0.041140 
#    y 0.000000 1.743060 0.000000 
#    z 0.041140 0.000000 1.629420 
# 
# From -- ./inp_files/75459.got.cif
#   From: 2010.05.17/outbox.cif.g08.bks.cpg/sg12_38_cif.got.tgz:75459.got - 2010.06.03 13:09:07.
