data_PCOD9197596
_publ_section_title
;
Structure prediction by ZEFSAII (Michael W. Deem and Ramdas Pophale) SiO2 
 PCOD9197596
Probable space group: C 2/M
;
_chemical_formula_sum "Si O2"
_cell_formula_units_Z 52
_cell_length_a 9.545022
_cell_length_b 26.714701
_cell_length_c 19.347244
_cell_angle_alpha 90.000000
_cell_angle_beta 35.436271
_cell_angle_gamma 90.000000
_cell_volume 2860.371076
_symmetry_space_group_name_H-M "C 2/M"
_symmetry_group_IT_number 12
_symmetry_cell_setting 'monoclinic'
loop_
_space_group_symop_operation_xyz
x,y,z
-x,y,-z
-x,-y,-z
x,-y,z
1/2+x,1/2+y,z
1/2-x,1/2+y,-z
1/2-x,1/2-y,-z
1/2+x,1/2-y,z
loop_
_atom_site_type_symbol
_atom_site_label
_atom_site_fract_x
_atom_site_fract_y
_atom_site_fract_z
Si Si1 0.353634 0.557072 0.722558
Si Si2 0.500000 0.625883 0.000000
Si Si3 0.066360 0.557923 0.221440
Si Si4 0.277209 0.201199 0.536677
Si Si5 0.795146 0.893782 0.526547
Si Si6 0.779261 0.691072 0.999180
Si Si7 0.676124 0.660915 0.196125
O O1 0.373875 0.500000 0.739921
O O2 0.109128 0.561320 0.775187
O O3 0.568655 0.569967 0.582285
O O4 0.354430 0.601467 0.778112
O O5 0.367393 0.660859 0.998540
O O6 0.699641 0.591186 0.884014
O O7 0.128435 0.500000 0.206449
O O8 0.909455 0.578031 0.348423
O O9 0.500000 0.205920 0.500000
O O10 0.250000 0.250000 0.500000
O O11 0.305740 0.153452 0.474652
O O12 0.034922 0.189452 0.677942
O O13 0.000000 0.877297 0.500000
O O14 0.682500 0.675274 0.113416
O O15 0.750000 0.750000 0.000000
O O16 0.061512 0.676832 0.881067
#
# Coordination Sequence:
#
# PCOD9197596 Si02
#       7
#     8   4   8   8   8   8   8
#     4   9  17  37  64  90 121 159 199 253 305 363
#     4  12  23  38  64  88 126 158 209 260 302 352
#     4  10  20  35  60  92 125 160 202 251 307 361
#     4  11  25  40  63  93 127 161 197 254 310 365
#     4   9  19  36  62  90 121 159 205 248 300 369
#     4  11  25  43  64  88 118 168 207 257 299 358
#     4  10  23  44  62  91 124 155 214 245 301 373
#
# _framework density 18.179459999999999
#
# number of rings (size 3 to 8) (size 9 to 14) (size 15 to 20)
#    0.000    1.846    1.538    2.077    4.308    3.077 
#    0.000    3.077    0.000    2.308    0.000    0.000 
#    0.000    0.000    0.000    0.000    0.000    0.000 
#
# Total GULP energy -145217.507173 kJ/mol
# GULP energy per Si atom -5585.288737 kJ/mol
# Density = 1.813808 g / cm^3
# Si number density = 18.179460 Si / 1000 Ang^3
#
#
#
# Elastic Constant Matrix: (Units=GPa)
#
#
# Indices 1 2 3 4 5 6 
#
# 1 123.1738 89.0606 63.8377 -0.0001 4.9577 0.0009
# 2 89.0606 171.0323 85.2422 -0.0003 4.3634 0.0008
# 3 63.8377 85.2422 119.0058 -0.0002 -0.8497 0.0019
# 4 -0.0001 -0.0003 -0.0002 14.1696 0.0003 9.6133
# 5 4.9577 4.3634 -0.8497 0.0003 15.1237 -0.0017
# 6 0.0009 0.0008 0.0019 9.6133 -0.0017 3.8164
#
#
#
# Elastic Compliance Matrix: (Units=1/GPa)
#
#
# Indices 1 2 3 4 5 6 
#
# 1 0.014074 -0.005398 -0.003706 -0.000002 -0.003264 0.000003
# 2 -0.005398 0.011301 -0.005212 0.000000 -0.001784 0.000000
# 3 -0.003706 -0.005212 0.014149 -0.000003 0.003514 0.000005
# 4 -0.000002 0.000000 -0.000003 -0.099544 0.000031 0.250747
# 5 -0.003264 -0.001784 0.003514 0.000031 0.067903 -0.000048
# 6 0.000003 0.000000 0.000005 0.250747 -0.000048 -0.369592
#
#
# Mechanical properties :
#
#
# Convention : Reuss Voigt Hill
#
# Bulk Modulus (GPa) = 91.81232 98.83254 95.32243
# Shear Modulus (GPa) = -15.17702 18.29336 1.55817
#
# Velocity S-wave (km/s) = -2.89250 3.17561 0.92680
# Velocity P-wave (km/s) = 6.28152 8.24190 7.32757
#
# Compressibility (1/GPa) = 0.01089178
#
# Stress axis : x y z
#
# Youngs Moduli (GPa) = 71.05288 88.48968 70.67529
#
# Poissons Ratio (x) = 0.47768 0.26195
# Poissons Ratio (y) = 0.38355 0.36833
# Poissons Ratio (z) = 0.26335 0.46117
#
# Static dielectric constant tensor:
#      x y z
#    x 1.609340 0.000000 -0.002080 
#    y 0.000000 1.598870 0.000000 
#    z -0.002080 0.000000 1.605280 
# 
# From -- ./inp_files/259669.got.cif
#   From: 2010.05.17/outbox.cif.g08.bks.cpg/sg12_130_cif.got.tgz:259669.got - 2010.06.03 13:09:07.
