data_PCOD9197829
_publ_section_title
;
Structure prediction by ZEFSAII (Michael W. Deem and Ramdas Pophale) SiO2 
 PCOD9197829
Probable space group: C 2/M
;
_chemical_formula_sum "Si O2"
_cell_formula_units_Z 56
_cell_length_a 9.309725
_cell_length_b 23.599672
_cell_length_c 15.333252
_cell_angle_alpha 90.000000
_cell_angle_beta 57.544597
_cell_angle_gamma 90.000000
_cell_volume 2842.637328
_symmetry_space_group_name_H-M "C 2/M"
_symmetry_group_IT_number 12
_symmetry_cell_setting 'monoclinic'
loop_
_space_group_symop_operation_xyz
x,y,z
-x,y,-z
-x,-y,-z
x,-y,z
1/2+x,1/2+y,z
1/2-x,1/2+y,-z
1/2-x,1/2-y,-z
1/2+x,1/2-y,z
loop_
_atom_site_type_symbol
_atom_site_label
_atom_site_fract_x
_atom_site_fract_y
_atom_site_fract_z
Si Si1 0.568119 0.356349 0.379539
Si Si2 0.140488 0.564715 0.674989
Si Si3 0.581295 0.239983 0.613331
Si Si4 0.726023 0.435427 0.569179
Si Si5 0.873873 0.374546 0.678303
Si Si6 0.814256 0.718715 0.068456
Si Si7 0.570110 0.292762 0.801626
O O1 0.500000 0.362727 0.500000
O O2 0.745912 0.388375 0.314098
O O3 0.548440 0.290280 0.368266
O O4 0.430775 0.392652 0.372296
O O5 0.159491 0.500000 0.699227
O O6 0.203419 0.565835 0.552814
O O7 0.949552 0.587552 0.731034
O O8 0.750000 0.250000 0.500000
O O9 0.503185 0.178381 0.621429
O O10 0.606960 0.250859 0.707784
O O11 0.675051 0.500000 0.602464
O O12 0.853272 0.413705 0.601022
O O13 0.694566 0.345912 0.756258
O O14 0.629817 0.690211 0.146794
O O15 0.869197 0.761778 0.128563
O O16 0.750000 0.750000 0.000000
O O17 0.000000 0.687369 0.000000
#
# Coordination Sequence:
#
# PCOD9197829 Si02
#       7
#     8   8   8   8   8   8   8
#     4  10  21  34  51  71 102 160 214 252 283 324
#     4  10  22  37  53  71 103 163 230 265 281 313
#     4  12  26  35  51  83 135 173 195 223 287 365
#     4  10  20  36  53  70 102 160 223 260 280 313
#     4  12  24  34  52  80 120 154 205 238 293 342
#     4   9  20  41  65  81 109 152 193 251 306 359
#     4  11  22  37  56  88 116 157 196 237 289 364
#
# _framework density 19.700016000000002
#
# number of rings (size 3 to 8) (size 9 to 14) (size 15 to 20)
#    0.000    1.429    2.857    3.000    6.000    2.857 
#    0.000    0.714    0.000    0.000    0.000    0.000 
#    0.000   22.857    0.000    7.857    0.000    0.000 
#
# Total GULP energy -156047.344355 kJ/mol
# GULP energy per Si atom -5573.119441 kJ/mol
# Density = 1.965518 g / cm^3
# Si number density = 19.700016 Si / 1000 Ang^3
#
#
#
# Elastic Constant Matrix: (Units=GPa)
#
#
# Indices 1 2 3 4 5 6 
#
# 1 127.0317 11.3520 16.5452 0.0000 -12.4248 0.0000
# 2 11.3520 74.0433 -13.1648 0.0000 -1.4728 0.0000
# 3 16.5452 -13.1648 40.9117 0.0000 -5.2585 0.0000
# 4 0.0000 0.0000 0.0000 4.0467 0.0000 8.5310
# 5 -12.4248 -1.4728 -5.2585 0.0000 40.8626 0.0000
# 6 0.0000 0.0000 0.0000 8.5310 0.0000 6.6808
#
#
#
# Elastic Compliance Matrix: (Units=1/GPa)
#
#
# Indices 1 2 3 4 5 6 
#
# 1 0.008766 -0.001999 -0.003920 0.000000 0.002089 0.000000
# 2 -0.001999 0.014833 0.005666 0.000000 0.000656 0.000000
# 3 -0.003920 0.005666 0.028191 0.000000 0.002640 0.000000
# 4 0.000000 0.000000 0.000000 -0.146048 0.000000 0.186497
# 5 0.002089 0.000656 0.002640 0.000000 0.025471 0.000000
# 6 0.000000 0.000000 0.000000 0.186497 0.000000 -0.088464
#
#
# Mechanical properties :
#
#
# Convention : Reuss Voigt Hill
#
# Bulk Modulus (GPa) = 19.49999 30.16127 24.83063
# Shear Modulus (GPa) = -35.80317 25.46831 -5.16743
#
# Velocity S-wave (km/s) = -4.26774 3.59946 -1.62134
# Velocity P-wave (km/s) = 3.79011 5.71125 3.02105
#
# Compressibility (1/GPa) = 0.05128208
#
# Stress axis : x y z
#
# Youngs Moduli (GPa) = 114.08312 67.41935 35.47282
#
# Poissons Ratio (x) = 0.13479 0.13904
# Poissons Ratio (y) = 0.22808 -0.20098
# Poissons Ratio (z) = 0.44718 -0.38198
#
# Static dielectric constant tensor:
#      x y z
#    x 1.786570 0.000000 -0.022930 
#    y 0.000000 1.679120 0.000000 
#    z -0.022930 0.000000 1.787130 
# 
# From -- ./inp_files/198791.got.cif
#   From: 2010.05.17/outbox.cif.g08.bks.cpg/sg12_100_cif.got.tgz:198791.got - 2010.06.03 13:09:07.
