data_PCOD9197128
_publ_section_title
;
Structure prediction by ZEFSAII (Michael W. Deem and Ramdas Pophale) SiO2 
 PCOD9197128
Probable space group: C 2/M
;
_chemical_formula_sum "Si O2"
_cell_formula_units_Z 40
_cell_length_a 10.882279
_cell_length_b 18.700910
_cell_length_c 9.637173
_cell_angle_alpha 90.000000
_cell_angle_beta 109.692321
_cell_angle_gamma 90.000000
_cell_volume 1846.544698
_symmetry_space_group_name_H-M "C 2/M"
_symmetry_group_IT_number 12
_symmetry_cell_setting 'monoclinic'
loop_
_space_group_symop_operation_xyz
x,y,z
-x,y,-z
-x,-y,-z
x,-y,z
1/2+x,1/2+y,z
1/2-x,1/2+y,-z
1/2-x,1/2-y,-z
1/2+x,1/2-y,z
loop_
_atom_site_type_symbol
_atom_site_label
_atom_site_fract_x
_atom_site_fract_y
_atom_site_fract_z
Si Si1 0.135179 0.866549 0.188116
Si Si2 0.499467 0.500000 0.266809
Si Si3 0.920250 0.296768 0.783125
Si Si4 0.214346 0.000000 0.595355
Si Si5 0.140610 0.625310 0.494638
Si Si6 0.201851 0.668914 0.993514
O O1 0.074152 0.787137 0.175591
O O2 0.255880 0.865981 0.342985
O O3 0.198888 0.876795 0.060460
O O4 0.038158 0.929234 0.196069
O O5 0.600581 0.500000 0.435151
O O6 0.357101 0.500000 0.283367
O O7 0.881795 0.305075 0.608841
O O8 0.060397 0.332031 0.866241
O O9 0.822084 0.337111 0.851617
O O10 0.302418 0.932291 0.590749
O O11 0.000000 0.603234 0.500000
O O12 0.250000 0.750000 0.000000
#
# Coordination Sequence:
#
# PCOD9197128 Si02
#       6
#     8   4   8   4   8   8
#     4  10  20  37  60  86 116 152 192 238 285 347
#     4   9  20  38  57  81 116 159 195 228 289 350
#     4  10  20  35  58  88 117 148 190 239 292 339
#     4   9  21  38  55  83 120 159 182 237 298 345
#     4  11  20  36  59  90 116 146 195 239 289 340
#     4   9  19  36  56  80 117 153 183 231 293 338
#
# _framework density 21.66208
#
# number of rings (size 3 to 8) (size 9 to 14) (size 15 to 20)
#    0.000    2.200    2.000    0.900    0.000    3.200 
#    7.200    1.000    0.000   13.200    0.000    0.000 
#    0.000    0.000    0.000    0.000    0.000    0.000 
#
# Total GULP energy -111618.276415 kJ/mol
# GULP energy per Si atom -5580.913821 kJ/mol
# Density = 2.161278 g / cm^3
# Si number density = 21.662080 Si / 1000 Ang^3
#
#
#
# Elastic Constant Matrix: (Units=GPa)
#
#
# Indices 1 2 3 4 5 6 
#
# 1 140.7759 49.3148 59.8890 0.0000 -41.7325 0.0000
# 2 49.3148 79.1223 31.4011 0.0000 -27.7655 0.0000
# 3 59.8890 31.4011 107.3571 0.0000 -15.8897 0.0000
# 4 0.0000 0.0000 0.0000 16.0633 0.0000 -4.3806
# 5 -41.7325 -27.7655 -15.8897 0.0000 50.8277 0.0000
# 6 0.0000 0.0000 0.0000 -4.3806 0.0000 19.8950
#
#
#
# Elastic Compliance Matrix: (Units=1/GPa)
#
#
# Indices 1 2 3 4 5 6 
#
# 1 0.012396 -0.003393 -0.004918 0.000000 0.006787 0.000000
# 2 -0.003393 0.017903 -0.002421 0.000000 0.006237 0.000000
# 3 -0.004918 -0.002421 0.012554 0.000000 -0.001436 0.000000
# 4 0.000000 0.000000 0.000000 0.066231 0.000000 0.014583
# 5 0.006787 0.006237 -0.001436 0.000000 0.028205 0.000000
# 6 0.000000 0.000000 0.000000 0.014583 0.000000 0.053475
#
#
# Mechanical properties :
#
#
# Convention : Reuss Voigt Hill
#
# Bulk Modulus (GPa) = 46.75156 67.60722 57.17939
# Shear Modulus (GPa) = 22.79387 29.80056 26.29722
#
# Velocity S-wave (km/s) = 3.24736 3.71307 3.48799
# Velocity P-wave (km/s) = 5.97407 7.04700 6.53260
#
# Compressibility (1/GPa) = 0.02138966
#
# Stress axis : x y z
#
# Youngs Moduli (GPa) = 80.66843 55.85757 79.65638
#
# Poissons Ratio (x) = 0.18950 0.39178
# Poissons Ratio (y) = 0.27367 0.19282
# Poissons Ratio (z) = 0.39676 0.13521
#
# Static dielectric constant tensor:
#      x y z
#    x 1.810820 0.000000 -0.001800 
#    y 0.000000 1.756910 0.000000 
#    z -0.001800 0.000000 1.809790 
# 
# From -- ./inp_files/48821.got.cif
#   From: 2010.05.17/outbox.cif.g08.bks.cpg/sg12_25_cif.got.tgz:48821.got - 2010.06.03 13:09:07.
