data_PCOD9197288
_publ_section_title
;
Structure prediction by ZEFSAII (Michael W. Deem and Ramdas Pophale) SiO2 
 PCOD9197288
Probable space group: C 2/M
;
_chemical_formula_sum "Si O2"
_cell_formula_units_Z 64
_cell_length_a 31.541191
_cell_length_b 7.713826
_cell_length_c 18.875149
_cell_angle_alpha 90.000000
_cell_angle_beta 140.506376
_cell_angle_gamma 90.000000
_cell_volume 2920.721892
_symmetry_space_group_name_H-M "C 2/M"
_symmetry_group_IT_number 12
_symmetry_cell_setting 'monoclinic'
loop_
_space_group_symop_operation_xyz
x,y,z
-x,y,-z
-x,-y,-z
x,-y,z
1/2+x,1/2+y,z
1/2-x,1/2+y,-z
1/2-x,1/2-y,-z
1/2+x,1/2-y,z
loop_
_atom_site_type_symbol
_atom_site_label
_atom_site_fract_x
_atom_site_fract_y
_atom_site_fract_z
Si Si1 0.393735 0.199677 0.048963
Si Si2 0.395288 0.796823 0.489664
Si Si3 0.721863 0.209783 0.568161
Si Si4 0.534006 0.700037 0.718336
Si Si5 0.646061 0.796333 0.329352
Si Si6 0.005339 0.286804 0.088673
Si Si7 0.887676 0.209800 0.318655
Si Si8 0.753868 0.708860 0.921771
O O1 0.435733 0.202993 0.175898
O O2 0.441691 0.276196 0.051103
O O3 0.381748 0.000000 0.012830
O O4 0.321685 0.277915 0.974097
O O5 0.322337 0.737412 0.421470
O O6 0.454763 0.710294 0.609866
O O7 0.405963 0.769042 0.420415
O O8 0.399719 0.000000 0.511463
O O9 0.679908 0.272820 0.445049
O O10 0.796945 0.275796 0.656860
O O11 0.726208 0.000000 0.571613
O O12 0.554928 0.500000 0.753093
O O13 0.564331 0.766859 0.683273
O O14 0.574710 0.726110 0.213374
O O15 0.636005 0.000000 0.329597
O O16 0.005839 0.500000 0.091823
O O17 0.000000 0.237042 0.000000
O O18 0.813296 0.269081 0.202900
O O19 0.889858 0.000000 0.322730
O O20 0.755015 0.500000 0.918379
O O21 0.750000 0.750000 0.000000
#
# Coordination Sequence:
#
# PCOD9197288 Si02
#       8
#     8   8   8   8   8   8   8   8
#     4  10  20  35  59  86 111 147 193 234 275 330
#     4  11  23  37  55  81 112 146 185 228 277 335
#     4   9  19  35  53  77 108 138 175 225 273 321
#     4  11  22  37  57  80 112 148 183 231 284 332
#     4   9  17  32  56  79 103 139 179 221 268 323
#     4   9  18  33  54  83 114 143 181 230 277 323
#     4  10  22  38  54  79 114 148 183 229 280 328
#     4  10  20  36  58  82 111 146 186 231 274 324
#
# _framework density 21.912389999999998
#
# number of rings (size 3 to 8) (size 9 to 14) (size 15 to 20)
#    0.000    2.125    1.250    1.875    0.000    7.000 
#    0.000    5.625    0.000    1.500    0.000    0.000 
#    0.000    0.000    0.000    0.000    0.000    0.000 
#
# Total GULP energy -178757.183344 kJ/mol
# GULP energy per Si atom -5586.161979 kJ/mol
# Density = 2.186252 g / cm^3
# Si number density = 21.912390 Si / 1000 Ang^3
#
#
#
# Elastic Constant Matrix: (Units=GPa)
#
#
# Indices 1 2 3 4 5 6 
#
# 1 137.6352 -1.4141 12.4532 0.0000 16.6455 0.0000
# 2 -1.4141 37.1179 -1.4617 0.0000 1.4649 0.0000
# 3 12.4532 -1.4617 53.6485 0.0000 19.9931 0.0000
# 4 0.0000 0.0000 0.0000 7.1193 0.0000 -0.0811
# 5 16.6455 1.4649 19.9931 0.0000 32.8507 0.0000
# 6 0.0000 0.0000 0.0000 -0.0811 0.0000 19.6786
#
#
#
# Elastic Compliance Matrix: (Units=1/GPa)
#
#
# Indices 1 2 3 4 5 6 
#
# 1 0.007754 0.000425 -0.000410 0.000000 -0.003699 0.000000
# 2 0.000425 0.027110 0.001514 0.000000 -0.002346 0.000000
# 3 -0.000410 0.001514 0.024216 0.000000 -0.014598 0.000000
# 4 0.000000 0.000000 0.000000 0.140471 0.000000 0.000579
# 5 -0.003699 -0.002346 -0.014598 0.000000 0.041304 0.000000
# 6 0.000000 0.000000 0.000000 0.000579 0.000000 0.050819
#
#
# Mechanical properties :
#
#
# Convention : Reuss Voigt Hill
#
# Bulk Modulus (GPa) = 16.09296 27.50628 21.79962
# Shear Modulus (GPa) = 16.16406 26.51799 21.34102
#
# Velocity S-wave (km/s) = 2.71895 3.48254 3.12416
# Velocity P-wave (km/s) = 4.14935 5.36199 4.79416
#
# Compressibility (1/GPa) = 0.06213899
#
# Stress axis : x y z
#
# Youngs Moduli (GPa) = 128.95981 36.88736 41.29420
#
# Poissons Ratio (x) = -0.01569 0.01693
# Poissons Ratio (y) = -0.05484 -0.06253
# Poissons Ratio (z) = 0.05288 -0.05585
#
# Static dielectric constant tensor:
#      x y z
#    x 1.816210 0.000000 0.026610 
#    y 0.000000 1.841970 0.000000 
#    z 0.026610 0.000000 1.761720 
# 
# From -- ./inp_files/295864.got.cif
#   From: 2010.05.17/outbox.cif.g08.bks.cpg/sg12_148_cif.got.tgz:295864.got - 2010.06.03 13:09:07.
