data_PCOD9197248
_publ_section_title
;
Structure prediction by ZEFSAII (Michael W. Deem and Ramdas Pophale) SiO2 
 PCOD9197248
Probable space group: C 2/M
;
_chemical_formula_sum "Si O2"
_cell_formula_units_Z 52
_cell_length_a 28.828447
_cell_length_b 20.134316
_cell_length_c 14.296035
_cell_angle_alpha 90.000000
_cell_angle_beta 160.504708
_cell_angle_gamma 90.000000
_cell_volume 2769.288484
_symmetry_space_group_name_H-M "C 2/M"
_symmetry_group_IT_number 12
_symmetry_cell_setting 'monoclinic'
loop_
_space_group_symop_operation_xyz
x,y,z
-x,y,-z
-x,-y,-z
x,-y,z
1/2+x,1/2+y,z
1/2-x,1/2+y,-z
1/2-x,1/2-y,-z
1/2+x,1/2-y,z
loop_
_atom_site_type_symbol
_atom_site_label
_atom_site_fract_x
_atom_site_fract_y
_atom_site_fract_z
Si Si1 0.064041 0.294480 0.791694
Si Si2 0.172714 0.632759 0.574061
Si Si3 0.826330 0.874882 0.292359
Si Si4 0.519231 0.663094 0.819464
Si Si5 0.217142 0.500000 0.973315
Si Si6 0.500000 0.728638 0.500000
Si Si7 0.094255 0.500000 0.531723
Si Si8 0.110680 0.267640 0.289372
O O1 0.904916 0.318303 0.499447
O O2 0.077679 0.226662 0.873534
O O3 0.091331 0.276852 0.737023
O O4 0.175640 0.347627 0.037271
O O5 0.119177 0.562897 0.511908
O O6 0.126558 0.670459 0.390963
O O7 0.338784 0.627420 0.883131
O O8 0.921549 0.880843 0.566254
O O9 0.905967 0.818361 0.385063
O O10 0.798354 0.936596 0.170497
O O11 0.436667 0.701174 0.744354
O O12 0.192271 0.500000 0.812861
O O13 0.062407 0.500000 0.724785
O O14 0.250000 0.250000 0.500000
O O15 0.000000 0.284299 0.000000
#
# Coordination Sequence:
#
# PCOD9197248 Si02
#       8
#     8   8   8   8   4   4   4   8
#     4  10  20  35  59  83 120 161 207 262 321 372
#     4  11  23  41  63  90 129 163 211 257 324 381
#     4  11  23  38  56  86 125 164 220 261 307 370
#     4  10  22  38  60  98 126 158 199 266 332 369
#     4  11  26  42  61  88 121 191 236 251 285 380
#     4  10  22  31  56  85 118 156 206 276 330 356
#     4  11  26  43  65  84 131 181 223 262 302 367
#     4  11  22  40  71 103 128 156 200 267 332 401
#
# _framework density 18.777384999999999
#
# number of rings (size 3 to 8) (size 9 to 14) (size 15 to 20)
#    0.000    1.385    3.077    3.231    8.615    0.923 
#    0.000    0.385    0.000    2.769    0.000    0.000 
#    0.000    0.000    0.000    0.000    0.000    0.000 
#
# Total GULP energy -144812.974675 kJ/mol
# GULP energy per Si atom -5569.729795 kJ/mol
# Density = 1.873465 g / cm^3
# Si number density = 18.777385 Si / 1000 Ang^3
#
#
#
# Elastic Constant Matrix: (Units=GPa)
#
#
# Indices 1 2 3 4 5 6 
#
# 1 103.2176 30.0617 49.6795 0.0000 -5.9628 0.0000
# 2 30.0617 74.1800 33.4654 0.0000 -15.2504 0.0000
# 3 49.6795 33.4654 125.8196 0.0000 -4.5984 0.0000
# 4 0.0000 0.0000 0.0000 21.6472 0.0000 -0.7629
# 5 -5.9628 -15.2504 -4.5984 0.0000 26.2953 0.0000
# 6 0.0000 0.0000 0.0000 -0.7629 0.0000 21.3885
#
#
#
# Elastic Compliance Matrix: (Units=1/GPa)
#
#
# Indices 1 2 3 4 5 6 
#
# 1 0.012620 -0.003195 -0.004122 0.000000 0.000288 0.000000
# 2 -0.003195 0.018126 -0.003222 0.000000 0.009224 0.000000
# 3 -0.004122 -0.003222 0.010397 0.000000 -0.000986 0.000000
# 4 0.000000 0.000000 0.000000 0.046254 0.000000 0.001650
# 5 0.000288 0.009224 -0.000986 0.000000 0.043272 0.000000
# 6 0.000000 0.000000 0.000000 0.001650 0.000000 0.046813
#
#
# Mechanical properties :
#
#
# Convention : Reuss Voigt Hill
#
# Bulk Modulus (GPa) = 49.84542 58.84782 54.34662
# Shear Modulus (GPa) = 24.36078 26.53358 25.44718
#
# Velocity S-wave (km/s) = 3.60578 3.76315 3.68530
# Velocity P-wave (km/s) = 6.62862 7.09151 6.86397
#
# Compressibility (1/GPa) = 0.02006202
#
# Stress axis : x y z
#
# Youngs Moduli (GPa) = 79.24153 55.17034 96.18458
#
# Poissons Ratio (x) = 0.17628 0.39652
# Poissons Ratio (y) = 0.25319 0.30994
# Poissons Ratio (z) = 0.32667 0.17778
#
# Static dielectric constant tensor:
#      x y z
#    x 1.655640 0.000000 -0.016060 
#    y 0.000000 1.674860 0.000000 
#    z -0.016060 0.000000 1.711130 
# 
# From -- ./inp_files/251831.got.cif
#   From: 2010.05.17/outbox.cif.g08.bks.cpg/sg12_126_cif.got.tgz:251831.got - 2010.06.03 13:09:07.
