data_PCOD9197038
_publ_section_title
;
Structure prediction by ZEFSAII (Michael W. Deem and Ramdas Pophale) SiO2 
 PCOD9197038
Probable space group: C 2/M
;
_chemical_formula_sum "Si O2"
_cell_formula_units_Z 48
_cell_length_a 25.564803
_cell_length_b 8.883782
_cell_length_c 12.741180
_cell_angle_alpha 90.000000
_cell_angle_beta 109.262736
_cell_angle_gamma 90.000000
_cell_volume 2731.676188
_symmetry_space_group_name_H-M "C 2/M"
_symmetry_group_IT_number 12
_symmetry_cell_setting 'monoclinic'
loop_
_space_group_symop_operation_xyz
x,y,z
-x,y,-z
-x,-y,-z
x,-y,z
1/2+x,1/2+y,z
1/2-x,1/2+y,-z
1/2-x,1/2-y,-z
1/2+x,1/2-y,z
loop_
_atom_site_type_symbol
_atom_site_label
_atom_site_fract_x
_atom_site_fract_y
_atom_site_fract_z
Si Si1 0.372719 0.319762 0.378632
Si Si2 0.560578 0.319924 0.994581
Si Si3 0.134120 0.319318 0.223136
Si Si4 0.747113 0.318683 0.614011
Si Si5 0.937977 0.319746 0.234141
Si Si6 0.937098 0.319799 0.615172
O O1 0.252354 0.500000 0.395582
O O2 0.310113 0.274809 0.368128
O O3 0.393536 0.246269 0.285215
O O4 0.412365 0.264169 0.498822
O O5 0.562716 0.500000 0.987532
O O6 0.567918 0.247095 0.885654
O O7 0.500000 0.277247 0.000000
O O8 0.605901 0.261616 0.106773
O O9 0.131202 0.500000 0.205766
O O10 0.197696 0.275561 0.285976
O O11 0.099458 0.284903 0.306036
O O12 0.624908 0.500000 0.627799
O O13 0.750000 0.250000 0.500000
O O14 0.934293 0.500000 0.227548
O O15 0.999335 0.280746 0.318475
O O16 0.933812 0.500000 0.594538
#
# Coordination Sequence:
#
# PCOD9197038 Si02
#       6
#     8   8   8   8   8   8
#     4  11  23  37  56  86 121 153 188 236 290 337
#     4  11  23  38  59  87 118 148 185 237 291 340
#     4  10  20  37  60  86 115 149 192 236 278 335
#     4  10  21  37  59  85 115 151 191 235 281 335
#     4  11  23  39  59  83 115 156 196 232 279 343
#     4  10  20  35  58  86 116 151 191 233 280 341
#
# _framework density 17.571629999999999
#
# number of rings (size 3 to 8) (size 9 to 14) (size 15 to 20)
#    0.000    1.500    3.333    2.000    0.000    6.000 
#    0.000    0.833    0.000    0.000    0.000    0.000 
#    0.000    0.000    0.000    0.000    0.000    0.000 
#
# Total GULP energy -134125.401355 kJ/mol
# GULP energy per Si atom -5588.558390 kJ/mol
# Density = 1.753164 g / cm^3
# Si number density = 17.571630 Si / 1000 Ang^3
#
#
#
# Elastic Constant Matrix: (Units=GPa)
#
#
# Indices 1 2 3 4 5 6 
#
# 1 140.0525 52.1024 105.1189 0.0000 -11.2371 0.0000
# 2 52.1024 39.8001 59.8012 0.0000 -5.4385 0.0000
# 3 105.1189 59.8012 158.6950 0.0000 -3.2301 0.0000
# 4 0.0000 0.0000 0.0000 33.6652 0.0000 -5.7667
# 5 -11.2371 -5.4385 -3.2301 0.0000 32.4681 0.0000
# 6 0.0000 0.0000 0.0000 -5.7667 0.0000 22.8574
#
#
#
# Elastic Compliance Matrix: (Units=1/GPa)
#
#
# Indices 1 2 3 4 5 6 
#
# 1 0.016605 -0.011231 -0.006702 0.000000 0.003199 0.000000
# 2 -0.011231 0.067421 -0.017853 0.000000 0.005630 0.000000
# 3 -0.006702 -0.017853 0.017395 0.000000 -0.003579 0.000000
# 4 0.000000 0.000000 0.000000 0.031046 0.000000 0.007833
# 5 0.003199 0.005630 -0.003579 0.000000 0.032494 0.000000
# 6 0.000000 0.000000 0.000000 0.007833 0.000000 0.045726
#
#
# Mechanical properties :
#
#
# Convention : Reuss Voigt Hill
#
# Bulk Modulus (GPa) = 33.49962 85.84361 59.67162
# Shear Modulus (GPa) = 17.11109 25.89984 21.50546
#
# Velocity S-wave (km/s) = 3.12395 3.84338 3.50219
# Velocity P-wave (km/s) = 5.66728 8.28583 7.09835
#
# Compressibility (1/GPa) = 0.02985108
#
# Stress axis : x y z
#
# Youngs Moduli (GPa) = 60.22180 14.83212 57.48651
#
# Poissons Ratio (x) = 0.16658 0.38528
# Poissons Ratio (y) = 0.67633 1.02628
# Poissons Ratio (z) = 0.40361 0.26479
#
# Static dielectric constant tensor:
#      x y z
#    x 1.596570 0.000000 0.006750 
#    y 0.000000 1.588960 0.000000 
#    z 0.006750 0.000000 1.554210 
# 
# From -- ./inp_files/172205.got.cif
#   From: 2010.05.17/outbox.cif.g08.bks.cpg/sg12_87_cif.got.tgz:172205.got - 2010.06.03 13:09:07.
