data_PCOD9197742
_publ_section_title
;
Structure prediction by ZEFSAII (Michael W. Deem and Ramdas Pophale) SiO2 
 PCOD9197742
Probable space group: C 2/M
;
_chemical_formula_sum "Si O2"
_cell_formula_units_Z 44
_cell_length_a 14.204941
_cell_length_b 20.690911
_cell_length_c 8.919196
_cell_angle_alpha 90.000000
_cell_angle_beta 48.167720
_cell_angle_gamma 90.000000
_cell_volume 1953.257628
_symmetry_space_group_name_H-M "C 2/M"
_symmetry_group_IT_number 12
_symmetry_cell_setting 'monoclinic'
loop_
_space_group_symop_operation_xyz
x,y,z
-x,y,-z
-x,-y,-z
x,-y,z
1/2+x,1/2+y,z
1/2-x,1/2+y,-z
1/2-x,1/2-y,-z
1/2+x,1/2-y,z
loop_
_atom_site_type_symbol
_atom_site_label
_atom_site_fract_x
_atom_site_fract_y
_atom_site_fract_z
Si Si1 0.120769 0.237108 0.762126
Si Si2 0.862043 0.287177 0.713847
Si Si3 0.754128 0.000000 0.497691
Si Si4 0.292164 0.355287 0.881995
Si Si5 0.030515 0.893182 0.789590
Si Si6 0.629624 0.881926 0.770064
O O1 0.243591 0.216406 0.725608
O O2 0.133438 0.310309 0.692736
O O3 0.087347 0.177752 0.691414
O O4 0.000000 0.241426 0.000000
O O5 0.854906 0.215260 0.791226
O O6 0.000000 0.298920 0.500000
O O7 0.821890 0.339574 0.881798
O O8 0.651132 0.941931 0.639847
O O9 0.864240 0.944626 0.357469
O O10 0.399261 0.399889 0.840666
O O11 0.237874 0.381461 0.784465
O O12 0.000000 0.895034 0.000000
O O13 0.500000 0.888230 0.000000
#
# Coordination Sequence:
#
# PCOD9197742 Si02
#       6
#     8   8   4   8   8   8
#     4   9  18  40  66  95 130 166 220 274 334 385
#     4  10  20  35  63 102 140 166 214 283 341 390
#     4  12  28  43  68  93 138 182 232 271 343 418
#     4  10  22  40  66  98 141 171 218 284 335 400
#     4  11  23  44  68  96 133 178 228 278 337 404
#     4  10  24  44  66  98 134 177 223 281 344 401
#
# _framework density 22.526471000000001
#
# number of rings (size 3 to 8) (size 9 to 14) (size 15 to 20)
#    0.000    1.818    3.636    0.545    7.636    3.636 
#    0.000    0.000    0.000    1.091    0.000    0.000 
#    0.000    0.000    0.000    0.000    0.000    0.000 
#
# Total GULP energy -122502.396544 kJ/mol
# GULP energy per Si atom -5568.290752 kJ/mol
# Density = 2.247520 g / cm^3
# Si number density = 22.526471 Si / 1000 Ang^3
#
#
#
# Elastic Constant Matrix: (Units=GPa)
#
#
# Indices 1 2 3 4 5 6 
#
# 1 77.4726 11.0708 19.0548 0.0000 -19.6958 0.0000
# 2 11.0708 121.1944 10.3399 0.0000 0.5550 0.0000
# 3 19.0548 10.3399 134.6537 0.0000 -13.3357 0.0000
# 4 0.0000 0.0000 0.0000 40.4555 0.0000 -22.1701
# 5 -19.6958 0.5550 -13.3357 0.0000 22.9837 0.0000
# 6 0.0000 0.0000 0.0000 -22.1701 0.0000 4.2596
#
#
#
# Elastic Compliance Matrix: (Units=1/GPa)
#
#
# Indices 1 2 3 4 5 6 
#
# 1 0.016907 -0.001533 -0.000887 0.000000 0.014011 0.000000
# 2 -0.001533 0.008453 -0.000618 0.000000 -0.001876 0.000000
# 3 -0.000887 -0.000618 0.007984 0.000000 0.003887 0.000000
# 4 0.000000 0.000000 0.000000 -0.013345 0.000000 -0.069458
# 5 0.014011 -0.001876 0.003887 0.000000 0.057816 0.000000
# 6 0.000000 0.000000 0.000000 -0.069458 0.000000 -0.126745
#
#
# Mechanical properties :
#
#
# Convention : Reuss Voigt Hill
#
# Bulk Modulus (GPa) = 36.67323 46.02796 41.35060
# Shear Modulus (GPa) = -148.08688 33.06344 -57.51172
#
# Velocity S-wave (km/s) = -8.11676 3.83529 -5.05828
# Velocity P-wave (km/s) = 8.45736 6.33165 3.96467
#
# Compressibility (1/GPa) = 0.02726785
#
# Stress axis : x y z
#
# Youngs Moduli (GPa) = 59.14726 118.30756 125.24338
#
# Poissons Ratio (x) = 0.18135 0.11112
# Poissons Ratio (y) = 0.09067 0.07740
# Poissons Ratio (z) = 0.05248 0.07311
#
# Static dielectric constant tensor:
#      x y z
#    x 1.878510 0.000000 -0.004700 
#    y 0.000000 1.815510 0.000000 
#    z -0.004700 0.000000 1.898200 
# 
# From -- ./inp_files/147496.got.cif
#   From: 2010.05.17/outbox.cif.g08.bks.cpg/sg12_74_cif.got.tgz:147496.got - 2010.06.03 13:09:07.
