data_PCOD9197209
_publ_section_title
;
Structure prediction by ZEFSAII (Michael W. Deem and Ramdas Pophale) SiO2 
 PCOD9197209
Probable space group: C 2/M
;
_chemical_formula_sum "Si O2"
_cell_formula_units_Z 50
_cell_length_a 21.171280
_cell_length_b 7.929483
_cell_length_c 19.408114
_cell_angle_alpha 90.000000
_cell_angle_beta 126.106771
_cell_angle_gamma 90.000000
_cell_volume 2632.351109
_symmetry_space_group_name_H-M "C 2/M"
_symmetry_group_IT_number 12
_symmetry_cell_setting 'monoclinic'
loop_
_space_group_symop_operation_xyz
x,y,z
-x,y,-z
-x,-y,-z
x,-y,z
1/2+x,1/2+y,z
1/2-x,1/2+y,-z
1/2-x,1/2-y,-z
1/2+x,1/2-y,z
loop_
_atom_site_type_symbol
_atom_site_label
_atom_site_fract_x
_atom_site_fract_y
_atom_site_fract_z
Si Si1 0.123205 0.302424 0.103972
Si Si2 0.208615 0.806051 0.543112
Si Si3 0.738345 0.701118 0.913614
Si Si4 0.612719 0.698664 0.726878
Si Si5 0.000000 0.000000 0.000000
Si Si6 0.249720 0.305558 0.716309
Si Si7 0.534387 0.197359 0.448901
O O1 0.097789 0.500000 0.078895
O O2 0.185222 0.258813 0.082644
O O3 0.174808 0.289192 0.206286
O O4 0.060659 0.152878 0.063697
O O5 0.250000 0.750000 0.500000
O O6 0.239619 0.704303 0.628577
O O7 0.115082 0.783842 0.480278
O O8 0.227049 0.000000 0.568265
O O9 0.731074 0.500000 0.906016
O O10 0.660493 0.766447 0.824270
O O11 0.750000 0.750000 0.000000
O O12 0.597423 0.500000 0.726111
O O13 0.674105 0.723907 0.703997
O O14 0.532473 0.782858 0.651659
O O15 0.253267 0.500000 0.740867
O O16 0.500000 0.262341 0.500000
O O17 0.552158 0.000000 0.470631
#
# Coordination Sequence:
#
# PCOD9197209 Si02
#       7
#     8   8   8   8   2   8   8
#     4  10  22  40  62  95 125 160 213 261 310 375
#     4  12  25  41  62  88 125 167 207 258 314 377
#     4   9  20  36  60  90 125 160 204 256 313 373
#     4  10  20  35  58  91 122 158 204 260 310 362
#     4  12  22  40  64  94 120 170 210 260 316 370
#     4  11  20  37  62  91 120 160 210 255 309 375
#     4  11  22  37  60  93 123 157 206 259 306 369
#
# _framework density 18.994427000000002
#
# number of rings (size 3 to 8) (size 9 to 14) (size 15 to 20)
#    0.000    1.440    2.400    5.040    1.120    1.920 
#    0.000    1.600    0.000    1.920    0.000    0.000 
#    0.000    0.000    0.000    0.000    0.000    0.000 
#
# Total GULP energy -139258.766083 kJ/mol
# GULP energy per Si atom -5570.350643 kJ/mol
# Density = 1.895119 g / cm^3
# Si number density = 18.994427 Si / 1000 Ang^3
#
#
#
# Elastic Constant Matrix: (Units=GPa)
#
#
# Indices 1 2 3 4 5 6 
#
# 1 61.4721 5.5749 48.4246 0.0000 4.9096 0.0000
# 2 5.5749 78.5094 1.9665 0.0000 14.5462 0.0000
# 3 48.4246 1.9665 124.8602 0.0000 -1.9591 0.0000
# 4 0.0000 0.0000 0.0000 33.9229 0.0000 3.8798
# 5 4.9096 14.5462 -1.9591 0.0000 29.3145 0.0000
# 6 0.0000 0.0000 0.0000 3.8798 0.0000 23.5572
#
#
#
# Elastic Compliance Matrix: (Units=1/GPa)
#
#
# Indices 1 2 3 4 5 6 
#
# 1 0.024074 -0.000673 -0.009394 0.000000 -0.004326 0.000000
# 2 -0.000673 0.014059 -0.000068 0.000000 -0.006868 0.000000
# 3 -0.009394 -0.000068 0.011691 0.000000 0.002388 0.000000
# 4 0.000000 0.000000 0.000000 0.030045 0.000000 -0.004948
# 5 -0.004326 -0.006868 0.002388 0.000000 0.038405 0.000000
# 6 0.000000 0.000000 0.000000 -0.004948 0.000000 0.043265
#
#
# Mechanical properties :
#
#
# Convention : Reuss Voigt Hill
#
# Bulk Modulus (GPa) = 33.83596 41.86375 37.84986
# Shear Modulus (GPa) = 26.08784 31.28396 28.68590
#
# Velocity S-wave (km/s) = 3.71003 4.06274 3.89038
# Velocity P-wave (km/s) = 6.01703 6.64045 6.33642
#
# Compressibility (1/GPa) = 0.02955436
#
# Stress axis : x y z
#
# Youngs Moduli (GPa) = 41.53835 71.12691 85.53751
#
# Poissons Ratio (x) = 0.04785 0.80354
# Poissons Ratio (y) = 0.02794 0.00584
# Poissons Ratio (z) = 0.39021 0.00486
#
# Static dielectric constant tensor:
#      x y z
#    x 1.687890 0.000000 -0.102230 
#    y 0.000000 1.669860 0.000000 
#    z -0.102230 0.000000 1.906540 
# 
# From -- ./inp_files/275795.got.cif
#   From: 2010.05.17/outbox.cif.g08.bks.cpg/sg12_138_cif.got.tgz:275795.got - 2010.06.03 13:09:07.
