data_PCOD9197394
_publ_section_title
;
Structure prediction by ZEFSAII (Michael W. Deem and Ramdas Pophale) SiO2 
 PCOD9197394
Probable space group: C 2/M
;
_chemical_formula_sum "Si O2"
_cell_formula_units_Z 48
_cell_length_a 25.487023
_cell_length_b 8.817014
_cell_length_c 12.626366
_cell_angle_alpha 90.000000
_cell_angle_beta 70.707007
_cell_angle_gamma 90.000000
_cell_volume 2678.045936
_symmetry_space_group_name_H-M "C 2/M"
_symmetry_group_IT_number 12
_symmetry_cell_setting 'monoclinic'
loop_
_space_group_symop_operation_xyz
x,y,z
-x,y,-z
-x,-y,-z
x,-y,z
1/2+x,1/2+y,z
1/2-x,1/2+y,-z
1/2-x,1/2-y,-z
1/2+x,1/2-y,z
loop_
_atom_site_type_symbol
_atom_site_label
_atom_site_fract_x
_atom_site_fract_y
_atom_site_fract_z
Si Si1 0.503754 0.818788 0.372881
Si Si2 0.191766 0.819149 0.758119
Si Si3 0.693501 0.819297 0.989343
Si Si4 0.611043 0.682242 0.622562
Si Si5 0.807860 0.181285 0.625557
Si Si6 0.618127 0.680857 0.215750
O O1 0.500000 0.777292 0.500000
O O2 0.447237 0.764043 0.355678
O O3 0.557400 0.740176 0.286501
O O4 0.509424 0.000000 0.361850
O O5 0.141713 0.781509 0.711792
O O6 0.249692 0.767493 0.666771
O O7 0.192755 0.000000 0.773058
O O8 0.187004 0.737921 0.873976
O O9 0.643592 0.761552 0.096482
O O10 0.697467 0.000000 0.988958
O O11 0.750000 0.750000 0.000000
O O12 0.602642 0.500000 0.622632
O O13 0.652910 0.723273 0.498897
O O14 0.841181 0.213033 0.711791
O O15 0.797603 0.000000 0.627446
O O16 0.617349 0.500000 0.200602
#
# Coordination Sequence:
#
# PCOD9197394 Si02
#       6
#     8   8   8   8   8   8
#     4  11  23  38  60  90 122 158 200 246 294 349
#     4  11  23  38  60  89 123 159 199 246 299 355
#     4  12  24  40  62  87 120 157 200 247 295 352
#     4  10  22  40  60  87 122 162 201 242 297 358
#     4  10  20  35  59  89 122 158 196 241 299 355
#     4  11  22  38  63  91 120 154 199 248 295 351
#
# _framework density 17.923517
#
# number of rings (size 3 to 8) (size 9 to 14) (size 15 to 20)
#    0.000    1.167    3.333    3.500    0.000    3.333 
#    0.000    0.833    0.000    5.000    0.000    0.000 
#    0.000    0.000    0.000    0.000    0.000    0.000 
#
# Total GULP energy -134211.429789 kJ/mol
# GULP energy per Si atom -5592.142908 kJ/mol
# Density = 1.788272 g / cm^3
# Si number density = 17.923517 Si / 1000 Ang^3
#
#
#
# Elastic Constant Matrix: (Units=GPa)
#
#
# Indices 1 2 3 4 5 6 
#
# 1 128.9422 59.0962 38.6627 0.0000 -5.0220 0.0000
# 2 59.0962 69.5526 32.5363 0.0000 0.7867 0.0000
# 3 38.6627 32.5363 65.9575 0.0000 -7.3079 0.0000
# 4 0.0000 0.0000 0.0000 31.1472 0.0000 -5.4611
# 5 -5.0220 0.7867 -7.3079 0.0000 29.0692 0.0000
# 6 0.0000 0.0000 0.0000 -5.4611 0.0000 32.1595
#
#
#
# Elastic Compliance Matrix: (Units=1/GPa)
#
#
# Indices 1 2 3 4 5 6 
#
# 1 0.013200 -0.010031 -0.002578 0.000000 0.001904 0.000000
# 2 -0.010031 0.026555 -0.007706 0.000000 -0.004389 0.000000
# 3 -0.002578 -0.007706 0.021033 0.000000 0.005051 0.000000
# 4 0.000000 0.000000 0.000000 0.033091 0.000000 0.005619
# 5 0.001904 -0.004389 0.005051 0.000000 0.036118 0.000000
# 6 0.000000 0.000000 0.000000 0.005619 0.000000 0.032049
#
#
# Mechanical properties :
#
#
# Convention : Reuss Voigt Hill
#
# Bulk Modulus (GPa) = 49.60747 58.33809 53.97278
# Shear Modulus (GPa) = 23.87822 27.41900 25.64861
#
# Velocity S-wave (km/s) = 3.65393 3.91548 3.78696
# Velocity P-wave (km/s) = 6.74826 7.28425 7.02137
#
# Compressibility (1/GPa) = 0.02015825
#
# Stress axis : x y z
#
# Youngs Moduli (GPa) = 75.75746 37.65794 47.54333
#
# Poissons Ratio (x) = 0.37774 0.12259
# Poissons Ratio (y) = 0.75992 0.36635
# Poissons Ratio (z) = 0.19534 0.29018
#
# Static dielectric constant tensor:
#      x y z
#    x 1.580250 0.000000 0.006430 
#    y 0.000000 1.597270 0.000000 
#    z 0.006430 0.000000 1.596920 
# 
# From -- ./inp_files/172123.got.cif
#   From: 2010.05.17/outbox.cif.g08.bks.cpg/sg12_87_cif.got.tgz:172123.got - 2010.06.03 13:09:07.
