data_PCOD9197891
_publ_section_title
;
Structure prediction by ZEFSAII (Michael W. Deem and Ramdas Pophale) SiO2 
 PCOD9197891
Probable space group: C 2/M
;
_chemical_formula_sum "Si O2"
_cell_formula_units_Z 34
_cell_length_a 13.647386
_cell_length_b 18.960678
_cell_length_c 6.899373
_cell_angle_alpha 90.000000
_cell_angle_beta 132.417475
_cell_angle_gamma 90.000000
_cell_volume 1318.002429
_symmetry_space_group_name_H-M "C 2/M"
_symmetry_group_IT_number 12
_symmetry_cell_setting 'monoclinic'
loop_
_space_group_symop_operation_xyz
x,y,z
-x,y,-z
-x,-y,-z
x,-y,z
1/2+x,1/2+y,z
1/2-x,1/2+y,-z
1/2-x,1/2-y,-z
1/2+x,1/2-y,z
loop_
_atom_site_type_symbol
_atom_site_label
_atom_site_fract_x
_atom_site_fract_y
_atom_site_fract_z
Si Si1 0.500000 0.000000 0.500000
Si Si2 0.619661 0.883113 0.870453
Si Si3 0.823382 0.000000 0.083801
Si Si4 0.616353 0.500000 0.370360
Si Si5 0.263914 0.359508 0.460464
Si Si6 0.456058 0.757705 0.714522
O O1 0.500267 0.936783 0.667225
O O2 0.574817 0.802314 0.773883
O O3 0.668662 0.879093 0.155622
O O4 0.735024 0.930437 0.925805
O O5 0.853140 0.000000 0.354771
O O6 0.959157 0.000000 0.152715
O O7 0.681396 0.430111 0.376318
O O8 0.395171 0.316237 0.564610
O O9 0.172738 0.308861 0.466607
O O10 0.500000 0.747620 0.000000
#
# Coordination Sequence:
#
# PCOD9197891 Si02
#       6
#     2   8   4   4   8   8
#     4  10  20  36  54  82 110 138 188 230 266 332
#     4   9  18  35  55  76 109 145 179 231 276 317
#     4   8  16  31  49  73 104 139 183 224 260 322
#     4   9  16  30  52  77 107 145 181 221 275 325
#     4   9  18  34  58  84 110 143 183 234 288 333
#     4   9  18  35  57  83 113 143 185 233 279 335
#
# _framework density 25.796614999999999
#
# number of rings (size 3 to 8) (size 9 to 14) (size 15 to 20)
#    0.000    3.059    0.000    0.706    0.000    1.882 
#    0.000   31.765    0.000    0.000    0.000    0.000 
#    0.000    0.000    0.000    0.000    0.000    0.000 
#
# Total GULP energy -94634.345120 kJ/mol
# GULP energy per Si atom -5566.726184 kJ/mol
# Density = 2.573790 g / cm^3
# Si number density = 25.796615 Si / 1000 Ang^3
#
#
#
# Elastic Constant Matrix: (Units=GPa)
#
#
# Indices 1 2 3 4 5 6 
#
# 1 91.0412 23.0052 31.3248 0.0000 0.5874 0.0000
# 2 23.0052 159.1172 45.3102 0.0000 4.6522 0.0000
# 3 31.3248 45.3102 112.8755 0.0000 2.8037 0.0000
# 4 0.0000 0.0000 0.0000 30.5919 0.0000 6.8537
# 5 0.5874 4.6522 2.8037 0.0000 40.6735 0.0000
# 6 0.0000 0.0000 0.0000 6.8537 0.0000 40.0507
#
#
#
# Elastic Compliance Matrix: (Units=1/GPa)
#
#
# Indices 1 2 3 4 5 6 
#
# 1 0.012259 -0.000911 -0.003040 0.000000 0.000137 0.000000
# 2 -0.000911 0.007179 -0.002613 0.000000 -0.000628 0.000000
# 3 -0.003040 -0.002613 0.010762 0.000000 -0.000399 0.000000
# 4 0.000000 0.000000 0.000000 0.033992 0.000000 -0.005817
# 5 0.000137 -0.000628 -0.000399 0.000000 0.024683 0.000000
# 6 0.000000 0.000000 0.000000 -0.005817 0.000000 0.025964
#
#
# Mechanical properties :
#
#
# Convention : Reuss Voigt Hill
#
# Bulk Modulus (GPa) = 58.57589 62.47935 60.52762
# Shear Modulus (GPa) = 37.40901 39.82280 38.61590
#
# Velocity S-wave (km/s) = 3.81222 3.93328 3.87322
# Velocity P-wave (km/s) = 6.49103 6.70076 6.59673
#
# Compressibility (1/GPa) = 0.01707187
#
# Stress axis : x y z
#
# Youngs Moduli (GPa) = 81.57101 139.29705 92.92021
#
# Poissons Ratio (x) = 0.12687 0.28247
# Poissons Ratio (y) = 0.07429 0.24284
# Poissons Ratio (z) = 0.24797 0.36404
#
# Static dielectric constant tensor:
#      x y z
#    x 2.098070 0.000000 0.055750 
#    y 0.000000 2.030430 0.000000 
#    z 0.055750 0.000000 2.199500 
# 
# From -- ./inp_files/75621.got.cif
#   From: 2010.05.17/outbox.cif.g08.bks.cpg/sg12_38_cif.got.tgz:75621.got - 2010.06.03 13:09:07.
