data_PCOD9197446
_publ_section_title
;
Structure prediction by ZEFSAII (Michael W. Deem and Ramdas Pophale) SiO2 
 PCOD9197446
Probable space group: C 2/M
;
_chemical_formula_sum "Si O2"
_cell_formula_units_Z 40
_cell_length_a 15.361100
_cell_length_b 13.450430
_cell_length_c 12.077912
_cell_angle_alpha 90.000000
_cell_angle_beta 129.953371
_cell_angle_gamma 90.000000
_cell_volume 1912.936881
_symmetry_space_group_name_H-M "C 2/M"
_symmetry_group_IT_number 12
_symmetry_cell_setting 'monoclinic'
loop_
_space_group_symop_operation_xyz
x,y,z
-x,y,-z
-x,-y,-z
x,-y,z
1/2+x,1/2+y,z
1/2-x,1/2+y,-z
1/2-x,1/2-y,-z
1/2+x,1/2-y,z
loop_
_atom_site_type_symbol
_atom_site_label
_atom_site_fract_x
_atom_site_fract_y
_atom_site_fract_z
Si Si1 0.315356 0.117921 0.151505
Si Si2 0.547141 0.619856 0.921871
Si Si3 0.446637 0.382631 0.613718
Si Si4 0.379524 0.115203 0.960179
Si Si5 0.662600 0.294873 0.675980
O O1 0.181377 0.139101 0.019326
O O2 0.379464 0.144618 0.089672
O O3 0.355209 0.185737 0.286300
O O4 0.327356 0.000000 0.183247
O O5 0.538928 0.500000 0.915248
O O6 0.500000 0.656941 0.000000
O O7 0.466603 0.651128 0.755606
O O8 0.415844 0.500000 0.583223
O O9 0.571062 0.366925 0.660983
O O10 0.362830 0.314415 0.473267
O O11 0.342467 0.000000 0.931242
O O12 0.500000 0.120790 0.000000
O O13 0.286506 0.173366 0.814659
#
# Coordination Sequence:
#
# PCOD9197446 Si02
#       5
#     8   8   8   8   8
#     4  10  21  38  58  86 124 163 205 247 292 355
#     4   9  18  35  61  89 118 154 197 248 302 351
#     4  10  20  36  62  90 119 151 196 257 308 348
#     4  10  20  35  59  91 126 164 202 244 296 360
#     4  11  20  35  59  92 117 154 200 248 303 352
#
# _framework density 20.910256
#
# number of rings (size 3 to 8) (size 9 to 14) (size 15 to 20)
#    0.000    2.000    2.000    3.000    0.000    0.800 
#    0.000    3.000    4.400    0.000    0.000    0.000 
#    0.000    0.800    0.000    0.000    0.000    0.000 
#
# Total GULP energy -111709.049345 kJ/mol
# GULP energy per Si atom -5585.452467 kJ/mol
# Density = 2.086266 g / cm^3
# Si number density = 20.910256 Si / 1000 Ang^3
#
#
#
# Elastic Constant Matrix: (Units=GPa)
#
#
# Indices 1 2 3 4 5 6 
#
# 1 73.5777 16.6375 41.8319 0.0000 -19.7472 0.0000
# 2 16.6375 117.2687 63.3394 0.0000 -12.4180 0.0000
# 3 41.8319 63.3394 154.1294 0.0000 -35.3663 0.0000
# 4 0.0000 0.0000 0.0000 34.3526 0.0000 -9.4206
# 5 -19.7472 -12.4180 -35.3663 0.0000 36.0035 0.0000
# 6 0.0000 0.0000 0.0000 -9.4206 0.0000 -5.5976
#
#
#
# Elastic Compliance Matrix: (Units=1/GPa)
#
#
# Indices 1 2 3 4 5 6 
#
# 1 0.017085 -0.000041 -0.003193 0.000000 0.006220 0.000000
# 2 -0.000041 0.010980 -0.004696 0.000000 -0.000848 0.000000
# 3 -0.003193 -0.004696 0.010987 0.000000 0.007422 0.000000
# 4 0.000000 0.000000 0.000000 0.019917 0.000000 -0.033520
# 5 0.006220 -0.000848 0.007422 0.000000 0.038185 0.000000
# 6 0.000000 0.000000 0.000000 -0.033520 0.000000 -0.122233
#
#
# Mechanical properties :
#
#
# Convention : Reuss Voigt Hill
#
# Bulk Modulus (GPa) = 43.11537 65.39927 54.25732
# Shear Modulus (GPa) = -3357.76678 27.82949 -1664.96865
#
# Velocity S-wave (km/s) = -40.11589 3.65211 -28.24843
# Velocity P-wave (km/s) = 46.09826 7.00913 32.21740
#
# Compressibility (1/GPa) = 0.02319358
#
# Stress axis : x y z
#
# Youngs Moduli (GPa) = 58.53069 91.07808 91.01368
#
# Poissons Ratio (x) = 0.00370 0.29061
# Poissons Ratio (y) = 0.00238 0.42736
# Poissons Ratio (z) = 0.18689 0.42766
#
# Static dielectric constant tensor:
#      x y z
#    x 1.754140 0.000000 -0.043130 
#    y 0.000000 1.795910 0.000000 
#    z -0.043130 0.000000 1.743030 
# 
# From -- ./inp_files/142518.got.cif
#   From: 2010.05.17/outbox.cif.g08.bks.cpg/sg12_72_cif.got.tgz:142518.got - 2010.06.03 13:09:07.
