data_PCOD9197966
_publ_section_title
;
Structure prediction by ZEFSAII (Michael W. Deem and Ramdas Pophale) SiO2 
 PCOD9197966
Probable space group: C 2/M
;
_chemical_formula_sum "Si O2"
_cell_formula_units_Z 56
_cell_length_a 7.222674
_cell_length_b 12.791406
_cell_length_c 28.525838
_cell_angle_alpha 90.000000
_cell_angle_beta 56.150624
_cell_angle_gamma 90.000000
_cell_volume 2188.753402
_symmetry_space_group_name_H-M "C 2/M"
_symmetry_group_IT_number 12
_symmetry_cell_setting 'monoclinic'
loop_
_space_group_symop_operation_xyz
x,y,z
-x,y,-z
-x,-y,-z
x,-y,z
1/2+x,1/2+y,z
1/2-x,1/2+y,-z
1/2-x,1/2-y,-z
1/2+x,1/2-y,z
loop_
_atom_site_type_symbol
_atom_site_label
_atom_site_fract_x
_atom_site_fract_y
_atom_site_fract_z
Si Si1 0.127969 0.387483 0.921402
Si Si2 0.510424 0.206817 0.622648
Si Si3 0.477769 0.617103 0.558970
Si Si4 0.462400 0.660511 0.203781
Si Si5 0.957082 0.883566 0.313772
Si Si6 0.484900 0.656956 0.947585
Si Si7 0.107543 0.388445 0.178026
O O1 0.016786 0.500000 0.932215
O O2 0.314670 0.376065 0.854633
O O3 0.274351 0.384759 0.948402
O O4 0.983015 0.282983 0.940937
O O5 0.588814 0.287166 0.570959
O O6 0.717229 0.135800 0.607813
O O7 0.303496 0.136246 0.637083
O O8 0.431662 0.286463 0.674798
O O9 0.500000 0.624766 0.500000
O O10 0.551073 0.500000 0.562148
O O11 0.469881 0.627829 0.256238
O O12 0.250827 0.617071 0.205605
O O13 0.459900 0.785736 0.197353
O O14 0.029142 0.000000 0.317591
O O15 0.707148 0.620529 0.889034
O O16 0.500000 0.631258 0.000000
O O17 0.991254 0.500000 0.191058
#
# Coordination Sequence:
#
# PCOD9197966 Si02
#       7
#     8   8   8   8   8   8   8
#     4  10  21  37  55  76 106 139 175 220 265 319
#     4  10  22  36  54  86 114 140 186 228 264 320
#     4  10  20  37  59  81 112 151 185 223 270 315
#     4  10  20  37  57  79 105 141 183 218 264 324
#     4  11  21  36  57  79 111 146 177 224 275 316
#     4  10  20  36  55  79 107 135 175 221 267 325
#     4  10  21  38  56  77 108 139 176 224 267 320
#
# _framework density 25.585338
#
# number of rings (size 3 to 8) (size 9 to 14) (size 15 to 20)
#    0.000    1.857    0.000    5.143    0.000    1.429 
#    0.000   18.571    0.000    6.857    0.000    0.000 
#    0.000    0.000    0.000    0.000    0.000    0.000 
#
# Total GULP energy -157001.925863 kJ/mol
# GULP energy per Si atom -5607.211638 kJ/mol
# Density = 2.552710 g / cm^3
# Si number density = 25.585338 Si / 1000 Ang^3
#
#
#
# Elastic Constant Matrix: (Units=GPa)
#
#
# Indices 1 2 3 4 5 6 
#
# 1 56.3929 8.5750 9.6074 0.0000 9.6893 0.0000
# 2 8.5750 189.3787 20.1739 0.0000 -2.2088 0.0000
# 3 9.6074 20.1739 114.6201 0.0000 34.6250 0.0000
# 4 0.0000 0.0000 0.0000 13.8747 0.0000 13.2862
# 5 9.6893 -2.2088 34.6250 0.0000 44.4238 0.0000
# 6 0.0000 0.0000 0.0000 13.2862 0.0000 27.8290
#
#
#
# Elastic Compliance Matrix: (Units=1/GPa)
#
#
# Indices 1 2 3 4 5 6 
#
# 1 0.018576 -0.000863 -0.000220 0.000000 -0.003923 0.000000
# 2 -0.000863 0.005481 -0.001349 0.000000 0.001512 0.000000
# 3 -0.000220 -0.001349 0.011754 0.000000 -0.009180 0.000000
# 4 0.000000 0.000000 0.000000 0.132774 0.000000 -0.063390
# 5 -0.003923 0.001512 -0.009180 0.000000 0.030597 0.000000
# 6 0.000000 0.000000 0.000000 -0.063390 0.000000 0.066197
#
#
# Mechanical properties :
#
#
# Convention : Reuss Voigt Hill
#
# Bulk Modulus (GPa) = 32.31551 48.56713 40.44132
# Shear Modulus (GPa) = 17.82160 38.69454 28.25807
#
# Velocity S-wave (km/s) = 2.64210 3.89314 3.32695
# Velocity P-wave (km/s) = 4.68673 6.26357 5.53163
#
# Compressibility (1/GPa) = 0.03094489
#
# Stress axis : x y z
#
# Youngs Moduli (GPa) = 53.83426 182.45230 85.08065
#
# Poissons Ratio (x) = 0.15753 0.01871
# Poissons Ratio (y) = 0.04648 0.11479
# Poissons Ratio (z) = 0.01184 0.24616
#
# Static dielectric constant tensor:
#      x y z
#    x 1.971880 0.000000 0.009500 
#    y 0.000000 1.853160 0.000000 
#    z 0.009500 0.000000 2.028650 
# 
# From -- ./inp_files/372094.got.cif
#   From: 2010.05.17/outbox.cif.g08.bks.cpg/sg12_187_cif.got.tgz:372094.got - 2010.06.03 13:09:07.
