data_PCOD9197595
_publ_section_title
;
Structure prediction by ZEFSAII (Michael W. Deem and Ramdas Pophale) SiO2 
 PCOD9197595
Probable space group: C 2/M
;
_chemical_formula_sum "Si O2"
_cell_formula_units_Z 64
_cell_length_a 14.786821
_cell_length_b 9.279368
_cell_length_c 22.105165
_cell_angle_alpha 90.000000
_cell_angle_beta 101.085842
_cell_angle_gamma 90.000000
_cell_volume 2976.504666
_symmetry_space_group_name_H-M "C 2/M"
_symmetry_group_IT_number 12
_symmetry_cell_setting 'monoclinic'
loop_
_space_group_symop_operation_xyz
x,y,z
-x,y,-z
-x,-y,-z
x,-y,z
1/2+x,1/2+y,z
1/2-x,1/2+y,-z
1/2-x,1/2-y,-z
1/2+x,1/2-y,z
loop_
_atom_site_type_symbol
_atom_site_label
_atom_site_fract_x
_atom_site_fract_y
_atom_site_fract_z
Si Si1 0.362316 0.168671 0.265577
Si Si2 0.124640 0.832668 0.854206
Si Si3 0.548979 0.330817 0.098198
Si Si4 0.459093 0.673486 0.389836
Si Si5 0.620016 0.833229 0.357831
Si Si6 0.859085 0.834346 0.758530
Si Si7 0.199528 0.832834 0.546716
Si Si8 0.302719 0.166961 0.953905
O O1 0.392571 0.232241 0.205026
O O2 0.406679 0.261121 0.324862
O O3 0.251290 0.180198 0.252712
O O4 0.385844 0.000000 0.274743
O O5 0.229862 0.824745 0.888980
O O6 0.057057 0.794936 0.901145
O O7 0.103988 0.000000 0.835876
O O8 0.555964 0.500000 0.083053
O O9 0.597992 0.310127 0.169965
O O10 0.603136 0.239237 0.056005
O O11 0.461266 0.500000 0.387943
O O12 0.560364 0.740081 0.397209
O O13 0.398761 0.717413 0.440474
O O14 0.605429 0.770706 0.289101
O O15 0.727574 0.823679 0.388575
O O16 0.593207 0.000000 0.358447
O O17 0.880493 0.000000 0.743659
O O18 0.250000 0.750000 0.500000
O O19 0.190233 0.000000 0.528108
O O20 0.315505 0.000000 0.971583
O O21 0.250000 0.250000 0.000000
#
# Coordination Sequence:
#
# PCOD9197595 Si02
#       8
#     8   8   8   8   8   8   8   8
#     4  11  21  35  61  95 124 156 197 243 296 355
#     4  10  22  39  62  89 120 159 198 241 299 359
#     4  10  21  40  62  87 119 154 194 241 294 355
#     4  11  23  41  62  89 123 161 199 242 299 360
#     4  11  23  40  62  92 123 157 201 250 298 354
#     4  10  20  35  60  92 124 159 193 237 301 363
#     4  10  24  43  63  86 118 158 203 251 302 354
#     4  11  24  41  61  86 116 156 202 248 298 350
#
# _framework density 21.501729999999998
#
# number of rings (size 3 to 8) (size 9 to 14) (size 15 to 20)
#    0.000    1.500    2.500    2.250    0.000    6.000 
#    0.000    5.000    0.000    0.000    0.000    0.000 
#    0.000    0.000    0.000    0.000    0.000    0.000 
#
# Total GULP energy -178967.088787 kJ/mol
# GULP energy per Si atom -5592.721525 kJ/mol
# Density = 2.145279 g / cm^3
# Si number density = 21.501730 Si / 1000 Ang^3
#
#
#
# Elastic Constant Matrix: (Units=GPa)
#
#
# Indices 1 2 3 4 5 6 
#
# 1 101.9253 37.5068 6.6782 0.0000 -29.7861 0.0000
# 2 37.5068 100.1255 43.5955 0.0000 -37.7256 0.0000
# 3 6.6782 43.5955 63.0548 0.0000 -29.5798 0.0000
# 4 0.0000 0.0000 0.0000 34.3088 0.0000 -9.3600
# 5 -29.7861 -37.7256 -29.5798 0.0000 45.5483 0.0000
# 6 0.0000 0.0000 0.0000 -9.3600 0.0000 32.4686
#
#
#
# Elastic Compliance Matrix: (Units=1/GPa)
#
#
# Indices 1 2 3 4 5 6 
#
# 1 0.013656 -0.004138 0.005747 0.000000 0.009235 0.000000
# 2 -0.004138 0.017766 -0.008933 0.000000 0.006207 0.000000
# 3 0.005747 -0.008933 0.028358 0.000000 0.014776 0.000000
# 4 0.000000 0.000000 0.000000 0.031635 0.000000 0.009120
# 5 0.009235 0.006207 0.014776 0.000000 0.042731 0.000000
# 6 0.000000 0.000000 0.000000 0.009120 0.000000 0.033428
#
#
# Mechanical properties :
#
#
# Convention : Reuss Voigt Hill
#
# Bulk Modulus (GPa) = 22.15716 48.96296 35.56006
# Shear Modulus (GPa) = 25.34638 34.28682 29.81660
#
# Velocity S-wave (km/s) = 3.43710 3.99759 3.72789
# Velocity P-wave (km/s) = 5.10673 6.64294 5.92484
#
# Compressibility (1/GPa) = 0.04513214
#
# Stress axis : x y z
#
# Youngs Moduli (GPa) = 73.22684 56.28740 35.26305
#
# Poissons Ratio (x) = 0.23293 -0.20266
# Poissons Ratio (y) = 0.30303 0.31501
# Poissons Ratio (z) = -0.42085 0.50282
#
# Static dielectric constant tensor:
#      x y z
#    x 1.804280 0.000000 0.022650 
#    y 0.000000 1.730180 0.000000 
#    z 0.022650 0.000000 1.772570 
# 
# From -- ./inp_files/338735.got.cif
#   From: 2010.05.17/outbox.cif.g08.bks.cpg/sg12_170_cif.got.tgz:338735.got - 2010.06.03 13:09:07.
