data_PCOD9197870
_publ_section_title
;
Structure prediction by ZEFSAII (Michael W. Deem and Ramdas Pophale) SiO2 
 PCOD9197870
Probable space group: C 2/M
;
_chemical_formula_sum "Si O2"
_cell_formula_units_Z 64
_cell_length_a 22.079340
_cell_length_b 22.111962
_cell_length_c 9.696418
_cell_angle_alpha 90.000000
_cell_angle_beta 124.585681
_cell_angle_gamma 90.000000
_cell_volume 3897.367329
_symmetry_space_group_name_H-M "C 2/M"
_symmetry_group_IT_number 12
_symmetry_cell_setting 'monoclinic'
loop_
_space_group_symop_operation_xyz
x,y,z
-x,y,-z
-x,-y,-z
x,-y,z
1/2+x,1/2+y,z
1/2-x,1/2+y,-z
1/2-x,1/2-y,-z
1/2+x,1/2-y,z
loop_
_atom_site_type_symbol
_atom_site_label
_atom_site_fract_x
_atom_site_fract_y
_atom_site_fract_z
Si Si1 0.812144 0.680837 0.456376
Si Si2 0.661150 0.368575 0.583180
Si Si3 0.554273 0.245814 0.958606
Si Si4 0.447882 0.745463 0.563873
Si Si5 0.070875 0.886695 0.005416
Si Si6 0.296582 0.215026 0.753415
Si Si7 0.792759 0.928999 0.643022
Si Si8 0.568935 0.571454 0.689842
O O1 0.889274 0.699048 0.485666
O O2 0.748327 0.722142 0.305516
O O3 0.820557 0.704228 0.625406
O O4 0.778217 0.613653 0.419282
O O5 0.602138 0.314636 0.481629
O O6 0.738039 0.336121 0.711981
O O7 0.672097 0.407121 0.457906
O O8 0.636155 0.405578 0.684038
O O9 0.505758 0.248310 0.761027
O O10 0.573120 0.314401 0.029988
O O11 0.500000 0.216949 0.000000
O O12 0.632996 0.214461 0.058374
O O13 0.500000 0.740178 0.500000
O O14 0.062640 0.898393 0.831522
O O15 0.144521 0.916015 0.161754
O O16 0.000000 0.909462 0.000000
O O17 0.775664 0.000000 0.616083
O O18 0.500000 0.583827 0.500000
O O19 0.572781 0.500000 0.717845
#
# Coordination Sequence:
#
# PCOD9197870 Si02
#       8
#     8   8   8   8   8   8   8   8
#     4   9  18  35  51  76 108 136 175 220 260 317
#     4  10  20  36  54  77 108 137 173 216 265 322
#     4  11  18  31  54  80 102 137 170 211 267 317
#     4  11  21  34  54  79 111 139 172 216 275 319
#     4  11  22  33  51  77 108 136 179 216 249 309
#     4   9  17  32  55  77 102 135 167 219 271 313
#     4  11  21  35  56  78 104 144 184 219 257 305
#     4  11  22  36  50  69 105 146 179 211 250 303
#
# _framework density 16.421341999999999
#
# number of rings (size 3 to 8) (size 9 to 14) (size 15 to 20)
#    0.000    1.625    2.500    5.625    0.000    2.000 
#    2.250    1.875    0.000    0.375    0.000    7.875 
#    0.000    0.000    0.000    0.000    0.000    0.000 
#
# Total GULP energy -178492.964437 kJ/mol
# GULP energy per Si atom -5577.905139 kJ/mol
# Density = 1.638397 g / cm^3
# Si number density = 16.421342 Si / 1000 Ang^3
#
#
#
# Elastic Constant Matrix: (Units=GPa)
#
#
# Indices 1 2 3 4 5 6 
#
# 1 45.4967 21.2477 26.3225 0.0000 14.7549 0.0000
# 2 21.2477 68.7199 13.8687 0.0000 13.0827 0.0000
# 3 26.3225 13.8687 68.3715 0.0000 19.4022 0.0000
# 4 0.0000 0.0000 0.0000 18.4756 0.0000 -2.3769
# 5 14.7549 13.0827 19.4022 0.0000 28.1278 0.0000
# 6 0.0000 0.0000 0.0000 -2.3769 0.0000 20.3961
#
#
#
# Elastic Compliance Matrix: (Units=1/GPa)
#
#
# Indices 1 2 3 4 5 6 
#
# 1 0.032986 -0.006874 -0.009079 0.000000 -0.007844 0.000000
# 2 -0.006874 0.017507 0.000476 0.000000 -0.004865 0.000000
# 3 -0.009079 0.000476 0.020810 0.000000 -0.009813 0.000000
# 4 0.000000 0.000000 0.000000 0.054949 0.000000 0.006404
# 5 -0.007844 -0.004865 -0.009813 0.000000 0.048698 0.000000
# 6 0.000000 0.000000 0.000000 0.006404 0.000000 0.049775
#
#
# Mechanical properties :
#
#
# Convention : Reuss Voigt Hill
#
# Bulk Modulus (GPa) = 24.78382 33.94065 29.36224
# Shear Modulus (GPa) = 18.57835 21.47650 20.02742
#
# Velocity S-wave (km/s) = 3.36721 3.62033 3.49606
# Velocity P-wave (km/s) = 5.49933 6.17974 5.84944
#
# Compressibility (1/GPa) = 0.04034890
#
# Stress axis : x y z
#
# Youngs Moduli (GPa) = 30.31550 57.11892 48.05473
#
# Poissons Ratio (x) = 0.39261 0.43631
# Poissons Ratio (y) = 0.20838 -0.02286
# Poissons Ratio (z) = 0.27525 -0.02717
#
# Static dielectric constant tensor:
#      x y z
#    x 1.574340 0.000000 0.005420 
#    y 0.000000 1.556790 0.000000 
#    z 0.005420 0.000000 1.518610 
# 
# From -- ./inp_files/91119.got.cif
#   From: 2010.05.17/outbox.cif.g08.bks.cpg/sg12_46_cif.got.tgz:91119.got - 2010.06.03 13:09:07.
