data_PCOD9197712
_publ_section_title
;
Structure prediction by ZEFSAII (Michael W. Deem and Ramdas Pophale) SiO2 
 PCOD9197712
Probable space group: C 2/M
;
_chemical_formula_sum "Si O2"
_cell_formula_units_Z 64
_cell_length_a 19.440366
_cell_length_b 13.721425
_cell_length_c 16.504324
_cell_angle_alpha 90.000000
_cell_angle_beta 125.438846
_cell_angle_gamma 90.000000
_cell_volume 3586.886987
_symmetry_space_group_name_H-M "C 2/M"
_symmetry_group_IT_number 12
_symmetry_cell_setting 'monoclinic'
loop_
_space_group_symop_operation_xyz
x,y,z
-x,y,-z
-x,-y,-z
x,-y,z
1/2+x,1/2+y,z
1/2-x,1/2+y,-z
1/2-x,1/2-y,-z
1/2+x,1/2-y,z
loop_
_atom_site_type_symbol
_atom_site_label
_atom_site_fract_x
_atom_site_fract_y
_atom_site_fract_z
Si Si1 0.467021 0.390520 0.568914
Si Si2 0.250749 0.785458 0.244493
Si Si3 0.382161 0.889204 0.215017
Si Si4 0.963711 0.390361 0.557474
Si Si5 0.854900 0.886926 0.243580
Si Si6 0.686122 0.242587 0.530227
Si Si7 0.345339 0.285475 0.075898
Si Si8 0.399699 0.616559 0.945490
O O1 0.500000 0.395829 0.500000
O O2 0.453602 0.500000 0.591394
O O3 0.550322 0.348688 0.670526
O O4 0.379086 0.333557 0.510399
O O5 0.310430 0.855931 0.230463
O O6 0.282256 0.679293 0.234188
O O7 0.270825 0.780754 0.353702
O O8 0.157504 0.824862 0.159348
O O9 0.466563 0.889380 0.325942
O O10 0.387817 0.809128 0.147683
O O11 0.365576 0.000000 0.175215
O O12 0.942420 0.500000 0.519055
O O13 0.879180 0.343419 0.530418
O O14 0.000000 0.340742 0.500000
O O15 0.846563 0.871472 0.142501
O O16 0.850041 0.000000 0.264726
O O17 0.750000 0.250000 0.500000
O O18 0.250000 0.250000 0.000000
O O19 0.379768 0.328395 0.016155
O O20 0.377867 0.500000 0.932212
O O21 0.500000 0.622949 0.000000
#
# Coordination Sequence:
#
# PCOD9197712 Si02
#       8
#     8   8   8   8   8   8   8   8
#     4  10  20  37  61  85 117 158 202 242 287 350
#     4  11  21  37  59  88 117 157 203 247 300 363
#     4  10  20  35  62  92 120 150 199 258 300 347
#     4  10  20  36  59  85 114 155 199 242 288 349
#     4  10  20  35  62  92 117 152 204 258 299 345
#     4  12  24  36  57  89 127 161 193 239 298 362
#     4  11  21  36  60  93 117 151 201 259 298 346
#     4  11  25  44  64  87 124 163 198 249 309 368
#
# _framework density 17.842770999999999
#
# number of rings (size 3 to 8) (size 9 to 14) (size 15 to 20)
#    0.000    1.375    5.000    2.625    0.000    3.500 
#    0.000    1.250    0.000    1.500    0.000    0.000 
#    0.000    0.000    0.000    0.000    0.000    0.000 
#
# Total GULP energy -178333.289779 kJ/mol
# GULP energy per Si atom -5572.915306 kJ/mol
# Density = 1.780216 g / cm^3
# Si number density = 17.842771 Si / 1000 Ang^3
#
#
#
# Elastic Constant Matrix: (Units=GPa)
#
#
# Indices 1 2 3 4 5 6 
#
# 1 110.5222 42.9359 38.3638 0.0000 11.4887 0.0000
# 2 42.9359 113.3027 23.8773 0.0000 8.5013 0.0000
# 3 38.3638 23.8773 95.7731 0.0000 13.7073 0.0000
# 4 0.0000 0.0000 0.0000 40.6167 0.0000 55.9977
# 5 11.4887 8.5013 13.7073 0.0000 24.1491 0.0000
# 6 0.0000 0.0000 0.0000 55.9977 0.0000 194.6767
#
#
#
# Elastic Compliance Matrix: (Units=1/GPa)
#
#
# Indices 1 2 3 4 5 6 
#
# 1 0.011920 -0.003592 -0.003536 0.000000 -0.002399 0.000000
# 2 -0.003592 0.010500 -0.000974 0.000000 -0.001435 0.000000
# 3 -0.003536 -0.000974 0.012855 0.000000 -0.005272 0.000000
# 4 0.000000 0.000000 0.000000 0.040801 0.000000 -0.011736
# 5 -0.002399 -0.001435 -0.005272 0.000000 0.046048 0.000000
# 6 0.000000 0.000000 0.000000 -0.011736 0.000000 0.008513
#
#
# Mechanical properties :
#
#
# Convention : Reuss Voigt Hill
#
# Bulk Modulus (GPa) = 52.43245 58.88355 55.65800
# Shear Modulus (GPa) = 32.63775 66.18325 49.41050
#
# Velocity S-wave (km/s) = 4.28154 6.09697 5.26804
# Velocity P-wave (km/s) = 7.34110 9.09049 8.26222
#
# Compressibility (1/GPa) = 0.01907216
#
# Stress axis : x y z
#
# Youngs Moduli (GPa) = 83.89166 95.23897 77.79101
#
# Poissons Ratio (x) = 0.34209 0.27506
# Poissons Ratio (y) = 0.30133 0.07573
# Poissons Ratio (z) = 0.29663 0.09272
#
# Static dielectric constant tensor:
#      x y z
#    x 1.514300 0.000000 -0.005220 
#    y 0.000000 1.742070 0.000000 
#    z -0.005220 0.000000 1.584910 
# 
# From -- ./inp_files/225303.got.cif
#   From: 2010.05.17/outbox.cif.g08.bks.cpg/sg12_113_cif.got.tgz:225303.got - 2010.06.03 13:09:07.
