data_PCOD9197004
_publ_section_title
;
Structure prediction by ZEFSAII (Michael W. Deem and Ramdas Pophale) SiO2 
 PCOD9197004
Probable space group: C 2/M
;
_chemical_formula_sum "Si O2"
_cell_formula_units_Z 64
_cell_length_a 17.813457
_cell_length_b 17.171423
_cell_length_c 16.908908
_cell_angle_alpha 90.000000
_cell_angle_beta 137.310772
_cell_angle_gamma 90.000000
_cell_volume 3506.820334
_symmetry_space_group_name_H-M "C 2/M"
_symmetry_group_IT_number 12
_symmetry_cell_setting 'monoclinic'
loop_
_space_group_symop_operation_xyz
x,y,z
-x,y,-z
-x,-y,-z
x,-y,z
1/2+x,1/2+y,z
1/2-x,1/2+y,-z
1/2-x,1/2-y,-z
1/2+x,1/2-y,z
loop_
_atom_site_type_symbol
_atom_site_label
_atom_site_fract_x
_atom_site_fract_y
_atom_site_fract_z
Si Si1 0.846318 0.199161 0.035802
Si Si2 0.717842 0.092765 0.326387
Si Si3 0.258584 0.688786 0.796459
Si Si4 0.595966 0.669881 0.636799
Si Si5 0.547632 0.207200 0.121462
Si Si6 0.523315 0.406547 0.743971
Si Si7 0.123665 0.407001 0.575729
Si Si8 0.770993 0.094670 0.546816
O O1 0.891971 0.133514 0.129898
O O2 0.948662 0.255529 0.094053
O O3 0.750000 0.250000 0.000000
O O4 0.799436 0.169001 0.915721
O O5 0.816434 0.117592 0.343995
O O6 0.609620 0.138154 0.213888
O O7 0.746807 0.118195 0.438163
O O8 0.703893 0.000000 0.314395
O O9 0.164088 0.755836 0.721815
O O10 0.361905 0.726557 0.829739
O O11 0.206281 0.617458 0.709159
O O12 0.500000 0.690798 0.500000
O O13 0.548016 0.623693 0.674622
O O14 0.500000 0.179901 0.000000
O O15 0.531625 0.500000 0.752677
O O16 0.396480 0.383518 0.666336
O O17 0.117984 0.500000 0.564681
O O18 0.179321 0.376074 0.537890
O O19 0.000000 0.378962 0.500000
O O20 0.767779 0.000000 0.545565
#
# Coordination Sequence:
#
# PCOD9197004 Si02
#       8
#     8   8   8   8   8   8   8   8
#     4  11  22  40  59  80 114 153 190 240 288 332
#     4  10  20  35  58  85 117 156 192 230 285 349
#     4  10  21  39  59  81 117 154 194 232 288 350
#     4  11  20  35  58  91 122 155 190 235 291 343
#     4   9  21  39  56  78 113 153 193 239 288 338
#     4  11  22  37  60  89 119 152 194 240 287 341
#     4  10  21  38  60  85 115 149 190 242 290 339
#     4   9  19  36  56  84 118 148 185 238 291 335
#
# _framework density 18.250152
#
# number of rings (size 3 to 8) (size 9 to 14) (size 15 to 20)
#    0.000    1.875    2.500    1.500    0.000    2.250 
#    2.250    2.500    0.000    4.500    0.000    0.000 
#    0.000    0.000    0.000    0.000    0.000    0.000 
#
# Total GULP energy -178621.788424 kJ/mol
# GULP energy per Si atom -5581.930888 kJ/mol
# Density = 1.820861 g / cm^3
# Si number density = 18.250152 Si / 1000 Ang^3
#
#
#
# Elastic Constant Matrix: (Units=GPa)
#
#
# Indices 1 2 3 4 5 6 
#
# 1 130.6346 31.7577 54.2773 0.0000 1.5667 0.0000
# 2 31.7577 33.7706 36.6473 0.0000 -3.1731 0.0000
# 3 54.2773 36.6473 136.5915 0.0000 0.2051 0.0000
# 4 0.0000 0.0000 0.0000 37.5771 0.0000 0.1805
# 5 1.5667 -3.1731 0.2051 0.0000 28.8265 0.0000
# 6 0.0000 0.0000 0.0000 0.1805 0.0000 9.4296
#
#
#
# Elastic Compliance Matrix: (Units=1/GPa)
#
#
# Indices 1 2 3 4 5 6 
#
# 1 0.010394 -0.007654 -0.002075 0.000000 -0.001393 0.000000
# 2 -0.007654 0.048051 -0.009859 0.000000 0.005775 0.000000
# 3 -0.002075 -0.009859 0.010792 0.000000 -0.001049 0.000000
# 4 0.000000 0.000000 0.000000 0.026614 0.000000 -0.000510
# 5 -0.001393 0.005775 -0.001049 0.000000 0.035409 0.000000
# 6 0.000000 0.000000 0.000000 -0.000510 0.000000 0.106059
#
#
# Mechanical properties :
#
#
# Convention : Reuss Voigt Hill
#
# Bulk Modulus (GPa) = 33.26500 60.70683 46.98591
# Shear Modulus (GPa) = 17.45096 27.05427 22.25261
#
# Velocity S-wave (km/s) = 3.09562 3.85439 3.49565
# Velocity P-wave (km/s) = 5.57171 7.29002 6.48800
#
# Compressibility (1/GPa) = 0.03006163
#
# Stress axis : x y z
#
# Youngs Moduli (GPa) = 96.20515 20.81112 92.65869
#
# Poissons Ratio (x) = 0.15929 0.19224
# Poissons Ratio (y) = 0.73638 0.91354
# Poissons Ratio (z) = 0.19960 0.20518
#
# Static dielectric constant tensor:
#      x y z
#    x 1.634860 0.000000 0.001120 
#    y 0.000000 1.602690 0.000000 
#    z 0.001120 0.000000 1.611960 
# 
# From -- ./inp_files/216818.got.cif
#   From: 2010.05.17/outbox.cif.g08.bks.cpg/sg12_109_cif.got.tgz:216818.got - 2010.06.03 13:09:07.
