data_PCOD9197393
_publ_section_title
;
Structure prediction by ZEFSAII (Michael W. Deem and Ramdas Pophale) SiO2 
 PCOD9197393
Probable space group: C 2/M
;
_chemical_formula_sum "Si O2"
_cell_formula_units_Z 64
_cell_length_a 14.954940
_cell_length_b 8.725282
_cell_length_c 23.373914
_cell_angle_alpha 90.000000
_cell_angle_beta 94.579963
_cell_angle_gamma 90.000000
_cell_volume 3040.231181
_symmetry_space_group_name_H-M "C 2/M"
_symmetry_group_IT_number 12
_symmetry_cell_setting 'monoclinic'
loop_
_space_group_symop_operation_xyz
x,y,z
-x,y,-z
-x,-y,-z
x,-y,z
1/2+x,1/2+y,z
1/2-x,1/2+y,-z
1/2-x,1/2-y,-z
1/2+x,1/2-y,z
loop_
_atom_site_type_symbol
_atom_site_label
_atom_site_fract_x
_atom_site_fract_y
_atom_site_fract_z
Si Si1 0.333879 0.815188 0.344763
Si Si2 0.646385 0.677131 0.775863
Si Si3 0.203458 0.817314 0.441730
Si Si4 0.948551 0.686568 0.053586
Si Si5 0.039389 0.681463 0.376188
Si Si6 0.723254 0.817815 0.894206
Si Si7 0.067471 0.175908 0.257488
Si Si8 0.394602 0.818266 0.857013
O O1 0.316761 0.737782 0.282747
O O2 0.262854 0.772091 0.389468
O O3 0.434689 0.771652 0.370327
O O4 0.332873 0.000000 0.337215
O O5 0.672902 0.500000 0.787163
O O6 0.677511 0.778750 0.830704
O O7 0.538470 0.682578 0.763575
O O8 0.250000 0.750000 0.500000
O O9 0.102744 0.759328 0.426008
O O10 0.203924 0.000000 0.445076
O O11 0.946747 0.500000 0.051036
O O12 0.847253 0.735635 0.061189
O O13 0.011151 0.729139 0.110294
O O14 0.000000 0.742002 0.000000
O O15 0.043183 0.500000 0.383731
O O16 0.076859 0.727777 0.315578
O O17 0.816949 0.730422 0.896652
O O18 0.737273 0.000000 0.899579
O O19 0.118110 0.238915 0.204714
O O20 0.092594 0.000000 0.270303
O O21 0.395077 0.000000 0.849307
#
# Coordination Sequence:
#
# PCOD9197393 Si02
#       8
#     8   8   8   8   8   8   8   8
#     4   9  21  40  61  85 118 159 199 240 297 360
#     4  10  20  35  59  89 122 154 196 247 297 356
#     4  11  24  42  62  87 120 159 203 250 297 357
#     4   9  20  40  63  85 116 160 205 248 297 358
#     4  10  21  39  62  88 118 156 200 245 296 356
#     4  11  22  37  59  87 120 158 198 244 302 359
#     4  10  20  36  59  88 123 157 194 245 300 358
#     4  11  22  37  59  88 119 156 200 246 297 357
#
# _framework density 21.051030000000001
#
# number of rings (size 3 to 8) (size 9 to 14) (size 15 to 20)
#    0.000    1.875    1.250    2.250    1.750    3.500 
#    0.000    2.500    0.000    5.250    0.000    0.000 
#    0.000    0.000    0.000    0.000    0.000    0.000 
#
# Total GULP energy -178893.385487 kJ/mol
# GULP energy per Si atom -5590.418296 kJ/mol
# Density = 2.100312 g / cm^3
# Si number density = 21.051030 Si / 1000 Ang^3
#
#
#
# Elastic Constant Matrix: (Units=GPa)
#
#
# Indices 1 2 3 4 5 6 
#
# 1 65.9379 3.2495 -4.0999 0.0000 -10.6708 0.0000
# 2 3.2495 23.8111 1.2588 0.0000 -2.4001 0.0000
# 3 -4.0999 1.2588 29.3978 0.0000 -8.3950 0.0000
# 4 0.0000 0.0000 0.0000 20.3447 0.0000 -2.6808
# 5 -10.6708 -2.4001 -8.3950 0.0000 26.2238 0.0000
# 6 0.0000 0.0000 0.0000 -2.6808 0.0000 26.4991
#
#
#
# Elastic Compliance Matrix: (Units=1/GPa)
#
#
# Indices 1 2 3 4 5 6 
#
# 1 0.016882 -0.001726 0.004782 0.000000 0.008242 0.000000
# 2 -0.001726 0.042581 -0.001268 0.000000 0.002789 0.000000
# 3 0.004782 -0.001268 0.038808 0.000000 0.014253 0.000000
# 4 0.000000 0.000000 0.000000 0.049817 0.000000 0.005040
# 5 0.008242 0.002789 0.014253 0.000000 0.046305 0.000000
# 6 0.000000 0.000000 0.000000 0.005040 0.000000 0.038247
#
#
# Mechanical properties :
#
#
# Convention : Reuss Voigt Hill
#
# Bulk Modulus (GPa) = 9.81857 13.32930 11.57394
# Shear Modulus (GPa) = 19.01055 22.52943 20.76999
#
# Velocity S-wave (km/s) = 3.00837 3.27498 3.14451
# Velocity P-wave (km/s) = 4.09162 4.54383 4.32364
#
# Compressibility (1/GPa) = 0.10184780
#
# Stress axis : x y z
#
# Youngs Moduli (GPa) = 59.23450 23.48469 25.76816
#
# Poissons Ratio (x) = 0.04053 -0.12322
# Poissons Ratio (y) = 0.10223 0.03266
# Poissons Ratio (z) = -0.28326 0.02977
#
# Static dielectric constant tensor:
#      x y z
#    x 1.796670 0.000000 0.000860 
#    y 0.000000 1.702740 0.000000 
#    z 0.000860 0.000000 1.733180 
# 
# From -- ./inp_files/338687.got.cif
#   From: 2010.05.17/outbox.cif.g08.bks.cpg/sg12_170_cif.got.tgz:338687.got - 2010.06.03 13:09:07.
