data_PCOD9197176
_publ_section_title
;
Structure prediction by ZEFSAII (Michael W. Deem and Ramdas Pophale) SiO2 
 PCOD9197176
Probable space group: C 2/M
;
_chemical_formula_sum "Si O2"
_cell_formula_units_Z 56
_cell_length_a 19.189786
_cell_length_b 13.881789
_cell_length_c 9.016005
_cell_angle_alpha 90.000000
_cell_angle_beta 74.343261
_cell_angle_gamma 90.000000
_cell_volume 2312.645157
_symmetry_space_group_name_H-M "C 2/M"
_symmetry_group_IT_number 12
_symmetry_cell_setting 'monoclinic'
loop_
_space_group_symop_operation_xyz
x,y,z
-x,y,-z
-x,-y,-z
x,-y,z
1/2+x,1/2+y,z
1/2-x,1/2+y,-z
1/2-x,1/2-y,-z
1/2+x,1/2-y,z
loop_
_atom_site_type_symbol
_atom_site_label
_atom_site_fract_x
_atom_site_fract_y
_atom_site_fract_z
Si Si1 0.078558 0.107271 0.309070
Si Si2 0.681761 0.813065 0.880644
Si Si3 0.306664 0.608409 0.007565
Si Si4 0.327664 0.113883 0.449862
Si Si5 0.452467 0.894053 0.880217
Si Si6 0.549519 0.241341 0.634373
Si Si7 0.840582 0.889832 0.423558
O O1 0.119542 0.113853 0.129477
O O2 0.133472 0.114881 0.417596
O O3 0.018607 0.188663 0.357447
O O4 0.045890 0.000000 0.335485
O O5 0.746272 0.873161 0.917418
O O6 0.667072 0.858303 0.728005
O O7 0.700374 0.699445 0.879407
O O8 0.614873 0.830479 0.030094
O O9 0.298800 0.500000 0.073803
O O10 0.388713 0.180518 0.492350
O O11 0.244131 0.134817 0.539271
O O12 0.340266 0.000000 0.462706
O O13 0.506570 0.844594 0.736200
O O14 0.427981 0.000000 0.844747
O O15 0.500000 0.903751 0.000000
O O16 0.602951 0.317545 0.685281
O O17 0.850613 0.000000 0.371194
#
# Coordination Sequence:
#
# PCOD9197176 Si02
#       7
#     8   8   8   8   8   8   8
#     4  10  20  38  61  87 118 156 203 251 296 354
#     4  11  20  36  61  88 118 158 200 245 298 353
#     4  10  20  35  58  89 121 154 200 249 296 349
#     4  11  22  39  64  89 117 158 208 252 292 354
#     4  11  22  36  57  85 116 152 193 236 287 356
#     4  12  22  35  57  93 122 151 187 252 306 353
#     4  10  22  41  64  87 113 156 209 252 293 353
#
# _framework density 24.214697000000001
#
# number of rings (size 3 to 8) (size 9 to 14) (size 15 to 20)
#    0.000    1.286    4.286    3.000    0.000    1.143 
#    0.000    1.429    0.000   12.429    0.000    0.000 
#    0.000    0.000    0.000    0.000    0.000    0.000 
#
# Total GULP energy -156319.458136 kJ/mol
# GULP energy per Si atom -5582.837791 kJ/mol
# Density = 2.415958 g / cm^3
# Si number density = 24.214697 Si / 1000 Ang^3
#
#
#
# Elastic Constant Matrix: (Units=GPa)
#
#
# Indices 1 2 3 4 5 6 
#
# 1 114.5502 50.5882 21.7753 0.0000 -26.2513 0.0000
# 2 50.5882 196.9772 14.3448 0.0000 -10.1578 0.0000
# 3 21.7753 14.3448 28.9098 0.0000 -5.2850 0.0000
# 4 0.0000 0.0000 0.0000 0.3483 0.0000 -3.4975
# 5 -26.2513 -10.1578 -5.2850 0.0000 35.0261 0.0000
# 6 0.0000 0.0000 0.0000 -3.4975 0.0000 46.0256
#
#
#
# Elastic Compliance Matrix: (Units=1/GPa)
#
#
# Indices 1 2 3 4 5 6 
#
# 1 0.012965 -0.002401 -0.007121 0.000000 0.007946 0.000000
# 2 -0.002401 0.005758 -0.001103 0.000000 -0.000296 0.000000
# 3 -0.007121 -0.001103 0.040587 0.000000 0.000467 0.000000
# 4 0.000000 0.000000 0.000000 12.113760 0.000000 0.920520
# 5 0.007946 -0.000296 0.000467 0.000000 0.034490 0.000000
# 6 0.000000 0.000000 0.000000 0.920520 0.000000 0.091677
#
#
# Mechanical properties :
#
#
# Convention : Reuss Voigt Hill
#
# Bulk Modulus (GPa) = 26.27464 57.09487 41.68475
# Shear Modulus (GPa) = 0.40541 33.19525 16.80033
#
# Velocity S-wave (km/s) = 0.40962 3.70655 2.63688
# Velocity P-wave (km/s) = 3.33136 6.47671 5.15004
#
# Compressibility (1/GPa) = 0.03805952
#
# Stress axis : x y z
#
# Youngs Moduli (GPa) = 77.13080 173.65690 24.63860
#
# Poissons Ratio (x) = 0.41701 0.17546
# Poissons Ratio (y) = 0.18522 0.02717
# Poissons Ratio (z) = 0.54927 0.19150
#
# Static dielectric constant tensor:
#      x y z
#    x 2.018210 0.000000 0.135770 
#    y 0.000000 1.973820 0.000000 
#    z 0.135770 0.000000 2.155270 
# 
# From -- ./inp_files/165593.got.cif
#   From: 2010.05.17/outbox.cif.g08.bks.cpg/sg12_83_cif.got.tgz:165593.got - 2010.06.03 13:09:07.
