data_PCOD9197733
_publ_section_title
;
Structure prediction by ZEFSAII (Michael W. Deem and Ramdas Pophale) SiO2 
 PCOD9197733
Probable space group: C 2/M
;
_chemical_formula_sum "Si O2"
_cell_formula_units_Z 58
_cell_length_a 7.685528
_cell_length_b 24.949210
_cell_length_c 18.840522
_cell_angle_alpha 90.000000
_cell_angle_beta 140.866024
_cell_angle_gamma 90.000000
_cell_volume 2280.060201
_symmetry_space_group_name_H-M "C 2/M"
_symmetry_group_IT_number 12
_symmetry_cell_setting 'monoclinic'
loop_
_space_group_symop_operation_xyz
x,y,z
-x,y,-z
-x,-y,-z
x,-y,z
1/2+x,1/2+y,z
1/2-x,1/2+y,-z
1/2-x,1/2-y,-z
1/2+x,1/2-y,z
loop_
_atom_site_type_symbol
_atom_site_label
_atom_site_fract_x
_atom_site_fract_y
_atom_site_fract_z
Si Si1 0.000000 0.500000 0.500000
Si Si2 0.215668 0.057741 0.657741
Si Si3 0.938406 0.588741 0.364147
Si Si4 0.410905 0.272461 0.263743
Si Si5 0.816970 0.558848 0.076408
Si Si6 0.145299 0.827243 0.196869
Si Si7 0.615584 0.335073 0.458286
Si Si8 0.101726 0.327533 0.953864
O O1 0.881367 0.547201 0.407595
O O2 0.329597 0.062957 0.613862
O O3 0.481119 0.057451 0.792014
O O4 0.043106 0.110754 0.617739
O O5 0.065845 0.000000 0.620384
O O6 0.702802 0.611489 0.237100
O O7 0.074054 0.643324 0.437106
O O8 0.404782 0.208374 0.256449
O O9 0.542035 0.300158 0.236916
O O10 0.558827 0.290470 0.382265
O O11 0.094087 0.294830 0.160569
O O12 0.833120 0.500000 0.046761
O O13 0.925654 0.609146 0.067023
O O14 0.500000 0.566920 0.000000
O O15 0.928592 0.819574 0.064504
O O16 0.500000 0.321857 0.500000
O O17 0.000000 0.313022 0.000000
#
# Coordination Sequence:
#
# PCOD9197733 Si02
#       8
#     2   8   8   8   8   8   8   8
#     4  12  24  44  66  88 140 184 212 282 344 394
#     4  10  20  38  65  96 128 168 222 270 318 393
#     4  11  24  42  62  97 130 175 220 272 331 397
#     4  11  24  45  67  97 129 173 219 278 337 395
#     4  10  20  35  62  96 133 174 215 266 325 391
#     4  11  26  43  68  98 134 170 227 277 335 405
#     4  10  23  40  67  94 129 169 222 270 325 394
#     4  10  22  43  66  96 134 171 220 274 335 404
#
# _framework density 25.437926000000001
#
# number of rings (size 3 to 8) (size 9 to 14) (size 15 to 20)
#    0.000    1.517    2.069    2.069    4.828    2.759 
#    2.483    0.000    0.000    0.000    0.000    0.000 
#    0.000    0.000    0.000    0.000    0.000    0.000 
#
# Total GULP energy -162071.122597 kJ/mol
# GULP energy per Si atom -5588.659400 kJ/mol
# Density = 2.538003 g / cm^3
# Si number density = 25.437926 Si / 1000 Ang^3
#
#
#
# Elastic Constant Matrix: (Units=GPa)
#
#
# Indices 1 2 3 4 5 6 
#
# 1 50.6336 18.5464 12.3895 0.0001 -18.2197 0.0001
# 2 18.5464 94.2389 15.6966 0.0000 -3.1130 0.0000
# 3 12.3895 15.6966 113.1428 0.0005 2.1145 0.0003
# 4 0.0001 0.0000 0.0005 40.9191 0.0002 -1.0810
# 5 -18.2197 -3.1130 2.1145 0.0002 30.7924 0.0001
# 6 0.0001 0.0000 0.0003 -1.0810 0.0001 36.0025
#
#
#
# Elastic Compliance Matrix: (Units=1/GPa)
#
#
# Indices 1 2 3 4 5 6 
#
# 1 0.027915 -0.004501 -0.002736 0.000000 0.016250 0.000000
# 2 -0.004501 0.011633 -0.001095 0.000000 -0.001412 0.000000
# 3 -0.002736 -0.001095 0.009334 0.000000 -0.002371 0.000000
# 4 0.000000 0.000000 0.000000 0.024458 0.000000 0.000734
# 5 0.016250 -0.001412 -0.002371 0.000000 0.042111 0.000000
# 6 0.000000 0.000000 0.000000 0.000734 0.000000 0.027798
#
#
# Mechanical properties :
#
#
# Convention : Reuss Voigt Hill
#
# Bulk Modulus (GPa) = 31.03799 39.03115 35.03457
# Shear Modulus (GPa) = 29.29937 35.63499 32.46718
#
# Velocity S-wave (km/s) = 3.39750 3.74687 3.57645
# Velocity P-wave (km/s) = 5.25534 5.83915 5.55492
#
# Compressibility (1/GPa) = 0.03221859
#
# Stress axis : x y z
#
# Youngs Moduli (GPa) = 35.82260 85.96345 107.13359
#
# Poissons Ratio (x) = 0.38695 0.29312
# Poissons Ratio (y) = 0.16125 0.11726
# Poissons Ratio (z) = 0.09801 0.09409
#
# Static dielectric constant tensor:
#      x y z
#    x 2.148500 0.000000 0.122380 
#    y 0.000000 1.990790 0.000000 
#    z 0.122380 0.000000 2.083600 
# 
# From -- ./inp_files/302451.got.cif
#   From: 2010.05.17/outbox.cif.g08.bks.cpg/sg12_152_cif.got.tgz:302451.got - 2010.06.03 13:09:07.
