data_PCOD9197200
_publ_section_title
;
Structure prediction by ZEFSAII (Michael W. Deem and Ramdas Pophale) SiO2 
 PCOD9197200
Probable space group: C 2/M
;
_chemical_formula_sum "Si O2"
_cell_formula_units_Z 56
_cell_length_a 25.176168
_cell_length_b 14.851125
_cell_length_c 16.712839
_cell_angle_alpha 90.000000
_cell_angle_beta 22.742140
_cell_angle_gamma 90.000000
_cell_volume 2415.703283
_symmetry_space_group_name_H-M "C 2/M"
_symmetry_group_IT_number 12
_symmetry_cell_setting 'monoclinic'
loop_
_space_group_symop_operation_xyz
x,y,z
-x,y,-z
-x,-y,-z
x,-y,z
1/2+x,1/2+y,z
1/2-x,1/2+y,-z
1/2-x,1/2-y,-z
1/2+x,1/2-y,z
loop_
_atom_site_type_symbol
_atom_site_label
_atom_site_fract_x
_atom_site_fract_y
_atom_site_fract_z
Si Si1 0.994530 0.099732 0.600135
Si Si2 0.182930 0.596302 0.274724
Si Si3 0.429040 0.105446 0.343936
Si Si4 0.977887 0.704853 0.937272
Si Si5 0.704882 0.854694 0.060890
Si Si6 0.829317 0.255019 0.598669
Si Si7 0.505811 0.596652 0.088630
O O1 0.071199 0.170891 0.550002
O O2 0.000000 0.128287 0.500000
O O3 0.836007 0.097048 0.841799
O O4 0.056277 0.000000 0.521321
O O5 0.121184 0.500000 0.382537
O O6 0.109921 0.678985 0.418309
O O7 0.189308 0.610228 0.172254
O O8 0.337619 0.595079 0.096186
O O9 0.322840 0.176969 0.531996
O O10 0.390732 0.000000 0.405465
O O11 0.461771 0.132447 0.207267
O O12 0.570901 0.125764 0.194401
O O13 0.812564 0.717880 0.167237
O O14 0.041303 0.802618 0.824090
O O15 0.000000 0.685602 0.000000
O O16 0.750000 0.750000 0.000000
O O17 0.442688 0.500000 0.202971
O O18 0.500000 0.596148 0.000000
#
# Coordination Sequence:
#
# PCOD9197200 Si02
#       7
#     8   8   8   8   8   8   8
#     4  11  23  39  60  91 133 176 220 269 325 396
#     4  10  20  35  58  90 127 166 212 262 319 392
#     4  12  26  44  68  99 137 181 226 280 343 409
#     4  10  23  45  70  96 131 178 227 284 347 413
#     4  12  22  40  64  93 133 176 218 266 332 400
#     4  11  24  40  66  99 132 173 220 278 336 399
#     4   8  15  31  58  89 120 159 209 264 323 379
#
# _framework density 23.181654999999999
#
# number of rings (size 3 to 8) (size 9 to 14) (size 15 to 20)
#    0.000    1.429    1.429    5.143    0.000    3.143 
#    0.000    1.429    0.000    0.000    0.000    0.000 
#    0.000    0.000    0.000    0.000    0.000    0.000 
#
# Total GULP energy -156428.464749 kJ/mol
# GULP energy per Si atom -5586.730884 kJ/mol
# Density = 2.312889 g / cm^3
# Si number density = 23.181655 Si / 1000 Ang^3
#
#
#
# Elastic Constant Matrix: (Units=GPa)
#
#
# Indices 1 2 3 4 5 6 
#
# 1 88.5247 18.8875 8.4317 0.0000 7.2855 0.0000
# 2 18.8875 146.0603 8.5313 -0.0001 6.9515 0.0000
# 3 8.4317 8.5313 66.9559 -0.0001 12.9485 0.0000
# 4 0.0000 -0.0001 -0.0001 20.1131 0.0001 18.3434
# 5 7.2855 6.9515 12.9485 0.0001 38.1334 0.0000
# 6 0.0000 0.0000 0.0000 18.3434 0.0000 27.6140
#
#
#
# Elastic Compliance Matrix: (Units=1/GPa)
#
#
# Indices 1 2 3 4 5 6 
#
# 1 0.011825 -0.001392 -0.000989 0.000000 -0.001670 0.000000
# 2 -0.001392 0.007099 -0.000568 0.000000 -0.000835 0.000000
# 3 -0.000989 -0.000568 0.016135 0.000000 -0.005186 0.000000
# 4 0.000000 0.000000 0.000000 0.126135 -0.000001 -0.083789
# 5 -0.001670 -0.000835 -0.005186 -0.000001 0.028456 0.000000
# 6 0.000000 0.000000 0.000000 -0.083789 0.000000 0.091873
#
#
# Mechanical properties :
#
#
# Convention : Reuss Voigt Hill
#
# Bulk Modulus (GPa) = 34.29076 41.47132 37.88104
# Shear Modulus (GPa) = 16.82703 34.88480 25.85591
#
# Velocity S-wave (km/s) = 2.69713 3.88344 3.34333
# Velocity P-wave (km/s) = 4.95214 6.16739 5.59287
#
# Compressibility (1/GPa) = 0.02916237
#
# Stress axis : x y z
#
# Youngs Moduli (GPa) = 84.56764 140.85701 61.97684
#
# Poissons Ratio (x) = 0.19606 0.06129
# Poissons Ratio (y) = 0.11771 0.03519
# Poissons Ratio (z) = 0.08363 0.07997
#
# Static dielectric constant tensor:
#      x y z
#    x 1.899840 0.000000 -0.065700 
#    y 0.000000 1.931890 0.000000 
#    z -0.065700 0.000000 1.928120 
# 
# From -- ./inp_files/240868.got.cif
#   From: 2010.05.17/outbox.cif.g08.bks.cpg/sg12_121_cif.got.tgz:240868.got - 2010.06.03 13:09:07.
