data_PCOD9197668
_publ_section_title
;
Structure prediction by ZEFSAII (Michael W. Deem and Ramdas Pophale) SiO2 
 PCOD9197668
Probable space group: C 2/M
;
_chemical_formula_sum "Si O2"
_cell_formula_units_Z 64
_cell_length_a 14.232184
_cell_length_b 11.422027
_cell_length_c 20.440277
_cell_angle_alpha 90.000000
_cell_angle_beta 107.025429
_cell_angle_gamma 90.000000
_cell_volume 3177.158264
_symmetry_space_group_name_H-M "C 2/M"
_symmetry_group_IT_number 12
_symmetry_cell_setting 'monoclinic'
loop_
_space_group_symop_operation_xyz
x,y,z
-x,y,-z
-x,-y,-z
x,-y,z
1/2+x,1/2+y,z
1/2-x,1/2+y,-z
1/2-x,1/2-y,-z
1/2+x,1/2-y,z
loop_
_atom_site_type_symbol
_atom_site_label
_atom_site_fract_x
_atom_site_fract_y
_atom_site_fract_z
Si Si1 0.738223 0.868693 0.074782
Si Si2 0.118278 0.868864 0.522439
Si Si3 0.740612 0.864106 0.218497
Si Si4 0.381885 0.368728 0.629733
Si Si5 0.687015 0.202235 0.650750
Si Si6 0.502667 0.131989 0.689673
Si Si7 0.083752 0.791210 0.969383
Si Si8 0.995127 0.632704 0.837322
O O1 0.769601 0.821021 0.152001
O O2 0.831780 0.869316 0.046211
O O3 0.702899 0.000000 0.079346
O O4 0.648967 0.797192 0.026206
O O5 0.146048 0.854895 0.452294
O O6 0.160063 0.774417 0.580317
O O7 0.000000 0.862228 0.500000
O O8 0.147672 0.000000 0.549631
O O9 0.786584 0.791528 0.285940
O O10 0.622261 0.855444 0.195736
O O11 0.768805 0.000000 0.231184
O O12 0.429998 0.500000 0.645242
O O13 0.284528 0.368718 0.653656
O O14 0.441281 0.250379 0.660738
O O15 0.593362 0.133061 0.658209
O O16 0.535925 0.145589 0.771991
O O17 0.454902 0.000000 0.676340
O O18 0.033414 0.722146 0.899135
O O19 0.000000 0.842450 0.000000
O O20 0.016885 0.500000 0.864127
#
# Coordination Sequence:
#
# PCOD9197668 Si02
#       8
#     8   8   8   8   8   8   8   8
#     4  10  22  38  57  88 121 154 201 248 298 365
#     4  10  21  39  63  92 126 165 209 253 306 377
#     4  10  20  35  61  92 121 157 205 253 301 370
#     4  11  24  43  64  92 128 163 206 256 310 374
#     4  12  22  39  66  91 123 162 205 256 315 359
#     4  11  24  42  64  92 127 163 206 258 310 368
#     4  11  21  36  62  85 115 158 198 248 304 354
#     4  10  20  37  60  88 120 157 203 249 297 363
#
# _framework density 20.143785999999999
#
# number of rings (size 3 to 8) (size 9 to 14) (size 15 to 20)
#    0.000    1.375    3.750    2.250    0.000    1.750 
#    0.000    2.500    0.000    0.750    0.000    0.000 
#    0.000    0.000    0.000    0.000    0.000    0.000 
#
# Total GULP energy -178540.432122 kJ/mol
# GULP energy per Si atom -5579.388504 kJ/mol
# Density = 2.009794 g / cm^3
# Si number density = 20.143786 Si / 1000 Ang^3
#
#
#
# Elastic Constant Matrix: (Units=GPa)
#
#
# Indices 1 2 3 4 5 6 
#
# 1 89.0380 16.0199 6.0932 0.0000 -21.7364 0.0000
# 2 16.0199 109.1506 45.9571 0.0000 8.2452 0.0000
# 3 6.0932 45.9571 82.8804 0.0000 -11.9274 0.0000
# 4 0.0000 0.0000 0.0000 49.6471 0.0000 26.0023
# 5 -21.7364 8.2452 -11.9274 0.0000 33.4483 0.0000
# 6 0.0000 0.0000 0.0000 26.0023 0.0000 54.9864
#
#
#
# Elastic Compliance Matrix: (Units=1/GPa)
#
#
# Indices 1 2 3 4 5 6 
#
# 1 0.014635 -0.004275 0.002967 0.000000 0.011622 0.000000
# 2 -0.004275 0.014285 -0.008974 0.000000 -0.009500 0.000000
# 3 0.002967 -0.008974 0.018362 0.000000 0.010688 0.000000
# 4 0.000000 0.000000 0.000000 0.026773 0.000000 -0.012661
# 5 0.011622 -0.009500 0.010688 0.000000 0.043603 0.000000
# 6 0.000000 0.000000 0.000000 -0.012661 0.000000 0.024173
#
#
# Mechanical properties :
#
#
# Convention : Reuss Voigt Hill
#
# Bulk Modulus (GPa) = 37.42847 46.35659 41.89253
# Shear Modulus (GPa) = 29.18866 41.81629 35.50247
#
# Velocity S-wave (km/s) = 3.81072 4.56114 4.20271
# Velocity P-wave (km/s) = 6.16305 7.12751 6.66275
#
# Compressibility (1/GPa) = 0.02671763
#
# Stress axis : x y z
#
# Youngs Moduli (GPa) = 68.33132 70.00310 54.46175
#
# Poissons Ratio (x) = 0.29928 -0.16160
# Poissons Ratio (y) = 0.29213 0.48873
# Poissons Ratio (z) = -0.20276 0.62820
#
# Static dielectric constant tensor:
#      x y z
#    x 1.751440 0.000000 -0.031430 
#    y 0.000000 1.709290 0.000000 
#    z -0.031430 0.000000 1.687080 
# 
# From -- ./inp_files/309950.got.cif
#   From: 2010.05.17/outbox.cif.g08.bks.cpg/sg12_155_cif.got.tgz:309950.got - 2010.06.03 13:09:07.
