data_PCOD9197553
_publ_section_title
;
Structure prediction by ZEFSAII (Michael W. Deem and Ramdas Pophale) SiO2 
 PCOD9197553
Probable space group: C 2/M
;
_chemical_formula_sum "Si O2"
_cell_formula_units_Z 56
_cell_length_a 29.701448
_cell_length_b 8.644069
_cell_length_c 22.314425
_cell_angle_alpha 90.000000
_cell_angle_beta 30.837007
_cell_angle_gamma 90.000000
_cell_volume 2936.689823
_symmetry_space_group_name_H-M "C 2/M"
_symmetry_group_IT_number 12
_symmetry_cell_setting 'monoclinic'
loop_
_space_group_symop_operation_xyz
x,y,z
-x,y,-z
-x,-y,-z
x,-y,z
1/2+x,1/2+y,z
1/2-x,1/2+y,-z
1/2-x,1/2-y,-z
1/2+x,1/2-y,z
loop_
_atom_site_type_symbol
_atom_site_label
_atom_site_fract_x
_atom_site_fract_y
_atom_site_fract_z
Si Si1 0.767527 0.683844 0.883431
Si Si2 0.880499 0.315927 0.269802
Si Si3 0.959563 0.182028 0.979846
Si Si4 0.087578 0.688272 0.634052
Si Si5 0.280361 0.184939 0.619711
Si Si6 0.236327 0.317088 0.795047
Si Si7 0.385234 0.186429 0.863687
O O1 0.767388 0.500000 0.874788
O O2 0.783161 0.766575 0.802725
O O3 0.838390 0.722382 0.853899
O O4 0.673838 0.736765 0.017499
O O5 0.866594 0.500000 0.281298
O O6 0.870901 0.265197 0.349794
O O7 0.811918 0.230542 0.305418
O O8 0.978592 0.275514 0.136127
O O9 0.963050 0.000000 0.961453
O O10 0.859898 0.238885 0.093849
O O11 0.000000 0.203670 0.000000
O O12 0.087630 0.500000 0.633461
O O13 0.144330 0.738957 0.512395
O O14 0.986105 0.737017 0.748357
O O15 0.284429 0.259721 0.680305
O O16 0.284609 0.000000 0.620889
O O17 0.225216 0.500000 0.805682
O O18 0.381915 0.000000 0.875637
#
# Coordination Sequence:
#
# PCOD9197553 Si02
#       7
#     8   8   8   8   8   8   8
#     4  10  20  35  60  90 117 145 181 229 286 340
#     4  11  21  35  57  85 115 149 187 227 279 336
#     4  11  22  36  56  82 113 145 182 230 278 327
#     4   9  20  37  58  82 109 146 190 233 276 328
#     4  11  22  38  56  77 111 151 192 235 275 325
#     4  12  24  38  57  81 113 151 190 230 281 338
#     4   9  18  37  62  88 115 145 185 232 281 334
#
# _framework density 19.069089000000002
#
# number of rings (size 3 to 8) (size 9 to 14) (size 15 to 20)
#    0.000    1.571    1.429    4.286    0.000    2.286 
#    0.000    5.000    0.000    4.286    0.000    0.000 
#    0.000    0.000    0.000    0.000    0.000    0.000 
#
# Total GULP energy -156521.757528 kJ/mol
# GULP energy per Si atom -5590.062769 kJ/mol
# Density = 1.902569 g / cm^3
# Si number density = 19.069089 Si / 1000 Ang^3
#
#
#
# Elastic Constant Matrix: (Units=GPa)
#
#
# Indices 1 2 3 4 5 6 
#
# 1 71.7752 22.0530 25.0442 -0.0021 28.5419 0.0011
# 2 22.0530 27.9566 -3.0477 -0.0060 6.9385 0.0041
# 3 25.0442 -3.0477 69.2056 -0.0046 23.7884 0.0030
# 4 -0.0021 -0.0060 -0.0046 24.8489 0.0017 5.6978
# 5 28.5419 6.9385 23.7884 0.0017 30.1128 -0.0011
# 6 0.0011 0.0041 0.0030 5.6978 -0.0011 25.3657
#
#
#
# Elastic Compliance Matrix: (Units=1/GPa)
#
#
# Indices 1 2 3 4 5 6 
#
# 1 0.029025 -0.018522 -0.004571 -0.000002 -0.019632 0.000002
# 2 -0.018522 0.051956 0.009707 0.000016 -0.002084 -0.000012
# 3 -0.004571 0.009707 0.021705 0.000008 -0.015050 -0.000007
# 4 -0.000002 0.000016 0.000008 0.042429 -0.000011 -0.009531
# 5 -0.019632 -0.002084 -0.015050 -0.000011 0.064186 0.000008
# 6 0.000002 -0.000012 -0.000007 -0.009531 0.000008 0.041564
#
#
# Mechanical properties :
#
#
# Convention : Reuss Voigt Hill
#
# Bulk Modulus (GPa) = 13.17270 28.55960 20.86615
# Shear Modulus (GPa) = 16.50491 24.39134 20.44812
#
# Velocity S-wave (km/s) = 2.94518 3.58034 3.27818
# Velocity P-wave (km/s) = 4.29981 5.66579 5.02939
#
# Compressibility (1/GPa) = 0.07591456
#
# Stress axis : x y z
#
# Youngs Moduli (GPa) = 34.45306 19.24711 46.07300
#
# Poissons Ratio (x) = 0.35649 0.21060
# Poissons Ratio (y) = 0.63813 -0.44724
# Poissons Ratio (z) = 0.15749 -0.18684
#
# Static dielectric constant tensor:
#      x y z
#    x 1.664100 0.000000 0.011860 
#    y 0.000000 1.639710 0.000000 
#    z 0.011860 0.000000 1.649360 
# 
# From -- ./inp_files/238324.got.cif
#   From: 2010.05.17/outbox.cif.g08.bks.cpg/sg12_120_cif.got.tgz:238324.got - 2010.06.03 13:09:07.
