data_PCOD9197563
_publ_section_title
;
Structure prediction by ZEFSAII (Michael W. Deem and Ramdas Pophale) SiO2 
 PCOD9197563
Probable space group: C 2/M
;
_chemical_formula_sum "Si O2"
_cell_formula_units_Z 42
_cell_length_a 25.144607
_cell_length_b 12.652142
_cell_length_c 5.931460
_cell_angle_alpha 90.000000
_cell_angle_beta 90.765628
_cell_angle_gamma 90.000000
_cell_volume 1886.825514
_symmetry_space_group_name_H-M "C 2/M"
_symmetry_group_IT_number 12
_symmetry_cell_setting 'monoclinic'
loop_
_space_group_symop_operation_xyz
x,y,z
-x,y,-z
-x,-y,-z
x,-y,z
1/2+x,1/2+y,z
1/2-x,1/2+y,-z
1/2-x,1/2-y,-z
1/2+x,1/2-y,z
loop_
_atom_site_type_symbol
_atom_site_label
_atom_site_fract_x
_atom_site_fract_y
_atom_site_fract_z
Si Si1 0.304379 0.320549 0.257249
Si Si2 0.000000 0.500000 0.000000
Si Si3 0.302004 0.116858 0.965885
Si Si4 0.414091 0.621712 0.014858
Si Si5 0.630198 0.244134 0.366545
Si Si6 0.543575 0.192101 0.698266
O O1 0.251036 0.380804 0.190432
O O2 0.355349 0.368648 0.128615
O O3 0.321184 0.308047 0.517373
O O4 0.295209 0.202636 0.160462
O O5 0.969159 0.593634 0.144147
O O6 0.349443 0.160270 0.813053
O O7 0.312166 0.000000 0.050941
O O8 0.430244 0.500000 0.012037
O O9 0.451327 0.699667 0.160319
O O10 0.406609 0.672719 0.767674
O O11 0.599030 0.186782 0.565163
O O12 0.500000 0.196190 0.500000
#
# Coordination Sequence:
#
# PCOD9197563 Si02
#       6
#     8   2   8   8   8   8
#     4   9  20  39  57  91 134 175 215 260 323 381
#     4  12  26  48  70  90 128 168 214 270 340 394
#     4  10  20  35  60  90 129 172 221 270 315 380
#     4  10  22  42  68  99 135 170 216 267 320 393
#     4  10  22  40  61  95 130 166 222 270 327 384
#     4  11  25  46  69  96 127 170 215 271 338 393
#
# _framework density 22.259611
#
# number of rings (size 3 to 8) (size 9 to 14) (size 15 to 20)
#    0.000    1.905    0.000    2.571    1.333    4.952 
#   20.571    3.333    0.000    0.000    0.000    0.000 
#    0.000    0.000    0.000    0.000    0.000    0.000 
#
# Total GULP energy -117161.531298 kJ/mol
# GULP energy per Si atom -5579.120538 kJ/mol
# Density = 2.220895 g / cm^3
# Si number density = 22.259611 Si / 1000 Ang^3
#
#
#
# Elastic Constant Matrix: (Units=GPa)
#
#
# Indices 1 2 3 4 5 6 
#
# 1 63.6519 32.8707 9.1968 0.0000 0.5900 0.0000
# 2 32.8707 201.2630 41.6712 0.0000 -9.5919 0.0000
# 3 9.1968 41.6712 60.0235 0.0000 0.7920 0.0000
# 4 0.0000 0.0000 0.0000 4.0294 0.0000 -6.1613
# 5 0.5900 -9.5919 0.7920 0.0000 42.1307 0.0000
# 6 0.0000 0.0000 0.0000 -6.1613 0.0000 16.1831
#
#
#
# Elastic Compliance Matrix: (Units=1/GPa)
#
#
# Indices 1 2 3 4 5 6 
#
# 1 0.017220 -0.002696 -0.000756 0.000000 -0.000841 0.000000
# 2 -0.002696 0.006308 -0.003987 0.000000 0.001549 0.000000
# 3 -0.000756 -0.003987 0.019560 0.000000 -0.001265 0.000000
# 4 0.000000 0.000000 0.000000 0.593968 0.000000 0.226139
# 5 -0.000841 0.001549 -0.001265 0.000000 0.024124 0.000000
# 6 0.000000 0.000000 0.000000 0.226139 0.000000 0.147889
#
#
# Mechanical properties :
#
#
# Convention : Reuss Voigt Hill
#
# Bulk Modulus (GPa) = 35.44655 54.71287 45.07971
# Shear Modulus (GPa) = 5.99988 28.54862 17.27425
#
# Velocity S-wave (km/s) = 1.64355 3.58513 2.78876
# Velocity P-wave (km/s) = 4.42271 6.46300 5.53763
#
# Compressibility (1/GPa) = 0.02821149
#
# Stress axis : x y z
#
# Youngs Moduli (GPa) = 58.07312 158.52327 51.12354
#
# Poissons Ratio (x) = 0.42737 0.03863
# Poissons Ratio (y) = 0.15656 0.20382
# Poissons Ratio (z) = 0.04388 0.63201
#
# Static dielectric constant tensor:
#      x y z
#    x 1.908810 0.000000 0.021740 
#    y 0.000000 1.762210 0.000000 
#    z 0.021740 0.000000 1.828050 
# 
# From -- ./inp_files/30890.got.cif
#   From: 2010.05.17/outbox.cif.g08.bks.cpg/sg12_16_cif.got.tgz:30890.got - 2010.06.03 13:09:07.
