data_PCOD9197539
_publ_section_title
;
Structure prediction by ZEFSAII (Michael W. Deem and Ramdas Pophale) SiO2 
 PCOD9197539
Probable space group: C 2/M
;
_chemical_formula_sum "Si O2"
_cell_formula_units_Z 56
_cell_length_a 14.819560
_cell_length_b 11.317624
_cell_length_c 15.692086
_cell_angle_alpha 90.000000
_cell_angle_beta 88.964243
_cell_angle_gamma 90.000000
_cell_volume 2631.481280
_symmetry_space_group_name_H-M "C 2/M"
_symmetry_group_IT_number 12
_symmetry_cell_setting 'monoclinic'
loop_
_space_group_symop_operation_xyz
x,y,z
-x,y,-z
-x,-y,-z
x,-y,z
1/2+x,1/2+y,z
1/2-x,1/2+y,-z
1/2-x,1/2-y,-z
1/2+x,1/2-y,z
loop_
_atom_site_type_symbol
_atom_site_label
_atom_site_fract_x
_atom_site_fract_y
_atom_site_fract_z
Si Si1 0.364900 0.134959 0.223582
Si Si2 0.226472 0.361108 0.610143
Si Si3 0.211209 0.124770 0.027532
Si Si4 0.396311 0.368417 0.802028
Si Si5 0.555425 0.293369 0.921497
Si Si6 0.063590 0.632412 0.300767
Si Si7 0.901382 0.245950 0.528386
O O1 0.291254 0.180117 0.292573
O O2 0.386005 0.207362 0.138675
O O3 0.458678 0.135041 0.275815
O O4 0.345280 0.000000 0.202173
O O5 0.207862 0.500000 0.609090
O O6 0.154141 0.297303 0.550419
O O7 0.327314 0.338477 0.574188
O O8 0.182349 0.132609 0.126422
O O9 0.261025 0.000000 0.011664
O O10 0.250000 0.250000 0.000000
O O11 0.120976 0.121665 0.971727
O O12 0.395441 0.500000 0.759937
O O13 0.486851 0.356738 0.858266
O O14 0.396912 0.248479 0.747032
O O15 0.500000 0.231249 0.000000
O O16 0.097907 0.500000 0.277135
O O17 0.077526 0.654647 0.400792
O O18 0.000000 0.196873 0.500000
#
# Coordination Sequence:
#
# PCOD9197539 Si02
#       7
#     8   8   8   8   8   8   8
#     4   9  18  34  57  85 118 156 202 253 308 371
#     4  10  22  39  60  88 122 164 212 259 313 379
#     4  10  21  36  55  80 112 152 196 242 296 358
#     4   9  19  37  59  83 113 152 197 242 299 364
#     4   9  18  34  58  85 113 151 200 248 296 359
#     4  10  20  35  60  89 115 152 202 251 302 364
#     4  11  22  38  63  88 121 162 209 261 315 375
#
# _framework density 21.280788999999999
#
# number of rings (size 3 to 8) (size 9 to 14) (size 15 to 20)
#    0.000    2.286    1.429    0.857    0.000    5.714 
#    0.000    5.714    0.000    1.714    0.000    0.000 
#    0.000    0.000    0.000    0.000    0.000    0.000 
#
# Total GULP energy -156126.449710 kJ/mol
# GULP energy per Si atom -5575.944632 kJ/mol
# Density = 2.123235 g / cm^3
# Si number density = 21.280789 Si / 1000 Ang^3
#
#
#
# Elastic Constant Matrix: (Units=GPa)
#
#
# Indices 1 2 3 4 5 6 
#
# 1 108.5943 39.5111 36.2626 0.0000 -14.6157 0.0000
# 2 39.5111 136.7641 60.0417 0.0000 -27.3283 0.0000
# 3 36.2626 60.0417 129.5173 0.0000 -14.5171 0.0000
# 4 0.0000 0.0000 0.0000 15.5342 0.0000 -8.1682
# 5 -14.6157 -27.3283 -14.5171 0.0000 41.0843 0.0000
# 6 0.0000 0.0000 0.0000 -8.1682 0.0000 20.9386
#
#
#
# Elastic Compliance Matrix: (Units=1/GPa)
#
#
# Indices 1 2 3 4 5 6 
#
# 1 0.010798 -0.001891 -0.001934 0.000000 0.001900 0.000000
# 2 -0.001891 0.010517 -0.003787 0.000000 0.004985 0.000000
# 3 -0.001934 -0.003787 0.010057 0.000000 0.000346 0.000000
# 4 0.000000 0.000000 0.000000 0.080986 0.000000 0.031593
# 5 0.001900 0.004985 0.000346 0.000000 0.028454 0.000000
# 6 0.000000 0.000000 0.000000 0.031593 0.000000 0.060083
#
#
# Mechanical properties :
#
#
# Convention : Reuss Voigt Hill
#
# Bulk Modulus (GPa) = 61.92678 71.83404 66.88041
# Shear Modulus (GPa) = 22.57320 31.44878 27.01099
#
# Velocity S-wave (km/s) = 3.26042 3.84839 3.56654
# Velocity P-wave (km/s) = 6.58307 7.31952 6.96104
#
# Compressibility (1/GPa) = 0.01614810
#
# Stress axis : x y z
#
# Youngs Moduli (GPa) = 92.60931 95.08544 99.43404
#
# Poissons Ratio (x) = 0.17980 0.19227
# Poissons Ratio (y) = 0.17512 0.37658
# Poissons Ratio (z) = 0.17908 0.36012
#
# Static dielectric constant tensor:
#      x y z
#    x 1.848890 0.000000 0.014190 
#    y 0.000000 1.759900 0.000000 
#    z 0.014190 0.000000 1.784240 
# 
# From -- ./inp_files/213428.got.cif
#   From: 2010.05.17/outbox.cif.g08.bks.cpg/sg12_107_cif.got.tgz:213428.got - 2010.06.03 13:09:07.
