data_PCOD9197963
_publ_section_title
;
Structure prediction by ZEFSAII (Michael W. Deem and Ramdas Pophale) SiO2 
 PCOD9197963
Probable space group: C 2/M
;
_chemical_formula_sum "Si O2"
_cell_formula_units_Z 56
_cell_length_a 30.678199
_cell_length_b 8.716823
_cell_length_c 22.445092
_cell_angle_alpha 90.000000
_cell_angle_beta 146.779399
_cell_angle_gamma 90.000000
_cell_volume 3288.382150
_symmetry_space_group_name_H-M "C 2/M"
_symmetry_group_IT_number 12
_symmetry_cell_setting 'monoclinic'
loop_
_space_group_symop_operation_xyz
x,y,z
-x,y,-z
-x,-y,-z
x,-y,z
1/2+x,1/2+y,z
1/2-x,1/2+y,-z
1/2-x,1/2-y,-z
1/2+x,1/2-y,z
loop_
_atom_site_type_symbol
_atom_site_label
_atom_site_fract_x
_atom_site_fract_y
_atom_site_fract_z
Si Si1 0.418190 0.684378 0.742231
Si Si2 0.877475 0.316869 0.349177
Si Si3 0.414545 0.817260 0.607839
Si Si4 0.044303 0.184536 0.988991
Si Si5 0.784305 0.681942 0.795913
Si Si6 0.490558 0.682831 0.580546
Si Si7 0.737154 0.684481 0.360499
O O1 0.418211 0.500000 0.733966
O O2 0.429227 0.764521 0.691779
O O3 0.486871 0.722345 0.868295
O O4 0.333679 0.726594 0.675487
O O5 0.882580 0.500000 0.354477
O O6 0.787129 0.261813 0.249915
O O7 0.926699 0.247359 0.350443
O O8 0.922993 0.254709 0.460105
O O9 0.471015 0.734654 0.624801
O O10 0.323357 0.778358 0.485786
O O11 0.423705 0.000000 0.612553
O O12 0.055807 0.000000 0.003405
O O13 0.129349 0.264602 0.083568
O O14 0.000000 0.226435 0.000000
O O15 0.775846 0.500000 0.790063
O O16 0.775534 0.735324 0.717257
O O17 0.488567 0.500000 0.572445
O O18 0.733033 0.500000 0.346139
#
# Coordination Sequence:
#
# PCOD9197963 Si02
#       7
#     8   8   8   8   8   8   8
#     4  10  21  37  57  79 109 152 196 234 277 328
#     4  11  21  36  57  82 113 148 185 226 281 339
#     4  11  22  35  55  82 116 155 188 226 280 337
#     4  10  20  38  60  79 107 151 193 235 281 331
#     4  12  23  34  55  85 116 147 184 236 284 328
#     4  11  21  35  56  84 115 145 184 230 278 332
#     4  10  20  36  55  78 112 154 190 226 277 338
#
# _framework density 17.02965
#
# number of rings (size 3 to 8) (size 9 to 14) (size 15 to 20)
#    0.000    1.286    2.857    5.571    0.000    2.000 
#    0.000    0.000    0.000    0.857    0.000    0.000 
#    0.000    0.000    0.000    0.000    0.000    0.000 
#
# Total GULP energy -156506.011891 kJ/mol
# GULP energy per Si atom -5589.500425 kJ/mol
# Density = 1.699089 g / cm^3
# Si number density = 17.029650 Si / 1000 Ang^3
#
#
#
# Elastic Constant Matrix: (Units=GPa)
#
#
# Indices 1 2 3 4 5 6 
#
# 1 141.2725 66.3625 66.3353 0.0000 9.6816 0.0000
# 2 66.3625 95.2842 47.7746 0.0000 2.4068 0.0000
# 3 66.3353 47.7746 76.8436 0.0000 2.5471 0.0000
# 4 0.0000 0.0000 0.0000 -5.3579 0.0000 -33.0779
# 5 9.6816 2.4068 2.5471 0.0000 28.0524 0.0000
# 6 0.0000 0.0000 0.0000 -33.0779 0.0000 -0.3435
#
#
#
# Elastic Compliance Matrix: (Units=1/GPa)
#
#
# Indices 1 2 3 4 5 6 
#
# 1 0.013784 -0.005236 -0.008527 0.000000 -0.003534 0.000000
# 2 -0.005236 0.017242 -0.006230 0.000000 0.000893 0.000000
# 3 -0.008527 -0.006230 0.024205 0.000000 0.001280 0.000000
# 4 0.000000 0.000000 0.000000 0.000314 0.000000 -0.030283
# 5 -0.003534 0.000893 0.001280 0.000000 0.036674 0.000000
# 6 0.000000 0.000000 0.000000 -0.030283 0.000000 0.004905
#
#
# Mechanical properties :
#
#
# Convention : Reuss Voigt Hill
#
# Bulk Modulus (GPa) = 65.58725 74.92724 70.25725
# Shear Modulus (GPa) = 35.16380 13.33206 24.24793
#
# Velocity S-wave (km/s) = 4.54900 2.80102 3.77751
# Velocity P-wave (km/s) = 8.13562 7.38611 7.76991
#
# Compressibility (1/GPa) = 0.01524687
#
# Stress axis : x y z
#
# Youngs Moduli (GPa) = 72.54848 57.99691 41.31382
#
# Poissons Ratio (x) = 0.30364 0.35228
# Poissons Ratio (y) = 0.37983 0.25738
# Poissons Ratio (z) = 0.61861 0.36131
#
# Static dielectric constant tensor:
#      x y z
#    x 1.565370 0.000000 0.011990 
#    y 0.000000 1.570140 0.000000 
#    z 0.011990 0.000000 1.552480 
# 
# From -- ./inp_files/329720.got.cif
#   From: 2010.05.17/outbox.cif.g08.bks.cpg/sg12_165_cif.got.tgz:329720.got - 2010.06.03 13:09:07.
