data_PCOD9197579
_publ_section_title
;
Structure prediction by ZEFSAII (Michael W. Deem and Ramdas Pophale) SiO2 
 PCOD9197579
Probable space group: C 2/M
;
_chemical_formula_sum "Si O2"
_cell_formula_units_Z 56
_cell_length_a 12.642461
_cell_length_b 29.943133
_cell_length_c 7.515315
_cell_angle_alpha 90.000000
_cell_angle_beta 122.344919
_cell_angle_gamma 90.000000
_cell_volume 2403.542912
_symmetry_space_group_name_H-M "C 2/M"
_symmetry_group_IT_number 12
_symmetry_cell_setting 'monoclinic'
loop_
_space_group_symop_operation_xyz
x,y,z
-x,y,-z
-x,-y,-z
x,-y,z
1/2+x,1/2+y,z
1/2-x,1/2+y,-z
1/2-x,1/2-y,-z
1/2+x,1/2-y,z
loop_
_atom_site_type_symbol
_atom_site_label
_atom_site_fract_x
_atom_site_fract_y
_atom_site_fract_z
Si Si1 0.290867 0.188625 0.559777
Si Si2 0.295873 0.702877 0.118615
Si Si3 0.252236 0.087145 0.470010
Si Si4 0.516729 0.552135 0.798241
Si Si5 0.505778 0.049415 0.721587
Si Si6 0.761403 0.395213 0.056165
Si Si7 0.949186 0.234670 0.759500
O O1 0.250018 0.200844 0.721917
O O2 0.298568 0.136183 0.563780
O O3 0.176107 0.205398 0.336450
O O4 0.411185 0.219159 0.629463
O O5 0.445749 0.705879 0.242443
O O6 0.250000 0.750000 0.000000
O O7 0.248981 0.657855 0.980369
O O8 0.111773 0.073110 0.393445
O O9 0.360768 0.055272 0.640865
O O10 0.253246 0.090464 0.255805
O O11 0.529428 0.500000 0.760865
O O12 0.500000 0.553358 0.000000
O O13 0.640094 0.580664 0.862169
O O14 0.500000 0.053017 0.500000
O O15 0.604366 0.085402 0.882761
O O16 0.552083 0.000000 0.808306
O O17 0.000000 0.245350 0.000000
#
# Coordination Sequence:
#
# PCOD9197579 Si02
#       7
#     8   8   8   8   8   8   8
#     4  11  25  41  63  90 121 171 205 269 316 378
#     4  12  25  42  62  89 123 170 212 260 314 375
#     4  10  20  35  60  91 123 158 205 259 319 372
#     4   9  17  33  60  90 118 154 201 253 308 366
#     4   9  18  34  58  92 127 160 206 264 317 372
#     4  10  21  36  60  88 122 162 210 261 309 373
#     4  11  23  43  63  86 121 161 216 262 308 372
#
# _framework density 23.298940000000002
#
# number of rings (size 3 to 8) (size 9 to 14) (size 15 to 20)
#    0.000    1.714    1.429    3.000    4.000    4.571 
#    0.000    0.000    0.000    5.143    0.000    0.000 
#    0.000    0.000    0.000    0.000    0.000    0.000 
#
# Total GULP energy -156530.184143 kJ/mol
# GULP energy per Si atom -5590.363719 kJ/mol
# Density = 2.324591 g / cm^3
# Si number density = 23.298940 Si / 1000 Ang^3
#
#
#
# Elastic Constant Matrix: (Units=GPa)
#
#
# Indices 1 2 3 4 5 6 
#
# 1 54.5016 21.1377 44.2499 0.0000 30.3476 0.0000
# 2 21.1377 145.4299 36.3602 0.0000 39.3130 0.0000
# 3 44.2499 36.3602 75.5330 0.0000 27.3414 0.0000
# 4 0.0000 0.0000 0.0000 27.0296 0.0000 12.7633
# 5 30.3476 39.3130 27.3414 0.0000 30.3378 0.0000
# 6 0.0000 0.0000 0.0000 12.7633 0.0000 18.5059
#
#
#
# Elastic Compliance Matrix: (Units=1/GPa)
#
#
# Indices 1 2 3 4 5 6 
#
# 1 0.067066 0.013131 -0.022511 0.000000 -0.063816 0.000000
# 2 0.013131 0.013156 -0.004601 0.000000 -0.026038 0.000000
# 3 -0.022511 -0.004601 0.027209 0.000000 0.003959 0.000000
# 4 0.000000 0.000000 0.000000 0.054864 0.000000 -0.037839
# 5 -0.063816 -0.026038 0.003959 0.000000 0.126972 0.000000
# 6 0.000000 0.000000 0.000000 -0.037839 0.000000 0.080134
#
#
# Mechanical properties :
#
#
# Convention : Reuss Voigt Hill
#
# Bulk Modulus (GPa) = 12.58329 53.21780 32.90055
# Shear Modulus (GPa) = 11.79658 26.75578 19.27618
#
# Velocity S-wave (km/s) = 2.25258 3.39244 2.87947
# Velocity P-wave (km/s) = 3.48970 6.18350 5.02064
#
# Compressibility (1/GPa) = 0.07947046
#
# Stress axis : x y z
#
# Youngs Moduli (GPa) = 14.91069 76.00819 36.75311
#
# Poissons Ratio (x) = -0.99808 0.82733
# Poissons Ratio (y) = -0.19580 0.16910
# Poissons Ratio (z) = 0.33565 0.34971
#
# Static dielectric constant tensor:
#      x y z
#    x 1.958600 0.000000 0.002950 
#    y 0.000000 1.869100 0.000000 
#    z 0.002950 0.000000 1.907200 
# 
# From -- ./inp_files/68309.got.cif
#   From: 2010.05.17/outbox.cif.g08.bks.cpg/sg12_35_cif.got.tgz:68309.got - 2010.06.03 13:09:07.
