data_PCOD9197287
_publ_section_title
;
Structure prediction by ZEFSAII (Michael W. Deem and Ramdas Pophale) SiO2 
 PCOD9197287
Probable space group: C 2/M
;
_chemical_formula_sum "Si O2"
_cell_formula_units_Z 56
_cell_length_a 21.870426
_cell_length_b 14.678964
_cell_length_c 21.440192
_cell_angle_alpha 90.000000
_cell_angle_beta 159.350571
_cell_angle_gamma 90.000000
_cell_volume 2427.303277
_symmetry_space_group_name_H-M "C 2/M"
_symmetry_group_IT_number 12
_symmetry_cell_setting 'monoclinic'
loop_
_space_group_symop_operation_xyz
x,y,z
-x,y,-z
-x,-y,-z
x,-y,z
1/2+x,1/2+y,z
1/2-x,1/2+y,-z
1/2-x,1/2-y,-z
1/2+x,1/2-y,z
loop_
_atom_site_type_symbol
_atom_site_label
_atom_site_fract_x
_atom_site_fract_y
_atom_site_fract_z
Si Si1 0.218183 0.397537 0.063704
Si Si2 0.672711 0.356813 0.695577
Si Si3 0.437063 0.846488 0.372865
Si Si4 0.847327 0.611020 0.737219
Si Si5 0.914870 0.111682 0.619974
Si Si6 0.946140 0.893367 0.015312
Si Si7 0.225334 0.889089 0.381337
O O1 0.202398 0.500000 0.022620
O O2 0.262545 0.402749 0.179730
O O3 0.387147 0.354009 0.193695
O O4 0.028082 0.355459 0.880680
O O5 0.500000 0.399321 0.500000
O O6 0.617155 0.256314 0.663382
O O7 0.811908 0.355782 0.773162
O O8 0.500000 0.887033 0.500000
O O9 0.596492 0.854726 0.478216
O O10 0.260482 0.887408 0.176664
O O11 0.854680 0.500000 0.747066
O O12 0.690312 0.637637 0.542142
O O13 0.814677 0.139291 0.586421
O O14 0.923569 0.000000 0.627539
O O15 0.066267 0.857826 0.185399
O O16 0.991606 0.000000 0.056013
O O17 0.000000 0.851782 0.000000
O O18 0.233726 0.000000 0.389448
#
# Coordination Sequence:
#
# PCOD9197287 Si02
#       7
#     8   8   8   8   8   8   8
#     4  10  20  36  59  87 120 155 198 246 292 345
#     4  11  22  36  56  86 119 160 199 240 294 344
#     4  11  23  38  56  85 120 154 195 243 298 351
#     4  10  20  36  61  92 121 155 197 240 293 350
#     4   9  19  36  60  90 121 152 191 242 294 352
#     4  10  20  35  59  86 110 146 193 247 304 348
#     4  10  21  39  64  91 118 152 197 246 296 354
#
# _framework density 23.070871
#
# number of rings (size 3 to 8) (size 9 to 14) (size 15 to 20)
#    0.000    1.857    2.857    1.286    0.000    4.571 
#    0.000    5.000    0.000    1.714    0.000    0.000 
#    0.000    0.000    0.000    0.000    0.000    0.000 
#
# Total GULP energy -156534.892031 kJ/mol
# GULP energy per Si atom -5590.531858 kJ/mol
# Density = 2.301836 g / cm^3
# Si number density = 23.070871 Si / 1000 Ang^3
#
#
#
# Elastic Constant Matrix: (Units=GPa)
#
#
# Indices 1 2 3 4 5 6 
#
# 1 148.6814 13.9274 37.0743 0.0280 38.3053 -0.0193
# 2 13.9274 54.7260 2.0232 -0.1410 -0.7330 0.0912
# 3 37.0743 2.0232 104.0541 0.0081 37.5354 -0.0194
# 4 0.0280 -0.1410 0.0081 274.9346 0.0093 -202.6825
# 5 38.3053 -0.7330 37.5354 0.0093 43.3435 -0.0119
# 6 -0.0193 0.0912 -0.0194 -202.6825 -0.0119 165.3990
#
#
#
# Elastic Compliance Matrix: (Units=1/GPa)
#
#
# Indices 1 2 3 4 5 6 
#
# 1 0.009025 -0.002385 -0.000404 -0.000006 -0.007667 -0.000005
# 2 -0.002385 0.018940 -0.000574 0.000022 0.002924 0.000016
# 3 -0.000404 -0.000574 0.014020 0.000005 -0.011794 0.000008
# 4 -0.000006 0.000022 0.000005 0.037645 0.000005 0.046130
# 5 -0.007667 0.002924 -0.011794 0.000005 0.040110 0.000006
# 6 -0.000005 0.000016 0.000008 0.046130 0.000006 0.062575
#
#
# Mechanical properties :
#
#
# Convention : Reuss Voigt Hill
#
# Bulk Modulus (GPa) = 28.35959 45.94571 37.15265
# Shear Modulus (GPa) = 24.90142 113.69788 69.29965
#
# Velocity S-wave (km/s) = 3.28890 7.02773 5.48661
# Velocity P-wave (km/s) = 5.17123 9.26338 7.50173
#
# Compressibility (1/GPa) = 0.03526144
#
# Stress axis : x y z
#
# Youngs Moduli (GPa) = 110.80315 52.79801 71.32743
#
# Poissons Ratio (x) = 0.12590 0.02879
# Poissons Ratio (y) = 0.26422 0.04091
# Poissons Ratio (z) = 0.04472 0.03028
#
# Static dielectric constant tensor:
#      x y z
#    x 1.826210 0.000000 0.005230 
#    y 0.000000 1.933040 0.000000 
#    z 0.005230 0.000000 1.872620 
# 
# From -- ./inp_files/322633.got.cif
#   From: 2010.05.17/outbox.cif.g08.bks.cpg/sg12_162_cif.got.tgz:322633.got - 2010.06.03 13:09:07.
