data_PCOD9197730
_publ_section_title
;
Structure prediction by ZEFSAII (Michael W. Deem and Ramdas Pophale) SiO2 
 PCOD9197730
Probable space group: C 2/M
;
_chemical_formula_sum "Si O2"
_cell_formula_units_Z 56
_cell_length_a 18.613718
_cell_length_b 14.057456
_cell_length_c 9.960941
_cell_angle_alpha 90.000000
_cell_angle_beta 108.662456
_cell_angle_gamma 90.000000
_cell_volume 2469.351153
_symmetry_space_group_name_H-M "C 2/M"
_symmetry_group_IT_number 12
_symmetry_cell_setting 'monoclinic'
loop_
_space_group_symop_operation_xyz
x,y,z
-x,y,-z
-x,-y,-z
x,-y,z
1/2+x,1/2+y,z
1/2-x,1/2+y,-z
1/2-x,1/2-y,-z
1/2+x,1/2-y,z
loop_
_atom_site_type_symbol
_atom_site_label
_atom_site_fract_x
_atom_site_fract_y
_atom_site_fract_z
Si Si1 0.921405 0.110170 0.008509
Si Si2 0.157292 0.605270 0.151220
Si Si3 0.046830 0.736948 0.400136
Si Si4 0.932094 0.394535 0.175686
Si Si5 0.663291 0.685753 0.289156
Si Si6 0.669547 0.840178 0.647242
Si Si7 0.699978 0.683209 0.869345
O O1 0.863251 0.123872 0.852146
O O2 0.934900 0.000000 0.048051
O O3 0.877695 0.156219 0.105790
O O4 0.000000 0.152584 0.000000
O O5 0.142224 0.500000 0.201198
O O6 0.159371 0.701962 0.240799
O O7 0.240536 0.602855 0.133174
O O8 0.098893 0.622065 0.992759
O O9 0.100035 0.816135 0.365712
O O10 0.104082 0.659264 0.498687
O O11 0.000000 0.773070 0.500000
O O12 0.991091 0.683694 0.263688
O O13 0.966212 0.500000 0.199441
O O14 0.861622 0.394850 0.240084
O O15 0.747784 0.648202 0.368934
O O16 0.678742 0.736670 0.720433
O O17 0.750000 0.750000 0.000000
#
# Coordination Sequence:
#
# PCOD9197730 Si02
#       7
#     8   8   8   8   8   8   8
#     4  11  24  37  59  92 124 155 194 247 305 355
#     4  10  20  35  62  96 125 157 196 250 312 367
#     4  10  24  37  57  84 116 165 203 239 301 365
#     4  10  20  36  58  91 129 158 195 247 309 373
#     4  11  22  39  63  84 125 156 207 255 295 360
#     4  10  20  37  58  89 113 163 203 236 298 357
#     4  11  18  37  64  90 119 154 199 250 305 352
#
# _framework density 22.678021999999999
#
# number of rings (size 3 to 8) (size 9 to 14) (size 15 to 20)
#    0.000    1.571    4.286    0.857    6.000    4.857 
#    0.000    1.429    0.000    8.143    0.000    0.000 
#    0.000    0.000    0.000    0.000    0.000    0.000 
#
# Total GULP energy -156225.443384 kJ/mol
# GULP energy per Si atom -5579.480121 kJ/mol
# Density = 2.262641 g / cm^3
# Si number density = 22.678022 Si / 1000 Ang^3
#
#
#
# Elastic Constant Matrix: (Units=GPa)
#
#
# Indices 1 2 3 4 5 6 
#
# 1 156.3792 14.2265 9.6561 0.0000 1.4207 0.0000
# 2 14.2265 39.4287 0.9195 0.0000 9.0890 0.0000
# 3 9.6561 0.9195 39.7121 0.0000 11.9278 0.0000
# 4 0.0000 0.0000 0.0000 3.1390 0.0000 1.0968
# 5 1.4207 9.0890 11.9278 0.0000 30.8281 0.0000
# 6 0.0000 0.0000 0.0000 1.0968 0.0000 12.1759
#
#
#
# Elastic Compliance Matrix: (Units=1/GPa)
#
#
# Indices 1 2 3 4 5 6 
#
# 1 0.006747 -0.002673 -0.001948 0.000000 0.001231 0.000000
# 2 -0.002673 0.028413 0.002796 0.000000 -0.009336 0.000000
# 3 -0.001948 0.002796 0.029205 0.000000 -0.012034 0.000000
# 4 0.000000 0.000000 0.000000 0.328923 0.000000 -0.029629
# 5 0.001231 -0.009336 -0.012034 0.000000 0.039790 0.000000
# 6 0.000000 0.000000 0.000000 -0.029629 0.000000 0.084799
#
#
# Mechanical properties :
#
#
# Convention : Reuss Voigt Hill
#
# Bulk Modulus (GPa) = 16.47038 31.68049 24.07543
# Shear Modulus (GPa) = 9.22910 23.27646 16.25278
#
# Velocity S-wave (km/s) = 2.01952 3.20721 2.67998
# Velocity P-wave (km/s) = 3.56601 5.26449 4.49618
#
# Compressibility (1/GPa) = 0.06071505
#
# Stress axis : x y z
#
# Youngs Moduli (GPa) = 148.21426 35.19466 34.24088
#
# Poissons Ratio (x) = 0.09407 0.06671
# Poissons Ratio (y) = 0.39614 -0.09574
# Poissons Ratio (z) = 0.28878 -0.09840
#
# Static dielectric constant tensor:
#      x y z
#    x 1.956860 0.000000 -0.017450 
#    y 0.000000 1.896680 0.000000 
#    z -0.017450 0.000000 1.849810 
# 
# From -- ./inp_files/156156.got.cif
#   From: 2010.05.17/outbox.cif.g08.bks.cpg/sg12_79_cif.got.tgz:156156.got - 2010.06.03 13:09:07.
