data_PCOD9197054
_publ_section_title
;
Structure prediction by ZEFSAII (Michael W. Deem and Ramdas Pophale) SiO2 
 PCOD9197054
Probable space group: C 2/M
;
_chemical_formula_sum "Si O2"
_cell_formula_units_Z 64
_cell_length_a 22.664673
_cell_length_b 23.457052
_cell_length_c 16.721270
_cell_angle_alpha 90.000000
_cell_angle_beta 160.401163
_cell_angle_gamma 90.000000
_cell_volume 2981.928452
_symmetry_space_group_name_H-M "C 2/M"
_symmetry_group_IT_number 12
_symmetry_cell_setting 'monoclinic'
loop_
_space_group_symop_operation_xyz
x,y,z
-x,y,-z
-x,-y,-z
x,-y,z
1/2+x,1/2+y,z
1/2-x,1/2+y,-z
1/2-x,1/2-y,-z
1/2+x,1/2-y,z
loop_
_atom_site_type_symbol
_atom_site_label
_atom_site_fract_x
_atom_site_fract_y
_atom_site_fract_z
Si Si1 0.624183 0.722112 0.228550
Si Si2 0.327573 0.586553 0.731998
Si Si3 0.543700 0.708886 0.303184
Si Si4 0.226309 0.913785 0.516753
Si Si5 0.718755 0.637707 0.940229
Si Si6 0.881133 0.567271 0.015592
Si Si7 0.416940 0.560719 0.498579
Si Si8 0.037308 0.566445 0.639032
O O1 0.654020 0.655068 0.251239
O O2 0.527749 0.730694 0.191311
O O3 0.817392 0.749832 0.476849
O O4 0.500000 0.745232 0.000000
O O5 0.324937 0.565306 0.637186
O O6 0.144457 0.573139 0.543009
O O7 0.500000 0.566331 0.000000
O O8 0.649608 0.649797 0.426797
O O9 0.367605 0.693829 0.128740
O O10 0.154892 0.943112 0.503989
O O11 0.433565 0.919808 0.787182
O O12 0.862891 0.618749 0.057457
O O13 0.554936 0.610850 0.683082
O O14 0.800686 0.602517 0.118902
O O15 0.887436 0.500000 0.053716
O O16 0.731111 0.570156 0.756439
O O17 0.506347 0.500000 0.595635
O O18 0.086828 0.500000 0.703856
O O19 0.000000 0.583383 0.500000
#
# Coordination Sequence:
#
# PCOD9197054 Si02
#       8
#     8   8   8   8   8   8   8   8
#     4   9  19  39  68  89 118 154 200 260 312 365
#     4  10  22  40  65  89 116 160 210 256 319 373
#     4   9  21  38  61  94 115 154 208 245 315 379
#     4  10  20  35  58  86 118 155 201 266 303 362
#     4  11  22  38  59  84 125 161 198 252 310 371
#     4  11  21  36  56  84 122 167 210 249 307 369
#     4  10  21  34  54  81 115 163 211 249 299 369
#     4  11  25  40  59  89 127 167 207 254 308 370
#
# _framework density 21.462620000000001
#
# number of rings (size 3 to 8) (size 9 to 14) (size 15 to 20)
#    0.000    1.875    1.250    2.250    7.000    4.750 
#    0.000    0.625    0.000    3.000    0.000    0.000 
#    0.000    0.000    0.000    0.000    0.000    0.000 
#
# Total GULP energy -178297.953438 kJ/mol
# GULP energy per Si atom -5571.811045 kJ/mol
# Density = 2.141377 g / cm^3
# Si number density = 21.462620 Si / 1000 Ang^3
#
#
#
# Elastic Constant Matrix: (Units=GPa)
#
#
# Indices 1 2 3 4 5 6 
#
# 1 111.4545 22.4873 20.5495 -0.0001 -11.9560 0.0000
# 2 22.4873 51.4333 23.4190 0.0000 -6.5225 0.0000
# 3 20.5495 23.4190 85.2203 -0.0001 -20.6622 -0.0001
# 4 -0.0001 0.0000 -0.0001 95.2479 0.0000 50.0645
# 5 -11.9560 -6.5225 -20.6622 0.0000 46.8328 0.0000
# 6 0.0000 0.0000 -0.0001 50.0645 0.0000 12.3617
#
#
#
# Elastic Compliance Matrix: (Units=1/GPa)
#
#
# Indices 1 2 3 4 5 6 
#
# 1 0.010087 -0.003745 -0.001014 0.000000 0.001606 0.000000
# 2 -0.003745 0.023622 -0.005624 0.000000 -0.000148 0.000000
# 3 -0.001014 -0.005624 0.014861 0.000000 0.005515 0.000000
# 4 0.000000 0.000000 0.000000 -0.009301 0.000000 0.037670
# 5 0.001606 -0.000148 0.005515 0.000000 0.024175 0.000000
# 6 0.000000 0.000000 0.000000 0.037670 0.000000 -0.071667
#
#
# Mechanical properties :
#
#
# Convention : Reuss Voigt Hill
#
# Bulk Modulus (GPa) = 35.96503 42.33552 39.15027
# Shear Modulus (GPa) = 229.24043 42.99863 136.11953
#
# Velocity S-wave (km/s) = 10.34606 4.48081 7.97241
# Velocity P-wave (km/s) = 12.62992 6.82190 10.15020
#
# Compressibility (1/GPa) = 0.02780479
#
# Stress axis : x y z
#
# Youngs Moduli (GPa) = 99.13675 42.33317 67.28853
#
# Poissons Ratio (x) = 0.15853 0.06821
# Poissons Ratio (y) = 0.37126 0.37845
# Poissons Ratio (z) = 0.10050 0.23809
#
# Static dielectric constant tensor:
#      x y z
#    x 1.828440 0.000000 0.023850 
#    y 0.000000 1.716170 0.000000 
#    z 0.023850 0.000000 1.770940 
# 
# From -- ./inp_files/291096.got.cif
#   From: 2010.05.17/outbox.cif.g08.bks.cpg/sg12_146_cif.got.tgz:291096.got - 2010.06.03 13:09:07.
