data_PCOD9197324
_publ_section_title
;
Structure prediction by ZEFSAII (Michael W. Deem and Ramdas Pophale) SiO2 
 PCOD9197324
Probable space group: C 2/M
;
_chemical_formula_sum "Si O2"
_cell_formula_units_Z 56
_cell_length_a 30.077164
_cell_length_b 8.706215
_cell_length_c 11.292526
_cell_angle_alpha 90.000000
_cell_angle_beta 111.987562
_cell_angle_gamma 90.000000
_cell_volume 2741.961234
_symmetry_space_group_name_H-M "C 2/M"
_symmetry_group_IT_number 12
_symmetry_cell_setting 'monoclinic'
loop_
_space_group_symop_operation_xyz
x,y,z
-x,y,-z
-x,-y,-z
x,-y,z
1/2+x,1/2+y,z
1/2-x,1/2+y,-z
1/2-x,1/2-y,-z
1/2+x,1/2-y,z
loop_
_atom_site_type_symbol
_atom_site_label
_atom_site_fract_x
_atom_site_fract_y
_atom_site_fract_z
Si Si1 0.377748 0.815736 0.467384
Si Si2 0.419934 0.186428 0.756173
Si Si3 0.128674 0.320408 0.069773
Si Si4 0.026744 0.320196 0.842995
Si Si5 0.546317 0.320005 0.615701
Si Si6 0.276616 0.682645 0.910513
Si Si7 0.267377 0.186068 0.389677
O O1 0.408172 0.763036 0.611893
O O2 0.404957 0.756490 0.379854
O O3 0.322950 0.768376 0.427629
O O4 0.378519 0.000000 0.466308
O O5 0.378715 0.241520 0.804315
O O6 0.474823 0.224479 0.842820
O O7 0.416712 0.000000 0.758141
O O8 0.143273 0.500000 0.084665
O O9 0.167482 0.229110 0.033814
O O10 0.074286 0.313477 0.968536
O O11 0.021757 0.500000 0.801116
O O12 0.036796 0.214774 0.741581
O O13 0.500000 0.255647 0.500000
O O14 0.549574 0.500000 0.594807
O O15 0.270476 0.500000 0.908601
O O16 0.258435 0.734240 0.760177
O O17 0.250000 0.750000 0.000000
O O18 0.250000 0.250000 0.500000
O O19 0.264226 0.000000 0.392919
#
# Coordination Sequence:
#
# PCOD9197324 Si02
#       7
#     8   8   8   8   8   8   8
#     4  10  20  36  61  87 114 151 197 242 290 352
#     4   9  17  33  59  90 118 148 188 237 292 350
#     4  10  21  38  62  89 118 153 198 248 296 350
#     4  10  20  35  59  87 117 154 197 240 286 351
#     4  11  23  37  53  81 120 157 195 241 292 349
#     4  11  25  44  63  89 126 165 208 257 310 368
#     4  10  23  42  66  95 123 156 204 259 311 366
#
# _framework density 20.423338000000001
#
# number of rings (size 3 to 8) (size 9 to 14) (size 15 to 20)
#    0.000    1.857    1.429    2.143    2.000    5.714 
#    0.000    1.429    0.000    1.714    0.000    0.000 
#    0.000    0.000    0.000    0.000    0.000    0.000 
#
# Total GULP energy -156196.002939 kJ/mol
# GULP energy per Si atom -5578.428676 kJ/mol
# Density = 2.037685 g / cm^3
# Si number density = 20.423338 Si / 1000 Ang^3
#
#
#
# Elastic Constant Matrix: (Units=GPa)
#
#
# Indices 1 2 3 4 5 6 
#
# 1 166.3963 28.2285 29.9055 0.0000 -14.4707 0.0000
# 2 28.2285 16.2425 18.0088 0.0000 -0.7867 0.0000
# 3 29.9055 18.0088 55.3818 0.0000 -7.0205 0.0000
# 4 0.0000 0.0000 0.0000 21.6704 0.0000 -3.0732
# 5 -14.4707 -0.7867 -7.0205 0.0000 33.8856 0.0000
# 6 0.0000 0.0000 0.0000 -3.0732 0.0000 21.4789
#
#
#
# Elastic Compliance Matrix: (Units=1/GPa)
#
#
# Indices 1 2 3 4 5 6 
#
# 1 0.008941 -0.016452 0.000983 0.000000 0.003640 0.000000
# 2 -0.016452 0.127187 -0.033880 0.000000 -0.011092 0.000000
# 3 0.000983 -0.033880 0.029265 0.000000 0.005697 0.000000
# 4 0.000000 0.000000 0.000000 0.047102 0.000000 0.006739
# 5 0.003640 -0.011092 0.005697 0.000000 0.031988 0.000000
# 6 0.000000 0.000000 0.000000 0.006739 0.000000 0.047522
#
#
# Mechanical properties :
#
#
# Convention : Reuss Voigt Hill
#
# Bulk Modulus (GPa) = 14.99385 43.36735 29.18060
# Shear Modulus (GPa) = 12.10853 26.19884 19.15368
#
# Velocity S-wave (km/s) = 2.43755 3.58549 3.06573
# Velocity P-wave (km/s) = 3.90892 6.19849 5.18174
#
# Compressibility (1/GPa) = 0.06669399
#
# Stress axis : x y z
#
# Youngs Moduli (GPa) = 111.84925 7.86246 34.17109
#
# Poissons Ratio (x) = 0.12936 -0.03361
# Poissons Ratio (y) = 1.84018 1.15772
# Poissons Ratio (z) = -0.11000 0.26638
#
# Static dielectric constant tensor:
#      x y z
#    x 1.706540 0.000000 0.015110 
#    y 0.000000 1.707200 0.000000 
#    z 0.015110 0.000000 1.778880 
# 
# From -- ./inp_files/187705.got.cif
#   From: 2010.05.17/outbox.cif.g08.bks.cpg/sg12_94_cif.got.tgz:187705.got - 2010.06.03 13:09:07.
