data_PCOD9197781
_publ_section_title
;
Structure prediction by ZEFSAII (Michael W. Deem and Ramdas Pophale) SiO2 
 PCOD9197781
Probable space group: C 2/M
;
_chemical_formula_sum "Si O2"
_cell_formula_units_Z 40
_cell_length_a 15.705467
_cell_length_b 13.674828
_cell_length_c 28.880997
_cell_angle_alpha 90.000000
_cell_angle_beta 18.789230
_cell_angle_gamma 90.000000
_cell_volume 1997.832670
_symmetry_space_group_name_H-M "C 2/M"
_symmetry_group_IT_number 12
_symmetry_cell_setting 'monoclinic'
loop_
_space_group_symop_operation_xyz
x,y,z
-x,y,-z
-x,-y,-z
x,-y,z
1/2+x,1/2+y,z
1/2-x,1/2+y,-z
1/2-x,1/2-y,-z
1/2+x,1/2-y,z
loop_
_atom_site_type_symbol
_atom_site_label
_atom_site_fract_x
_atom_site_fract_y
_atom_site_fract_z
Si Si1 0.224065 0.500000 0.843357
Si Si2 0.345823 0.000000 0.531159
Si Si3 0.182915 0.606888 0.194554
Si Si4 0.440602 0.169216 0.141493
Si Si5 0.981859 0.325228 0.391028
Si Si6 0.260525 0.823064 0.925891
O O1 0.528685 0.500000 0.702928
O O2 0.187451 0.592981 0.827876
O O3 0.000000 0.500000 0.000000
O O4 0.500000 0.000000 0.500000
O O5 0.426568 0.097268 0.460079
O O6 0.155593 0.500000 0.187568
O O7 0.113191 0.682773 0.189941
O O8 0.011495 0.615381 0.328196
O O9 0.482265 0.624073 0.058162
O O10 0.565651 0.126639 0.124103
O O11 0.241787 0.255668 0.260168
O O12 0.675461 0.219701 0.991083
O O13 0.750000 0.250000 0.500000
#
# Coordination Sequence:
#
# PCOD9197781 Si02
#       6
#     4   4   8   8   8   8
#     4  12  28  42  69 100 139 181 232 301 345 410
#     4  12  28  50  73 102 139 189 240 281 357 432
#     4  10  20  35  64  91 126 164 220 270 335 411
#     4  10  23  40  64  93 135 176 225 281 351 405
#     4  11  23  44  68  90 130 176 224 280 341 412
#     4   9  20  37  61  95 128 167 213 281 343 403
#
# _framework density 20.021698000000001
#
# number of rings (size 3 to 8) (size 9 to 14) (size 15 to 20)
#    0.000    1.600    3.000    1.200    8.400    6.400 
#    0.000    0.000    0.000    2.400    0.000    0.000 
#    0.000    0.000    0.000    0.000    0.000    0.000 
#
# Total GULP energy -111441.706156 kJ/mol
# GULP energy per Si atom -5572.085308 kJ/mol
# Density = 1.997613 g / cm^3
# Si number density = 20.021698 Si / 1000 Ang^3
#
#
#
# Elastic Constant Matrix: (Units=GPa)
#
#
# Indices 1 2 3 4 5 6 
#
# 1 181.8588 55.7446 71.8329 -0.0298 4.9210 0.0187
# 2 55.7446 86.4278 34.4869 -0.0141 4.8507 0.0203
# 3 71.8329 34.4869 89.5629 -0.0751 10.5896 0.0895
# 4 -0.0298 -0.0141 -0.0751 26.9956 0.0717 4.4110
# 5 4.9210 4.8507 10.5896 0.0717 29.7791 -0.0175
# 6 0.0187 0.0203 0.0895 4.4110 -0.0175 23.6843
#
#
#
# Elastic Compliance Matrix: (Units=1/GPa)
#
#
# Indices 1 2 3 4 5 6 
#
# 1 0.008854 -0.003412 -0.005930 -0.000015 0.001201 0.000022
# 2 -0.003412 0.014990 -0.002937 -0.000002 -0.000834 0.000001
# 3 -0.005930 -0.002937 0.017621 0.000066 -0.004808 -0.000075
# 4 -0.000015 -0.000002 0.000066 0.038206 -0.000117 -0.007116
# 5 0.001201 -0.000834 -0.004808 -0.000117 0.035228 0.000066
# 6 0.000022 0.000001 -0.000075 -0.007116 0.000066 0.043548
#
#
# Mechanical properties :
#
#
# Convention : Reuss Voigt Hill
#
# Bulk Modulus (GPa) = 59.14518 75.77536 67.46027
# Shear Modulus (GPa) = 26.50555 29.14414 27.82485
#
# Velocity S-wave (km/s) = 3.64241 3.81941 3.73196
# Velocity P-wave (km/s) = 6.87708 7.57491 7.23441
#
# Compressibility (1/GPa) = 0.01690755
#
# Stress axis : x y z
#
# Youngs Moduli (GPa) = 112.93801 66.71214 56.75182
#
# Poissons Ratio (x) = 0.22764 0.33652
# Poissons Ratio (y) = 0.38538 0.16666
# Poissons Ratio (z) = 0.66969 0.19591
#
# Static dielectric constant tensor:
#      x y z
#    x 1.728230 -0.000020 0.028760 
#    y -0.000020 1.691290 -0.000030 
#    z 0.028760 -0.000030 1.768160 
# 
# From -- ./inp_files/361355.got.cif
#   From: 2010.05.17/outbox.cif.g08.bks.cpg/sg12_181_cif.got.tgz:361355.got - 2010.06.03 13:09:07.
