data_PCOD9197412
_publ_section_title
;
Structure prediction by ZEFSAII (Michael W. Deem and Ramdas Pophale) SiO2 
 PCOD9197412
Probable space group: C 2/M
;
_chemical_formula_sum "Si O2"
_cell_formula_units_Z 64
_cell_length_a 14.747116
_cell_length_b 9.090771
_cell_length_c 23.212940
_cell_angle_alpha 90.000000
_cell_angle_beta 95.232520
_cell_angle_gamma 90.000000
_cell_volume 3099.020067
_symmetry_space_group_name_H-M "C 2/M"
_symmetry_group_IT_number 12
_symmetry_cell_setting 'monoclinic'
loop_
_space_group_symop_operation_xyz
x,y,z
-x,y,-z
-x,-y,-z
x,-y,z
1/2+x,1/2+y,z
1/2-x,1/2+y,-z
1/2-x,1/2-y,-z
1/2+x,1/2-y,z
loop_
_atom_site_type_symbol
_atom_site_label
_atom_site_fract_x
_atom_site_fract_y
_atom_site_fract_z
Si Si1 0.904022 0.170794 0.778408
Si Si2 0.204229 0.174949 0.633634
Si Si3 0.815146 0.670476 0.247764
Si Si4 0.949831 0.323704 0.438029
Si Si5 0.645809 0.671001 0.865609
Si Si6 0.917138 0.324972 0.660167
Si Si7 0.689631 0.829434 0.043730
Si Si8 0.478617 0.176952 0.897496
O O1 0.793920 0.175894 0.769193
O O2 0.937423 0.238530 0.720014
O O3 0.938596 0.262717 0.834860
O O4 0.930423 0.000000 0.785443
O O5 0.169874 0.250686 0.690633
O O6 0.312252 0.205864 0.636308
O O7 0.144905 0.242279 0.578931
O O8 0.192394 0.000000 0.636289
O O9 0.843739 0.500000 0.251668
O O10 0.859911 0.753619 0.196841
O O11 0.934940 0.500000 0.437703
O O12 0.016241 0.288748 0.388330
O O13 0.000000 0.283061 0.500000
O O14 0.621050 0.500000 0.861634
O O15 0.748429 0.679131 0.895112
O O16 0.578992 0.755684 0.905197
O O17 0.923439 0.500000 0.672132
O O18 0.590115 0.774074 0.055977
O O19 0.680814 0.000000 0.026540
O O20 0.750000 0.750000 0.000000
O O21 0.481320 0.000000 0.897493
#
# Coordination Sequence:
#
# PCOD9197412 Si02
#       8
#     8   8   8   8   8   8   8   8
#     4  10  20  35  59  90 121 155 198 247 298 358
#     4  10  21  37  58  85 117 154 195 245 299 355
#     4  10  20  36  60  89 121 158 197 243 301 362
#     4  10  22  40  60  83 115 157 203 247 297 361
#     4  11  23  40  61  91 123 158 201 248 299 355
#     4   9  20  38  58  82 116 157 195 240 301 360
#     4  10  24  44  66  88 121 163 205 250 300 353
#     4  11  23  40  61  90 123 161 201 245 302 360
#
# _framework density 20.651689999999999
#
# number of rings (size 3 to 8) (size 9 to 14) (size 15 to 20)
#    0.000    1.875    1.250    1.875    1.750    5.250 
#    0.000    2.500    0.000    0.000    0.000    0.000 
#    0.000    0.000    0.000    0.000    0.000    0.000 
#
# Total GULP energy -178912.666560 kJ/mol
# GULP energy per Si atom -5591.020830 kJ/mol
# Density = 2.060469 g / cm^3
# Si number density = 20.651690 Si / 1000 Ang^3
#
#
#
# Elastic Constant Matrix: (Units=GPa)
#
#
# Indices 1 2 3 4 5 6 
#
# 1 69.9621 21.3718 9.7983 0.0000 -9.5485 0.0000
# 2 21.3718 61.6828 14.9208 0.0000 -5.5012 0.0000
# 3 9.7983 14.9208 47.8097 0.0000 -2.8422 0.0000
# 4 0.0000 0.0000 0.0000 31.8230 0.0000 2.6319
# 5 -9.5485 -5.5012 -2.8422 0.0000 32.6287 0.0000
# 6 0.0000 0.0000 0.0000 2.6319 0.0000 27.8239
#
#
#
# Elastic Compliance Matrix: (Units=1/GPa)
#
#
# Indices 1 2 3 4 5 6 
#
# 1 0.016576 -0.005011 -0.001604 0.000000 0.003866 0.000000
# 2 -0.005011 0.019254 -0.004902 0.000000 0.001353 0.000000
# 3 -0.001604 -0.004902 0.022816 0.000000 0.000692 0.000000
# 4 0.000000 0.000000 0.000000 0.031672 0.000000 -0.002996
# 5 0.003866 0.001353 0.000692 0.000000 0.032068 0.000000
# 6 0.000000 0.000000 0.000000 -0.002996 0.000000 0.036224
#
#
# Mechanical properties :
#
#
# Convention : Reuss Voigt Hill
#
# Bulk Modulus (GPa) = 28.07833 30.18182 29.13008
# Shear Modulus (GPa) = 25.83803 27.34602 26.59203
#
# Velocity S-wave (km/s) = 3.54097 3.64284 3.59227
# Velocity P-wave (km/s) = 5.50851 5.68684 5.59838
#
# Compressibility (1/GPa) = 0.03561465
#
# Stress axis : x y z
#
# Youngs Moduli (GPa) = 60.32679 51.93608 43.82926
#
# Poissons Ratio (x) = 0.26023 0.07029
# Poissons Ratio (y) = 0.30228 0.21484
# Poissons Ratio (z) = 0.09674 0.25458
#
# Static dielectric constant tensor:
#      x y z
#    x 1.774050 0.000000 0.017400 
#    y 0.000000 1.691960 0.000000 
#    z 0.017400 0.000000 1.715990 
# 
# From -- ./inp_files/338851.got.cif
#   From: 2010.05.17/outbox.cif.g08.bks.cpg/sg12_170_cif.got.tgz:338851.got - 2010.06.03 13:09:07.
