data_PCOD9197546
_publ_section_title
;
Structure prediction by ZEFSAII (Michael W. Deem and Ramdas Pophale) SiO2 
 PCOD9197546
Probable space group: C 2/M
;
_chemical_formula_sum "Si O2"
_cell_formula_units_Z 56
_cell_length_a 23.764553
_cell_length_b 13.998124
_cell_length_c 9.732890
_cell_angle_alpha 90.000000
_cell_angle_beta 117.704283
_cell_angle_gamma 90.000000
_cell_volume 2866.557426
_symmetry_space_group_name_H-M "C 2/M"
_symmetry_group_IT_number 12
_symmetry_cell_setting 'monoclinic'
loop_
_space_group_symop_operation_xyz
x,y,z
-x,y,-z
-x,-y,-z
x,-y,z
1/2+x,1/2+y,z
1/2-x,1/2+y,-z
1/2-x,1/2-y,-z
1/2+x,1/2-y,z
loop_
_atom_site_type_symbol
_atom_site_label
_atom_site_fract_x
_atom_site_fract_y
_atom_site_fract_z
Si Si1 0.053686 0.888664 0.348636
Si Si2 0.075113 0.794188 0.815304
Si Si3 0.875011 0.389583 0.583757
Si Si4 0.016020 0.609042 0.857923
Si Si5 0.288220 0.220841 0.680267
Si Si6 0.842053 0.213971 0.355792
Si Si7 0.381175 0.389294 0.862865
O O1 0.116355 0.855563 0.500190
O O2 0.068785 0.872690 0.204194
O O3 0.992456 0.828398 0.321619
O O4 0.041785 0.000000 0.358095
O O5 0.128797 0.793171 0.761503
O O6 0.064722 0.688851 0.864491
O O7 0.089874 0.865861 0.956601
O O8 0.860841 0.500000 0.538097
O O9 0.949966 0.379746 0.699626
O O10 0.838406 0.356226 0.680929
O O11 0.854406 0.318431 0.438267
O O12 0.038381 0.500000 0.865312
O O13 0.000000 0.623240 0.000000
O O14 0.250000 0.250000 0.500000
O O15 0.232502 0.190036 0.719721
O O16 0.325249 0.313413 0.775658
O O17 0.361251 0.500000 0.830443
#
# Coordination Sequence:
#
# PCOD9197546 Si02
#       7
#     8   8   8   8   8   8   8
#     4  11  22  39  63  90 122 167 213 250 300 370
#     4  12  23  38  61  90 136 162 198 257 317 369
#     4  10  20  37  61  88 115 158 213 256 302 364
#     4  10  20  35  60  89 121 161 207 257 306 365
#     4  10  20  40  63  87 118 157 209 257 303 358
#     4  11  24  39  58  92 127 164 204 253 316 365
#     4  11  23  41  67  94 120 162 213 257 303 367
#
# _framework density 19.535627999999999
#
# number of rings (size 3 to 8) (size 9 to 14) (size 15 to 20)
#    0.000    1.286    4.286    3.000    0.000    6.857 
#    0.000    1.429    0.000    1.714    0.000    0.000 
#    0.000    0.000    0.000    0.000    0.000    0.000 
#
# Total GULP energy -156433.278826 kJ/mol
# GULP energy per Si atom -5586.902815 kJ/mol
# Density = 1.949116 g / cm^3
# Si number density = 19.535628 Si / 1000 Ang^3
#
#
#
# Elastic Constant Matrix: (Units=GPa)
#
#
# Indices 1 2 3 4 5 6 
#
# 1 88.1944 20.7716 3.0443 0.0000 -20.3523 0.0000
# 2 20.7716 73.9722 8.1692 0.0000 -14.9977 0.0000
# 3 3.0443 8.1692 38.5429 0.0000 -9.6615 0.0000
# 4 0.0000 0.0000 0.0000 15.2012 0.0000 7.0857
# 5 -20.3523 -14.9977 -9.6615 0.0000 30.3357 0.0000
# 6 0.0000 0.0000 0.0000 7.0857 0.0000 6.6065
#
#
#
# Elastic Compliance Matrix: (Units=1/GPa)
#
#
# Indices 1 2 3 4 5 6 
#
# 1 0.013818 -0.002303 0.001560 0.000000 0.008629 0.000000
# 2 -0.002303 0.015482 -0.001704 0.000000 0.005566 0.000000
# 3 0.001560 -0.001704 0.028510 0.000000 0.009284 0.000000
# 4 0.000000 0.000000 0.000000 0.131553 0.000000 -0.141096
# 5 0.008629 0.005566 0.009284 0.000000 0.044462 0.000000
# 6 0.000000 0.000000 0.000000 -0.141096 0.000000 0.302698
#
#
# Mechanical properties :
#
#
# Convention : Reuss Voigt Hill
#
# Bulk Modulus (GPa) = 18.89794 29.40886 24.15340
# Shear Modulus (GPa) = 8.94362 21.67696 15.31029
#
# Velocity S-wave (km/s) = 2.14197 3.33470 2.80252
# Velocity P-wave (km/s) = 3.97643 5.46933 4.78150
#
# Compressibility (1/GPa) = 0.05291581
#
# Stress axis : x y z
#
# Youngs Moduli (GPa) = 72.36701 64.59095 35.07495
#
# Poissons Ratio (x) = 0.14875 -0.05471
# Poissons Ratio (y) = 0.16666 0.05978
# Poissons Ratio (z) = -0.11287 0.11008
#
# Static dielectric constant tensor:
#      x y z
#    x 1.715770 0.000000 0.015360 
#    y 0.000000 1.675710 0.000000 
#    z 0.015360 0.000000 1.701450 
# 
# From -- ./inp_files/96453.got.cif
#   From: 2010.05.17/outbox.cif.g08.bks.cpg/sg12_49_cif.got.tgz:96453.got - 2010.06.03 13:09:07.
