data_PCOD9197889
_publ_section_title
;
Structure prediction by ZEFSAII (Michael W. Deem and Ramdas Pophale) SiO2 
 PCOD9197889
Probable space group: C 2/M
;
_chemical_formula_sum "Si O2"
_cell_formula_units_Z 64
_cell_length_a 20.294576
_cell_length_b 24.621409
_cell_length_c 18.517366
_cell_angle_alpha 90.000000
_cell_angle_beta 159.337333
_cell_angle_gamma 90.000000
_cell_volume 3264.983457
_symmetry_space_group_name_H-M "C 2/M"
_symmetry_group_IT_number 12
_symmetry_cell_setting 'monoclinic'
loop_
_space_group_symop_operation_xyz
x,y,z
-x,y,-z
-x,-y,-z
x,-y,z
1/2+x,1/2+y,z
1/2-x,1/2+y,-z
1/2-x,1/2-y,-z
1/2+x,1/2-y,z
loop_
_atom_site_type_symbol
_atom_site_label
_atom_site_fract_x
_atom_site_fract_y
_atom_site_fract_z
Si Si1 0.456356 0.562372 0.669888
Si Si2 0.447478 0.236291 0.529422
Si Si3 0.007851 0.858912 0.590548
Si Si4 0.276114 0.062435 0.423888
Si Si5 0.345302 0.171574 0.026595
Si Si6 0.600973 0.339824 0.178662
Si Si7 0.897942 0.437826 0.147251
Si Si8 0.172005 0.790123 0.995505
O O1 0.415771 0.500000 0.607790
O O2 0.438921 0.600350 0.581848
O O3 0.326476 0.575642 0.604964
O O4 0.673638 0.563921 0.917644
O O5 0.500000 0.224830 0.500000
O O6 0.407860 0.300567 0.493291
O O7 0.267305 0.202015 0.363962
O O8 0.624842 0.220494 0.760607
O O9 0.000000 0.878946 0.500000
O O10 0.221670 0.843964 0.830779
O O11 0.196331 0.101722 0.282096
O O12 0.495183 0.068826 0.667335
O O13 0.237657 0.000000 0.367856
O O14 0.451770 0.116432 0.157180
O O15 0.205438 0.186649 0.950010
O O16 0.433333 0.231413 0.108579
O O17 0.500000 0.328919 0.000000
O O18 0.444231 0.332494 0.078225
O O19 0.948012 0.500000 0.173375
#
# Coordination Sequence:
#
# PCOD9197889 Si02
#       8
#     8   8   8   8   8   8   8   8
#     4   9  18  35  58  82 108 143 183 224 271 320
#     4  10  20  37  53  77 115 149 180 226 279 319
#     4   9  18  32  54  80 112 147 178 220 274 326
#     4  10  22  38  57  81 110 140 178 232 279 318
#     4   9  18  34  56  80 111 145 180 234 277 319
#     4  12  23  35  58  82 106 148 190 220 269 342
#     4   9  17  33  56  79 105 139 180 220 269 323
#     4  10  20  36  54  81 113 142 187 230 275 325
#
# _framework density 19.601937
#
# number of rings (size 3 to 8) (size 9 to 14) (size 15 to 20)
#    0.000    2.250    1.250    2.250    0.000    1.500 
#    0.000    6.875    0.000    0.375    0.000   11.375 
#    0.000    0.000    0.000    0.000    0.000    0.000 
#
# Total GULP energy -178326.386025 kJ/mol
# GULP energy per Si atom -5572.699563 kJ/mol
# Density = 1.955732 g / cm^3
# Si number density = 19.601937 Si / 1000 Ang^3
#
#
#
# Elastic Constant Matrix: (Units=GPa)
#
#
# Indices 1 2 3 4 5 6 
#
# 1 30.8292 -12.2954 12.1312 0.0000 3.7596 0.0001
# 2 -12.2954 85.5107 23.0017 0.0000 0.5148 0.0000
# 3 12.1312 23.0017 70.3986 -0.0001 1.3472 0.0004
# 4 0.0000 0.0000 -0.0001 25.8510 0.0000 -2.1597
# 5 3.7596 0.5148 1.3472 0.0000 11.4539 0.0002
# 6 0.0001 0.0000 0.0004 -2.1597 0.0002 20.7464
#
#
#
# Elastic Compliance Matrix: (Units=1/GPa)
#
#
# Indices 1 2 3 4 5 6 
#
# 1 0.041236 0.008608 -0.009674 0.000000 -0.012784 0.000000
# 2 0.008608 0.014618 -0.006207 0.000000 -0.002753 0.000000
# 3 -0.009674 -0.006207 0.017874 0.000000 0.001352 0.000000
# 4 0.000000 0.000000 0.000000 0.039023 0.000000 0.004062
# 5 -0.012784 -0.002753 0.001352 0.000000 0.091468 -0.000001
# 6 0.000000 0.000000 0.000000 0.004062 -0.000001 0.048624
#
#
# Mechanical properties :
#
#
# Convention : Reuss Voigt Hill
#
# Bulk Modulus (GPa) = 16.89675 25.82372 21.36023
# Shear Modulus (GPa) = 17.41461 22.53699 19.97580
#
# Velocity S-wave (km/s) = 2.98386 3.39445 3.19576
# Velocity P-wave (km/s) = 4.52878 5.34469 4.95356
#
# Compressibility (1/GPa) = 0.05918299
#
# Stress axis : x y z
#
# Youngs Moduli (GPa) = 24.25089 68.40675 55.94715
#
# Poissons Ratio (x) = -0.58887 0.54122
# Poissons Ratio (y) = -0.20876 0.34727
# Poissons Ratio (z) = 0.23460 0.42461
#
# Static dielectric constant tensor:
#      x y z
#    x 1.661890 0.000000 0.015220 
#    y 0.000000 1.749340 0.000000 
#    z 0.015220 0.000000 1.706130 
# 
# From -- ./inp_files/286450.got.cif
#   From: 2010.05.17/outbox.cif.g08.bks.cpg/sg12_144_cif.got.tgz:286450.got - 2010.06.03 13:09:07.
