data_PCOD9197190
_publ_section_title
;
Structure prediction by ZEFSAII (Michael W. Deem and Ramdas Pophale) SiO2 
 PCOD9197190
Probable space group: C 2/M
;
_chemical_formula_sum "Si O2"
_cell_formula_units_Z 40
_cell_length_a 26.303084
_cell_length_b 17.098599
_cell_length_c 9.163831
_cell_angle_alpha 90.000000
_cell_angle_beta 32.827331
_cell_angle_gamma 90.000000
_cell_volume 2234.245942
_symmetry_space_group_name_H-M "C 2/M"
_symmetry_group_IT_number 12
_symmetry_cell_setting 'monoclinic'
loop_
_space_group_symop_operation_xyz
x,y,z
-x,y,-z
-x,-y,-z
x,-y,z
1/2+x,1/2+y,z
1/2-x,1/2+y,-z
1/2-x,1/2-y,-z
1/2+x,1/2-y,z
loop_
_atom_site_type_symbol
_atom_site_label
_atom_site_fract_x
_atom_site_fract_y
_atom_site_fract_z
Si Si1 0.748033 0.088002 0.142596
Si Si2 0.305943 0.310419 0.761516
Si Si3 0.206463 0.232409 0.761687
Si Si4 0.029405 0.411087 0.592938
Si Si5 0.501111 0.242407 0.171707
O O1 0.756273 0.153717 0.248779
O O2 0.641697 0.089001 0.339042
O O3 0.769551 0.000000 0.140538
O O4 0.810143 0.113671 0.852969
O O5 0.239528 0.306285 0.780243
O O6 0.407354 0.279171 0.468205
O O7 0.250000 0.250000 0.000000
O O8 0.250000 0.250000 0.500000
O O9 0.095549 0.222938 0.012190
O O10 0.995662 0.500000 0.697367
O O11 0.994793 0.348705 0.793658
O O12 0.000000 0.386952 0.500000
O O13 0.500000 0.252082 0.000000
#
# Coordination Sequence:
#
# PCOD9197190 Si02
#       5
#     8   8   8   8   8
#     4  10  21  39  60  87 121 155 197 249 298 346
#     4  10  20  37  58  88 112 154 200 235 288 351
#     4  11  21  38  61  87 122 156 202 242 293 359
#     4  10  20  35  58  90 120 149 189 243 302 361
#     4  12  22  36  60  88 118 157 197 245 296 354
#
# _framework density 17.903133
#
# number of rings (size 3 to 8) (size 9 to 14) (size 15 to 20)
#    0.000    1.400    6.000    1.200    2.800    0.400 
#    0.000    4.000    0.000    1.200    0.000    0.000 
#    0.000    0.000    0.000    0.000    0.000    0.000 
#
# Total GULP energy -111445.312582 kJ/mol
# GULP energy per Si atom -5572.265629 kJ/mol
# Density = 1.786238 g / cm^3
# Si number density = 17.903133 Si / 1000 Ang^3
#
#
#
# Elastic Constant Matrix: (Units=GPa)
#
#
# Indices 1 2 3 4 5 6 
#
# 1 109.7987 29.5851 45.2533 0.0000 -1.5440 0.0000
# 2 29.5851 80.9963 21.0064 0.0000 9.4263 0.0000
# 3 45.2533 21.0064 96.9138 0.0000 -0.6977 0.0000
# 4 0.0000 0.0000 0.0000 16.1422 0.0000 -0.9161
# 5 -1.5440 9.4263 -0.6977 0.0000 37.4913 0.0000
# 6 0.0000 0.0000 0.0000 -0.9161 0.0000 26.0156
#
#
#
# Elastic Compliance Matrix: (Units=1/GPa)
#
#
# Indices 1 2 3 4 5 6 
#
# 1 0.012023 -0.003264 -0.004898 0.000000 0.001225 0.000000
# 2 -0.003264 0.014400 -0.001625 0.000000 -0.003785 0.000000
# 3 -0.004898 -0.001625 0.012961 0.000000 0.000448 0.000000
# 4 0.000000 0.000000 0.000000 0.062073 0.000000 0.002186
# 5 0.001225 -0.003785 0.000448 0.000000 0.027683 0.000000
# 6 0.000000 0.000000 0.000000 0.002186 0.000000 0.038515
#
#
# Mechanical properties :
#
#
# Convention : Reuss Voigt Hill
#
# Bulk Modulus (GPa) = 50.47525 53.26648 51.87087
# Shear Modulus (GPa) = 25.79554 28.72077 27.25816
#
# Velocity S-wave (km/s) = 3.79996 4.00963 3.90620
# Velocity P-wave (km/s) = 6.89258 7.15915 7.02713
#
# Compressibility (1/GPa) = 0.01981169
#
# Stress axis : x y z
#
# Youngs Moduli (GPa) = 83.17521 69.44324 77.15597
#
# Poissons Ratio (x) = 0.22665 0.37789
# Poissons Ratio (y) = 0.27147 0.12534
# Poissons Ratio (z) = 0.40737 0.11281
#
# Static dielectric constant tensor:
#      x y z
#    x 1.667300 0.000000 0.045530 
#    y 0.000000 1.651890 0.000000 
#    z 0.045530 0.000000 1.699910 
# 
# From -- ./inp_files/60379.got.cif
#   From: 2010.05.17/outbox.cif.g08.bks.cpg/sg12_31_cif.got.tgz:60379.got - 2010.06.03 13:09:07.
