data_PCOD9197146
_publ_section_title
;
Structure prediction by ZEFSAII (Michael W. Deem and Ramdas Pophale) SiO2 
 PCOD9197146
Probable space group: C 2/M
;
_chemical_formula_sum "Si O2"
_cell_formula_units_Z 56
_cell_length_a 27.647406
_cell_length_b 9.010719
_cell_length_c 12.534068
_cell_angle_alpha 90.000000
_cell_angle_beta 110.720092
_cell_angle_gamma 90.000000
_cell_volume 2920.559868
_symmetry_space_group_name_H-M "C 2/M"
_symmetry_group_IT_number 12
_symmetry_cell_setting 'monoclinic'
loop_
_space_group_symop_operation_xyz
x,y,z
-x,y,-z
-x,-y,-z
x,-y,z
1/2+x,1/2+y,z
1/2-x,1/2+y,-z
1/2-x,1/2-y,-z
1/2+x,1/2-y,z
loop_
_atom_site_type_symbol
_atom_site_label
_atom_site_fract_x
_atom_site_fract_y
_atom_site_fract_z
Si Si1 0.301973 0.166880 0.072352
Si Si2 0.594920 0.823024 0.351129
Si Si3 0.208482 0.663943 0.683320
Si Si4 0.204804 0.175127 0.394206
Si Si5 0.500265 0.178599 0.875273
Si Si6 0.394633 0.675401 0.424537
Si Si7 0.092368 0.821978 0.813053
O O1 0.298038 0.155557 0.196624
O O2 0.354590 0.257431 0.096209
O O3 0.304711 0.000000 0.029140
O O4 0.250000 0.250000 0.000000
O O5 0.650365 0.754724 0.363456
O O6 0.553023 0.786148 0.227776
O O7 0.579479 0.757993 0.455363
O O8 0.598755 0.000000 0.361926
O O9 0.195051 0.500000 0.626522
O O10 0.267810 0.691696 0.699685
O O11 0.166328 0.782628 0.612696
O O12 0.250000 0.250000 0.500000
O O13 0.199163 0.000000 0.413560
O O14 0.545447 0.256811 0.843990
O O15 0.507673 0.000000 0.876340
O O16 0.500000 0.221389 0.000000
O O17 0.402028 0.500000 0.440757
O O18 0.410633 0.720236 0.316212
O O19 0.093367 0.000000 0.817215
#
# Coordination Sequence:
#
# PCOD9197146 Si02
#       7
#     8   8   8   8   8   8   8
#     4  10  20  36  58  86 119 156 198 245 293 351
#     4  11  23  38  59  87 120 159 203 249 302 360
#     4   9  19  34  53  79 116 156 192 235 289 349
#     4  11  21  34  55  85 120 156 194 238 292 353
#     4  10  24  46  66  86 116 158 206 253 300 355
#     4  10  20  35  58  88 120 151 190 240 297 360
#     4  10  22  40  63  90 119 155 196 247 307 359
#
# _framework density 19.174405
#
# number of rings (size 3 to 8) (size 9 to 14) (size 15 to 20)
#    0.000    1.857    1.429    2.143    0.000    6.000 
#    0.000    5.714    0.000    0.000    0.000    0.000 
#    0.000    0.000    0.000    0.000    0.000    0.000 
#
# Total GULP energy -156189.060670 kJ/mol
# GULP energy per Si atom -5578.180738 kJ/mol
# Density = 1.913076 g / cm^3
# Si number density = 19.174405 Si / 1000 Ang^3
#
#
#
# Elastic Constant Matrix: (Units=GPa)
#
#
# Indices 1 2 3 4 5 6 
#
# 1 148.9810 60.8562 73.1109 0.0000 0.9077 0.0000
# 2 60.8562 85.5046 57.8673 0.0000 6.3484 0.0000
# 3 73.1109 57.8673 111.6779 0.0000 14.5528 0.0000
# 4 0.0000 0.0000 0.0000 25.0399 0.0000 -1.3787
# 5 0.9077 6.3484 14.5528 0.0000 29.7082 0.0000
# 6 0.0000 0.0000 0.0000 -1.3787 0.0000 33.6335
#
#
#
# Elastic Compliance Matrix: (Units=1/GPa)
#
#
# Indices 1 2 3 4 5 6 
#
# 1 0.011206 -0.004566 -0.005397 0.000000 0.003277 0.000000
# 2 -0.004566 0.019889 -0.007243 0.000000 -0.000563 0.000000
# 3 -0.005397 -0.007243 0.017110 0.000000 -0.006669 0.000000
# 4 0.000000 0.000000 0.000000 0.040027 0.000000 0.001641
# 5 0.003277 -0.000563 -0.006669 0.000000 0.036948 0.000000
# 6 0.000000 0.000000 0.000000 0.001641 0.000000 0.029799
#
#
# Mechanical properties :
#
#
# Convention : Reuss Voigt Hill
#
# Bulk Modulus (GPa) = 72.50724 81.09246 76.79985
# Shear Modulus (GPa) = 25.77470 27.96494 26.86982
#
# Velocity S-wave (km/s) = 3.67034 3.82311 3.74751
# Velocity P-wave (km/s) = 7.47386 7.86588 7.67237
#
# Compressibility (1/GPa) = 0.01379173
#
# Stress axis : x y z
#
# Youngs Moduli (GPa) = 89.23622 50.27913 58.44669
#
# Poissons Ratio (x) = 0.22960 0.31544
# Poissons Ratio (y) = 0.40750 0.42332
# Poissons Ratio (z) = 0.48162 0.36417
#
# Static dielectric constant tensor:
#      x y z
#    x 1.672740 0.000000 -0.030770 
#    y 0.000000 1.698030 0.000000 
#    z -0.030770 0.000000 1.708620 
# 
# From -- ./inp_files/181050.got.cif
#   From: 2010.05.17/outbox.cif.g08.bks.cpg/sg12_91_cif.got.tgz:181050.got - 2010.06.03 13:09:07.
