data_PCOD9197202
_publ_section_title
;
Structure prediction by ZEFSAII (Michael W. Deem and Ramdas Pophale) SiO2 
 PCOD9197202
Probable space group: C 2/M
;
_chemical_formula_sum "Si O2"
_cell_formula_units_Z 50
_cell_length_a 27.171540
_cell_length_b 7.943540
_cell_length_c 11.809775
_cell_angle_alpha 90.000000
_cell_angle_beta 74.226690
_cell_angle_gamma 90.000000
_cell_volume 2453.017429
_symmetry_space_group_name_H-M "C 2/M"
_symmetry_group_IT_number 12
_symmetry_cell_setting 'monoclinic'
loop_
_space_group_symop_operation_xyz
x,y,z
-x,y,-z
-x,-y,-z
x,-y,z
1/2+x,1/2+y,z
1/2-x,1/2+y,-z
1/2-x,1/2-y,-z
1/2+x,1/2-y,z
loop_
_atom_site_type_symbol
_atom_site_label
_atom_site_fract_x
_atom_site_fract_y
_atom_site_fract_z
Si Si1 0.280007 0.806947 0.247094
Si Si2 0.878522 0.198301 0.316630
Si Si3 0.582596 0.805516 0.471607
Si Si4 0.341880 0.305600 0.000047
Si Si5 0.000000 0.000000 0.500000
Si Si6 0.442683 0.704729 0.057910
Si Si7 0.827362 0.305887 0.760916
O O1 0.321923 0.723452 0.302017
O O2 0.224236 0.727405 0.276116
O O3 0.275099 0.000000 0.283224
O O4 0.303826 0.793528 0.105658
O O5 0.888991 0.294235 0.425434
O O6 0.918057 0.255561 0.193308
O O7 0.886969 0.000000 0.329501
O O8 0.542742 0.652163 0.493717
O O9 0.623655 0.772670 0.346898
O O10 0.563549 0.000000 0.469700
O O11 0.338004 0.500000 0.040208
O O12 0.328862 0.294556 0.877069
O O13 0.400149 0.249276 0.990548
O O14 0.445447 0.500000 0.056913
O O15 0.500000 0.767703 0.000000
O O16 0.828126 0.500000 0.795158
#
# Coordination Sequence:
#
# PCOD9197202 Si02
#       7
#     8   8   8   8   2   8   8
#     4  11  22  37  63  92 129 173 215 267 332 394
#     4  10  20  39  64  94 129 170 213 269 331 391
#     4  11  26  46  69  98 130 172 223 273 329 394
#     4  10  20  35  58  90 129 170 213 266 327 393
#     4  12  26  48  72  90 130 180 214 276 330 386
#     4   8  16  32  56  89 120 157 210 263 316 381
#     4  11  24  41  61  91 130 166 218 275 325 397
#
# _framework density 20.383058999999999
#
# number of rings (size 3 to 8) (size 9 to 14) (size 15 to 20)
#    0.000    1.760    0.800    4.560    2.240    1.920 
#    2.880    0.000    0.000   16.320    0.000    0.000 
#    0.000    0.000    0.000    0.000    0.000    0.000 
#
# Total GULP energy -139329.998572 kJ/mol
# GULP energy per Si atom -5573.199943 kJ/mol
# Density = 2.033667 g / cm^3
# Si number density = 20.383059 Si / 1000 Ang^3
#
#
#
# Elastic Constant Matrix: (Units=GPa)
#
#
# Indices 1 2 3 4 5 6 
#
# 1 43.8029 -19.3765 44.6785 0.0000 94.5198 0.0000
# 2 -19.3765 24.6457 43.8242 0.0000 94.2594 0.0000
# 3 44.6785 43.8242 18.6550 0.0000 -31.8250 0.0000
# 4 0.0000 0.0000 0.0000 14.7006 0.0000 6.2987
# 5 94.5198 94.2594 -31.8250 0.0000 -172.5063 0.0000
# 6 0.0000 0.0000 0.0000 6.2987 0.0000 29.4446
#
#
#
# Elastic Compliance Matrix: (Units=1/GPa)
#
#
# Indices 1 2 3 4 5 6 
#
# 1 0.015347 -0.000937 -0.016036 0.000000 0.010855 0.000000
# 2 -0.000937 0.021040 -0.021636 0.000000 0.014975 0.000000
# 3 -0.016036 -0.021636 0.081903 0.000000 -0.035719 0.000000
# 4 0.000000 0.000000 0.000000 0.074889 0.000000 -0.016020
# 5 0.010855 0.014975 -0.035719 0.000000 0.014923 0.000000
# 6 0.000000 0.000000 0.000000 -0.016020 0.000000 0.037389
#
#
# Mechanical properties :
#
#
# Convention : Reuss Voigt Hill
#
# Bulk Modulus (GPa) = 24.34761 25.03956 24.69358
# Shear Modulus (GPa) = 14.86330 -24.47373 -4.80521
#
# Velocity S-wave (km/s) = 2.70330 -3.46886 -1.53707
# Velocity P-wave (km/s) = 4.65990 1.93204 2.99849
#
# Compressibility (1/GPa) = 0.04107179
#
# Stress axis : x y z
#
# Youngs Moduli (GPa) = 65.15851 47.52909 12.20957
#
# Poissons Ratio (x) = 0.04453 0.19579
# Poissons Ratio (y) = 0.06105 0.26417
# Poissons Ratio (z) = 1.04488 1.02834
#
# Static dielectric constant tensor:
#      x y z
#    x 1.732120 0.000000 0.007370 
#    y 0.000000 1.717960 0.000000 
#    z 0.007370 0.000000 1.703720 
# 
# From -- ./inp_files/179827.got.cif
#   From: 2010.05.17/outbox.cif.g08.bks.cpg/sg12_90_cif.got.tgz:179827.got - 2010.06.03 13:09:07.
