data_PCOD9197912
_publ_section_title
;
Structure prediction by ZEFSAII (Michael W. Deem and Ramdas Pophale) SiO2 
 PCOD9197912
Probable space group: C 2/M
;
_chemical_formula_sum "Si O2"
_cell_formula_units_Z 56
_cell_length_a 20.774301
_cell_length_b 7.686993
_cell_length_c 22.303050
_cell_angle_alpha 90.000000
_cell_angle_beta 142.130502
_cell_angle_gamma 90.000000
_cell_volume 2186.351885
_symmetry_space_group_name_H-M "C 2/M"
_symmetry_group_IT_number 12
_symmetry_cell_setting 'monoclinic'
loop_
_space_group_symop_operation_xyz
x,y,z
-x,y,-z
-x,-y,-z
x,-y,z
1/2+x,1/2+y,z
1/2-x,1/2+y,-z
1/2-x,1/2-y,-z
1/2+x,1/2-y,z
loop_
_atom_site_type_symbol
_atom_site_label
_atom_site_fract_x
_atom_site_fract_y
_atom_site_fract_z
Si Si1 0.810385 0.790158 0.164317
Si Si2 0.330048 0.201956 0.408277
Si Si3 0.501784 0.208515 0.932079
Si Si4 0.366776 0.286980 0.659710
Si Si5 0.280022 0.204766 0.783062
Si Si6 0.461029 0.706680 0.608921
Si Si7 0.590158 0.293290 0.878338
O O1 0.736414 0.719517 0.162730
O O2 0.924685 0.763246 0.279222
O O3 0.825528 0.721439 0.107617
O O4 0.791614 0.000000 0.146636
O O5 0.235941 0.275276 0.381054
O O6 0.317481 0.280813 0.333332
O O7 0.433846 0.220369 0.523994
O O8 0.309860 0.000000 0.383999
O O9 0.384882 0.271522 0.827519
O O10 0.589243 0.262074 0.948590
O O11 0.509303 0.000000 0.937121
O O12 0.500000 0.263717 0.000000
O O13 0.365505 0.500000 0.658301
O O14 0.379991 0.228517 0.600484
O O15 0.475023 0.231006 0.771624
O O16 0.297902 0.000000 0.805294
O O17 0.449973 0.500000 0.595657
O O18 0.591327 0.500000 0.870841
#
# Coordination Sequence:
#
# PCOD9197912 Si02
#       7
#     8   8   8   8   8   8   8
#     4   8  17  34  56  76  99 136 180 217 243 288
#     4  11  20  30  46  73 107 136 169 216 262 294
#     4  10  21  36  55  81 109 132 160 206 261 314
#     4   8  15  28  47  70  99 130 165 211 253 290
#     4  10  20  36  55  74  99 138 178 207 250 310
#     4   9  17  31  49  70  97 135 178 214 249 293
#     4   9  16  33  58  79 100 131 172 213 253 296
#
# _framework density 25.613444999999999
#
# number of rings (size 3 to 8) (size 9 to 14) (size 15 to 20)
#    0.000    2.714    1.429    2.571    0.000    0.857 
#    0.000    8.571    0.000    0.000    0.000    0.000 
#    0.000    0.000    0.000    0.000    0.000    0.000 
#
# Total GULP energy -156350.784356 kJ/mol
# GULP energy per Si atom -5583.956584 kJ/mol
# Density = 2.555515 g / cm^3
# Si number density = 25.613445 Si / 1000 Ang^3
#
#
#
# Elastic Constant Matrix: (Units=GPa)
#
#
# Indices 1 2 3 4 5 6 
#
# 1 178.6144 16.2655 31.9891 0.0000 -36.6350 0.0000
# 2 16.2655 35.6461 0.9941 0.0000 3.9236 0.0000
# 3 31.9891 0.9941 92.3183 0.0000 -37.8333 0.0000
# 4 0.0000 0.0000 0.0000 7.6353 0.0000 -8.3651
# 5 -36.6350 3.9236 -37.8333 0.0000 45.4124 0.0000
# 6 0.0000 0.0000 0.0000 -8.3651 0.0000 13.7083
#
#
#
# Elastic Compliance Matrix: (Units=1/GPa)
#
#
# Indices 1 2 3 4 5 6 
#
# 1 0.007228 -0.003990 0.000105 0.000000 0.006263 0.000000
# 2 -0.003990 0.030768 -0.002061 -0.000001 -0.007594 0.000000
# 3 0.000105 -0.002061 0.016590 0.000000 0.014084 0.000000
# 4 0.000000 -0.000001 0.000000 0.395133 0.000000 0.241117
# 5 0.006263 -0.007594 0.014084 0.000000 0.039463 0.000000
# 6 0.000000 0.000000 0.000000 0.241117 0.000000 0.220082
#
#
# Mechanical properties :
#
#
# Convention : Reuss Voigt Hill
#
# Bulk Modulus (GPa) = 23.42305 45.00847 34.21576
# Shear Modulus (GPa) = 6.79915 30.50656 18.65285
#
# Velocity S-wave (km/s) = 1.63104 3.45488 2.70153
# Velocity P-wave (km/s) = 3.56535 5.79011 4.80817
#
# Compressibility (1/GPa) = 0.04269299
#
# Stress axis : x y z
#
# Youngs Moduli (GPa) = 138.35407 32.50147 60.27899
#
# Poissons Ratio (x) = 0.12970 -0.00634
# Poissons Ratio (y) = 0.55209 0.12423
# Poissons Ratio (z) = -0.01456 0.06698
#
# Static dielectric constant tensor:
#      x y z
#    x 2.066900 0.000000 0.026590 
#    y 0.000000 1.933870 0.000000 
#    z 0.026590 0.000000 2.118630 
# 
# From -- ./inp_files/281600.got.cif
#   From: 2010.05.17/outbox.cif.g08.bks.cpg/sg12_141_cif.got.tgz:281600.got - 2010.06.03 13:09:07.
