data_PCOD9197982
_publ_section_title
;
Structure prediction by ZEFSAII (Michael W. Deem and Ramdas Pophale) SiO2 
 PCOD9197982
Probable space group: C 2/M
;
_chemical_formula_sum "Si O2"
_cell_formula_units_Z 64
_cell_length_a 18.763094
_cell_length_b 14.713406
_cell_length_c 26.895241
_cell_angle_alpha 90.000000
_cell_angle_beta 22.921894
_cell_angle_gamma 90.000000
_cell_volume 2891.836490
_symmetry_space_group_name_H-M "C 2/M"
_symmetry_group_IT_number 12
_symmetry_cell_setting 'monoclinic'
loop_
_space_group_symop_operation_xyz
x,y,z
-x,y,-z
-x,-y,-z
x,-y,z
1/2+x,1/2+y,z
1/2-x,1/2+y,-z
1/2-x,1/2-y,-z
1/2+x,1/2-y,z
loop_
_atom_site_type_symbol
_atom_site_label
_atom_site_fract_x
_atom_site_fract_y
_atom_site_fract_z
Si Si1 0.778549 0.783034 0.393975
Si Si2 0.259728 0.599245 0.633822
Si Si3 0.096321 0.299243 0.321203
Si Si4 0.696719 0.400302 0.278588
Si Si5 0.182354 0.727215 0.163555
Si Si6 0.289288 0.103702 0.654673
Si Si7 0.317613 0.897344 0.927881
Si Si8 0.135679 0.603126 0.988711
O O1 0.696692 0.689429 0.424271
O O2 0.617998 0.822634 0.532026
O O3 0.815102 0.847623 0.323165
O O4 0.970366 0.758015 0.294770
O O5 0.303386 0.500000 0.583815
O O6 0.335396 0.603085 0.641120
O O7 0.038715 0.601421 0.780905
O O8 0.114230 0.189990 0.308498
O O9 0.182234 0.330680 0.214079
O O10 0.206194 0.338423 0.297800
O O11 0.638111 0.500000 0.297410
O O12 0.916490 0.396190 0.132105
O O13 0.244362 0.671060 0.075084
O O14 0.298505 0.819017 0.090018
O O15 0.500000 0.103019 0.500000
O O16 0.231350 0.000000 0.699911
O O17 0.285901 0.875241 0.006254
O O18 0.250893 0.000000 0.962039
O O19 0.191680 0.500000 0.939651
#
# Coordination Sequence:
#
# PCOD9197982 Si02
#       8
#     8   8   8   8   8   8   8   8
#     4  10  20  36  55  80 113 148 194 236 279 339
#     4   8  14  28  53  80 104 134 176 226 275 329
#     4  11  22  35  53  83 116 149 187 237 289 343
#     4   9  18  34  57  83 112 144 182 230 283 340
#     4  11  22  34  56  84 115 148 184 235 300 342
#     4   9  19  37  58  76 103 151 202 238 270 323
#     4   8  16  33  55  79 105 138 183 229 275 332
#     4   9  19  37  60  84 111 146 190 233 279 345
#
# _framework density 22.131264999999999
#
# number of rings (size 3 to 8) (size 9 to 14) (size 15 to 20)
#    0.000    2.625    1.250    2.250    0.000    2.500 
#    0.000    2.500    0.000    4.500    0.000    1.750 
#    0.000    0.000    0.000    0.000    0.000    0.000 
#
# Total GULP energy -178716.940505 kJ/mol
# GULP energy per Si atom -5584.904391 kJ/mol
# Density = 2.208089 g / cm^3
# Si number density = 22.131265 Si / 1000 Ang^3
#
#
#
# Elastic Constant Matrix: (Units=GPa)
#
#
# Indices 1 2 3 4 5 6 
#
# 1 53.7487 20.7761 14.7793 -0.0139 14.6603 0.0002
# 2 20.7761 88.1589 16.7273 0.0043 6.4067 0.0035
# 3 14.7793 16.7273 63.1481 -0.0305 13.7209 0.0196
# 4 -0.0139 0.0043 -0.0305 19.4826 0.0087 -4.6082
# 5 14.6603 6.4067 13.7209 0.0087 19.0375 -0.0011
# 6 0.0002 0.0035 0.0196 -4.6082 -0.0011 3.6667
#
#
#
# Elastic Compliance Matrix: (Units=1/GPa)
#
#
# Indices 1 2 3 4 5 6 
#
# 1 0.025339 -0.004530 -0.000974 0.000037 -0.017286 0.000049
# 2 -0.004530 0.012822 -0.002557 -0.000014 0.001017 -0.000016
# 3 -0.000974 -0.002557 0.019435 0.000016 -0.012396 -0.000085
# 4 0.000037 -0.000014 0.000016 0.073040 -0.000063 0.091794
# 5 -0.017286 0.001017 -0.012396 -0.000063 0.074432 0.000009
# 6 0.000049 -0.000016 -0.000085 0.091794 0.000009 0.388088
#
#
# Mechanical properties :
#
#
# Convention : Reuss Voigt Hill
#
# Bulk Modulus (GPa) = 24.11262 34.40235 29.25749
# Shear Modulus (GPa) = 8.02436 18.62222 13.32329
#
# Velocity S-wave (km/s) = 1.90622 2.90391 2.45626
# Velocity P-wave (km/s) = 3.97037 5.17900 4.61443
#
# Compressibility (1/GPa) = 0.04147205
#
# Stress axis : x y z
#
# Youngs Moduli (GPa) = 39.46462 77.99015 51.45438
#
# Poissons Ratio (x) = 0.35333 0.05014
# Poissons Ratio (y) = 0.17879 0.13157
# Poissons Ratio (z) = 0.03846 0.19942
#
# Static dielectric constant tensor:
#      x y z
#    x 1.811910 -0.000010 0.029580 
#    y -0.000010 1.804520 0.000010 
#    z 0.029580 0.000010 1.864640 
# 
# From -- ./inp_files/344026.got.cif
#   From: 2010.05.17/outbox.cif.g08.bks.cpg/sg12_173_cif.got.tgz:344026.got - 2010.06.03 13:09:07.
