data_PCOD9197008
_publ_section_title
;
Structure prediction by ZEFSAII (Michael W. Deem and Ramdas Pophale) SiO2 
 PCOD9197008
Probable space group: C 2/M
;
_chemical_formula_sum "Si O2"
_cell_formula_units_Z 64
_cell_length_a 28.183950
_cell_length_b 8.026382
_cell_length_c 15.391506
_cell_angle_alpha 90.000000
_cell_angle_beta 53.618126
_cell_angle_gamma 90.000000
_cell_volume 2803.126149
_symmetry_space_group_name_H-M "C 2/M"
_symmetry_group_IT_number 12
_symmetry_cell_setting 'monoclinic'
loop_
_space_group_symop_operation_xyz
x,y,z
-x,y,-z
-x,-y,-z
x,-y,z
1/2+x,1/2+y,z
1/2-x,1/2+y,-z
1/2-x,1/2-y,-z
1/2+x,1/2-y,z
loop_
_atom_site_type_symbol
_atom_site_label
_atom_site_fract_x
_atom_site_fract_y
_atom_site_fract_z
Si Si1 0.422055 0.699776 0.514319
Si Si2 0.391422 0.804759 0.732703
Si Si3 0.741444 0.800408 0.109455
Si Si4 0.494665 0.303315 0.728279
Si Si5 0.020605 0.193402 0.068570
Si Si6 0.189466 0.199741 0.478102
Si Si7 0.321832 0.692612 0.317657
Si Si8 0.354009 0.188891 0.096408
O O1 0.431229 0.500000 0.513917
O O2 0.425204 0.776744 0.605612
O O3 0.465649 0.766006 0.392681
O O4 0.357125 0.728976 0.546369
O O5 0.324521 0.742664 0.794332
O O6 0.427562 0.716904 0.769592
O O7 0.389015 0.000000 0.755997
O O8 0.793051 0.730280 0.114161
O O9 0.743641 0.000000 0.115000
O O10 0.750000 0.750000 0.000000
O O11 0.508756 0.500000 0.717573
O O12 0.502726 0.232117 0.815844
O O13 0.001232 0.000000 0.088422
O O14 0.091356 0.200228 0.993186
O O15 0.000000 0.271132 0.000000
O O16 0.250744 0.290740 0.394720
O O17 0.162752 0.248459 0.601203
O O18 0.201176 0.000000 0.470650
O O19 0.339415 0.500000 0.288565
O O20 0.345841 0.788795 0.208697
O O21 0.370121 0.000000 0.058287
#
# Coordination Sequence:
#
# PCOD9197008 Si02
#       8
#     8   8   8   8   8   8   8   8
#     4  10  21  37  60  88 119 159 205 250 300 363
#     4  11  24  40  60  90 126 162 202 252 307 363
#     4  11  24  42  65  93 124 161 206 256 316 377
#     4  10  22  40  63  90 120 158 206 254 303 368
#     4  10  23  43  69  94 121 160 208 260 316 375
#     4   9  19  35  57  85 119 156 199 252 308 365
#     4  10  20  35  58  85 119 158 201 252 305 366
#     4  12  25  40  61  90 125 161 204 252 305 368
#
# _framework density 22.831651999999998
#
# number of rings (size 3 to 8) (size 9 to 14) (size 15 to 20)
#    0.000    1.625    0.000    4.125    1.750    9.750 
#    0.000    0.000    0.000    0.000    0.000    0.000 
#    0.000    0.000    0.000    0.000    0.000    0.000 
#
# Total GULP energy -178954.718838 kJ/mol
# GULP energy per Si atom -5592.334964 kJ/mol
# Density = 2.277969 g / cm^3
# Si number density = 22.831652 Si / 1000 Ang^3
#
#
#
# Elastic Constant Matrix: (Units=GPa)
#
#
# Indices 1 2 3 4 5 6 
#
# 1 54.8342 -2.9437 29.8801 -0.0001 16.5805 0.0001
# 2 -2.9437 26.6569 -4.3623 0.0000 6.1759 -0.0001
# 3 29.8801 -4.3623 121.6675 0.0000 20.1951 0.0001
# 4 -0.0001 0.0000 0.0000 15.0886 0.0000 -1.9460
# 5 16.5805 6.1759 20.1951 0.0000 36.0249 0.0000
# 6 0.0001 -0.0001 0.0001 -1.9460 0.0000 18.5384
#
#
#
# Elastic Compliance Matrix: (Units=1/GPa)
#
#
# Indices 1 2 3 4 5 6 
#
# 1 0.023466 0.004054 -0.004090 0.000000 -0.009202 0.000000
# 2 0.004054 0.040631 0.002125 0.000000 -0.010023 0.000000
# 3 -0.004090 0.002125 0.009976 0.000000 -0.004074 0.000000
# 4 0.000000 0.000000 0.000000 0.067185 0.000000 0.007052
# 5 -0.009202 -0.010023 -0.004074 0.000000 0.035996 0.000000
# 6 0.000000 0.000000 0.000000 0.007052 0.000000 0.054682
#
#
# Mechanical properties :
#
#
# Convention : Reuss Voigt Hill
#
# Bulk Modulus (GPa) = 12.77950 27.58964 20.18457
# Shear Modulus (GPa) = 19.69726 25.96934 22.83330
#
# Velocity S-wave (km/s) = 2.94039 3.37624 3.16582
# Velocity P-wave (km/s) = 4.13972 5.22578 4.71413
#
# Compressibility (1/GPa) = 0.07825034
#
# Stress axis : x y z
#
# Youngs Moduli (GPa) = 42.61528 24.61162 100.24006
#
# Poissons Ratio (x) = -0.09978 0.40999
# Poissons Ratio (y) = -0.17276 -0.21299
# Poissons Ratio (z) = 0.17430 -0.05229
#
# Static dielectric constant tensor:
#      x y z
#    x 1.854100 0.000000 -0.008700 
#    y 0.000000 1.819700 0.000000 
#    z -0.008700 0.000000 1.863210 
# 
# From -- ./inp_files/249794.got.cif
#   From: 2010.05.17/outbox.cif.g08.bks.cpg/sg12_125_cif.got.tgz:249794.got - 2010.06.03 13:09:07.
