data_PCOD9197427
_publ_section_title
;
Structure prediction by ZEFSAII (Michael W. Deem and Ramdas Pophale) SiO2 
 PCOD9197427
Probable space group: C 2/M
;
_chemical_formula_sum "Si O2"
_cell_formula_units_Z 50
_cell_length_a 8.038777
_cell_length_b 12.528925
_cell_length_c 24.735938
_cell_angle_alpha 90.000000
_cell_angle_beta 114.654554
_cell_angle_gamma 90.000000
_cell_volume 2264.223484
_symmetry_space_group_name_H-M "C 2/M"
_symmetry_group_IT_number 12
_symmetry_cell_setting 'monoclinic'
loop_
_space_group_symop_operation_xyz
x,y,z
-x,y,-z
-x,-y,-z
x,-y,z
1/2+x,1/2+y,z
1/2-x,1/2+y,-z
1/2-x,1/2-y,-z
1/2+x,1/2-y,z
loop_
_atom_site_type_symbol
_atom_site_label
_atom_site_fract_x
_atom_site_fract_y
_atom_site_fract_z
Si Si1 0.500000 0.500000 0.000000
Si Si2 0.486534 0.693103 0.638390
Si Si3 0.145739 0.310090 0.271500
Si Si4 0.257707 0.884307 0.209213
Si Si5 0.429003 0.344169 0.088156
Si Si6 0.964809 0.383592 0.930950
Si Si7 0.594668 0.881735 0.571016
O O1 0.419198 0.406927 0.030479
O O2 0.668534 0.632788 0.683768
O O3 0.422842 0.755893 0.682889
O O4 0.534074 0.784128 0.600828
O O5 0.314155 0.626086 0.595266
O O6 0.198642 0.214652 0.238277
O O7 0.972197 0.372340 0.224614
O O8 0.120444 0.879147 0.140458
O O9 0.232943 0.000000 0.233204
O O10 0.255795 0.372090 0.102386
O O11 0.436696 0.217224 0.081326
O O12 0.024672 0.500000 0.918424
O O13 0.000000 0.379793 0.000000
O O14 0.500000 0.870991 0.500000
O O15 0.547569 0.000000 0.586764
#
# Coordination Sequence:
#
# PCOD9197427 Si02
#       7
#     2   8   8   8   8   8   8
#     4  12  24  40  68  92 124 160 202 242 316 392
#     4   9  19  37  59  85 123 159 201 256 294 350
#     4   9  21  38  59  87 113 154 209 245 301 362
#     4  11  22  41  62  85 117 154 192 256 308 356
#     4  12  24  42  64  90 124 155 200 247 309 381
#     4  11  24  41  61  88 116 154 192 238 291 365
#     4  10  20  35  59  90 124 166 206 245 300 355
#
# _framework density 22.082625
#
# number of rings (size 3 to 8) (size 9 to 14) (size 15 to 20)
#    0.000    1.600    2.400    1.920    0.000    6.400 
#    0.000    5.600    0.000    8.640    0.000    0.000 
#    0.000    0.000    0.000    0.000    0.000    0.000 
#
# Total GULP energy -139390.362458 kJ/mol
# GULP energy per Si atom -5575.614498 kJ/mol
# Density = 2.203236 g / cm^3
# Si number density = 22.082625 Si / 1000 Ang^3
#
#
#
# Elastic Constant Matrix: (Units=GPa)
#
#
# Indices 1 2 3 4 5 6 
#
# 1 57.6301 13.2923 24.8308 0.0000 21.4709 0.0000
# 2 13.2923 149.8638 19.6989 0.0000 -1.0325 0.0000
# 3 24.8308 19.6989 54.5549 0.0000 33.0602 0.0000
# 4 0.0000 0.0000 0.0000 -49.8616 0.0000 6.6257
# 5 21.4709 -1.0325 33.0602 0.0000 42.6468 0.0000
# 6 0.0000 0.0000 0.0000 6.6257 0.0000 23.9083
#
#
#
# Elastic Compliance Matrix: (Units=1/GPa)
#
#
# Indices 1 2 3 4 5 6 
#
# 1 0.022712 -0.001345 -0.005475 0.000000 -0.007223 0.000000
# 2 -0.001345 0.007470 -0.004913 0.000000 0.004667 0.000000
# 3 -0.005475 -0.004913 0.039602 0.000000 -0.028062 0.000000
# 4 0.000000 0.000000 0.000000 -0.019343 0.000000 0.005361
# 5 -0.007223 0.004667 -0.028062 0.000000 0.048952 0.000000
# 6 0.000000 0.000000 0.000000 0.005361 0.000000 0.040341
#
#
# Mechanical properties :
#
#
# Convention : Reuss Voigt Hill
#
# Bulk Modulus (GPa) = 21.58957 41.96586 31.77772
# Shear Modulus (GPa) = 27.98949 16.95382 22.47165
#
# Velocity S-wave (km/s) = 3.56404 2.77383 3.19347
# Velocity P-wave (km/s) = 5.17054 5.41333 5.29333
#
# Compressibility (1/GPa) = 0.04631866
#
# Stress axis : x y z
#
# Youngs Moduli (GPa) = 44.02938 133.86970 25.25135
#
# Poissons Ratio (x) = 0.18000 0.13825
# Poissons Ratio (y) = 0.05920 0.12407
# Poissons Ratio (z) = 0.24105 0.65773
#
# Static dielectric constant tensor:
#      x y z
#    x 1.846950 0.000000 0.073150 
#    y 0.000000 1.838930 0.000000 
#    z 0.073150 0.000000 1.835560 
# 
# From -- ./inp_files/355708.got.cif
#   From: 2010.05.17/outbox.cif.g08.bks.cpg/sg12_178_cif.got.tgz:355708.got - 2010.06.03 13:09:07.
