data_PCOD9197813
_publ_section_title
;
Structure prediction by ZEFSAII (Michael W. Deem and Ramdas Pophale) SiO2 
 PCOD9197813
Probable space group: C 2/M
;
_chemical_formula_sum "Si O2"
_cell_formula_units_Z 64
_cell_length_a 24.758301
_cell_length_b 8.957443
_cell_length_c 19.636337
_cell_angle_alpha 90.000000
_cell_angle_beta 69.889049
_cell_angle_gamma 90.000000
_cell_volume 4089.254740
_symmetry_space_group_name_H-M "C 2/M"
_symmetry_group_IT_number 12
_symmetry_cell_setting 'monoclinic'
loop_
_space_group_symop_operation_xyz
x,y,z
-x,y,-z
-x,-y,-z
x,-y,z
1/2+x,1/2+y,z
1/2-x,1/2+y,-z
1/2-x,1/2-y,-z
1/2+x,1/2-y,z
loop_
_atom_site_type_symbol
_atom_site_label
_atom_site_fract_x
_atom_site_fract_y
_atom_site_fract_z
Si Si1 0.269588 0.320749 0.842629
Si Si2 0.491796 0.821273 0.199090
Si Si3 0.718214 0.179022 0.718998
Si Si4 0.876873 0.679708 0.868502
Si Si5 0.449338 0.674712 0.077775
Si Si6 0.348388 0.819897 0.036207
Si Si7 0.225140 0.176658 0.578140
Si Si8 0.885907 0.175958 0.299323
O O1 0.275520 0.500000 0.842423
O O2 0.250219 0.280229 0.774452
O O3 0.328144 0.247029 0.841750
O O4 0.216575 0.279039 0.915138
O O5 0.558213 0.775616 0.178947
O O6 0.470113 0.759489 0.135983
O O7 0.447155 0.754137 0.272673
O O8 0.488788 0.000000 0.200605
O O9 0.747373 0.244629 0.637903
O O10 0.654329 0.250415 0.742011
O O11 0.713629 0.000000 0.716979
O O12 0.873837 0.500000 0.867341
O O13 0.863965 0.724387 0.952386
O O14 0.440231 0.500000 0.096938
O O15 0.392866 0.745812 0.068852
O O16 0.500000 0.686965 0.000000
O O17 0.353661 0.000000 0.039404
O O18 0.250000 0.250000 0.500000
O O19 0.155825 0.197134 0.617219
O O20 0.236620 0.000000 0.574851
O O21 0.891927 0.000000 0.284965
#
# Coordination Sequence:
#
# PCOD9197813 Si02
#       8
#     8   8   8   8   8   8   8   8
#     4  10  21  34  51  71  94 129 172 214 256 298
#     4  11  21  34  50  69  96 132 168 206 252 303
#     4   9  17  31  50  76 105 134 167 201 245 298
#     4  10  22  35  49  68  94 131 174 217 258 298
#     4  11  22  33  49  72  95 124 163 210 262 307
#     4  10  20  36  52  70  94 127 170 214 262 309
#     4   9  18  31  51  80 111 137 162 195 241 296
#     4   9  19  32  50  77 104 131 161 197 242 290
#
# _framework density 15.650772999999999
#
# number of rings (size 3 to 8) (size 9 to 14) (size 15 to 20)
#    0.750    1.375    1.250    2.625    0.000    4.500 
#    0.000    0.000    0.000    0.000    0.000    0.875 
#    0.000    7.000    0.000    0.000    0.000    0.000 
#
# Total GULP energy -178332.722826 kJ/mol
# GULP energy per Si atom -5572.897588 kJ/mol
# Density = 1.561515 g / cm^3
# Si number density = 15.650773 Si / 1000 Ang^3
#
#
#
# Elastic Constant Matrix: (Units=GPa)
#
#
# Indices 1 2 3 4 5 6 
#
# 1 131.7003 46.1605 51.6223 0.0000 -10.7376 0.0000
# 2 46.1605 58.3213 36.4506 0.0000 -10.1964 0.0000
# 3 51.6223 36.4506 83.7585 0.0000 -19.4348 0.0000
# 4 0.0000 0.0000 0.0000 23.5342 0.0000 -0.5299
# 5 -10.7376 -10.1964 -19.4348 0.0000 15.0035 0.0000
# 6 0.0000 0.0000 0.0000 -0.5299 0.0000 29.2601
#
#
#
# Elastic Compliance Matrix: (Units=1/GPa)
#
#
# Indices 1 2 3 4 5 6 
#
# 1 0.011602 -0.006576 -0.004860 0.000000 -0.002461 0.000000
# 2 -0.006576 0.027440 -0.006654 0.000000 0.005324 0.000000
# 3 -0.004860 -0.006654 0.022838 0.000000 0.021583 0.000000
# 4 0.000000 0.000000 0.000000 0.042509 0.000000 0.000770
# 5 -0.002461 0.005324 0.021583 0.000000 0.096466 0.000000
# 6 0.000000 0.000000 0.000000 0.000770 0.000000 0.034190
#
#
# Mechanical properties :
#
#
# Convention : Reuss Voigt Hill
#
# Bulk Modulus (GPa) = 38.90791 60.24965 49.57878
# Shear Modulus (GPa) = 17.87049 22.86266 20.36658
#
# Velocity S-wave (km/s) = 3.38276 3.82619 3.61129
# Velocity P-wave (km/s) = 6.33809 7.62230 7.00967
#
# Compressibility (1/GPa) = 0.02570172
#
# Stress axis : x y z
#
# Youngs Moduli (GPa) = 86.19157 36.44297 43.78653
#
# Poissons Ratio (x) = 0.23964 0.21280
# Poissons Ratio (y) = 0.56676 0.29134
# Poissons Ratio (z) = 0.41889 0.24248
#
# Static dielectric constant tensor:
#      x y z
#    x 1.504570 0.000000 -0.026010 
#    y 0.000000 1.522390 0.000000 
#    z -0.026010 0.000000 1.529020 
# 
# From -- ./inp_files/319141.got.cif
#   From: 2010.05.17/outbox.cif.g08.bks.cpg/sg12_160_cif.got.tgz:319141.got - 2010.06.03 13:09:07.
