data_PCOD9197863
_publ_section_title
;
Structure prediction by ZEFSAII (Michael W. Deem and Ramdas Pophale) SiO2 
 PCOD9197863
Probable space group: C 2/M
;
_chemical_formula_sum "Si O2"
_cell_formula_units_Z 48
_cell_length_a 14.457044
_cell_length_b 7.798676
_cell_length_c 27.380646
_cell_angle_alpha 90.000000
_cell_angle_beta 135.694038
_cell_angle_gamma 90.000000
_cell_volume 2156.274817
_symmetry_space_group_name_H-M "C 2/M"
_symmetry_group_IT_number 12
_symmetry_cell_setting 'monoclinic'
loop_
_space_group_symop_operation_xyz
x,y,z
-x,y,-z
-x,-y,-z
x,-y,z
1/2+x,1/2+y,z
1/2-x,1/2+y,-z
1/2-x,1/2-y,-z
1/2+x,1/2-y,z
loop_
_atom_site_type_symbol
_atom_site_label
_atom_site_fract_x
_atom_site_fract_y
_atom_site_fract_z
Si Si1 0.462415 0.710039 0.837783
Si Si2 0.374713 0.295517 0.012355
Si Si3 0.320454 0.195842 0.257809
Si Si4 0.597931 0.700615 0.400657
Si Si5 0.374663 0.197290 0.479381
Si Si6 0.707001 0.298321 0.861266
O O1 0.461285 0.500000 0.838182
O O2 0.504607 0.767636 0.908381
O O3 0.314517 0.768280 0.769612
O O4 0.578364 0.759298 0.844244
O O5 0.386067 0.500000 0.011780
O O6 0.250000 0.250000 0.000000
O O7 0.334489 0.226431 0.944326
O O8 0.458009 0.285074 0.321483
O O9 0.292464 0.201858 0.189458
O O10 0.335760 0.000000 0.279994
O O11 0.623917 0.500000 0.420865
O O12 0.595641 0.794368 0.451712
O O13 0.725097 0.767332 0.418344
O O14 0.500000 0.280609 0.500000
O O15 0.367818 0.000000 0.459259
O O16 0.692521 0.500000 0.845668
#
# Coordination Sequence:
#
# PCOD9197863 Si02
#       6
#     8   8   8   8   8   8
#     4   8  18  35  54  73 101 142 182 218 264 325
#     4   9  16  31  53  76 101 135 180 228 273 317
#     4  11  22  37  55  77 107 146 183 214 259 320
#     4  10  21  37  56  83 115 139 170 220 263 301
#     4   9  19  38  63  85 107 142 179 207 250 315
#     4  10  20  36  54  76 105 139 180 227 275 318
#
# _framework density 22.260612999999999
#
# number of rings (size 3 to 8) (size 9 to 14) (size 15 to 20)
#    0.000    2.500    0.000    3.000    0.000    3.000 
#    0.000   20.000    0.000    0.000    0.000    0.000 
#    0.000    0.000    0.000    0.000    0.000    0.000 
#
# Total GULP energy -133917.908994 kJ/mol
# GULP energy per Si atom -5579.912875 kJ/mol
# Density = 2.220995 g / cm^3
# Si number density = 22.260613 Si / 1000 Ang^3
#
#
#
# Elastic Constant Matrix: (Units=GPa)
#
#
# Indices 1 2 3 4 5 6 
#
# 1 94.7025 -4.0098 20.1394 0.0000 36.8395 0.0000
# 2 -4.0098 44.9942 -6.0232 0.0000 5.6306 0.0000
# 3 20.1394 -6.0232 82.6712 0.0000 40.6996 0.0000
# 4 0.0000 0.0000 0.0000 28.9585 0.0000 -3.7085
# 5 36.8395 5.6306 40.6996 0.0000 35.1520 0.0000
# 6 0.0000 0.0000 0.0000 -3.7085 0.0000 10.8008
#
#
#
# Elastic Compliance Matrix: (Units=1/GPa)
#
#
# Indices 1 2 3 4 5 6 
#
# 1 0.029586 0.013317 0.023437 0.000000 -0.060275 0.000000
# 2 0.013317 0.031204 0.019443 0.000000 -0.041466 0.000000
# 3 0.023437 0.019443 0.049834 0.000000 -0.085375 0.000000
# 4 0.000000 0.000000 0.000000 0.036120 0.000000 0.012402
# 5 -0.060275 -0.041466 -0.085375 0.000000 0.197107 0.000000
# 6 0.000000 0.000000 0.000000 0.012402 0.000000 0.096844
#
#
# Mechanical properties :
#
#
# Convention : Reuss Voigt Hill
#
# Bulk Modulus (GPa) = 4.48395 26.95344 15.71869
# Shear Modulus (GPa) = 12.41800 29.13302 20.77551
#
# Velocity S-wave (km/s) = 2.36444 3.62155 3.05829
# Velocity P-wave (km/s) = 3.07779 5.44261 4.42124
#
# Compressibility (1/GPa) = 0.22301759
#
# Stress axis : x y z
#
# Youngs Moduli (GPa) = 33.79932 32.04748 20.06666
#
# Poissons Ratio (x) = -0.42677 -0.47029
# Poissons Ratio (y) = -0.45010 -0.39016
# Poissons Ratio (z) = -0.79214 -0.62311
#
# Static dielectric constant tensor:
#      x y z
#    x 1.858150 0.000000 0.046160 
#    y 0.000000 1.841630 0.000000 
#    z 0.046160 0.000000 1.806610 
# 
# From -- ./inp_files/360239.got.cif
#   From: 2010.05.17/outbox.cif.g08.bks.cpg/sg12_181_cif.got.tgz:360239.got - 2010.06.03 13:09:07.
