data_PCOD9197132
_publ_section_title
;
Structure prediction by ZEFSAII (Michael W. Deem and Ramdas Pophale) SiO2 
 PCOD9197132
Probable space group: C 2/M
;
_chemical_formula_sum "Si O2"
_cell_formula_units_Z 56
_cell_length_a 23.432587
_cell_length_b 14.867325
_cell_length_c 13.286762
_cell_angle_alpha 90.000000
_cell_angle_beta 34.561252
_cell_angle_gamma 90.000000
_cell_volume 2625.880862
_symmetry_space_group_name_H-M "C 2/M"
_symmetry_group_IT_number 12
_symmetry_cell_setting 'monoclinic'
loop_
_space_group_symop_operation_xyz
x,y,z
-x,y,-z
-x,-y,-z
x,-y,z
1/2+x,1/2+y,z
1/2-x,1/2+y,-z
1/2-x,1/2-y,-z
1/2+x,1/2-y,z
loop_
_atom_site_type_symbol
_atom_site_label
_atom_site_fract_x
_atom_site_fract_y
_atom_site_fract_z
Si Si1 0.753100 0.306095 0.803550
Si Si2 0.763651 0.598647 0.205930
Si Si3 0.669571 0.369500 0.549080
Si Si4 0.686979 0.162424 0.498760
Si Si5 0.910335 0.608312 0.707232
Si Si6 0.523940 0.895721 0.165880
Si Si7 0.042968 0.893452 0.048821
O O1 0.767258 0.197539 0.790193
O O2 0.811482 0.351985 0.623053
O O3 0.805427 0.349966 0.823683
O O4 0.637704 0.334219 0.947794
O O5 0.752444 0.500000 0.167155
O O6 0.706872 0.587822 0.392838
O O7 0.884043 0.609645 0.044107
O O8 0.705657 0.267976 0.477627
O O9 0.729482 0.394092 0.563716
O O10 0.552140 0.380416 0.739307
O O11 0.579958 0.150699 0.707096
O O12 0.903674 0.500000 0.714931
O O13 0.936482 0.637016 0.782907
O O14 0.000000 0.635152 0.500000
O O15 0.496913 0.000000 0.218273
O O16 0.070040 0.000000 0.007451
O O17 0.000000 0.868754 0.000000
#
# Coordination Sequence:
#
# PCOD9197132 Si02
#       7
#     8   8   8   8   8   8   8
#     4  11  21  38  63  89 121 154 192 247 298 357
#     4  10  23  41  59  83 117 162 204 241 285 343
#     4  10  21  38  57  81 123 162 198 240 284 352
#     4  10  20  35  58  88 117 158 198 239 297 348
#     4  10  20  36  62  94 121 146 185 245 309 357
#     4  10  21  37  59  88 120 149 195 250 294 352
#     4  11  22  35  57  88 120 156 194 238 295 354
#
# _framework density 21.326177999999999
#
# number of rings (size 3 to 8) (size 9 to 14) (size 15 to 20)
#    0.000    1.714    2.857    1.714    0.000    2.857 
#    0.000    1.429    0.000    0.429    0.000    0.000 
#    0.000    0.000    0.000    0.000    0.000    0.000 
#
# Total GULP energy -156056.285777 kJ/mol
# GULP energy per Si atom -5573.438778 kJ/mol
# Density = 2.127764 g / cm^3
# Si number density = 21.326178 Si / 1000 Ang^3
#
#
#
# Elastic Constant Matrix: (Units=GPa)
#
#
# Indices 1 2 3 4 5 6 
#
# 1 42.1831 17.0523 13.1953 0.0000 -21.6340 0.0000
# 2 17.0523 75.3096 0.0770 0.0000 -8.9395 0.0000
# 3 13.1953 0.0770 111.1279 0.0000 -0.6431 0.0000
# 4 0.0000 0.0000 0.0000 28.5094 0.0000 -2.0509
# 5 -21.6340 -8.9395 -0.6431 0.0000 25.2938 0.0000
# 6 0.0000 0.0000 0.0000 -2.0509 0.0000 4.8484
#
#
#
# Elastic Compliance Matrix: (Units=1/GPa)
#
#
# Indices 1 2 3 4 5 6 
#
# 1 0.047597 -0.006217 -0.005425 0.000000 0.038375 0.000000
# 2 -0.006217 0.014672 0.000727 0.000000 -0.000113 0.000000
# 3 -0.005425 0.000727 0.009618 0.000000 -0.004139 0.000000
# 4 0.000000 0.000000 0.000000 0.036177 0.000000 0.015303
# 5 0.038375 -0.000113 -0.004139 0.000000 0.072213 0.000000
# 6 0.000000 0.000000 0.000000 0.015303 0.000000 0.212726
#
#
# Mechanical properties :
#
#
# Convention : Reuss Voigt Hill
#
# Bulk Modulus (GPa) = 19.97666 32.14111 26.05889
# Shear Modulus (GPa) = 11.58698 24.95006 18.26852
#
# Velocity S-wave (km/s) = 2.33346 3.42413 2.92999
# Velocity P-wave (km/s) = 4.08014 5.54408 4.86746
#
# Compressibility (1/GPa) = 0.05005841
#
# Stress axis : x y z
#
# Youngs Moduli (GPa) = 21.00960 68.15720 103.96751
#
# Poissons Ratio (x) = 0.42371 0.56406
# Poissons Ratio (y) = 0.13061 -0.07562
# Poissons Ratio (z) = 0.11398 -0.04957
#
# Static dielectric constant tensor:
#      x y z
#    x 1.809660 0.000000 0.048280 
#    y 0.000000 1.779840 0.000000 
#    z 0.048280 0.000000 1.781470 
# 
# From -- ./inp_files/240908.got.cif
#   From: 2010.05.17/outbox.cif.g08.bks.cpg/sg12_121_cif.got.tgz:240908.got - 2010.06.03 13:09:07.
