data_PCOD9197019
_publ_section_title
;
Structure prediction by ZEFSAII (Michael W. Deem and Ramdas Pophale) SiO2 
 PCOD9197019
Probable space group: C 2/M
;
_chemical_formula_sum "Si O2"
_cell_formula_units_Z 64
_cell_length_a 23.375495
_cell_length_b 8.249439
_cell_length_c 24.960332
_cell_angle_alpha 90.000000
_cell_angle_beta 45.166589
_cell_angle_gamma 90.000000
_cell_volume 3413.340785
_symmetry_space_group_name_H-M "C 2/M"
_symmetry_group_IT_number 12
_symmetry_cell_setting 'monoclinic'
loop_
_space_group_symop_operation_xyz
x,y,z
-x,y,-z
-x,-y,-z
x,-y,z
1/2+x,1/2+y,z
1/2-x,1/2+y,-z
1/2-x,1/2-y,-z
1/2+x,1/2-y,z
loop_
_atom_site_type_symbol
_atom_site_label
_atom_site_fract_x
_atom_site_fract_y
_atom_site_fract_z
Si Si1 0.090069 0.810030 0.785895
Si Si2 0.969561 0.803453 0.961100
Si Si3 0.065584 0.804006 0.412484
Si Si4 0.536328 0.810564 0.207465
Si Si5 0.009760 0.694483 0.646199
Si Si6 0.162178 0.190434 0.037349
Si Si7 0.188431 0.305038 0.495762
Si Si8 0.265206 0.692468 0.652512
O O1 0.184369 0.777015 0.725775
O O2 0.041616 0.767145 0.871758
O O3 0.049952 0.709593 0.764393
O O4 0.075175 0.000000 0.785308
O O5 0.886961 0.746523 0.984022
O O6 0.962006 0.000000 0.969994
O O7 0.000000 0.746368 0.000000
O O8 0.154671 0.751725 0.369981
O O9 0.000000 0.748620 0.500000
O O10 0.043604 0.739765 0.369055
O O11 0.063120 0.000000 0.413866
O O12 0.526123 0.744249 0.274112
O O13 0.600209 0.722779 0.127062
O O14 0.558862 0.000000 0.194288
O O15 0.014782 0.500000 0.648445
O O16 0.099661 0.752467 0.572304
O O17 0.171159 0.000000 0.022489
O O18 0.250000 0.250000 0.000000
O O19 0.187308 0.500000 0.491365
O O20 0.250000 0.250000 0.500000
O O21 0.216783 0.230519 0.421199
O O22 0.255844 0.500000 0.665621
#
# Coordination Sequence:
#
# PCOD9197019 Si02
#       8
#     8   8   8   8   8   8   8   8
#     4  10  20  35  58  86 112 145 186 229 284 337
#     4   8  16  34  59  85 113 146 186 231 280 340
#     4  10  21  38  57  76 104 147 188 228 281 333
#     4  10  20  37  59  84 115 148 185 231 284 337
#     4  10  22  37  55  79 106 140 184 230 277 331
#     4  10  20  36  60  88 119 154 193 235 287 345
#     4  11  22  35  54  81 109 140 181 229 278 329
#     4  11  22  37  55  77 109 146 186 229 278 332
#
# _framework density 18.749959
#
# number of rings (size 3 to 8) (size 9 to 14) (size 15 to 20)
#    0.000    2.000    1.250    3.375    0.000    3.750 
#    2.250    0.000    0.000   12.750    0.000    0.000 
#    0.000    0.000    0.000    0.000    0.000    0.000 
#
# Total GULP energy -178474.220329 kJ/mol
# GULP energy per Si atom -5577.319385 kJ/mol
# Density = 1.870728 g / cm^3
# Si number density = 18.749959 Si / 1000 Ang^3
#
#
#
# Elastic Constant Matrix: (Units=GPa)
#
#
# Indices 1 2 3 4 5 6 
#
# 1 162.8153 2.8101 73.6275 -0.0006 3.0622 0.0012
# 2 2.8101 8.6925 3.6604 -0.0007 -1.6434 0.0039
# 3 73.6275 3.6604 84.5882 -0.0003 2.7172 0.0005
# 4 -0.0006 -0.0007 -0.0003 7.2731 -0.0001 -2.0091
# 5 3.0622 -1.6434 2.7172 -0.0001 40.4432 -0.0003
# 6 0.0012 0.0039 0.0005 -2.0091 -0.0003 26.6750
#
#
#
# Elastic Compliance Matrix: (Units=1/GPa)
#
#
# Indices 1 2 3 4 5 6 
#
# 1 0.010131 0.000414 -0.008832 0.000000 -0.000157 0.000000
# 2 0.000414 0.118258 -0.005643 0.000006 0.005153 -0.000017
# 3 -0.008832 -0.005643 0.019782 0.000000 -0.000890 0.000001
# 4 0.000000 0.000006 0.000000 0.140414 0.000001 0.010576
# 5 -0.000157 0.005153 -0.000890 0.000001 0.025007 0.000000
# 6 0.000000 -0.000017 0.000001 0.010576 0.000000 0.038285
#
#
# Mechanical properties :
#
#
# Convention : Reuss Voigt Hill
#
# Bulk Modulus (GPa) = 8.32986 46.25466 27.29226
# Shear Modulus (GPa) = 11.90430 26.61147 19.25789
#
# Velocity S-wave (km/s) = 2.52245 3.77142 3.20830
# Velocity P-wave (km/s) = 3.59665 6.60966 5.32088
#
# Compressibility (1/GPa) = 0.12005008
#
# Stress axis : x y z
#
# Youngs Moduli (GPa) = 98.70212 8.45606 50.55112
#
# Poissons Ratio (x) = -0.00350 0.44645
# Poissons Ratio (y) = -0.04086 0.28528
# Poissons Ratio (z) = 0.87169 0.04772
#
# Static dielectric constant tensor:
#      x y z
#    x 1.594020 0.000000 -0.013830 
#    y 0.000000 1.666830 0.000000 
#    z -0.013830 0.000000 1.625130 
# 
# From -- ./inp_files/345972.got.cif
#   From: 2010.05.17/outbox.cif.g08.bks.cpg/sg12_173_cif.got.tgz:345972.got - 2010.06.03 13:09:07.
