data_PCOD9197426
_publ_section_title
;
Structure prediction by ZEFSAII (Michael W. Deem and Ramdas Pophale) SiO2 
 PCOD9197426
Probable space group: C 2/M
;
_chemical_formula_sum "Si O2"
_cell_formula_units_Z 42
_cell_length_a 23.378378
_cell_length_b 9.012342
_cell_length_c 10.608075
_cell_angle_alpha 90.000000
_cell_angle_beta 96.458594
_cell_angle_gamma 90.000000
_cell_volume 2220.872093
_symmetry_space_group_name_H-M "C 2/M"
_symmetry_group_IT_number 12
_symmetry_cell_setting 'monoclinic'
loop_
_space_group_symop_operation_xyz
x,y,z
-x,y,-z
-x,-y,-z
x,-y,z
1/2+x,1/2+y,z
1/2-x,1/2+y,-z
1/2-x,1/2-y,-z
1/2+x,1/2-y,z
loop_
_atom_site_type_symbol
_atom_site_label
_atom_site_fract_x
_atom_site_fract_y
_atom_site_fract_z
Si Si1 0.000000 0.000000 0.000000
Si Si2 0.247404 0.166827 0.687351
Si Si3 0.339644 0.332379 0.568404
Si Si4 0.914503 0.835801 0.160276
Si Si5 0.064188 0.673096 0.570923
Si Si6 0.301119 0.824636 0.090943
O O1 0.966380 0.873023 0.078422
O O2 0.309559 0.233668 0.668087
O O3 0.208799 0.156613 0.552500
O O4 0.214322 0.278793 0.770139
O O5 0.252337 0.000000 0.741611
O O6 0.353033 0.500000 0.615145
O O7 0.393679 0.255408 0.516115
O O8 0.932041 0.750038 0.291364
O O9 0.862930 0.748355 0.080058
O O10 0.891520 0.000000 0.194121
O O11 0.080859 0.500000 0.586551
O O12 0.000000 0.681808 0.500000
O O13 0.302297 0.000000 0.074774
O O14 0.250000 0.750000 0.000000
#
# Coordination Sequence:
#
# PCOD9197426 Si02
#       6
#     2   8   8   8   8   8
#     4   8  24  44  72  92 124 176 218 284 320 392
#     4  10  20  36  59  90 126 160 199 252 313 377
#     4  10  20  35  59  90 124 163 200 250 311 378
#     4  10  21  44  67  90 124 167 215 273 324 390
#     4  11  23  39  62  93 127 169 216 267 324 388
#     4  12  24  40  65  95 128 171 218 267 328 392
#
# _framework density 18.911490000000001
#
# number of rings (size 3 to 8) (size 9 to 14) (size 15 to 20)
#    0.571    0.952    1.905    4.000    0.000    3.048 
#    3.429    1.905    0.000    0.000    0.000    0.000 
#    0.000    0.000    0.000    0.000    0.000    0.000 
#
# Total GULP energy -116904.300613 kJ/mol
# GULP energy per Si atom -5566.871458 kJ/mol
# Density = 1.886845 g / cm^3
# Si number density = 18.911490 Si / 1000 Ang^3
#
#
#
# Elastic Constant Matrix: (Units=GPa)
#
#
# Indices 1 2 3 4 5 6 
#
# 1 95.6229 54.5412 21.1361 0.0000 -25.1023 0.0000
# 2 54.5412 160.5200 15.0659 0.0000 0.4546 0.0000
# 3 21.1361 15.0659 18.2710 0.0000 -4.8174 0.0000
# 4 0.0000 0.0000 0.0000 30.5222 0.0000 -2.6909
# 5 -25.1023 0.4546 -4.8174 0.0000 36.9732 0.0000
# 6 0.0000 0.0000 0.0000 -2.6909 0.0000 27.5591
#
#
#
# Elastic Compliance Matrix: (Units=1/GPa)
#
#
# Indices 1 2 3 4 5 6 
#
# 1 0.020041 -0.005370 -0.015690 0.000000 0.011628 0.000000
# 2 -0.005370 0.008216 -0.001606 0.000000 -0.003956 0.000000
# 3 -0.015690 -0.001606 0.073943 0.000000 -0.000998 0.000000
# 4 0.000000 0.000000 0.000000 0.033047 0.000000 0.003227
# 5 0.011628 -0.003956 -0.000998 0.000000 0.034860 0.000000
# 6 0.000000 0.000000 0.000000 0.003227 0.000000 0.036601
#
#
# Mechanical properties :
#
#
# Convention : Reuss Voigt Hill
#
# Bulk Modulus (GPa) = 17.58445 50.65558 34.12001
# Shear Modulus (GPa) = 18.45038 31.25562 24.85300
#
# Velocity S-wave (km/s) = 3.12688 4.06979 3.62909
# Velocity P-wave (km/s) = 4.72810 6.99486 5.97005
#
# Compressibility (1/GPa) = 0.05686843
#
# Stress axis : x y z
#
# Youngs Moduli (GPa) = 49.89694 121.70961 13.52394
#
# Poissons Ratio (x) = 0.65357 0.21219
# Poissons Ratio (y) = 0.26794 0.02172
# Poissons Ratio (z) = 0.78289 0.19548
#
# Static dielectric constant tensor:
#      x y z
#    x 1.671570 0.000000 0.024810 
#    y 0.000000 1.663890 0.000000 
#    z 0.024810 0.000000 1.693680 
# 
# From -- ./inp_files/171503.got.cif
#   From: 2010.05.17/outbox.cif.g08.bks.cpg/sg12_86_cif.got.tgz:171503.got - 2010.06.03 13:09:07.
