data_PCOD9197094
_publ_section_title
;
Structure prediction by ZEFSAII (Michael W. Deem and Ramdas Pophale) SiO2 
 PCOD9197094
Probable space group: C 2/M
;
_chemical_formula_sum "Si O2"
_cell_formula_units_Z 40
_cell_length_a 17.890306
_cell_length_b 8.958524
_cell_length_c 13.964782
_cell_angle_alpha 90.000000
_cell_angle_beta 71.132772
_cell_angle_gamma 90.000000
_cell_volume 2117.891376
_symmetry_space_group_name_H-M "C 2/M"
_symmetry_group_IT_number 12
_symmetry_cell_setting 'monoclinic'
loop_
_space_group_symop_operation_xyz
x,y,z
-x,y,-z
-x,-y,-z
x,-y,z
1/2+x,1/2+y,z
1/2-x,1/2+y,-z
1/2-x,1/2-y,-z
1/2+x,1/2-y,z
loop_
_atom_site_type_symbol
_atom_site_label
_atom_site_fract_x
_atom_site_fract_y
_atom_site_fract_z
Si Si1 0.590889 0.672252 0.500456
Si Si2 0.267308 0.822025 0.095746
Si Si3 0.356418 0.175070 0.709459
Si Si4 0.072883 0.823826 0.897261
Si Si5 0.463451 0.824936 0.289597
O O1 0.500000 0.672833 0.500000
O O2 0.615122 0.500000 0.500855
O O3 0.640115 0.755914 0.398219
O O4 0.587955 0.756667 0.602629
O O5 0.203341 0.762874 0.198180
O O6 0.352548 0.766927 0.095163
O O7 0.264121 0.000000 0.090121
O O8 0.250000 0.750000 0.000000
O O9 0.444800 0.187785 0.716642
O O10 0.336033 0.000000 0.714550
O O11 0.050232 0.764117 0.802078
O O12 0.091661 0.000000 0.885572
O O13 0.000000 0.803557 0.000000
O O14 0.445806 0.000000 0.283945
#
# Coordination Sequence:
#
# PCOD9197094 Si02
#       5
#     8   8   8   8   8
#     4   9  17  31  54  84 117 153 193 234 278 332
#     4  12  25  41  61  85 115 150 190 235 286 341
#     4  10  20  36  59  87 119 153 192 236 282 335
#     4  11  24  41  61  85 114 149 190 236 287 342
#     4  10  20  35  58  87 118 153 192 235 283 335
#
# _framework density 18.886709
#
# number of rings (size 3 to 8) (size 9 to 14) (size 15 to 20)
#    0.000    1.600    0.000    5.400    0.000    9.600 
#    0.000    1.000    0.000    0.000    0.000    0.000 
#    0.000    0.000    0.000    0.000    0.000    0.000 
#
# Total GULP energy -111811.241967 kJ/mol
# GULP energy per Si atom -5590.562098 kJ/mol
# Density = 1.884372 g / cm^3
# Si number density = 18.886709 Si / 1000 Ang^3
#
#
#
# Elastic Constant Matrix: (Units=GPa)
#
#
# Indices 1 2 3 4 5 6 
#
# 1 40.3054 58.3398 44.8306 0.0000 -10.3743 0.0000
# 2 58.3398 196.9623 106.5673 0.0000 -18.1222 0.0000
# 3 44.8306 106.5673 183.8406 0.0000 -12.8744 0.0000
# 4 0.0000 0.0000 0.0000 37.7359 0.0000 0.5362
# 5 -10.3743 -18.1222 -12.8744 0.0000 22.1255 0.0000
# 6 0.0000 0.0000 0.0000 0.5362 0.0000 27.6399
#
#
#
# Elastic Compliance Matrix: (Units=1/GPa)
#
#
# Indices 1 2 3 4 5 6 
#
# 1 0.048651 -0.010762 -0.004843 0.000000 0.011179 0.000000
# 2 -0.010762 0.010083 -0.003123 0.000000 0.001395 0.000000
# 3 -0.004843 -0.003123 0.008436 0.000000 0.000081 0.000000
# 4 0.000000 0.000000 0.000000 0.026507 0.000000 -0.000514
# 5 0.011179 0.001395 0.000081 0.000000 0.051628 0.000000
# 6 0.000000 0.000000 0.000000 -0.000514 0.000000 0.036190
#
#
# Mechanical properties :
#
#
# Convention : Reuss Voigt Hill
#
# Bulk Modulus (GPa) = 33.65176 93.39819 63.52497
# Shear Modulus (GPa) = 21.84793 31.59165 26.71979
#
# Velocity S-wave (km/s) = 3.40485 4.09429 3.76538
# Velocity P-wave (km/s) = 5.77180 8.47998 7.25341
#
# Compressibility (1/GPa) = 0.02971613
#
# Stress axis : x y z
#
# Youngs Moduli (GPa) = 20.55436 99.18138 118.53743
#
# Poissons Ratio (x) = 1.06735 0.57406
# Poissons Ratio (y) = 0.22120 0.37014
# Poissons Ratio (z) = 0.09954 0.30970
#
# Static dielectric constant tensor:
#      x y z
#    x 1.641200 0.000000 0.000610 
#    y 0.000000 1.629730 0.000000 
#    z 0.000610 0.000000 1.620760 
# 
# From -- ./inp_files/151681.got.cif
#   From: 2010.05.17/outbox.cif.g08.bks.cpg/sg12_76_cif.got.tgz:151681.got - 2010.06.03 13:09:07.
