data_PCOD9197559
_publ_section_title
;
Structure prediction by ZEFSAII (Michael W. Deem and Ramdas Pophale) SiO2 
 PCOD9197559
Probable space group: C 2/M
;
_chemical_formula_sum "Si O2"
_cell_formula_units_Z 48
_cell_length_a 15.078938
_cell_length_b 21.685349
_cell_length_c 11.549710
_cell_angle_alpha 90.000000
_cell_angle_beta 138.492611
_cell_angle_gamma 90.000000
_cell_volume 2502.857478
_symmetry_space_group_name_H-M "C 2/M"
_symmetry_group_IT_number 12
_symmetry_cell_setting 'monoclinic'
loop_
_space_group_symop_operation_xyz
x,y,z
-x,y,-z
-x,-y,-z
x,-y,z
1/2+x,1/2+y,z
1/2-x,1/2+y,-z
1/2-x,1/2-y,-z
1/2+x,1/2-y,z
loop_
_atom_site_type_symbol
_atom_site_label
_atom_site_fract_x
_atom_site_fract_y
_atom_site_fract_z
Si Si1 0.673915 0.391497 0.290977
Si Si2 0.099129 0.067749 0.964670
Si Si3 0.841538 0.289267 0.327980
Si Si4 0.627447 0.070830 0.321265
Si Si5 0.149423 0.675132 0.143752
Si Si6 0.348660 0.875188 0.111649
O O1 0.517841 0.382303 0.171693
O O2 0.765947 0.333937 0.345147
O O3 0.751030 0.424768 0.469317
O O4 0.652731 0.427070 0.148679
O O5 0.041238 0.000000 0.888157
O O6 0.228148 0.078059 0.014072
O O7 0.765393 0.225045 0.269986
O O8 0.828637 0.322152 0.189298
O O9 0.000000 0.283764 0.500000
O O10 0.649527 0.120128 0.238917
O O11 0.493375 0.092320 0.258463
O O12 0.612021 0.000000 0.265598
O O13 0.163137 0.649334 0.028767
O O14 0.000000 0.704579 0.000000
#
# Coordination Sequence:
#
# PCOD9197559 Si02
#       6
#     8   8   8   8   8   8
#     4  10  21  37  59  92 122 161 200 251 313 358
#     4  10  20  35  60  90 124 159 200 252 310 366
#     4  11  22  41  62  89 123 153 210 257 307 360
#     4  11  22  41  64  91 127 161 205 251 300 365
#     4  10  25  41  61  90 121 169 202 246 303 361
#     4  10  22  40  60  92 119 163 206 249 305 353
#
# _framework density 19.178079
#
# number of rings (size 3 to 8) (size 9 to 14) (size 15 to 20)
#    0.000    1.667    1.667    3.000    4.667    5.667 
#    0.000    2.500    0.000    2.500    0.000    0.000 
#    0.000    0.000    0.000    0.000    0.000    0.000 
#
# Total GULP energy -133778.377908 kJ/mol
# GULP energy per Si atom -5574.099079 kJ/mol
# Density = 1.913443 g / cm^3
# Si number density = 19.178079 Si / 1000 Ang^3
#
#
#
# Elastic Constant Matrix: (Units=GPa)
#
#
# Indices 1 2 3 4 5 6 
#
# 1 100.5475 44.0359 45.3447 0.0000 14.7089 0.0000
# 2 44.0359 100.8725 46.4327 0.0000 17.3264 0.0000
# 3 45.3447 46.4327 94.8960 0.0000 27.3561 0.0000
# 4 0.0000 0.0000 0.0000 19.3318 0.0000 11.2054
# 5 14.7089 17.3264 27.3561 0.0000 25.4077 0.0000
# 6 0.0000 0.0000 0.0000 11.2054 0.0000 23.1015
#
#
#
# Elastic Compliance Matrix: (Units=1/GPa)
#
#
# Indices 1 2 3 4 5 6 
#
# 1 0.013745 -0.003821 -0.004576 0.000000 -0.000425 0.000000
# 2 -0.003821 0.014004 -0.004221 0.000000 -0.002793 0.000000
# 3 -0.004576 -0.004221 0.019136 0.000000 -0.015075 0.000000
# 4 0.000000 0.000000 0.000000 0.071960 0.000000 -0.034904
# 5 -0.000425 -0.002793 -0.015075 0.000000 0.057740 0.000000
# 6 0.000000 0.000000 0.000000 -0.034904 0.000000 0.060217
#
#
# Mechanical properties :
#
#
# Convention : Reuss Voigt Hill
#
# Bulk Modulus (GPa) = 46.19233 63.10473 54.64853
# Shear Modulus (GPa) = 18.56981 24.26840 21.41910
#
# Velocity S-wave (km/s) = 3.11510 3.56114 3.34556
# Velocity P-wave (km/s) = 6.08907 7.06293 6.59400
#
# Compressibility (1/GPa) = 0.02164861
#
# Stress axis : x y z
#
# Youngs Moduli (GPa) = 72.75553 71.40566 52.25847
#
# Poissons Ratio (x) = 0.27285 0.23911
# Poissons Ratio (y) = 0.27801 0.22061
# Poissons Ratio (z) = 0.33290 0.30143
#
# Static dielectric constant tensor:
#      x y z
#    x 1.691050 0.000000 0.030050 
#    y 0.000000 1.680920 0.000000 
#    z 0.030050 0.000000 1.670670 
# 
# From -- ./inp_files/148024.got.cif
#   From: 2010.05.17/outbox.cif.g08.bks.cpg/sg12_75_cif.got.tgz:148024.got - 2010.06.03 13:09:07.
