data_PCOD9197816
_publ_section_title
;
Structure prediction by ZEFSAII (Michael W. Deem and Ramdas Pophale) SiO2 
 PCOD9197816
Probable space group: C 2/M
;
_chemical_formula_sum "Si O2"
_cell_formula_units_Z 40
_cell_length_a 16.229015
_cell_length_b 26.744864
_cell_length_c 17.510954
_cell_angle_alpha 90.000000
_cell_angle_beta 163.088303
_cell_angle_gamma 90.000000
_cell_volume 2210.967632
_symmetry_space_group_name_H-M "C 2/M"
_symmetry_group_IT_number 12
_symmetry_cell_setting 'monoclinic'
loop_
_space_group_symop_operation_xyz
x,y,z
-x,y,-z
-x,-y,-z
x,-y,z
1/2+x,1/2+y,z
1/2-x,1/2+y,-z
1/2-x,1/2-y,-z
1/2+x,1/2-y,z
loop_
_atom_site_type_symbol
_atom_site_label
_atom_site_fract_x
_atom_site_fract_y
_atom_site_fract_z
Si Si1 0.619029 0.387834 0.867950
Si Si2 0.597297 0.214527 0.925829
Si Si3 0.015136 0.746273 0.605295
Si Si4 0.915429 0.558202 0.638635
Si Si5 0.896693 0.367151 0.494759
O O1 0.791040 0.341213 0.988716
O O2 0.370728 0.411043 0.595678
O O3 0.439244 0.370351 0.783796
O O4 0.837788 0.430909 0.083348
O O5 0.710174 0.232278 0.108823
O O6 0.750000 0.250000 0.000000
O O7 0.264030 0.222898 0.617906
O O8 0.987299 0.687842 0.603506
O O9 0.000000 0.747523 0.500000
O O10 0.861502 0.500000 0.579803
O O11 0.010413 0.586522 0.645132
O O12 0.000000 0.371486 0.500000
#
# Coordination Sequence:
#
# PCOD9197816 Si02
#       5
#     8   8   8   8   8
#     4  10  21  34  53  77  99 143 181 225 261 316
#     4  12  20  36  57  80 110 146 187 219 274 325
#     4  11  23  36  55  82 116 148 182 221 266 327
#     4  10  20  36  52  74 106 140 186 228 266 304
#     4   9  21  35  50  75 110 148 184 217 260 309
#
# _framework density 18.091626000000002
#
# number of rings (size 3 to 8) (size 9 to 14) (size 15 to 20)
#    1.200    0.400    2.000    4.200    0.000    1.200 
#    0.000    1.000    0.000    0.000    0.000    0.000 
#    0.000   56.000    0.000    0.000    0.000    0.000 
#
# Total GULP energy -111384.811691 kJ/mol
# GULP energy per Si atom -5569.240585 kJ/mol
# Density = 1.805045 g / cm^3
# Si number density = 18.091626 Si / 1000 Ang^3
#
#
#
# Elastic Constant Matrix: (Units=GPa)
#
#
# Indices 1 2 3 4 5 6 
#
# 1 27.5009 14.6446 -4.1571 0.0061 0.5045 0.0006
# 2 14.6446 104.4356 4.1244 -0.0013 3.8193 -0.0023
# 3 -4.1571 4.1244 58.8571 -0.0008 0.1624 0.0036
# 4 0.0061 -0.0013 -0.0008 29.9518 0.0039 -2.7899
# 5 0.5045 3.8193 0.1624 0.0039 20.8226 0.0043
# 6 0.0006 -0.0023 0.0036 -2.7899 0.0043 13.7095
#
#
#
# Elastic Compliance Matrix: (Units=1/GPa)
#
#
# Indices 1 2 3 4 5 6 
#
# 1 0.039896 -0.005724 0.003219 -0.000009 0.000058 -0.000005
# 2 -0.005724 0.010488 -0.001134 0.000002 -0.001776 0.000003
# 3 0.003219 -0.001134 0.017297 -0.000001 -0.000005 -0.000005
# 4 -0.000009 0.000002 -0.000001 0.034032 -0.000008 0.006926
# 5 0.000058 -0.001776 -0.000005 -0.000008 0.048349 -0.000017
# 6 -0.000005 0.000003 -0.000005 0.006926 -0.000017 0.074352
#
#
# Mechanical properties :
#
#
# Convention : Reuss Voigt Hill
#
# Bulk Modulus (GPa) = 16.55566 24.44637 20.50101
# Shear Modulus (GPa) = 19.85499 24.64223 22.24861
#
# Velocity S-wave (km/s) = 3.31640 3.69464 3.51062
# Velocity P-wave (km/s) = 4.88217 5.63404 5.27152
#
# Compressibility (1/GPa) = 0.06040230
#
# Stress axis : x y z
#
# Youngs Moduli (GPa) = 25.06529 95.35034 57.81302
#
# Poissons Ratio (x) = 0.54575 -0.18609
# Poissons Ratio (y) = 0.14347 0.06558
# Poissons Ratio (z) = -0.08068 0.10815
#
# Static dielectric constant tensor:
#      x y z
#    x 1.638250 0.000000 -0.008550 
#    y 0.000000 1.597320 0.000000 
#    z -0.008550 0.000000 1.653800 
# 
# From -- ./inp_files/219193.got.cif
#   From: 2010.05.17/outbox.cif.g08.bks.cpg/sg12_110_cif.got.tgz:219193.got - 2010.06.03 13:09:07.
