data_PCOD9197112
_publ_section_title
;
Structure prediction by ZEFSAII (Michael W. Deem and Ramdas Pophale) SiO2 
 PCOD9197112
Probable space group: C 2/M
;
_chemical_formula_sum "Si O2"
_cell_formula_units_Z 64
_cell_length_a 29.575442
_cell_length_b 22.566112
_cell_length_c 8.705223
_cell_angle_alpha 90.000000
_cell_angle_beta 147.987312
_cell_angle_gamma 90.000000
_cell_volume 3079.863461
_symmetry_space_group_name_H-M "C 2/M"
_symmetry_group_IT_number 12
_symmetry_cell_setting 'monoclinic'
loop_
_space_group_symop_operation_xyz
x,y,z
-x,y,-z
-x,-y,-z
x,-y,z
1/2+x,1/2+y,z
1/2-x,1/2+y,-z
1/2-x,1/2-y,-z
1/2+x,1/2-y,z
loop_
_atom_site_type_symbol
_atom_site_label
_atom_site_fract_x
_atom_site_fract_y
_atom_site_fract_z
Si Si1 0.190061 0.194690 0.869446
Si Si2 0.560267 0.931894 0.474637
Si Si3 0.539552 0.435525 0.942769
Si Si4 0.989088 0.186677 0.788277
Si Si5 0.590963 0.742248 0.844870
Si Si6 0.760779 0.430781 0.147520
Si Si7 0.764950 0.931891 0.564163
Si Si8 0.111032 0.621768 0.941367
O O1 0.161323 0.203396 0.963725
O O2 0.104821 0.206671 0.525990
O O3 0.250000 0.250000 0.000000
O O4 0.222839 0.126730 0.948409
O O5 0.636773 0.924324 0.574945
O O6 0.477284 0.890725 0.221766
O O7 0.601460 0.917877 0.760279
O O8 0.531444 0.000000 0.386702
O O9 0.525987 0.500000 0.830440
O O10 0.497362 0.379432 0.741458
O O11 0.500000 0.438614 0.000000
O O12 0.640714 0.423323 0.233541
O O13 0.067032 0.224782 0.947498
O O14 0.000000 0.183237 0.000000
O O15 0.500000 0.732059 0.500000
O O16 0.613422 0.810632 0.895188
O O17 0.740792 0.500000 0.039698
O O18 0.734165 0.425752 0.248929
O O19 0.740459 0.000000 0.461188
O O20 0.693488 0.892678 0.277934
#
# Coordination Sequence:
#
# PCOD9197112 Si02
#       8
#     8   8   8   8   8   8   8   8
#     4  11  24  41  66  90 126 168 210 259 318 376
#     4  10  20  35  58  87 122 161 209 258 312 376
#     4   9  19  37  60  86 118 152 195 254 313 366
#     4  10  23  41  61  90 120 156 205 257 308 372
#     4  10  21  39  57  83 119 164 204 251 307 378
#     4  10  23  41  61  91 128 167 208 258 319 384
#     4  10  21  38  61  91 126 162 209 264 316 374
#     4  11  20  36  60  86 121 163 210 259 313 366
#
# _framework density 20.780142000000001
#
# number of rings (size 3 to 8) (size 9 to 14) (size 15 to 20)
#    0.000    1.875    1.250    3.000    1.750    6.000 
#    0.000    7.500    0.000    4.500    0.000    0.000 
#    0.000    0.000    0.000    0.000    0.000    0.000 
#
# Total GULP energy -178458.659585 kJ/mol
# GULP energy per Si atom -5576.833112 kJ/mol
# Density = 2.073285 g / cm^3
# Si number density = 20.780142 Si / 1000 Ang^3
#
#
#
# Elastic Constant Matrix: (Units=GPa)
#
#
# Indices 1 2 3 4 5 6 
#
# 1 93.8720 18.9330 30.0760 0.0000 22.4584 0.0000
# 2 18.9330 88.7678 23.5531 0.0000 15.0778 0.0000
# 3 30.0760 23.5531 45.0098 0.0000 16.3762 0.0000
# 4 0.0000 0.0000 0.0000 27.3213 0.0000 9.3017
# 5 22.4584 15.0778 16.3762 0.0000 22.5043 0.0000
# 6 0.0000 0.0000 0.0000 9.3017 0.0000 20.3759
#
#
#
# Elastic Compliance Matrix: (Units=1/GPa)
#
#
# Indices 1 2 3 4 5 6 
#
# 1 0.015212 0.000275 -0.006417 0.000000 -0.010696 0.000000
# 2 0.000275 0.013540 -0.005262 0.000000 -0.005517 0.000000
# 3 -0.006417 -0.005262 0.034881 0.000000 -0.015453 0.000000
# 4 0.000000 0.000000 0.000000 0.043337 0.000000 -0.019784
# 5 -0.010696 -0.005517 -0.015453 0.000000 0.070051 0.000000
# 6 0.000000 0.000000 0.000000 -0.019784 0.000000 0.058109
#
#
# Mechanical properties :
#
#
# Convention : Reuss Voigt Hill
#
# Bulk Modulus (GPa) = 24.49460 41.41930 32.95695
# Shear Modulus (GPa) = 18.41297 24.37947 21.39622
#
# Velocity S-wave (km/s) = 2.97995 3.42893 3.21229
# Velocity P-wave (km/s) = 4.86346 5.97095 5.44543
#
# Compressibility (1/GPa) = 0.04082533
#
# Stress axis : x y z
#
# Youngs Moduli (GPa) = 65.73623 73.85558 28.66855
#
# Poissons Ratio (x) = -0.02030 0.18398
# Poissons Ratio (y) = -0.01807 0.15084
# Poissons Ratio (z) = 0.42186 0.38860
#
# Static dielectric constant tensor:
#      x y z
#    x 1.802000 0.000000 -0.002300 
#    y 0.000000 1.834570 0.000000 
#    z -0.002300 0.000000 1.719900 
# 
# From -- ./inp_files/113650.got.cif
#   From: 2010.05.17/outbox.cif.g08.bks.cpg/sg12_57_cif.got.tgz:113650.got - 2010.06.03 13:09:07.
