data_PCOD9197791
_publ_section_title
;
Structure prediction by ZEFSAII (Michael W. Deem and Ramdas Pophale) SiO2 
 PCOD9197791
Probable space group: C 2/M
;
_chemical_formula_sum "Si O2"
_cell_formula_units_Z 40
_cell_length_a 16.637383
_cell_length_b 17.712490
_cell_length_c 9.359728
_cell_angle_alpha 90.000000
_cell_angle_beta 134.894282
_cell_angle_gamma 90.000000
_cell_volume 1953.946707
_symmetry_space_group_name_H-M "C 2/M"
_symmetry_group_IT_number 12
_symmetry_cell_setting 'monoclinic'
loop_
_space_group_symop_operation_xyz
x,y,z
-x,y,-z
-x,-y,-z
x,-y,z
1/2+x,1/2+y,z
1/2-x,1/2+y,-z
1/2-x,1/2-y,-z
1/2+x,1/2-y,z
loop_
_atom_site_type_symbol
_atom_site_label
_atom_site_fract_x
_atom_site_fract_y
_atom_site_fract_z
Si Si1 0.934391 0.702019 0.275386
Si Si2 0.329779 0.357546 0.648081
Si Si3 0.901841 0.318225 0.761750
Si Si4 0.251565 0.416953 0.859383
Si Si5 0.040503 0.127553 0.715826
O O1 0.833106 0.646852 0.187162
O O2 0.913106 0.786562 0.191994
O O3 0.000000 0.719877 0.500000
O O4 0.028789 0.665290 0.294397
O O5 0.218644 0.359586 0.406008
O O6 0.364427 0.269958 0.723005
O O7 0.300309 0.394566 0.763561
O O8 0.435263 0.388165 0.689548
O O9 0.000000 0.333793 0.000000
O O10 0.197224 0.500000 0.780388
O O11 0.353735 0.420434 0.100648
O O12 0.000000 0.119127 0.500000
#
# Coordination Sequence:
#
# PCOD9197791 Si02
#       5
#     8   8   8   8   8
#     4  10  20  40  63  95 123 160 213 264 311 368
#     4  10  21  39  59  94 124 164 210 252 317 371
#     4  10  20  35  65  93 123 157 208 272 310 355
#     4  12  25  41  64  91 132 174 205 253 320 395
#     4  10  23  39  65  95 122 161 217 271 310 361
#
# _framework density 20.471387
#
# number of rings (size 3 to 8) (size 9 to 14) (size 15 to 20)
#    0.000    1.600    2.000    3.600    5.600    2.400 
#    0.000    0.000    0.000    1.200    0.000    0.000 
#    0.000    0.000    0.000    0.000    0.000    0.000 
#
# Total GULP energy -111415.991128 kJ/mol
# GULP energy per Si atom -5570.799556 kJ/mol
# Density = 2.042479 g / cm^3
# Si number density = 20.471387 Si / 1000 Ang^3
#
#
#
# Elastic Constant Matrix: (Units=GPa)
#
#
# Indices 1 2 3 4 5 6 
#
# 1 92.6440 35.7691 2.6707 0.0000 14.2001 0.0000
# 2 35.7691 61.7561 18.1809 0.0000 23.2206 0.0000
# 3 2.6707 18.1809 84.3846 0.0000 17.7027 0.0000
# 4 0.0000 0.0000 0.0000 1.4883 0.0000 -3.8897
# 5 14.2001 23.2206 17.7027 0.0000 24.3727 0.0000
# 6 0.0000 0.0000 0.0000 -3.8897 0.0000 -3.0209
#
#
#
# Elastic Compliance Matrix: (Units=1/GPa)
#
#
# Indices 1 2 3 4 5 6 
#
# 1 0.014103 -0.007969 0.001654 0.000000 -0.001826 0.000000
# 2 -0.007969 0.029750 -0.001398 0.000000 -0.022685 0.000000
# 3 0.001654 -0.001398 0.014183 0.000000 -0.009933 0.000000
# 4 0.000000 0.000000 0.000000 0.153922 0.000000 -0.198192
# 5 -0.001826 -0.022685 -0.009933 0.000000 0.070920 0.000000
# 6 0.000000 0.000000 0.000000 -0.198192 0.000000 -0.075835
#
#
# Mechanical properties :
#
#
# Convention : Reuss Voigt Hill
#
# Bulk Modulus (GPa) = 23.46961 39.11400 31.29181
# Shear Modulus (GPa) = 21.12621 16.71229 18.91925
#
# Velocity S-wave (km/s) = 3.21594 2.86032 3.04333
# Velocity P-wave (km/s) = 5.02784 5.48240 5.26003
#
# Compressibility (1/GPa) = 0.04260829
#
# Stress axis : x y z
#
# Youngs Moduli (GPa) = 70.90778 33.61400 70.50586
#
# Poissons Ratio (x) = 0.26786 -0.11658
# Poissons Ratio (y) = 0.56504 0.09860
# Poissons Ratio (z) = -0.11725 0.04701
#
# Static dielectric constant tensor:
#      x y z
#    x 1.697530 0.000000 0.010130 
#    y 0.000000 1.828360 0.000000 
#    z 0.010130 0.000000 1.706680 
# 
# From -- ./inp_files/63160.got.cif
#   From: 2010.05.17/outbox.cif.g08.bks.cpg/sg12_32_cif.got.tgz:63160.got - 2010.06.03 13:09:07.
