data_PCOD9197965
_publ_section_title
;
Structure prediction by ZEFSAII (Michael W. Deem and Ramdas Pophale) SiO2 
 PCOD9197965
Probable space group: C 2/M
;
_chemical_formula_sum "Si O2"
_cell_formula_units_Z 48
_cell_length_a 5.302476
_cell_length_b 25.192158
_cell_length_c 16.842819
_cell_angle_alpha 90.000000
_cell_angle_beta 103.098404
_cell_angle_gamma 90.000000
_cell_volume 2191.340777
_symmetry_space_group_name_H-M "C 2/M"
_symmetry_group_IT_number 12
_symmetry_cell_setting 'monoclinic'
loop_
_space_group_symop_operation_xyz
x,y,z
-x,y,-z
-x,-y,-z
x,-y,z
1/2+x,1/2+y,z
1/2-x,1/2+y,-z
1/2-x,1/2-y,-z
1/2+x,1/2-y,z
loop_
_atom_site_type_symbol
_atom_site_label
_atom_site_fract_x
_atom_site_fract_y
_atom_site_fract_z
Si Si1 0.918789 0.780788 0.791737
Si Si2 0.156645 0.059406 0.705924
Si Si3 0.977444 0.059079 0.117611
Si Si4 0.412207 0.124384 0.208779
Si Si5 0.779554 0.064093 0.544905
Si Si6 0.290073 0.833322 0.921183
O O1 0.661055 0.745526 0.765141
O O2 0.810546 0.839725 0.767665
O O3 0.053718 0.792807 0.887820
O O4 0.112623 0.057085 0.796953
O O5 0.388114 0.100751 0.714403
O O6 0.898406 0.073867 0.640170
O O7 0.235512 0.000000 0.684021
O O8 0.826997 0.108249 0.067172
O O9 0.274690 0.077266 0.149257
O O10 0.943748 0.000000 0.082324
O O11 0.561212 0.158983 0.152655
O O12 0.500000 0.085236 0.500000
O O13 0.000000 0.082679 0.500000
O O14 0.764645 0.000000 0.537091
O O15 0.500000 0.817400 0.000000
#
# Coordination Sequence:
#
# PCOD9197965 Si02
#       6
#     8   8   8   8   8   8
#     4  11  22  40  59  81 107 136 173 227 284 337
#     4   9  18  32  53  78 113 153 185 218 261 313
#     4   9  19  33  52  77 107 147 188 226 267 313
#     4  10  20  36  55  79 106 140 185 228 267 331
#     4   9  18  30  46  75 112 149 184 215 251 303
#     4  10  22  38  54  77 107 141 182 229 276 330
#
# _framework density 21.904396999999999
#
# number of rings (size 3 to 8) (size 9 to 14) (size 15 to 20)
#    0.000    2.333    1.667    0.500    2.333    4.333 
#    0.000    0.833    0.000    0.000    0.000    0.000 
#    0.000    4.000    0.000    0.000    0.000    0.000 
#
# Total GULP energy -133838.572060 kJ/mol
# GULP energy per Si atom -5576.607169 kJ/mol
# Density = 2.185454 g / cm^3
# Si number density = 21.904397 Si / 1000 Ang^3
#
#
#
# Elastic Constant Matrix: (Units=GPa)
#
#
# Indices 1 2 3 4 5 6 
#
# 1 122.9158 25.0663 37.2558 0.0000 35.6249 0.0000
# 2 25.0663 32.2668 -0.5792 0.0000 2.1369 0.0000
# 3 37.2558 -0.5792 78.7831 0.0000 28.2650 0.0000
# 4 0.0000 0.0000 0.0000 18.2880 0.0000 16.0274
# 5 35.6249 2.1369 28.2650 0.0000 37.7905 0.0000
# 6 0.0000 0.0000 0.0000 16.0274 0.0000 33.9889
#
#
#
# Elastic Compliance Matrix: (Units=1/GPa)
#
#
# Indices 1 2 3 4 5 6 
#
# 1 0.014240 -0.010416 -0.003015 0.000000 -0.010580 0.000000
# 2 -0.010416 0.038806 0.003383 0.000000 0.005094 0.000000
# 3 -0.003015 0.003383 0.018031 0.000000 -0.010835 0.000000
# 4 0.000000 0.000000 0.000000 0.093194 0.000000 -0.043946
# 5 -0.010580 0.005094 -0.010835 0.000000 0.044252 0.000000
# 6 0.000000 0.000000 0.000000 -0.043946 0.000000 0.050144
#
#
# Mechanical properties :
#
#
# Convention : Reuss Voigt Hill
#
# Bulk Modulus (GPa) = 19.61439 39.71683 29.66561
# Shear Modulus (GPa) = 16.90584 29.49500 23.20042
#
# Velocity S-wave (km/s) = 2.78114 3.67349 3.25802
# Velocity P-wave (km/s) = 4.39170 6.01365 5.26550
#
# Compressibility (1/GPa) = 0.05098298
#
# Stress axis : x y z
#
# Youngs Moduli (GPa) = 70.22501 25.76899 55.46001
#
# Poissons Ratio (x) = 0.26840 0.16719
# Poissons Ratio (y) = 0.73144 -0.18763
# Poissons Ratio (z) = 0.21171 -0.08718
#
# Static dielectric constant tensor:
#      x y z
#    x 1.916800 0.000000 -0.025760 
#    y 0.000000 1.873210 0.000000 
#    z -0.025760 0.000000 1.797260 
# 
# From -- ./inp_files/253362.got.cif
#   From: 2010.05.17/outbox.cif.g08.bks.cpg/sg12_127_cif.got.tgz:253362.got - 2010.06.03 13:09:07.
