data_PCOD9197131
_publ_section_title
;
Structure prediction by ZEFSAII (Michael W. Deem and Ramdas Pophale) SiO2 
 PCOD9197131
Probable space group: C 2/M
;
_chemical_formula_sum "Si O2"
_cell_formula_units_Z 56
_cell_length_a 20.106245
_cell_length_b 18.184779
_cell_length_c 14.302716
_cell_angle_alpha 90.000000
_cell_angle_beta 29.291664
_cell_angle_gamma 90.000000
_cell_volume 2558.546358
_symmetry_space_group_name_H-M "C 2/M"
_symmetry_group_IT_number 12
_symmetry_cell_setting 'monoclinic'
loop_
_space_group_symop_operation_xyz
x,y,z
-x,y,-z
-x,-y,-z
x,-y,z
1/2+x,1/2+y,z
1/2-x,1/2+y,-z
1/2-x,1/2-y,-z
1/2+x,1/2-y,z
loop_
_atom_site_type_symbol
_atom_site_label
_atom_site_fract_x
_atom_site_fract_y
_atom_site_fract_z
Si Si1 0.295945 0.630358 0.488082
Si Si2 0.644766 0.115792 0.862636
Si Si3 0.299660 0.720358 0.169914
Si Si4 0.874874 0.078575 0.725844
Si Si5 0.622905 0.261233 0.221803
Si Si6 0.964869 0.920015 0.932071
Si Si7 0.366493 0.795975 0.447744
O O1 0.252167 0.607564 0.645169
O O2 0.403572 0.585208 0.296196
O O3 0.353248 0.713742 0.423019
O O4 0.156396 0.642162 0.600944
O O5 0.622303 0.202523 0.914285
O O6 0.731188 0.086358 0.845604
O O7 0.500000 0.087379 0.000000
O O8 0.167721 0.742765 0.271959
O O9 0.252678 0.696089 0.330021
O O10 0.376668 0.653634 0.026442
O O11 0.905891 0.151688 0.746269
O O12 0.000000 0.076889 0.500000
O O13 0.874242 0.000000 0.777490
O O14 0.507469 0.207196 0.327872
O O15 0.750000 0.250000 0.000000
O O16 0.898322 0.000000 0.997292
O O17 0.000000 0.917746 0.000000
#
# Coordination Sequence:
#
# PCOD9197131 Si02
#       7
#     8   8   8   8   8   8   8
#     4  10  21  35  59  90 121 155 205 252 313 373
#     4  10  22  36  64  95 123 159 206 264 323 375
#     4  10  20  37  59  85 123 155 207 260 308 368
#     4  10  22  42  63  87 125 164 202 254 316 379
#     4  11  22  36  61  90 119 160 212 256 310 370
#     4  11  22  38  59  87 123 162 203 254 312 370
#     4  10  20  35  58  88 117 154 201 259 310 360
#
# _framework density 21.887428
#
# number of rings (size 3 to 8) (size 9 to 14) (size 15 to 20)
#    0.000    1.714    1.429    4.286    8.000    0.857 
#    0.000    4.286    0.000    3.429    0.000    0.000 
#    0.000    0.000    0.000    0.000    0.000    0.000 
#
# Total GULP energy -156295.384457 kJ/mol
# GULP energy per Si atom -5581.978016 kJ/mol
# Density = 2.183761 g / cm^3
# Si number density = 21.887428 Si / 1000 Ang^3
#
#
#
# Elastic Constant Matrix: (Units=GPa)
#
#
# Indices 1 2 3 4 5 6 
#
# 1 71.6651 3.9904 -7.8193 -0.0002 -12.5031 0.0002
# 2 3.9904 103.5436 36.2435 -0.0001 1.4922 0.0001
# 3 -7.8193 36.2435 62.6465 -0.0002 0.3356 0.0002
# 4 -0.0002 -0.0001 -0.0002 10.9031 0.0001 -1.5849
# 5 -12.5031 1.4922 0.3356 0.0001 41.0337 -0.0001
# 6 0.0002 0.0001 0.0002 -1.5849 -0.0001 4.5684
#
#
#
# Elastic Compliance Matrix: (Units=1/GPa)
#
#
# Indices 1 2 3 4 5 6 
#
# 1 0.015165 -0.001637 0.002815 0.000000 0.004657 -0.000001
# 2 -0.001637 0.012293 -0.007311 0.000000 -0.000886 0.000000
# 3 0.002815 -0.007311 0.020539 0.000000 0.000956 -0.000001
# 4 0.000000 0.000000 0.000000 0.096588 0.000000 0.033510
# 5 0.004657 -0.000886 0.000956 0.000000 0.025814 0.000001
# 6 -0.000001 0.000000 -0.000001 0.033510 0.000001 0.230521
#
#
# Mechanical properties :
#
#
# Convention : Reuss Voigt Hill
#
# Bulk Modulus (GPa) = 27.98825 33.63159 30.80992
# Shear Modulus (GPa) = 11.76206 24.99708 18.37957
#
# Velocity S-wave (km/s) = 2.32068 3.38313 2.90096
# Velocity P-wave (km/s) = 4.47167 5.53713 5.03268
#
# Compressibility (1/GPa) = 0.03572928
#
# Stress axis : x y z
#
# Youngs Moduli (GPa) = 65.94314 81.34807 48.68838
#
# Poissons Ratio (x) = 0.13315 -0.13705
# Poissons Ratio (y) = 0.10794 0.35598
# Poissons Ratio (z) = -0.18562 0.59477
#
# Static dielectric constant tensor:
#      x y z
#    x 1.902150 0.000000 -0.008580 
#    y 0.000000 1.810040 0.000000 
#    z -0.008580 0.000000 1.806210 
# 
# From -- ./inp_files/234659.got.cif
#   From: 2010.05.17/outbox.cif.g08.bks.cpg/sg12_118_cif.got.tgz:234659.got - 2010.06.03 13:09:07.
