data_PCOD9197477
_publ_section_title
;
Structure prediction by ZEFSAII (Michael W. Deem and Ramdas Pophale) SiO2 
 PCOD9197477
Probable space group: C 2/M
;
_chemical_formula_sum "Si O2"
_cell_formula_units_Z 64
_cell_length_a 9.342785
_cell_length_b 29.111632
_cell_length_c 14.863512
_cell_angle_alpha 90.000000
_cell_angle_beta 134.788780
_cell_angle_gamma 90.000000
_cell_volume 2869.092036
_symmetry_space_group_name_H-M "C 2/M"
_symmetry_group_IT_number 12
_symmetry_cell_setting 'monoclinic'
loop_
_space_group_symop_operation_xyz
x,y,z
-x,y,-z
-x,-y,-z
x,-y,z
1/2+x,1/2+y,z
1/2-x,1/2+y,-z
1/2-x,1/2-y,-z
1/2+x,1/2-y,z
loop_
_atom_site_type_symbol
_atom_site_label
_atom_site_fract_x
_atom_site_fract_y
_atom_site_fract_z
Si Si1 0.846174 0.550884 0.087153
Si Si2 0.809111 0.112690 0.469699
Si Si3 0.014863 0.947543 0.792739
Si Si4 0.386658 0.779860 0.856438
Si Si5 0.627058 0.324775 0.149470
Si Si6 0.080079 0.448457 0.669113
Si Si7 0.548331 0.355557 0.739008
Si Si8 0.014467 0.645563 0.796977
O O1 0.934103 0.500000 0.098279
O O2 0.839877 0.548918 0.192274
O O3 0.950592 0.601293 0.123396
O O4 0.635458 0.553791 0.940868
O O5 0.628430 0.079479 0.421534
O O6 0.116642 0.142333 0.412927
O O7 0.701595 0.142726 0.345237
O O8 0.000000 0.091108 0.500000
O O9 0.778186 0.935581 0.699597
O O10 0.115489 0.909070 0.774685
O O11 0.029713 0.000000 0.766301
O O12 0.327376 0.728289 0.806239
O O13 0.537899 0.805608 0.855728
O O14 0.208602 0.816424 0.788326
O O15 0.500000 0.776348 0.000000
O O16 0.520974 0.345179 0.189865
O O17 0.825367 0.353216 0.212801
O O18 0.500000 0.327437 0.000000
O O19 0.026520 0.500000 0.617938
#
# Coordination Sequence:
#
# PCOD9197477 Si02
#       8
#     8   8   8   8   8   8   8   8
#     4   9  17  32  59  95 129 163 204 256 318 381
#     4  11  24  43  60  86 127 176 225 262 303 383
#     4  10  20  35  59  99 134 160 208 267 323 384
#     4  11  23  42  68  96 129 166 209 263 332 391
#     4  11  24  42  68 103 127 156 213 274 325 389
#     4   9  19  35  61  90 126 173 217 264 315 368
#     4  12  24  42  66  93 131 176 211 262 328 368
#     4  11  22  41  65  91 132 172 212 264 315 377
#
# _framework density 22.306709000000001
#
# number of rings (size 3 to 8) (size 9 to 14) (size 15 to 20)
#    0.000    1.500    1.250    4.875    0.000    6.250 
#    0.000    5.625    0.000    2.250    0.000    0.000 
#    0.000    0.000    0.000    0.000    0.000    0.000 
#
# Total GULP energy -178488.076806 kJ/mol
# GULP energy per Si atom -5577.752400 kJ/mol
# Density = 2.225594 g / cm^3
# Si number density = 22.306709 Si / 1000 Ang^3
#
#
#
# Elastic Constant Matrix: (Units=GPa)
#
#
# Indices 1 2 3 4 5 6 
#
# 1 67.8711 23.2304 23.2337 0.0000 6.6506 0.0000
# 2 23.2304 154.3876 27.8447 0.0000 6.4555 0.0000
# 3 23.2337 27.8447 91.5223 0.0000 1.6695 0.0000
# 4 0.0000 0.0000 0.0000 205.5140 0.0000 -85.9426
# 5 6.6506 6.4555 1.6695 0.0000 23.0693 0.0000
# 6 0.0000 0.0000 0.0000 -85.9426 0.0000 59.9229
#
#
#
# Elastic Compliance Matrix: (Units=1/GPa)
#
#
# Indices 1 2 3 4 5 6 
#
# 1 0.017000 -0.001714 -0.003719 0.000000 -0.004152 0.000000
# 2 -0.001714 0.007099 -0.001700 0.000000 -0.001369 0.000000
# 3 -0.003719 -0.001700 0.012376 0.000000 0.000652 0.000000
# 4 0.000000 0.000000 0.000000 0.012158 0.000000 0.017437
# 5 -0.004152 -0.001369 0.000652 0.000000 0.044881 0.000000
# 6 0.000000 0.000000 0.000000 0.017437 0.000000 0.041696
#
#
# Mechanical properties :
#
#
# Convention : Reuss Voigt Hill
#
# Bulk Modulus (GPa) = 45.02346 51.37763 48.20055
# Shear Modulus (GPa) = 31.87220 73.66604 52.76912
#
# Velocity S-wave (km/s) = 3.78407 5.75290 4.86904
# Velocity P-wave (km/s) = 6.27056 8.19818 7.29829
#
# Compressibility (1/GPa) = 0.02221064
#
# Stress axis : x y z
#
# Youngs Moduli (GPa) = 58.82287 140.86727 80.80477
#
# Poissons Ratio (x) = 0.24140 0.30047
# Poissons Ratio (y) = 0.10081 0.13735
# Poissons Ratio (z) = 0.21873 0.23944
#
# Static dielectric constant tensor:
#      x y z
#    x 1.888750 0.000000 0.025730 
#    y 0.000000 1.850320 0.000000 
#    z 0.025730 0.000000 1.811610 
# 
# From -- ./inp_files/260405.got.cif
#   From: 2010.05.17/outbox.cif.g08.bks.cpg/sg12_131_cif.got.tgz:260405.got - 2010.06.03 13:09:07.
