data_PCOD9197507
_publ_section_title
;
Structure prediction by ZEFSAII (Michael W. Deem and Ramdas Pophale) SiO2 
 PCOD9197507
Probable space group: C 2/M
;
_chemical_formula_sum "Si O2"
_cell_formula_units_Z 58
_cell_length_a 17.575076
_cell_length_b 14.832777
_cell_length_c 12.296197
_cell_angle_alpha 90.000000
_cell_angle_beta 67.107704
_cell_angle_gamma 90.000000
_cell_volume 2952.991541
_symmetry_space_group_name_H-M "C 2/M"
_symmetry_group_IT_number 12
_symmetry_cell_setting 'monoclinic'
loop_
_space_group_symop_operation_xyz
x,y,z
-x,y,-z
-x,-y,-z
x,-y,z
1/2+x,1/2+y,z
1/2-x,1/2+y,-z
1/2-x,1/2-y,-z
1/2+x,1/2-y,z
loop_
_atom_site_type_symbol
_atom_site_label
_atom_site_fract_x
_atom_site_fract_y
_atom_site_fract_z
Si Si1 0.087927 0.850735 0.431323
Si Si2 0.326420 0.603417 0.038769
Si Si3 0.586136 0.606750 0.778748
Si Si4 0.221384 0.897338 0.522051
Si Si5 0.860905 0.395803 0.774444
Si Si6 0.386083 0.845546 0.510521
Si Si7 0.500000 0.000000 0.500000
Si Si8 0.579377 0.709354 0.190924
O O1 0.080474 0.754706 0.497596
O O2 0.099019 0.832057 0.298426
O O3 0.000000 0.897933 0.500000
O O4 0.832537 0.893675 0.556935
O O5 0.341478 0.500000 0.993116
O O6 0.380246 0.616931 0.117941
O O7 0.230672 0.610786 0.124781
O O8 0.354418 0.673249 0.932351
O O9 0.565122 0.500000 0.774415
O O10 0.659438 0.628685 0.653778
O O11 0.508237 0.669385 0.797850
O O12 0.306839 0.844156 0.476993
O O13 0.246823 0.000000 0.530557
O O14 0.889296 0.500000 0.767879
O O15 0.855086 0.375624 0.648563
O O16 0.915506 0.317174 0.797345
O O17 0.455294 0.919901 0.451006
#
# Coordination Sequence:
#
# PCOD9197507 Si02
#       8
#     8   8   8   8   8   8   2   8
#     4  11  23  37  53  84 122 160 189 230 291 354
#     4  10  20  37  62  87 112 147 196 250 295 334
#     4  10  20  35  60  87 113 152 191 244 291 341
#     4  11  21  37  58  82 120 159 192 232 298 352
#     4  10  20  37  60  84 112 150 190 245 297 336
#     4  11  21  38  60  87 113 146 200 251 286 331
#     4  12  20  32  68  88 108 140 200 252 276 332
#     4  11  22  35  56  87 122 149 198 238 285 353
#
# _framework density 19.641099000000001
#
# number of rings (size 3 to 8) (size 9 to 14) (size 15 to 20)
#    0.000    1.379    4.828    1.655    0.000    2.483 
#    0.000    0.000    0.000    1.655    0.000    0.000 
#    0.000    0.000    0.000    0.000    0.000    0.000 
#
# Total GULP energy -161754.714394 kJ/mol
# GULP energy per Si atom -5577.748772 kJ/mol
# Density = 1.959640 g / cm^3
# Si number density = 19.641099 Si / 1000 Ang^3
#
#
#
# Elastic Constant Matrix: (Units=GPa)
#
#
# Indices 1 2 3 4 5 6 
#
# 1 125.4094 42.9439 13.6077 0.0000 -3.4995 0.0000
# 2 42.9439 102.0623 14.8456 0.0000 6.1394 0.0000
# 3 13.6077 14.8456 58.4929 0.0000 6.0811 0.0000
# 4 0.0000 0.0000 0.0000-1358.2820 0.0000 313.0913
# 5 -3.4995 6.1394 6.0811 0.0000 20.5229 0.0000
# 6 0.0000 0.0000 0.0000 313.0913 0.0000 -44.9223
#
#
#
# Elastic Compliance Matrix: (Units=1/GPa)
#
#
# Indices 1 2 3 4 5 6 
#
# 1 0.009610 -0.004015 -0.001560 0.000000 0.003302 0.000000
# 2 -0.004015 0.011962 -0.001711 0.000000 -0.003756 0.000000
# 3 -0.001560 -0.001711 0.018436 0.000000 -0.005217 0.000000
# 4 0.000000 0.000000 0.000000 0.001214 0.000000 0.008460
# 5 0.003302 -0.003756 -0.005217 0.000000 0.051958 0.000000
# 6 0.000000 0.000000 0.000000 0.008460 0.000000 0.036701
#
#
# Mechanical properties :
#
#
# Convention : Reuss Voigt Hill
#
# Bulk Modulus (GPa) = 39.31611 47.63991 43.47801
# Shear Modulus (GPa) = 32.69391 -262.23178 -114.76893
#
# Velocity S-wave (km/s) = 4.08434 -11.56726 -7.65244
# Velocity P-wave (km/s) = 6.50408 12.41347 7.47633
#
# Compressibility (1/GPa) = 0.02543487
#
# Stress axis : x y z
#
# Youngs Moduli (GPa) = 104.05537 83.59579 54.24254
#
# Poissons Ratio (x) = 0.33567 0.08461
# Poissons Ratio (y) = 0.41782 0.09283
# Poissons Ratio (z) = 0.16232 0.14307
#
# Static dielectric constant tensor:
#      x y z
#    x 1.714580 0.000000 -0.034350 
#    y 0.000000 1.695490 0.000000 
#    z -0.034350 0.000000 1.709050 
# 
# From -- ./inp_files/214782.got.cif
#   From: 2010.05.17/outbox.cif.g08.bks.cpg/sg12_108_cif.got.tgz:214782.got - 2010.06.03 13:09:07.
