data_PCOD9197620
_publ_section_title
;
Structure prediction by ZEFSAII (Michael W. Deem and Ramdas Pophale) SiO2 
 PCOD9197620
Probable space group: C 2/M
;
_chemical_formula_sum "Si O2"
_cell_formula_units_Z 48
_cell_length_a 12.722547
_cell_length_b 21.597700
_cell_length_c 11.183487
_cell_angle_alpha 90.000000
_cell_angle_beta 134.982979
_cell_angle_gamma 90.000000
_cell_volume 2173.565771
_symmetry_space_group_name_H-M "C 2/M"
_symmetry_group_IT_number 12
_symmetry_cell_setting 'monoclinic'
loop_
_space_group_symop_operation_xyz
x,y,z
-x,y,-z
-x,-y,-z
x,-y,z
1/2+x,1/2+y,z
1/2-x,1/2+y,-z
1/2-x,1/2-y,-z
1/2+x,1/2-y,z
loop_
_atom_site_type_symbol
_atom_site_label
_atom_site_fract_x
_atom_site_fract_y
_atom_site_fract_z
Si Si1 0.303751 0.347958 0.526952
Si Si2 0.773916 0.068380 0.874795
Si Si3 0.181498 0.326586 0.165238
Si Si4 0.097651 0.072828 0.769535
Si Si5 0.452129 0.065904 0.599888
Si Si6 0.840814 0.804755 0.811409
O O1 0.240873 0.327975 0.348954
O O2 0.441500 0.394452 0.614520
O O3 0.160145 0.381521 0.463551
O O4 0.349026 0.302142 0.672845
O O5 0.607381 0.069520 0.794394
O O6 0.780293 0.127823 0.797051
O O7 0.792533 0.000000 0.832313
O O8 0.888297 0.073116 0.074907
O O9 0.271512 0.381717 0.172941
O O10 0.229958 0.254909 0.178407
O O11 0.000000 0.332130 0.000000
O O12 0.108435 0.000000 0.740703
O O13 0.500000 0.065772 0.500000
O O14 0.380106 0.000000 0.570384
O O15 0.000000 0.805468 0.000000
#
# Coordination Sequence:
#
# PCOD9197620 Si02
#       6
#     8   8   8   8   8   8
#     4  12  23  43  68 103 134 178 228 281 338 404
#     4  10  21  40  67 101 136 176 224 277 343 406
#     4  11  27  48  67  95 139 188 235 273 334 409
#     4  11  25  45  72 104 137 178 228 285 343 405
#     4  10  20  35  60  98 135 170 214 269 339 403
#     4  11  23  44  67 101 137 178 224 286 345 402
#
# _framework density 22.083527
#
# number of rings (size 3 to 8) (size 9 to 14) (size 15 to 20)
#    0.000    1.167    3.333    2.500    0.000    4.000 
#    9.000    0.000    0.000    0.000    0.000    0.000 
#    0.000    0.000    0.000    0.000    0.000    0.000 
#
# Total GULP energy -133673.802802 kJ/mol
# GULP energy per Si atom -5569.741783 kJ/mol
# Density = 2.203326 g / cm^3
# Si number density = 22.083527 Si / 1000 Ang^3
#
#
#
# Elastic Constant Matrix: (Units=GPa)
#
#
# Indices 1 2 3 4 5 6 
#
# 1 38.0044 43.2345 4.6144 0.0000 5.1230 0.0000
# 2 43.2345 160.3932 28.1307 0.0000 -0.6494 0.0000
# 3 4.6144 28.1307 127.8494 0.0000 3.1412 0.0000
# 4 0.0000 0.0000 0.0000 -38.1342 0.0000 -18.7158
# 5 5.1230 -0.6494 3.1412 0.0000 29.4403 0.0000
# 6 0.0000 0.0000 0.0000 -18.7158 0.0000 29.5873
#
#
#
# Elastic Compliance Matrix: (Units=1/GPa)
#
#
# Indices 1 2 3 4 5 6 
#
# 1 0.039535 -0.010887 0.001147 0.000000 -0.007242 0.000000
# 2 -0.010887 0.009486 -0.001750 0.000000 0.002291 0.000000
# 3 0.001147 -0.001750 0.008193 0.000000 -0.001112 0.000000
# 4 0.000000 0.000000 0.000000 -0.020011 0.000000 -0.012658
# 5 -0.007242 0.002291 -0.001112 0.000000 0.035396 0.000000
# 6 0.000000 0.000000 0.000000 -0.012658 0.000000 0.025791
#
#
# Mechanical properties :
#
#
# Convention : Reuss Voigt Hill
#
# Bulk Modulus (GPa) = 29.21294 53.13404 41.17349
# Shear Modulus (GPa) = 37.65521 20.86318 29.25919
#
# Velocity S-wave (km/s) = 4.13380 3.07700 3.64391
# Velocity P-wave (km/s) = 6.00346 6.06107 6.03233
#
# Compressibility (1/GPa) = 0.03423141
#
# Stress axis : x y z
#
# Youngs Moduli (GPa) = 25.29378 105.42214 122.05840
#
# Poissons Ratio (x) = 1.14776 -0.13994
# Poissons Ratio (y) = 0.27538 0.21366
# Poissons Ratio (z) = -0.02900 0.18454
#
# Static dielectric constant tensor:
#      x y z
#    x 1.814830 0.000000 -0.014770 
#    y 0.000000 1.858740 0.000000 
#    z -0.014770 0.000000 1.925560 
# 
# From -- ./inp_files/148018.got.cif
#   From: 2010.05.17/outbox.cif.g08.bks.cpg/sg12_75_cif.got.tgz:148018.got - 2010.06.03 13:09:07.
