data_PCOD9197864
_publ_section_title
;
Structure prediction by ZEFSAII (Michael W. Deem and Ramdas Pophale) SiO2 
 PCOD9197864
Probable space group: C 2/M
;
_chemical_formula_sum "Si O2"
_cell_formula_units_Z 56
_cell_length_a 24.183026
_cell_length_b 9.433681
_cell_length_c 14.481467
_cell_angle_alpha 90.000000
_cell_angle_beta 123.725083
_cell_angle_gamma 90.000000
_cell_volume 2747.748047
_symmetry_space_group_name_H-M "C 2/M"
_symmetry_group_IT_number 12
_symmetry_cell_setting 'monoclinic'
loop_
_space_group_symop_operation_xyz
x,y,z
-x,y,-z
-x,-y,-z
x,-y,z
1/2+x,1/2+y,z
1/2-x,1/2+y,-z
1/2-x,1/2-y,-z
1/2+x,1/2-y,z
loop_
_atom_site_type_symbol
_atom_site_label
_atom_site_fract_x
_atom_site_fract_y
_atom_site_fract_z
Si Si1 0.818476 0.827172 0.588046
Si Si2 0.328209 0.156768 0.000333
Si Si3 0.056697 0.835645 0.420832
Si Si4 0.282041 0.842243 0.163897
Si Si5 0.445725 0.669559 0.075883
Si Si6 0.087773 0.166027 0.668211
Si Si7 0.909711 0.170855 0.832301
O O1 0.750000 0.750000 0.500000
O O2 0.879676 0.782205 0.577216
O O3 0.845329 0.786654 0.715172
O O4 0.811084 0.000000 0.575583
O O5 0.282487 0.243891 0.886940
O O6 0.345019 0.000000 0.981271
O O7 0.289618 0.139925 0.060689
O O8 0.392756 0.247467 0.086028
O O9 0.074296 0.833391 0.545665
O O10 0.980644 0.780338 0.346755
O O11 0.050222 0.000000 0.385297
O O12 0.347887 0.761658 0.256682
O O13 0.274200 0.000000 0.197466
O O14 0.439620 0.500000 0.080418
O O15 0.522322 0.710513 0.158391
O O16 0.423052 0.710663 0.950352
O O17 0.099333 0.000000 0.705596
O O18 0.909327 0.000000 0.833250
#
# Coordination Sequence:
#
# PCOD9197864 Si02
#       7
#     8   8   8   8   8   8   8
#     4  10  20  36  54  76 107 144 179 216 261 314
#     4  10  21  35  50  74 106 138 172 212 258 313
#     4   8  17  33  54  79 106 135 174 216 261 317
#     4  10  21  35  50  74 106 138 172 212 258 313
#     4   9  17  33  56  80 103 134 175 219 263 314
#     4   9  17  33  56  80 103 134 175 219 263 314
#     4   8  17  33  54  79 106 135 174 216 261 317
#
# _framework density 20.380326
#
# number of rings (size 3 to 8) (size 9 to 14) (size 15 to 20)
#    0.000    2.857    0.000    2.571    2.000    2.857 
#    0.000    8.571    0.000    0.000    0.000    0.000 
#    0.000    0.000    0.000    0.000    0.000    0.000 
#
# Total GULP energy -155980.730980 kJ/mol
# GULP energy per Si atom -5570.740392 kJ/mol
# Density = 2.033394 g / cm^3
# Si number density = 20.380326 Si / 1000 Ang^3
#
#
#
# Elastic Constant Matrix: (Units=GPa)
#
#
# Indices 1 2 3 4 5 6 
#
# 1 54.8603 11.9166 21.0294 0.0000 14.9131 0.0000
# 2 11.9166 73.6588 37.3814 0.0000 22.1067 0.0000
# 3 21.0294 37.3814 115.9747 0.0000 35.2756 0.0000
# 4 0.0000 0.0000 0.0000 19.2198 0.0000 0.4809
# 5 14.9131 22.1067 35.2756 0.0000 35.7268 0.0000
# 6 0.0000 0.0000 0.0000 0.4809 0.0000 9.7140
#
#
#
# Elastic Compliance Matrix: (Units=1/GPa)
#
#
# Indices 1 2 3 4 5 6 
#
# 1 0.020787 -0.000540 -0.001512 0.000000 -0.006850 0.000000
# 2 -0.000540 0.017558 -0.003324 0.000000 -0.007358 0.000000
# 3 -0.001512 -0.003324 0.013078 0.000000 -0.010225 0.000000
# 4 0.000000 0.000000 0.000000 0.052094 0.000000 -0.002579
# 5 -0.006850 -0.007358 -0.010225 0.000000 0.045499 0.000000
# 6 0.000000 0.000000 0.000000 -0.002579 0.000000 0.103072
#
#
# Mechanical properties :
#
#
# Convention : Reuss Voigt Hill
#
# Bulk Modulus (GPa) = 24.58615 42.79430 33.69022
# Shear Modulus (GPa) = 18.08996 24.54321 21.31659
#
# Velocity S-wave (km/s) = 2.98253 3.47401 3.23761
# Velocity P-wave (km/s) = 4.89392 6.09386 5.52655
#
# Compressibility (1/GPa) = 0.04067331
#
# Stress axis : x y z
#
# Youngs Moduli (GPa) = 48.10698 56.95291 76.46310
#
# Poissons Ratio (x) = 0.03075 0.11558
# Poissons Ratio (y) = 0.02597 0.25414
# Poissons Ratio (z) = 0.07272 0.18929
#
# Static dielectric constant tensor:
#      x y z
#    x 1.816480 0.000000 -0.040060 
#    y 0.000000 1.730680 0.000000 
#    z -0.040060 0.000000 1.753470 
# 
# From -- ./inp_files/291948.got.cif
#   From: 2010.05.17/outbox.cif.g08.bks.cpg/sg12_146_cif.got.tgz:291948.got - 2010.06.03 13:09:07.
