data_PCOD9197667
_publ_section_title
;
Structure prediction by ZEFSAII (Michael W. Deem and Ramdas Pophale) SiO2 
 PCOD9197667
Probable space group: C 2/M
;
_chemical_formula_sum "Si O2"
_cell_formula_units_Z 64
_cell_length_a 25.529913
_cell_length_b 15.750450
_cell_length_c 19.100311
_cell_angle_alpha 90.000000
_cell_angle_beta 156.231980
_cell_angle_gamma 90.000000
_cell_volume 3095.458671
_symmetry_space_group_name_H-M "C 2/M"
_symmetry_group_IT_number 12
_symmetry_cell_setting 'monoclinic'
loop_
_space_group_symop_operation_xyz
x,y,z
-x,y,-z
-x,-y,-z
x,-y,z
1/2+x,1/2+y,z
1/2-x,1/2+y,-z
1/2-x,1/2-y,-z
1/2+x,1/2-y,z
loop_
_atom_site_type_symbol
_atom_site_label
_atom_site_fract_x
_atom_site_fract_y
_atom_site_fract_z
Si Si1 0.781548 0.835841 0.995306
Si Si2 0.866786 0.275984 0.980190
Si Si3 0.088908 0.800586 0.167484
Si Si4 0.500330 0.903423 0.383900
Si Si5 0.312666 0.601324 0.577354
Si Si6 0.031575 0.597506 0.257938
Si Si7 0.474842 0.597445 0.634485
Si Si8 0.661073 0.256100 0.615574
O O1 0.651525 0.881625 0.810410
O O2 0.750000 0.750000 0.000000
O O3 0.856903 0.805853 0.017829
O O4 0.876354 0.890561 0.159776
O O5 0.984587 0.267216 0.069247
O O6 0.906995 0.352011 0.079875
O O7 0.732483 0.282512 0.774380
O O8 0.127782 0.856766 0.281145
O O9 0.219327 0.764099 0.291614
O O10 0.000000 0.847466 0.000000
O O11 0.548376 0.898062 0.361946
O O12 0.577776 0.830397 0.519418
O O13 0.520203 0.000000 0.433293
O O14 0.305827 0.500000 0.580169
O O15 0.164809 0.633511 0.389022
O O16 0.391700 0.615438 0.603256
O O17 0.016983 0.500000 0.219545
O O18 0.450974 0.500000 0.583345
O O19 0.428939 0.668779 0.523914
#
# Coordination Sequence:
#
# PCOD9197667 Si02
#       8
#     8   8   8   8   8   8   8   8
#     4  12  22  41  64  87 118 160 205 256 298 349
#     4  11  23  39  61  90 123 163 201 243 306 364
#     4  10  21  36  58  90 126 160 193 242 310 368
#     4  11  23  41  64  88 117 158 205 252 302 356
#     4  10  20  35  61  92 120 158 205 248 300 363
#     4  10  20  36  61  91 119 153 202 253 296 353
#     4  11  23  40  63  92 123 159 203 252 304 360
#     4  11  23  40  63  92 125 161 198 246 308 368
#
# _framework density 20.675449
#
# number of rings (size 3 to 8) (size 9 to 14) (size 15 to 20)
#    0.000    1.250    5.000    1.125    0.000    2.250 
#    0.000    3.750    0.000    5.250    0.000    0.000 
#    0.000    0.000    0.000    0.000    0.000    0.000 
#
# Total GULP energy -178738.045195 kJ/mol
# GULP energy per Si atom -5585.563912 kJ/mol
# Density = 2.062839 g / cm^3
# Si number density = 20.675449 Si / 1000 Ang^3
#
#
#
# Elastic Constant Matrix: (Units=GPa)
#
#
# Indices 1 2 3 4 5 6 
#
# 1 31.2812 7.5709 3.8133 0.0000 10.7163 0.0000
# 2 7.5709 78.4354 55.2598 0.0000 -8.5162 0.0000
# 3 3.8133 55.2598 135.3321 0.0001 -5.8070 0.0000
# 4 0.0000 0.0000 0.0001 11.4389 0.0001 15.7101
# 5 10.7163 -8.5162 -5.8070 0.0001 37.9570 0.0000
# 6 0.0000 0.0000 0.0000 15.7101 0.0000 9.1934
#
#
#
# Elastic Compliance Matrix: (Units=1/GPa)
#
#
# Indices 1 2 3 4 5 6 
#
# 1 0.037134 -0.005270 0.000609 0.000000 -0.011573 0.000000
# 2 -0.005270 0.018973 -0.007401 0.000000 0.004612 0.000000
# 3 0.000609 -0.007401 0.010384 0.000000 -0.000244 0.000000
# 4 0.000000 0.000000 0.000000 -0.064904 0.000000 0.110911
# 5 -0.011573 0.004612 -0.000244 0.000000 0.030611 0.000000
# 6 0.000000 0.000000 0.000000 0.110911 0.000000 -0.080757
#
#
# Mechanical properties :
#
#
# Convention : Reuss Voigt Hill
#
# Bulk Modulus (GPa) = 23.60329 42.03740 32.82035
# Shear Modulus (GPa) = -484.78532 23.61150 -230.58691
#
# Velocity S-wave (km/s) = -15.32915 3.38302 -10.57209
# Velocity P-wave (km/s) = 17.37440 5.96959 11.53763
#
# Compressibility (1/GPa) = 0.04236697
#
# Stress axis : x y z
#
# Youngs Moduli (GPa) = 26.92949 52.70702 96.30646
#
# Poissons Ratio (x) = 0.27776 -0.05864
# Poissons Ratio (y) = 0.14192 0.71274
# Poissons Ratio (z) = -0.01640 0.39007
#
# Static dielectric constant tensor:
#      x y z
#    x 1.790960 0.000000 0.027650 
#    y 0.000000 1.723780 0.000000 
#    z 0.027650 0.000000 1.738430 
# 
# From -- ./inp_files/183825.got.cif
#   From: 2010.05.17/outbox.cif.g08.bks.cpg/sg12_92_cif.got.tgz:183825.got - 2010.06.03 13:09:07.
