data_PCOD9197116
_publ_section_title
;
Structure prediction by ZEFSAII (Michael W. Deem and Ramdas Pophale) SiO2 
 PCOD9197116
Probable space group: C 2/M
;
_chemical_formula_sum "Si O2"
_cell_formula_units_Z 56
_cell_length_a 12.128959
_cell_length_b 29.570383
_cell_length_c 13.493344
_cell_angle_alpha 90.000000
_cell_angle_beta 33.064015
_cell_angle_gamma 90.000000
_cell_volume 2640.311111
_symmetry_space_group_name_H-M "C 2/M"
_symmetry_group_IT_number 12
_symmetry_cell_setting 'monoclinic'
loop_
_space_group_symop_operation_xyz
x,y,z
-x,y,-z
-x,-y,-z
x,-y,z
1/2+x,1/2+y,z
1/2-x,1/2+y,-z
1/2-x,1/2-y,-z
1/2+x,1/2-y,z
loop_
_atom_site_type_symbol
_atom_site_label
_atom_site_fract_x
_atom_site_fract_y
_atom_site_fract_z
Si Si1 0.178079 0.049735 0.945984
Si Si2 0.673045 0.450683 0.652534
Si Si3 0.934051 0.229541 0.296053
Si Si4 0.217639 0.948887 0.382448
Si Si5 0.174527 0.352322 0.444547
Si Si6 0.023369 0.378582 0.208819
Si Si7 0.862919 0.299385 0.008789
O O1 0.059872 0.050455 0.138974
O O2 0.270559 0.000000 0.861867
O O3 0.340504 0.088376 0.827006
O O4 0.000000 0.055323 0.000000
O O5 0.751432 0.500000 0.629639
O O6 0.692660 0.449910 0.520165
O O7 0.768499 0.404525 0.620950
O O8 0.750000 0.250000 0.500000
O O9 0.854340 0.183594 0.304762
O O10 0.016170 0.263301 0.149899
O O11 0.138197 0.218022 0.203387
O O12 0.384510 0.910195 0.243523
O O13 0.000000 0.938201 0.500000
O O14 0.276153 0.000000 0.306217
O O15 0.000000 0.338525 0.500000
O O16 0.105882 0.352038 0.611479
O O17 0.151002 0.344258 0.047551
O O18 0.000000 0.308560 0.000000
#
# Coordination Sequence:
#
# PCOD9197116 Si02
#       7
#     8   8   8   8   8   8   8
#     4  10  20  35  58  87 128 175 215 269 330 383
#     4   9  19  36  56  88 128 165 212 265 316 388
#     4  11  25  48  69  96 131 168 224 276 330 406
#     4   9  19  36  58  84 122 175 224 267 320 384
#     4  11  23  38  66  94 124 174 215 267 330 392
#     4  11  22  38  58  96 129 164 221 272 327 402
#     4  11  27  45  71 100 132 172 215 280 345 398
#
# _framework density 21.209623000000001
#
# number of rings (size 3 to 8) (size 9 to 14) (size 15 to 20)
#    0.000    1.714    1.429    2.143    2.000    4.286 
#    0.000    1.429    0.000    4.286    0.000    0.000 
#    0.000    0.000    0.000    0.000    0.000    0.000 
#
# Total GULP energy -156316.487887 kJ/mol
# GULP energy per Si atom -5582.731710 kJ/mol
# Density = 2.116135 g / cm^3
# Si number density = 21.209623 Si / 1000 Ang^3
#
#
#
# Elastic Constant Matrix: (Units=GPa)
#
#
# Indices 1 2 3 4 5 6 
#
# 1 63.1356 39.0868 11.6926 0.0000 -24.9268 0.0000
# 2 39.0868 121.1283 41.3977 0.0000 -20.2652 0.0000
# 3 11.6926 41.3977 86.2478 0.0000 -11.9588 0.0000
# 4 0.0000 0.0000 0.0000 23.7532 0.0000 -18.2281
# 5 -24.9268 -20.2652 -11.9588 0.0000 26.2453 0.0000
# 6 0.0000 0.0000 0.0000 -18.2281 0.0000 5.0742
#
#
#
# Elastic Compliance Matrix: (Units=1/GPa)
#
#
# Indices 1 2 3 4 5 6 
#
# 1 0.028353 -0.006029 0.002283 0.000000 0.023314 0.000000
# 2 -0.006029 0.012072 -0.004781 0.000000 0.001417 0.000000
# 3 0.002283 -0.004781 0.014270 0.000000 0.004979 0.000000
# 4 0.000000 0.000000 0.000000 -0.023965 0.000000 -0.086090
# 5 0.023314 0.001417 0.004979 0.000000 0.063607 0.000000
# 6 0.000000 0.000000 0.000000 -0.086090 0.000000 -0.112185
#
#
# Mechanical properties :
#
#
# Convention : Reuss Voigt Hill
#
# Bulk Modulus (GPa) = 26.56652 50.54065 38.55359
# Shear Modulus (GPa) = 425.39638 22.90353 224.14996
#
# Velocity S-wave (km/s) = 14.17755 3.28969 10.29138
# Velocity P-wave (km/s) = 16.74983 6.18953 12.62670
#
# Compressibility (1/GPa) = 0.03764136
#
# Stress axis : x y z
#
# Youngs Moduli (GPa) = 35.26943 82.83554 70.07705
#
# Poissons Ratio (x) = 0.49941 -0.15995
# Poissons Ratio (y) = 0.21264 0.33501
# Poissons Ratio (z) = -0.08050 0.39600
#
# Static dielectric constant tensor:
#      x y z
#    x 1.732380 0.000000 0.004650 
#    y 0.000000 1.812780 0.000000 
#    z 0.004650 0.000000 1.787010 
# 
# From -- ./inp_files/210013.got.cif
#   From: 2010.05.17/outbox.cif.g08.bks.cpg/sg12_106_cif.got.tgz:210013.got - 2010.06.03 13:09:07.
