data_PCOD9197179
_publ_section_title
;
Structure prediction by ZEFSAII (Michael W. Deem and Ramdas Pophale) SiO2 
 PCOD9197179
Probable space group: C 2/M
;
_chemical_formula_sum "Si O2"
_cell_formula_units_Z 56
_cell_length_a 30.247911
_cell_length_b 7.676019
_cell_length_c 21.884430
_cell_angle_alpha 90.000000
_cell_angle_beta 151.177819
_cell_angle_gamma 90.000000
_cell_volume 2449.612492
_symmetry_space_group_name_H-M "C 2/M"
_symmetry_group_IT_number 12
_symmetry_cell_setting 'monoclinic'
loop_
_space_group_symop_operation_xyz
x,y,z
-x,y,-z
-x,-y,-z
x,-y,z
1/2+x,1/2+y,z
1/2-x,1/2+y,-z
1/2-x,1/2-y,-z
1/2+x,1/2-y,z
loop_
_atom_site_type_symbol
_atom_site_label
_atom_site_fract_x
_atom_site_fract_y
_atom_site_fract_z
Si Si1 0.660223 0.789505 0.566661
Si Si2 0.643115 0.292381 0.868872
Si Si3 0.466956 0.198991 0.379142
Si Si4 0.022964 0.204787 0.096086
Si Si5 0.383118 0.286571 0.029126
Si Si6 0.213100 0.302912 0.388139
Si Si7 0.197544 0.288600 0.743717
O O1 0.559845 0.722719 0.464428
O O2 0.703077 0.713480 0.557808
O O3 0.717833 0.749454 0.697691
O O4 0.658039 0.000000 0.556139
O O5 0.630687 0.500000 0.846521
O O6 0.600627 0.198388 0.759974
O O7 0.750000 0.250000 0.000000
O O8 0.598524 0.235682 0.879011
O O9 0.402516 0.274300 0.354773
O O10 0.491534 0.000000 0.425101
O O11 0.126316 0.214847 0.248469
O O12 0.000641 0.000000 0.064843
O O13 0.000000 0.275995 0.000000
O O14 0.955376 0.276262 0.066603
O O15 0.382444 0.500000 0.028143
O O16 0.281214 0.228353 0.886465
O O17 0.182605 0.500000 0.357655
O O18 0.250000 0.250000 0.500000
O O19 0.193174 0.500000 0.743272
#
# Coordination Sequence:
#
# PCOD9197179 Si02
#       7
#     8   8   8   8   8   8   8
#     4  10  21  38  64  92 118 155 203 250 306 366
#     4  11  21  35  54  81 118 159 200 244 295 354
#     4  10  20  35  58  89 122 156 198 244 293 358
#     4  10  21  41  70  99 125 160 208 263 322 385
#     4   9  18  32  57  88 117 152 194 242 297 356
#     4  12  27  46  66  90 126 169 215 269 323 376
#     4   9  16  33  60  91 123 155 193 239 289 356
#
# _framework density 22.860757
#
# number of rings (size 3 to 8) (size 9 to 14) (size 15 to 20)
#    0.000    1.857    1.429    3.000    2.000    4.857 
#    0.000    1.429    0.000    1.714    0.000    0.000 
#    0.000    0.000    0.000    0.000    0.000    0.000 
#
# Total GULP energy -156314.818375 kJ/mol
# GULP energy per Si atom -5582.672085 kJ/mol
# Density = 2.280873 g / cm^3
# Si number density = 22.860757 Si / 1000 Ang^3
#
#
#
# Elastic Constant Matrix: (Units=GPa)
#
#
# Indices 1 2 3 4 5 6 
#
# 1 186.7501 1.3162 45.6828 0.0000 -14.8548 0.0000
# 2 1.3162 45.8470 -8.9706 0.0000 -7.0387 0.0000
# 3 45.6828 -8.9706 84.5799 0.0000 -10.0100 0.0000
# 4 0.0000 0.0000 0.0000 7.9796 0.0000 -3.0946
# 5 -14.8548 -7.0387 -10.0100 0.0000 41.6218 0.0000
# 6 0.0000 0.0000 0.0000 -3.0946 0.0000 14.2534
#
#
#
# Elastic Compliance Matrix: (Units=1/GPa)
#
#
# Indices 1 2 3 4 5 6 
#
# 1 0.006272 -0.000619 -0.003294 0.000000 0.001341 0.000000
# 2 -0.000619 0.023170 0.003324 0.000000 0.004497 0.000000
# 3 -0.003294 0.003324 0.014289 0.000000 0.002823 0.000000
# 4 0.000000 0.000000 0.000000 0.136841 0.000000 0.029710
# 5 0.001341 0.004497 0.002823 0.000000 0.025944 0.000000
# 6 0.000000 0.000000 0.000000 0.029710 0.000000 0.076609
#
#
# Mechanical properties :
#
#
# Convention : Reuss Voigt Hill
#
# Bulk Modulus (GPa) = 23.50030 43.69263 33.59647
# Shear Modulus (GPa) = 16.75115 31.38088 24.06602
#
# Velocity S-wave (km/s) = 2.70987 3.70901 3.24809
# Velocity P-wave (km/s) = 4.48255 6.12343 5.36608
#
# Compressibility (1/GPa) = 0.04255264
#
# Stress axis : x y z
#
# Youngs Moduli (GPa) = 159.44750 43.15889 69.98376
#
# Poissons Ratio (x) = 0.02670 0.23055
# Poissons Ratio (y) = 0.09865 -0.23261
# Poissons Ratio (z) = 0.52526 -0.14345
#
# Static dielectric constant tensor:
#      x y z
#    x 1.849430 0.000000 -0.000910 
#    y 0.000000 1.874210 0.000000 
#    z -0.000910 0.000000 1.884050 
# 
# From -- ./inp_files/329653.got.cif
#   From: 2010.05.17/outbox.cif.g08.bks.cpg/sg12_165_cif.got.tgz:329653.got - 2010.06.03 13:09:07.
