data_PCOD9197538
_publ_section_title
;
Structure prediction by ZEFSAII (Michael W. Deem and Ramdas Pophale) SiO2 
 PCOD9197538
Probable space group: C 2/M
;
_chemical_formula_sum "Si O2"
_cell_formula_units_Z 64
_cell_length_a 32.123924
_cell_length_b 13.564533
_cell_length_c 9.583075
_cell_angle_alpha 90.000000
_cell_angle_beta 55.445666
_cell_angle_gamma 90.000000
_cell_volume 3439.130834
_symmetry_space_group_name_H-M "C 2/M"
_symmetry_group_IT_number 12
_symmetry_cell_setting 'monoclinic'
loop_
_space_group_symop_operation_xyz
x,y,z
-x,y,-z
-x,-y,-z
x,-y,z
1/2+x,1/2+y,z
1/2-x,1/2+y,-z
1/2-x,1/2-y,-z
1/2+x,1/2-y,z
loop_
_atom_site_type_symbol
_atom_site_label
_atom_site_fract_x
_atom_site_fract_y
_atom_site_fract_z
Si Si1 0.901376 0.746166 0.412231
Si Si2 0.598207 0.219424 0.040433
Si Si3 0.275382 0.610452 0.370943
Si Si4 0.496624 0.116394 0.175123
Si Si5 0.161609 0.232355 0.193589
Si Si6 0.750721 0.386575 0.905715
Si Si7 0.439201 0.614803 0.101126
Si Si8 0.173157 0.684686 0.666604
O O1 0.874101 0.778956 0.604693
O O2 0.915655 0.837710 0.285382
O O3 0.861756 0.678472 0.402380
O O4 0.951861 0.680919 0.326348
O O5 0.549026 0.151395 0.143132
O O6 0.625721 0.247490 0.130120
O O7 0.580289 0.316855 0.988723
O O8 0.639103 0.164633 0.865023
O O9 0.296202 0.500000 0.346221
O O10 0.262303 0.628647 0.233185
O O11 0.223174 0.621140 0.554807
O O12 0.309710 0.700676 0.354497
O O13 0.488204 0.000000 0.207983
O O14 0.500000 0.136210 0.000000
O O15 0.201266 0.321295 0.143715
O O16 0.200406 0.144029 0.085757
O O17 0.762589 0.500000 0.904818
O O18 0.426407 0.500000 0.107074
O O19 0.500000 0.622568 0.000000
#
# Coordination Sequence:
#
# PCOD9197538 Si02
#       8
#     8   8   8   8   8   8   8   8
#     4  11  21  40  59  89 122 155 201 240 302 348
#     4  11  21  40  59  89 124 158 199 238 304 354
#     4  10  20  36  60  89 117 151 201 252 294 351
#     4  11  22  39  64  92 121 154 201 250 293 352
#     4  11  24  39  63  87 125 163 193 250 293 359
#     4  10  22  41  60  85 120 163 202 240 303 359
#     4  10  20  39  64  86 116 154 199 250 295 348
#     4  10  20  35  60  89 115 150 199 247 293 349
#
# _framework density 18.609352999999999
#
# number of rings (size 3 to 8) (size 9 to 14) (size 15 to 20)
#    0.000    1.500    6.250    0.000    0.000    5.500 
#    0.000    1.875    0.000    1.500    0.000    0.000 
#    0.000    0.000    0.000    0.000    0.000    0.000 
#
# Total GULP energy -178652.900858 kJ/mol
# GULP energy per Si atom -5582.903152 kJ/mol
# Density = 1.856700 g / cm^3
# Si number density = 18.609353 Si / 1000 Ang^3
#
#
#
# Elastic Constant Matrix: (Units=GPa)
#
#
# Indices 1 2 3 4 5 6 
#
# 1 75.0473 8.8705 39.6779 0.0000 -11.2107 0.0000
# 2 8.8705 73.1537 22.7967 0.0000 -5.6754 0.0000
# 3 39.6779 22.7967 101.5789 0.0000 -3.5403 0.0000
# 4 0.0000 0.0000 0.0000 6.3669 0.0000 1.5013
# 5 -11.2107 -5.6754 -3.5403 0.0000 30.9625 0.0000
# 6 0.0000 0.0000 0.0000 1.5013 0.0000 4.9543
#
#
#
# Elastic Compliance Matrix: (Units=1/GPa)
#
#
# Indices 1 2 3 4 5 6 
#
# 1 0.017737 0.000419 -0.006823 0.000000 0.005719 0.000000
# 2 0.000419 0.014876 -0.003416 0.000000 0.002488 0.000000
# 3 -0.006823 -0.003416 0.013221 0.000000 -0.001585 0.000000
# 4 0.000000 0.000000 0.000000 0.169147 0.000000 -0.051255
# 5 0.005719 0.002488 -0.001585 0.000000 0.034643 0.000000
# 6 0.000000 0.000000 0.000000 -0.051255 0.000000 0.217375
#
#
# Mechanical properties :
#
#
# Convention : Reuss Voigt Hill
#
# Bulk Modulus (GPa) = 38.17453 43.60779 40.89116
# Shear Modulus (GPa) = 10.09346 20.35241 15.22293
#
# Velocity S-wave (km/s) = 2.33145 3.31065 2.86322
# Velocity P-wave (km/s) = 5.27311 6.17236 5.74037
#
# Compressibility (1/GPa) = 0.02619548
#
# Stress axis : x y z
#
# Youngs Moduli (GPa) = 56.37916 67.22034 75.63698
#
# Poissons Ratio (x) = -0.02818 0.51608
# Poissons Ratio (y) = -0.02363 0.25835
# Poissons Ratio (z) = 0.38468 0.22960
#
# Static dielectric constant tensor:
#      x y z
#    x 1.653180 0.000000 -0.014310 
#    y 0.000000 1.625080 0.000000 
#    z -0.014310 0.000000 1.648820 
# 
# From -- ./inp_files/111639.got.cif
#   From: 2010.05.17/outbox.cif.g08.bks.cpg/sg12_56_cif.got.tgz:111639.got - 2010.06.03 13:09:07.
