data_PCOD9197302
_publ_section_title
;
Structure prediction by ZEFSAII (Michael W. Deem and Ramdas Pophale) SiO2 
 PCOD9197302
Probable space group: C 2/M
;
_chemical_formula_sum "Si O2"
_cell_formula_units_Z 48
_cell_length_a 20.944706
_cell_length_b 8.739425
_cell_length_c 21.682233
_cell_angle_alpha 90.000000
_cell_angle_beta 138.402822
_cell_angle_gamma 90.000000
_cell_volume 2634.855830
_symmetry_space_group_name_H-M "C 2/M"
_symmetry_group_IT_number 12
_symmetry_cell_setting 'monoclinic'
loop_
_space_group_symop_operation_xyz
x,y,z
-x,y,-z
-x,-y,-z
x,-y,z
1/2+x,1/2+y,z
1/2-x,1/2+y,-z
1/2-x,1/2-y,-z
1/2+x,1/2-y,z
loop_
_atom_site_type_symbol
_atom_site_label
_atom_site_fract_x
_atom_site_fract_y
_atom_site_fract_z
Si Si1 0.538587 0.184783 0.734435
Si Si2 0.845504 0.182104 0.538309
Si Si3 0.599611 0.184850 0.041487
Si Si4 0.791839 0.315780 0.238764
Si Si5 0.389490 0.815463 0.436529
Si Si6 0.144066 0.684628 0.934906
O O1 0.439296 0.259783 0.642684
O O2 0.622745 0.227130 0.746860
O O3 0.574625 0.229339 0.828503
O O4 0.527949 0.000000 0.724269
O O5 0.750000 0.250000 0.500000
O O6 0.857239 0.239724 0.476621
O O7 0.841197 0.000000 0.536490
O O8 0.692236 0.244839 0.144758
O O9 0.601250 0.000000 0.044019
O O10 0.500000 0.236732 0.000000
O O11 0.607794 0.233376 0.975982
O O12 0.784180 0.500000 0.231181
O O13 0.823966 0.271895 0.330816
O O14 0.500000 0.776043 0.500000
O O15 0.385958 0.000000 0.441203
O O16 0.150150 0.500000 0.938487
O O17 0.250000 0.750000 0.000000
#
# Coordination Sequence:
#
# PCOD9197302 Si02
#       6
#     8   8   8   8   8   8
#     4  10  20  38  61  87 119 158 202 246 301 357
#     4  12  26  42  62  90 124 159 200 249 304 360
#     4  10  22  38  55  83 123 158 193 245 301 347
#     4  10  20  36  62  90 117 155 197 242 294 354
#     4  10  20  39  64  89 121 158 198 245 301 359
#     4  10  20  35  59  86 116 155 199 244 293 351
#
# _framework density 18.217316
#
# number of rings (size 3 to 8) (size 9 to 14) (size 15 to 20)
#    0.000    1.667    3.333    1.500    0.000    4.000 
#    0.000    1.667    0.000    0.000    0.000    0.000 
#    0.000    0.000    0.000    0.000    0.000    0.000 
#
# Total GULP energy -134090.013304 kJ/mol
# GULP energy per Si atom -5587.083888 kJ/mol
# Density = 1.817585 g / cm^3
# Si number density = 18.217316 Si / 1000 Ang^3
#
#
#
# Elastic Constant Matrix: (Units=GPa)
#
#
# Indices 1 2 3 4 5 6 
#
# 1 193.6000 55.9284 129.6038 0.0000 0.8814 0.0000
# 2 55.9284 35.6973 56.6877 0.0000 -1.4588 0.0000
# 3 129.6038 56.6877 211.0209 0.0000 -9.0149 0.0000
# 4 0.0000 0.0000 0.0000 34.6212 0.0000 5.4607
# 5 0.8814 -1.4588 -9.0149 0.0000 36.3226 0.0000
# 6 0.0000 0.0000 0.0000 5.4607 0.0000 21.4014
#
#
#
# Elastic Compliance Matrix: (Units=1/GPa)
#
#
# Indices 1 2 3 4 5 6 
#
# 1 0.010940 -0.011206 -0.003779 0.000000 -0.001654 0.000000
# 2 -0.011206 0.060395 -0.009325 0.000000 0.000383 0.000000
# 3 -0.003779 -0.009325 0.009656 0.000000 0.002114 0.000000
# 4 0.000000 0.000000 0.000000 0.030095 0.000000 -0.007679
# 5 -0.001654 0.000383 0.002114 0.000000 0.028111 0.000000
# 6 0.000000 0.000000 0.000000 -0.007679 0.000000 0.048685
#
#
# Mechanical properties :
#
#
# Convention : Reuss Voigt Hill
#
# Bulk Modulus (GPa) = 30.89402 102.75088 66.82245
# Shear Modulus (GPa) = 20.21884 31.67560 25.94722
#
# Velocity S-wave (km/s) = 3.33508 4.17437 3.77811
# Velocity P-wave (km/s) = 5.64144 8.93080 7.46944
#
# Compressibility (1/GPa) = 0.03236873
#
# Stress axis : x y z
#
# Youngs Moduli (GPa) = 91.40489 16.55766 103.56783
#
# Poissons Ratio (x) = 0.18555 0.39143
# Poissons Ratio (y) = 1.02432 0.96579
# Poissons Ratio (z) = 0.34546 0.15440
#
# Static dielectric constant tensor:
#      x y z
#    x 1.602260 0.000000 -0.019290 
#    y 0.000000 1.617790 0.000000 
#    z -0.019290 0.000000 1.600480 
# 
# From -- ./inp_files/244851.got.cif
#   From: 2010.05.17/outbox.cif.g08.bks.cpg/sg12_123_cif.got.tgz:244851.got - 2010.06.03 13:09:07.
