data_PCOD9197971
_publ_section_title
;
Structure prediction by ZEFSAII (Michael W. Deem and Ramdas Pophale) SiO2 
 PCOD9197971
Probable space group: C 2/M
;
_chemical_formula_sum "Si O2"
_cell_formula_units_Z 64
_cell_length_a 33.258596
_cell_length_b 13.786710
_cell_length_c 7.539559
_cell_angle_alpha 90.000000
_cell_angle_beta 87.369504
_cell_angle_gamma 90.000000
_cell_volume 3453.445699
_symmetry_space_group_name_H-M "C 2/M"
_symmetry_group_IT_number 12
_symmetry_cell_setting 'monoclinic'
loop_
_space_group_symop_operation_xyz
x,y,z
-x,y,-z
-x,-y,-z
x,-y,z
1/2+x,1/2+y,z
1/2-x,1/2+y,-z
1/2-x,1/2-y,-z
1/2+x,1/2-y,z
loop_
_atom_site_type_symbol
_atom_site_label
_atom_site_fract_x
_atom_site_fract_y
_atom_site_fract_z
Si Si1 0.302442 0.391515 0.718165
Si Si2 0.055004 0.890735 0.156573
Si Si3 0.127035 0.248894 0.246055
Si Si4 0.774601 0.716451 0.166144
Si Si5 0.859588 0.615127 0.073978
Si Si6 0.535908 0.610150 0.738959
Si Si7 0.676514 0.392203 0.696166
Si Si8 0.894062 0.756585 0.345727
O O1 0.301534 0.500000 0.796632
O O2 0.333744 0.317784 0.802704
O O3 0.258167 0.345515 0.720048
O O4 0.318630 0.399910 0.515694
O O5 0.088217 0.813881 0.202714
O O6 0.012082 0.876108 0.261478
O O7 0.069254 0.000000 0.195367
O O8 0.046323 0.886553 0.947465
O O9 0.123684 0.269148 0.457078
O O10 0.129594 0.342483 0.121473
O O11 0.814098 0.651820 0.123339
O O12 0.790333 0.815750 0.248769
O O13 0.750000 0.750000 0.000000
O O14 0.862159 0.500000 0.081727
O O15 0.888404 0.667372 0.212932
O O16 0.545536 0.500000 0.674179
O O17 0.562339 0.694312 0.646176
O O18 0.679526 0.500000 0.772376
O O19 0.633489 0.342053 0.734269
#
# Coordination Sequence:
#
# PCOD9197971 Si02
#       8
#     8   8   8   8   8   8   8   8
#     4  10  20  36  55  79 110 144 184 227 273 332
#     4   9  18  32  56  90 124 156 186 223 278 337
#     4  11  21  38  59  85 113 150 189 234 281 336
#     4  11  21  37  55  80 109 142 185 229 280 334
#     4  11  24  42  59  81 112 147 191 242 290 335
#     4   9  17  32  56  89 126 157 185 222 275 341
#     4   9  20  35  54  80 111 145 180 223 275 330
#     4  10  21  37  60  84 115 149 191 229 279 340
#
# _framework density 18.532215000000001
#
# number of rings (size 3 to 8) (size 9 to 14) (size 15 to 20)
#    0.000    2.000    2.500    2.250    0.000    3.500 
#    0.000    1.250    0.000    1.500    0.000    1.750 
#    0.000    0.000    0.000    0.000    0.000    0.000 
#
# Total GULP energy -178607.690008 kJ/mol
# GULP energy per Si atom -5581.490313 kJ/mol
# Density = 1.849003 g / cm^3
# Si number density = 18.532215 Si / 1000 Ang^3
#
#
#
# Elastic Constant Matrix: (Units=GPa)
#
#
# Indices 1 2 3 4 5 6 
#
# 1 72.3243 44.7017 8.6694 0.0000 -2.3861 0.0000
# 2 44.7017 158.1161 40.4751 0.0000 -4.1901 0.0000
# 3 8.6694 40.4751 48.0081 0.0000 0.5701 0.0000
# 4 0.0000 0.0000 0.0000 17.5404 0.0000 -3.8960
# 5 -2.3861 -4.1901 0.5701 0.0000 22.6617 0.0000
# 6 0.0000 0.0000 0.0000 -3.8960 0.0000 18.9248
#
#
#
# Elastic Compliance Matrix: (Units=1/GPa)
#
#
# Indices 1 2 3 4 5 6 
#
# 1 0.016826 -0.005044 0.001204 0.000000 0.000809 0.000000
# 2 -0.005044 0.009640 -0.007234 0.000000 0.001433 0.000000
# 3 0.001204 -0.007234 0.026733 0.000000 -0.001883 0.000000
# 4 0.000000 0.000000 0.000000 0.059743 0.000000 0.012299
# 5 0.000809 0.001433 -0.001883 0.000000 0.044525 0.000000
# 6 0.000000 0.000000 0.000000 0.012299 0.000000 0.055373
#
#
# Mechanical properties :
#
#
# Convention : Reuss Voigt Hill
#
# Bulk Modulus (GPa) = 32.20265 51.79345 41.99805
# Shear Modulus (GPa) = 20.38004 24.13220 22.25612
#
# Velocity S-wave (km/s) = 3.31978 3.61248 3.46922
# Velocity P-wave (km/s) = 5.66647 6.73858 6.22565
#
# Compressibility (1/GPa) = 0.03105334
#
# Stress axis : x y z
#
# Youngs Moduli (GPa) = 59.43021 103.73284 37.40647
#
# Poissons Ratio (x) = 0.52322 -0.04505
# Poissons Ratio (y) = 0.29976 0.27059
# Poissons Ratio (z) = -0.07157 0.75037
#
# Static dielectric constant tensor:
#      x y z
#    x 1.656970 0.000000 -0.014650 
#    y 0.000000 1.396370 0.000000 
#    z -0.014650 0.000000 1.686060 
# 
# From -- ./inp_files/110464.got.cif
#   From: 2010.05.17/outbox.cif.g08.bks.cpg/sg12_56_cif.got.tgz:110464.got - 2010.06.03 13:09:07.
