data_PCOD9197385
_publ_section_title
;
Structure prediction by ZEFSAII (Michael W. Deem and Ramdas Pophale) SiO2 
 PCOD9197385
Probable space group: C 2/M
;
_chemical_formula_sum "Si O2"
_cell_formula_units_Z 58
_cell_length_a 15.659260
_cell_length_b 9.111056
_cell_length_c 19.314051
_cell_angle_alpha 90.000000
_cell_angle_beta 99.263133
_cell_angle_gamma 90.000000
_cell_volume 2719.647733
_symmetry_space_group_name_H-M "C 2/M"
_symmetry_group_IT_number 12
_symmetry_cell_setting 'monoclinic'
loop_
_space_group_symop_operation_xyz
x,y,z
-x,y,-z
-x,-y,-z
x,-y,z
1/2+x,1/2+y,z
1/2-x,1/2+y,-z
1/2-x,1/2-y,-z
1/2+x,1/2-y,z
loop_
_atom_site_type_symbol
_atom_site_label
_atom_site_fract_x
_atom_site_fract_y
_atom_site_fract_z
Si Si1 0.473429 0.673685 0.182056
Si Si2 0.500000 0.500000 0.500000
Si Si3 0.882921 0.667153 0.043581
Si Si4 0.763421 0.828023 0.373524
Si Si5 0.693713 0.333007 0.088225
Si Si6 0.437417 0.678806 0.330725
Si Si7 0.113486 0.163098 0.414562
Si Si8 0.155283 0.671178 0.217468
O O1 0.471963 0.500000 0.169829
O O2 0.437659 0.757263 0.110905
O O3 0.421917 0.700743 0.247336
O O4 0.569357 0.731585 0.209334
O O5 0.569630 0.625253 0.482031
O O6 0.910700 0.500000 0.034191
O O7 0.785009 0.661671 0.060596
O O8 0.876271 0.760617 0.972457
O O9 0.858235 0.767458 0.366838
O O10 0.701588 0.750333 0.420468
O O11 0.711035 0.816164 0.294123
O O12 0.771534 0.000000 0.391805
O O13 0.669433 0.500000 0.103338
O O14 0.704205 0.232127 0.156639
O O15 0.443001 0.500000 0.345516
O O16 0.532528 0.735091 0.363144
O O17 0.130316 0.000000 0.385067
O O18 0.133259 0.500000 0.205041
#
# Coordination Sequence:
#
# PCOD9197385 Si02
#       8
#     8   2   8   8   8   8   8   8
#     4  11  21  35  56  81 108 152 198 241 298 364
#     4   8  20  36  70  84 124 162 200 240 280 336
#     4  10  21  37  55  77 109 145 189 252 310 361
#     4  10  20  35  59  89 120 154 195 246 295 348
#     4  10  21  37  56  77 106 147 196 245 302 371
#     4   9  18  34  59  84 118 157 193 241 291 353
#     4   9  18  38  61  86 118 159 197 230 286 342
#     4  11  22  35  53  81 115 148 190 249 305 353
#
# _framework density 21.326291999999999
#
# number of rings (size 3 to 8) (size 9 to 14) (size 15 to 20)
#    0.414    1.655    1.379    2.483    0.000    3.862 
#    0.000    5.862    0.000    0.000    0.000    0.000 
#    0.000    0.000    0.000    0.000    0.000    0.000 
#
# Total GULP energy -161610.898394 kJ/mol
# GULP energy per Si atom -5572.789600 kJ/mol
# Density = 2.127775 g / cm^3
# Si number density = 21.326292 Si / 1000 Ang^3
#
#
#
# Elastic Constant Matrix: (Units=GPa)
#
#
# Indices 1 2 3 4 5 6 
#
# 1 71.4329 7.7057 18.7341 0.0000 -13.1343 0.0000
# 2 7.7057 44.4366 18.4224 0.0000 0.0955 0.0000
# 3 18.7341 18.4224 65.9129 0.0000 8.9567 0.0000
# 4 0.0000 0.0000 0.0000 25.7409 0.0000 -7.4155
# 5 -13.1343 0.0955 8.9567 0.0000 33.5864 0.0000
# 6 0.0000 0.0000 0.0000 -7.4155 0.0000 31.1888
#
#
#
# Elastic Compliance Matrix: (Units=1/GPa)
#
#
# Indices 1 2 3 4 5 6 
#
# 1 0.017103 -0.000570 -0.005822 0.000000 0.008242 0.000000
# 2 -0.000570 0.025589 -0.007211 0.000000 0.001627 0.000000
# 3 -0.005822 -0.007211 0.019868 0.000000 -0.007555 0.000000
# 4 0.000000 0.000000 0.000000 0.041705 0.000000 0.009916
# 5 0.008242 0.001627 -0.007555 0.000000 0.035007 0.000000
# 6 0.000000 0.000000 0.000000 0.009916 0.000000 0.034420
#
#
# Mechanical properties :
#
#
# Convention : Reuss Voigt Hill
#
# Bulk Modulus (GPa) = 28.28503 30.16739 29.22621
# Shear Modulus (GPa) = 23.50907 27.23123 25.37015
#
# Velocity S-wave (km/s) = 3.32377 3.57723 3.45283
# Velocity P-wave (km/s) = 5.29355 5.58914 5.44335
#
# Compressibility (1/GPa) = 0.03535439
#
# Stress axis : x y z
#
# Youngs Moduli (GPa) = 58.46916 39.07944 50.33135
#
# Poissons Ratio (x) = 0.02227 0.29302
# Poissons Ratio (y) = 0.03332 0.36295
# Poissons Ratio (z) = 0.34040 0.28181
#
# Static dielectric constant tensor:
#      x y z
#    x 1.790510 0.000000 -0.006030 
#    y 0.000000 1.743470 0.000000 
#    z -0.006030 0.000000 1.883930 
# 
# From -- ./inp_files/338093.got.cif
#   From: 2010.05.17/outbox.cif.g08.bks.cpg/sg12_170_cif.got.tgz:338093.got - 2010.06.03 13:09:07.
