data_PCOD9197804
_publ_section_title
;
Structure prediction by ZEFSAII (Michael W. Deem and Ramdas Pophale) SiO2 
 PCOD9197804
Probable space group: C 2/M
;
_chemical_formula_sum "Si O2"
_cell_formula_units_Z 56
_cell_length_a 15.360230
_cell_length_b 28.653390
_cell_length_c 11.833550
_cell_angle_alpha 90.000000
_cell_angle_beta 145.826101
_cell_angle_gamma 90.000000
_cell_volume 2925.487614
_symmetry_space_group_name_H-M "C 2/M"
_symmetry_group_IT_number 12
_symmetry_cell_setting 'monoclinic'
loop_
_space_group_symop_operation_xyz
x,y,z
-x,y,-z
-x,-y,-z
x,-y,z
1/2+x,1/2+y,z
1/2-x,1/2+y,-z
1/2-x,1/2-y,-z
1/2+x,1/2-y,z
loop_
_atom_site_type_symbol
_atom_site_label
_atom_site_fract_x
_atom_site_fract_y
_atom_site_fract_z
Si Si1 0.765774 0.700548 0.084121
Si Si2 0.267412 0.181611 0.693257
Si Si3 0.677778 0.714596 0.235076
Si Si4 0.752637 0.446967 0.823587
Si Si5 0.079662 0.052974 0.406612
Si Si6 0.560125 0.351469 0.293945
Si Si7 0.082134 0.645509 0.930927
O O1 0.609676 0.669569 0.904340
O O2 0.897222 0.669112 0.167949
O O3 0.750000 0.750000 0.000000
O O4 0.781032 0.707270 0.234674
O O5 0.277461 0.235295 0.668878
O O6 0.111059 0.161570 0.475680
O O7 0.300953 0.174764 0.861237
O O8 0.410134 0.154317 0.789617
O O9 0.668604 0.674581 0.319181
O O10 0.500000 0.719986 0.000000
O O11 0.812407 0.500000 0.897976
O O12 0.589166 0.444533 0.714718
O O13 0.705629 0.438885 0.641899
O O14 0.864705 0.407539 0.993429
O O15 0.078499 0.093004 0.311404
O O16 0.100984 0.000000 0.388434
#
# Coordination Sequence:
#
# PCOD9197804 Si02
#       7
#     8   8   8   8   8   8   8
#     4  11  21  36  55  75 102 141 183 214 259 320
#     4  11  21  35  51  78 114 141 170 219 272 311
#     4  10  20  36  50  74 108 141 174 222 259 306
#     4   9  17  31  51  80 110 137 175 222 268 317
#     4   9  17  30  52  82 108 132 175 229 272 315
#     4  11  21  34  57  78 106 143 178 217 274 314
#     4  11  19  34  54  74 110 142 172 215 260 318
#
# _framework density 19.142108
#
# number of rings (size 3 to 8) (size 9 to 14) (size 15 to 20)
#    0.000    1.714    5.714    2.143    0.000    0.571 
#    0.000    4.286    0.000    4.714    0.000    0.000 
#    0.000    2.286    0.000    0.000    0.000    0.000 
#
# Total GULP energy -156234.853100 kJ/mol
# GULP energy per Si atom -5579.816182 kJ/mol
# Density = 1.909854 g / cm^3
# Si number density = 19.142108 Si / 1000 Ang^3
#
#
#
# Elastic Constant Matrix: (Units=GPa)
#
#
# Indices 1 2 3 4 5 6 
#
# 1 65.3300 34.4061 -10.3301 0.0000 -4.9873 0.0000
# 2 34.4061 173.9253 6.8696 0.0000 -6.1448 0.0000
# 3 -10.3301 6.8696 20.2986 0.0000 0.6690 0.0000
# 4 0.0000 0.0000 0.0000 17.9927 0.0000 -5.4454
# 5 -4.9873 -6.1448 0.6690 0.0000 11.0477 0.0000
# 6 0.0000 0.0000 0.0000 -5.4454 0.0000 25.0298
#
#
#
# Elastic Compliance Matrix: (Units=1/GPa)
#
#
# Indices 1 2 3 4 5 6 
#
# 1 0.019713 -0.004134 0.011236 0.000000 0.005919 0.000000
# 2 -0.004134 0.006822 -0.004485 0.000000 0.002200 0.000000
# 3 0.011236 -0.004485 0.056528 0.000000 -0.000845 0.000000
# 4 0.000000 0.000000 0.000000 0.059495 0.000000 0.012944
# 5 0.005919 0.002200 -0.000845 0.000000 0.094463 0.000000
# 6 0.000000 0.000000 0.000000 0.012944 0.000000 0.042768
#
#
# Mechanical properties :
#
#
# Convention : Reuss Voigt Hill
#
# Bulk Modulus (GPa) = 11.32550 35.71613 23.52082
# Shear Modulus (GPa) = 16.44792 26.05459 21.25126
#
# Velocity S-wave (km/s) = 2.93448 3.69333 3.33556
# Velocity P-wave (km/s) = 4.17265 6.07343 5.21044
#
# Compressibility (1/GPa) = 0.08829632
#
# Stress axis : x y z
#
# Youngs Moduli (GPa) = 50.72868 146.57764 17.69021
#
# Poissons Ratio (x) = 0.60599 -0.19877
# Poissons Ratio (y) = 0.20973 0.07935
# Poissons Ratio (z) = -0.56999 0.65745
#
# Static dielectric constant tensor:
#      x y z
#    x 1.694580 0.000000 -0.008380 
#    y 0.000000 1.696670 0.000000 
#    z -0.008380 0.000000 1.669000 
# 
# From -- ./inp_files/149494.got.cif
#   From: 2010.05.17/outbox.cif.g08.bks.cpg/sg12_75_cif.got.tgz:149494.got - 2010.06.03 13:09:07.
