data_PCOD9197920
_publ_section_title
;
Structure prediction by ZEFSAII (Michael W. Deem and Ramdas Pophale) SiO2 
 PCOD9197920
Probable space group: C 2/M
;
_chemical_formula_sum "Si O2"
_cell_formula_units_Z 44
_cell_length_a 9.037882
_cell_length_b 18.052444
_cell_length_c 14.655823
_cell_angle_alpha 90.000000
_cell_angle_beta 113.782087
_cell_angle_gamma 90.000000
_cell_volume 2188.137933
_symmetry_space_group_name_H-M "C 2/M"
_symmetry_group_IT_number 12
_symmetry_cell_setting 'monoclinic'
loop_
_space_group_symop_operation_xyz
x,y,z
-x,y,-z
-x,-y,-z
x,-y,z
1/2+x,1/2+y,z
1/2-x,1/2+y,-z
1/2-x,1/2-y,-z
1/2+x,1/2-y,z
loop_
_atom_site_type_symbol
_atom_site_label
_atom_site_fract_x
_atom_site_fract_y
_atom_site_fract_z
Si Si1 0.309635 0.381335 0.173251
Si Si2 0.668570 0.864864 0.758575
Si Si3 0.914563 0.000000 0.075476
Si Si4 0.470992 0.255644 0.800510
Si Si5 0.972772 0.500000 0.386476
Si Si6 0.000000 0.689954 0.000000
Si Si7 0.309935 0.000000 0.725751
Si Si8 0.167880 0.500000 0.884980
O O1 0.403964 0.308095 0.219440
O O2 0.277904 0.428940 0.255034
O O3 0.431018 0.428295 0.140198
O O4 0.150087 0.357891 0.076278
O O5 0.507464 0.822383 0.757551
O O6 0.620278 0.924859 0.668811
O O7 0.805103 0.803789 0.766545
O O8 0.724631 0.922923 0.851905
O O9 0.725106 0.000000 0.001605
O O10 0.000000 0.000000 0.000000
O O11 0.534518 0.240439 0.919785
O O12 0.000000 0.500000 0.500000
O O13 0.136740 0.500000 0.365694
O O14 0.479241 0.000000 0.822266
#
# Coordination Sequence:
#
# PCOD9197920 Si02
#       8
#     8   8   4   8   4   4   4   4
#     4  11  22  33  54  83 125 176 220 261 296 346
#     4  10  23  40  64  90 125 164 204 258 325 374
#     4  11  21  30  48  75 117 168 224 264 282 330
#     4  12  23  36  58  91 133 175 210 260 301 356
#     4  10  23  48  78  94 113 152 201 260 336 418
#     4  12  22  33  50  85 126 182 228 250 282 339
#     4   9  20  39  60  84 116 157 205 257 320 371
#     4  10  20  36  55  75 120 166 216 254 293 349
#
# _framework density 20.108422000000001
#
# number of rings (size 3 to 8) (size 9 to 14) (size 15 to 20)
#    0.000    1.455    1.818    6.000    3.818    3.636 
#    0.000    0.909    0.000    1.091    0.000    0.000 
#    0.000    0.000    0.000    0.000    0.000    0.000 
#
# Total GULP energy -122470.693506 kJ/mol
# GULP energy per Si atom -5566.849705 kJ/mol
# Density = 2.006265 g / cm^3
# Si number density = 20.108422 Si / 1000 Ang^3
#
#
#
# Elastic Constant Matrix: (Units=GPa)
#
#
# Indices 1 2 3 4 5 6 
#
# 1 80.6843 61.3268 13.2206 0.0000 -23.0197 0.0000
# 2 61.3268 150.1400 37.8796 0.0000 -13.9053 0.0000
# 3 13.2206 37.8796 80.5873 0.0000 -19.4690 0.0000
# 4 0.0000 0.0000 0.0000 10.9617 0.0000 -10.3854
# 5 -23.0197 -13.9053 -19.4690 0.0000 19.5940 0.0000
# 6 0.0000 0.0000 0.0000 -10.3854 0.0000 42.3946
#
#
#
# Elastic Compliance Matrix: (Units=1/GPa)
#
#
# Indices 1 2 3 4 5 6 
#
# 1 0.029475 -0.010991 0.008964 0.000000 0.035735 0.000000
# 2 -0.010991 0.011743 -0.006346 0.000000 -0.010885 0.000000
# 3 0.008964 -0.006346 0.020235 0.000000 0.026133 0.000000
# 4 0.000000 0.000000 0.000000 0.118799 0.000000 0.029102
# 5 0.035735 -0.010885 0.026133 0.000000 0.111260 0.000000
# 6 0.000000 0.000000 0.000000 0.029102 0.000000 0.030717
#
#
# Mechanical properties :
#
#
# Convention : Reuss Voigt Hill
#
# Bulk Modulus (GPa) = 22.36859 59.58509 40.97684
# Shear Modulus (GPa) = 14.12916 27.85571 20.99243
#
# Velocity S-wave (km/s) = 2.65363 3.72597 3.23455
# Velocity P-wave (km/s) = 4.53179 6.94310 5.86276
#
# Compressibility (1/GPa) = 0.04470555
#
# Stress axis : x y z
#
# Youngs Moduli (GPa) = 33.92710 85.15654 49.41961
#
# Poissons Ratio (x) = 0.93600 -0.44300
# Poissons Ratio (y) = 0.37291 0.31363
# Poissons Ratio (z) = -0.30413 0.54043
#
# Static dielectric constant tensor:
#      x y z
#    x 1.861540 0.000000 -0.002060 
#    y 0.000000 1.799570 0.000000 
#    z -0.002060 0.000000 1.649420 
# 
# From -- ./inp_files/195613.got.cif
#   From: 2010.05.17/outbox.cif.g08.bks.cpg/sg12_98_cif.got.tgz:195613.got - 2010.06.03 13:09:07.
