data_PCOD9197203
_publ_section_title
;
Structure prediction by ZEFSAII (Michael W. Deem and Ramdas Pophale) SiO2 
 PCOD9197203
Probable space group: C 2/M
;
_chemical_formula_sum "Si O2"
_cell_formula_units_Z 58
_cell_length_a 5.488731
_cell_length_b 20.534200
_cell_length_c 21.275637
_cell_angle_alpha 90.000000
_cell_angle_beta 68.543643
_cell_angle_gamma 90.000000
_cell_volume 2231.723423
_symmetry_space_group_name_H-M "C 2/M"
_symmetry_group_IT_number 12
_symmetry_cell_setting 'monoclinic'
loop_
_space_group_symop_operation_xyz
x,y,z
-x,y,-z
-x,-y,-z
x,-y,z
1/2+x,1/2+y,z
1/2-x,1/2+y,-z
1/2-x,1/2-y,-z
1/2+x,1/2-y,z
loop_
_atom_site_type_symbol
_atom_site_label
_atom_site_fract_x
_atom_site_fract_y
_atom_site_fract_z
Si Si1 0.973157 0.569753 0.585706
Si Si2 0.439616 0.315110 0.743350
Si Si3 0.500000 0.500000 0.500000
Si Si4 0.785751 0.767023 0.121565
Si Si5 0.828335 0.101447 0.166121
Si Si6 0.785849 0.074438 0.974238
Si Si7 0.862780 0.568832 0.287131
Si Si8 0.216098 0.714349 0.403242
O O1 0.831626 0.500000 0.581536
O O2 0.845093 0.637892 0.577638
O O3 0.269842 0.556173 0.535364
O O4 0.998184 0.572807 0.658602
O O5 0.275234 0.266865 0.804246
O O6 0.562606 0.363886 0.782459
O O7 0.284254 0.363941 0.711874
O O8 0.659832 0.282635 0.679222
O O9 0.598661 0.735267 0.088244
O O10 0.712051 0.841837 0.133553
O O11 0.579476 0.063533 0.212860
O O12 0.070325 0.071494 0.106264
O O13 0.744649 0.000000 0.002227
O O14 0.500000 0.105410 0.000000
O O15 0.000000 0.104948 0.000000
O O16 0.707479 0.500000 0.301344
O O17 0.442090 0.746409 0.425004
#
# Coordination Sequence:
#
# PCOD9197203 Si02
#       8
#     8   8   2   8   8   8   8   8
#     4   9  21  43  71 102 146 197 244 283 365 438
#     4  11  23  37  61  99 148 178 212 286 377 427
#     4   8  20  48  80  90 156 218 234 280 368 450
#     4  10  20  35  58  90 130 177 212 254 347 429
#     4  11  22  38  64  95 132 170 224 285 351 406
#     4  10  24  44  64  87 126 175 229 277 341 413
#     4  11  22  38  64 105 138 171 236 299 344 418
#     4  12  24  41  72 110 146 185 242 309 361 419
#
# _framework density 25.988880999999999
#
# number of rings (size 3 to 8) (size 9 to 14) (size 15 to 20)
#    0.414    1.103    2.759    2.897    1.931    1.655 
#    0.000    1.379    0.000   15.724    0.000    0.000 
#    0.000    0.000    0.000    0.000    0.000    0.000 
#
# Total GULP energy -161822.741736 kJ/mol
# GULP energy per Si atom -5580.094543 kJ/mol
# Density = 2.592973 g / cm^3
# Si number density = 25.988881 Si / 1000 Ang^3
#
#
#
# Elastic Constant Matrix: (Units=GPa)
#
#
# Indices 1 2 3 4 5 6 
#
# 1 138.7643 52.9287 47.1487 0.0000 -27.2727 0.0000
# 2 52.9287 171.7254 18.4636 0.0000 -16.5121 0.0000
# 3 47.1487 18.4636 112.6928 0.0000 -27.7915 0.0000
# 4 0.0000 0.0000 0.0000 558.0544 0.0000 -380.7194
# 5 -27.2727 -16.5121 -27.7915 0.0000 38.7647 0.0000
# 6 0.0000 0.0000 0.0000 -380.7194 0.0000 239.8459
#
#
#
# Elastic Compliance Matrix: (Units=1/GPa)
#
#
# Indices 1 2 3 4 5 6 
#
# 1 0.009809 -0.002350 -0.002750 0.000000 0.003929 0.000000
# 2 -0.002350 0.006652 0.000224 0.000000 0.001341 0.000000
# 3 -0.002750 0.000224 0.011582 0.000000 0.006464 0.000000
# 4 0.000000 0.000000 0.000000 -0.021607 0.000000 -0.034298
# 5 0.003929 0.001341 0.006464 0.000000 0.033766 0.000000
# 6 0.000000 0.000000 0.000000 -0.034298 0.000000 -0.050274
#
#
# Mechanical properties :
#
#
# Convention : Reuss Voigt Hill
#
# Bulk Modulus (GPa) = 54.67167 73.36271 64.01719
# Shear Modulus (GPa) = 865.44657 187.64242 526.54450
#
# Velocity S-wave (km/s) = 18.26826 8.50634 14.24934
# Velocity P-wave (km/s) = 21.58830 11.16991 17.18752
#
# Compressibility (1/GPa) = 0.01829101
#
# Stress axis : x y z
#
# Youngs Moduli (GPa) = 101.94299 150.32161 86.34331
#
# Poissons Ratio (x) = 0.35325 0.23746
# Poissons Ratio (y) = 0.23956 -0.01934
# Poissons Ratio (z) = 0.28036 -0.03366
#
# Static dielectric constant tensor:
#      x y z
#    x 2.112400 0.000000 -0.015540 
#    y 0.000000 2.133200 0.000000 
#    z -0.015540 0.000000 2.063080 
# 
# From -- ./inp_files/355107.got.cif
#   From: 2010.05.17/outbox.cif.g08.bks.cpg/sg12_178_cif.got.tgz:355107.got - 2010.06.03 13:09:07.
