data_PCOD9197085
_publ_section_title
;
Structure prediction by ZEFSAII (Michael W. Deem and Ramdas Pophale) SiO2 
 PCOD9197085
Probable space group: C 2/M
;
_chemical_formula_sum "Si O2"
_cell_formula_units_Z 56
_cell_length_a 19.554924
_cell_length_b 8.724602
_cell_length_c 24.661573
_cell_angle_alpha 90.000000
_cell_angle_beta 137.403708
_cell_angle_gamma 90.000000
_cell_volume 2847.744749
_symmetry_space_group_name_H-M "C 2/M"
_symmetry_group_IT_number 12
_symmetry_cell_setting 'monoclinic'
loop_
_space_group_symop_operation_xyz
x,y,z
-x,y,-z
-x,-y,-z
x,-y,z
1/2+x,1/2+y,z
1/2-x,1/2+y,-z
1/2-x,1/2-y,-z
1/2+x,1/2-y,z
loop_
_atom_site_type_symbol
_atom_site_label
_atom_site_fract_x
_atom_site_fract_y
_atom_site_fract_z
Si Si1 0.982151 0.815397 0.926773
Si Si2 0.685542 0.182157 0.011357
Si Si3 0.849813 0.184207 0.529921
Si Si4 0.455270 0.315812 0.697141
Si Si5 0.242032 0.184188 0.244360
Si Si6 0.168315 0.316509 0.816049
Si Si7 0.253803 0.816242 0.635709
O O1 0.871534 0.773052 0.840817
O O2 0.990755 0.000000 0.929141
O O3 0.071087 0.741163 0.943982
O O4 0.000000 0.770593 0.000000
O O5 0.739652 0.245161 0.096840
O O6 0.688192 0.000000 0.011632
O O7 0.750000 0.250000 0.000000
O O8 0.750000 0.250000 0.500000
O O9 0.936825 0.229915 0.622906
O O10 0.835223 0.229797 0.458777
O O11 0.847321 0.000000 0.529824
O O12 0.457935 0.500000 0.703147
O O13 0.562180 0.245760 0.776040
O O14 0.359487 0.254550 0.675320
O O15 0.315316 0.224929 0.237418
O O16 0.266444 0.260420 0.315656
O O17 0.243926 0.000000 0.251879
O O18 0.172703 0.500000 0.823607
O O19 0.263170 0.000000 0.639959
#
# Coordination Sequence:
#
# PCOD9197085 Si02
#       7
#     8   8   8   8   8   8   8
#     4  10  20  41  65  84 112 153 193 234 286 338
#     4  12  26  42  62  88 118 151 191 238 285 337
#     4   8  16  32  54  81 113 149 188 232 284 337
#     4  10  20  36  59  86 116 151 191 237 290 342
#     4  10  22  39  60  83 114 153 192 236 287 340
#     4  11  23  42  61  83 116 153 192 235 288 342
#     4  10  20  35  58  87 117 150 192 239 282 338
#
# _framework density 19.664684999999999
#
# number of rings (size 3 to 8) (size 9 to 14) (size 15 to 20)
#    0.000    1.857    1.429    2.571    2.000    3.143 
#    0.000    0.714    0.000    4.286    0.000    0.000 
#    0.000    0.000    0.000    0.000    0.000    0.000 
#
# Total GULP energy -156305.929336 kJ/mol
# GULP energy per Si atom -5582.354619 kJ/mol
# Density = 1.961993 g / cm^3
# Si number density = 19.664685 Si / 1000 Ang^3
#
#
#
# Elastic Constant Matrix: (Units=GPa)
#
#
# Indices 1 2 3 4 5 6 
#
# 1 64.7612 14.3765 -8.5622 0.0000 -10.2323 0.0000
# 2 14.3765 29.2030 1.4091 0.0000 -4.5307 0.0000
# 3 -8.5622 1.4091 29.0846 0.0000 -12.3530 0.0000
# 4 0.0000 0.0000 0.0000 26.1628 0.0000 -6.3112
# 5 -10.2323 -4.5307 -12.3530 0.0000 38.6207 0.0000
# 6 0.0000 0.0000 0.0000 -6.3112 0.0000 25.3771
#
#
#
# Elastic Compliance Matrix: (Units=1/GPa)
#
#
# Indices 1 2 3 4 5 6 
#
# 1 0.019826 -0.009098 0.009321 0.000000 0.007167 0.000000
# 2 -0.009098 0.039053 -0.004222 0.000000 0.000821 0.000000
# 3 0.009321 -0.004222 0.044170 0.000000 0.016102 0.000000
# 4 0.000000 0.000000 0.000000 0.040662 0.000000 0.010112
# 5 0.007167 0.000821 0.016102 0.000000 0.033038 0.000000
# 6 0.000000 0.000000 0.000000 0.010112 0.000000 0.041921
#
#
# Mechanical properties :
#
#
# Convention : Reuss Voigt Hill
#
# Bulk Modulus (GPa) = 10.52062 15.27729 12.89895
# Shear Modulus (GPa) = 19.35354 25.75381 22.55367
#
# Velocity S-wave (km/s) = 3.14056 3.62283 3.39028
# Velocity P-wave (km/s) = 4.30261 5.02848 4.67964
#
# Compressibility (1/GPa) = 0.09505146
#
# Stress axis : x y z
#
# Youngs Moduli (GPa) = 50.43927 25.60621 22.63974
#
# Poissons Ratio (x) = 0.23297 -0.21103
# Poissons Ratio (y) = 0.45890 0.09558
# Poissons Ratio (z) = -0.47016 0.10811
#
# Static dielectric constant tensor:
#      x y z
#    x 1.655080 0.000000 0.001240 
#    y 0.000000 1.661620 0.000000 
#    z 0.001240 0.000000 1.496250 
# 
# From -- ./inp_files/342541.got.cif
#   From: 2010.05.17/outbox.cif.g08.bks.cpg/sg12_172_cif.got.tgz:342541.got - 2010.06.03 13:09:07.
