data_PCOD9197782
_publ_section_title
;
Structure prediction by ZEFSAII (Michael W. Deem and Ramdas Pophale) SiO2 
 PCOD9197782
Probable space group: C 2/M
;
_chemical_formula_sum "Si O2"
_cell_formula_units_Z 48
_cell_length_a 18.635502
_cell_length_b 16.808758
_cell_length_c 10.428567
_cell_angle_alpha 90.000000
_cell_angle_beta 143.540577
_cell_angle_gamma 90.000000
_cell_volume 1941.212106
_symmetry_space_group_name_H-M "C 2/M"
_symmetry_group_IT_number 12
_symmetry_cell_setting 'monoclinic'
loop_
_space_group_symop_operation_xyz
x,y,z
-x,y,-z
-x,-y,-z
x,-y,z
1/2+x,1/2+y,z
1/2-x,1/2+y,-z
1/2-x,1/2-y,-z
1/2+x,1/2-y,z
loop_
_atom_site_type_symbol
_atom_site_label
_atom_site_fract_x
_atom_site_fract_y
_atom_site_fract_z
Si Si1 0.331313 0.000000 0.721784
Si Si2 0.254544 0.210207 0.364052
Si Si3 0.500000 0.273606 0.000000
Si Si4 0.620851 0.094171 0.742958
Si Si5 0.849584 0.129087 0.411208
Si Si6 0.973887 0.368868 0.768200
Si Si7 0.885279 0.093390 0.163848
O O1 0.238864 0.930214 0.642003
O O2 0.421392 0.932463 0.789192
O O3 0.250000 0.250000 0.500000
O O4 0.120865 0.176946 0.158868
O O5 0.291280 0.283556 0.327972
O O6 0.358135 0.145901 0.511391
O O7 0.500464 0.212474 0.880784
O O8 0.500000 0.127490 0.500000
O O9 0.584977 0.102688 0.842089
O O10 0.626461 0.000000 0.720036
O O11 0.757952 0.125749 0.923323
O O12 0.867090 0.099859 0.291385
O O13 0.983150 0.132307 0.668999
O O14 0.896138 0.000000 0.145653
#
# Coordination Sequence:
#
# PCOD9197782 Si02
#       7
#     4   8   4   8   8   8   8
#     4  12  20  34  67  97 124 149 201 269 319 365
#     4  10  21  38  56  85 129 160 188 246 315 374
#     4  10  20  37  62  89 122 158 188 252 330 357
#     4  10  22  41  58  81 123 167 209 249 300 364
#     4  11  19  37  61  97 128 152 202 258 322 373
#     4  11  23  39  62  93 121 158 207 261 309 365
#     4  10  20  35  64  92 123 162 197 262 315 364
#
# _framework density 24.726818999999999
#
# number of rings (size 3 to 8) (size 9 to 14) (size 15 to 20)
#    0.000    1.500    5.833    1.500    0.000    0.333 
#    9.000    0.833    0.000    1.500    0.000    0.000 
#    0.000    0.000    0.000    0.000    0.000    0.000 
#
# Total GULP energy -133664.294662 kJ/mol
# GULP energy per Si atom -5569.345611 kJ/mol
# Density = 2.467054 g / cm^3
# Si number density = 24.726819 Si / 1000 Ang^3
#
#
#
# Elastic Constant Matrix: (Units=GPa)
#
#
# Indices 1 2 3 4 5 6 
#
# 1 102.1471 9.1582 21.1604 0.0000 25.9522 0.0000
# 2 9.1582 61.1010 12.7165 0.0000 11.8682 0.0000
# 3 21.1604 12.7165 144.5018 0.0000 23.9576 0.0000
# 4 0.0000 0.0000 0.0000 30.7673 0.0000 4.5981
# 5 25.9522 11.8682 23.9576 0.0000 27.4252 0.0000
# 6 0.0000 0.0000 0.0000 4.5981 0.0000 23.5293
#
#
#
# Elastic Compliance Matrix: (Units=1/GPa)
#
#
# Indices 1 2 3 4 5 6 
#
# 1 0.012904 0.000472 0.000149 0.000000 -0.012545 0.000000
# 2 0.000472 0.017900 -0.000334 0.000000 -0.007900 0.000000
# 3 0.000149 -0.000334 0.008101 0.000000 -0.007072 0.000000
# 4 0.000000 0.000000 0.000000 0.033480 0.000000 -0.006543
# 5 -0.012545 -0.007900 -0.007072 0.000000 0.057931 0.000000
# 6 0.000000 0.000000 0.000000 -0.006543 0.000000 0.043779
#
#
# Mechanical properties :
#
#
# Convention : Reuss Voigt Hill
#
# Bulk Modulus (GPa) = 25.33177 43.75779 34.54478
# Shear Modulus (GPa) = 26.78371 33.99202 30.38787
#
# Velocity S-wave (km/s) = 3.29475 3.71172 3.50943
# Velocity P-wave (km/s) = 4.97400 6.00867 5.51565
#
# Compressibility (1/GPa) = 0.03947612
#
# Stress axis : x y z
#
# Youngs Moduli (GPa) = 77.49572 55.86653 123.44860
#
# Poissons Ratio (x) = -0.02635 -0.01836
# Poissons Ratio (y) = -0.03655 0.04129
# Poissons Ratio (z) = -0.01153 0.01869
#
# Static dielectric constant tensor:
#      x y z
#    x 1.954510 0.000000 -0.147600 
#    y 0.000000 1.868030 0.000000 
#    z -0.147600 0.000000 2.184450 
# 
# From -- ./inp_files/169745.got.cif
#   From: 2010.05.17/outbox.cif.g08.bks.cpg/sg12_85_cif.got.tgz:169745.got - 2010.06.03 13:09:07.
