data_PCOD9197362
_publ_section_title
;
Structure prediction by ZEFSAII (Michael W. Deem and Ramdas Pophale) SiO2 
 PCOD9197362
Probable space group: C 2/M
;
_chemical_formula_sum "Si O2"
_cell_formula_units_Z 64
_cell_length_a 30.146266
_cell_length_b 8.620209
_cell_length_c 17.313140
_cell_angle_alpha 90.000000
_cell_angle_beta 139.338056
_cell_angle_gamma 90.000000
_cell_volume 2931.599980
_symmetry_space_group_name_H-M "C 2/M"
_symmetry_group_IT_number 12
_symmetry_cell_setting 'monoclinic'
loop_
_space_group_symop_operation_xyz
x,y,z
-x,y,-z
-x,-y,-z
x,-y,z
1/2+x,1/2+y,z
1/2-x,1/2+y,-z
1/2-x,1/2-y,-z
1/2+x,1/2-y,z
loop_
_atom_site_type_symbol
_atom_site_label
_atom_site_fract_x
_atom_site_fract_y
_atom_site_fract_z
Si Si1 0.172471 0.185468 0.723599
Si Si2 0.212640 0.312510 0.526585
Si Si3 0.290066 0.315006 0.785210
Si Si4 0.825625 0.316152 0.108007
Si Si5 0.037707 0.188329 0.470666
Si Si6 0.455314 0.314834 0.210796
Si Si7 0.421396 0.814329 0.891536
Si Si8 0.926138 0.685595 0.722266
O O1 0.247011 0.240032 0.797070
O O2 0.151401 0.257812 0.777205
O O3 0.116230 0.235071 0.585899
O O4 0.170731 0.000000 0.728522
O O5 0.213688 0.500000 0.525662
O O6 0.250000 0.250000 0.500000
O O7 0.250985 0.263369 0.654894
O O8 0.133793 0.262540 0.414649
O O9 0.286139 0.500000 0.786586
O O10 0.367847 0.263881 0.877796
O O11 0.823510 0.500000 0.101896
O O12 0.880072 0.253547 0.118407
O O13 0.750000 0.250000 0.000000
O O14 0.000000 0.234215 0.500000
O O15 0.998113 0.242941 0.342691
O O16 0.036151 0.000000 0.465390
O O17 0.450413 0.500000 0.206560
O O18 0.501989 0.262515 0.201590
O O19 0.401572 0.780083 0.776581
O O20 0.418746 0.000000 0.900090
O O21 0.500000 0.765520 0.000000
O O22 0.934609 0.500000 0.727850
#
# Coordination Sequence:
#
# PCOD9197362 Si02
#       8
#     8   8   8   8   8   8   8   8
#     4  11  22  40  66  93 125 165 205 247 302 367
#     4  10  20  35  59  88 122 160 201 251 309 370
#     4  11  23  38  59  91 126 158 200 252 307 366
#     4  12  26  45  66  90 122 161 207 258 308 359
#     4   9  17  34  61  91 123 157 199 244 295 362
#     4  11  22  39  64  93 124 161 204 249 304 368
#     4  10  22  41  63  84 112 157 209 254 303 363
#     4  10  21  38  59  87 122 156 199 255 309 365
#
# _framework density 21.831083
#
# number of rings (size 3 to 8) (size 9 to 14) (size 15 to 20)
#    0.000    1.500    2.500    3.000    0.000    2.750 
#    0.000    6.250    0.000    0.000    0.000    0.000 
#    0.000    0.000    0.000    0.000    0.000    0.000 
#
# Total GULP energy -178940.401067 kJ/mol
# GULP energy per Si atom -5591.887533 kJ/mol
# Density = 2.178139 g / cm^3
# Si number density = 21.831083 Si / 1000 Ang^3
#
#
#
# Elastic Constant Matrix: (Units=GPa)
#
#
# Indices 1 2 3 4 5 6 
#
# 1 108.4082 29.1522 2.6412 0.0000 39.7161 0.0000
# 2 29.1522 47.9965 10.3858 0.0000 13.0865 0.0000
# 3 2.6412 10.3858 59.9184 0.0000 28.9839 0.0000
# 4 0.0000 0.0000 0.0000 21.4548 0.0000 5.2190
# 5 39.7161 13.0865 28.9839 0.0000 39.0556 0.0000
# 6 0.0000 0.0000 0.0000 5.2190 0.0000 33.9007
#
#
#
# Elastic Compliance Matrix: (Units=1/GPa)
#
#
# Indices 1 2 3 4 5 6 
#
# 1 0.023165 -0.008668 0.016335 0.000000 -0.032775 0.000000
# 2 -0.008668 0.026180 -0.006515 0.000000 0.004878 0.000000
# 3 0.016335 -0.006515 0.037562 0.000000 -0.042304 0.000000
# 4 0.000000 0.000000 0.000000 0.048423 0.000000 -0.007455
# 5 -0.032775 0.004878 -0.042304 0.000000 0.088694 0.000000
# 6 0.000000 0.000000 0.000000 -0.007455 0.000000 0.030646
#
#
# Mechanical properties :
#
#
# Convention : Reuss Voigt Hill
#
# Bulk Modulus (GPa) = 11.20954 33.40905 22.30930
# Shear Modulus (GPa) = 17.72411 30.49181 24.10796
#
# Velocity S-wave (km/s) = 2.85243 3.74132 3.32670
# Velocity P-wave (km/s) = 3.99929 5.83095 4.99971
#
# Compressibility (1/GPa) = 0.08920973
#
# Stress axis : x y z
#
# Youngs Moduli (GPa) = 43.16930 38.19765 26.62262
#
# Poissons Ratio (x) = 0.33111 -0.43489
# Poissons Ratio (y) = 0.37420 0.17345
# Poissons Ratio (z) = -0.70518 0.24887
#
# Static dielectric constant tensor:
#      x y z
#    x 1.535550 0.000000 0.057150 
#    y 0.000000 1.728770 0.000000 
#    z 0.057150 0.000000 1.842790 
# 
# From -- ./inp_files/295779.got.cif
#   From: 2010.05.17/outbox.cif.g08.bks.cpg/sg12_148_cif.got.tgz:295779.got - 2010.06.03 13:09:07.
