data_PCOD9197404
_publ_section_title
;
Structure prediction by ZEFSAII (Michael W. Deem and Ramdas Pophale) SiO2 
 PCOD9197404
Probable space group: C 2/M
;
_chemical_formula_sum "Si O2"
_cell_formula_units_Z 48
_cell_length_a 8.655020
_cell_length_b 29.436362
_cell_length_c 17.219371
_cell_angle_alpha 90.000000
_cell_angle_beta 145.791268
_cell_angle_gamma 90.000000
_cell_volume 2466.423288
_symmetry_space_group_name_H-M "C 2/M"
_symmetry_group_IT_number 12
_symmetry_cell_setting 'monoclinic'
loop_
_space_group_symop_operation_xyz
x,y,z
-x,y,-z
-x,-y,-z
x,-y,z
1/2+x,1/2+y,z
1/2-x,1/2+y,-z
1/2-x,1/2-y,-z
1/2+x,1/2-y,z
loop_
_atom_site_type_symbol
_atom_site_label
_atom_site_fract_x
_atom_site_fract_y
_atom_site_fract_z
Si Si1 0.143982 0.816435 0.241638
Si Si2 0.208860 0.746913 0.838584
Si Si3 0.924590 0.500000 0.126020
Si Si4 0.190831 0.000000 0.199383
Si Si5 0.767968 0.412364 0.341954
Si Si6 0.735671 0.841812 0.943488
Si Si7 0.655517 0.088960 0.147715
O O1 0.263303 0.779407 0.231012
O O2 0.322334 0.861186 0.331645
O O3 0.011454 0.787038 0.255482
O O4 0.879456 0.835079 0.085549
O O5 0.134564 0.705750 0.866655
O O6 0.500000 0.761959 0.000000
O O7 0.869719 0.500000 0.195125
O O8 0.090309 0.542741 0.164555
O O9 0.626290 0.500000 0.960210
O O10 0.241584 0.953564 0.269177
O O11 0.475199 0.406656 0.262720
O O12 0.000000 0.424502 0.500000
O O13 0.481998 0.874005 0.853184
O O14 0.000000 0.857343 0.000000
O O15 0.500000 0.088650 0.000000
#
# Coordination Sequence:
#
# PCOD9197404 Si02
#       7
#     8   8   4   4   8   8   8
#     4  10  20  35  59  89 126 166 215 256 323 376
#     4   9  19  31  58  93 131 156 212 269 333 363
#     4  11  24  38  72 108 118 155 210 282 326 376
#     4  11  24  45  72  93 139 157 204 272 335 369
#     4  12  27  45  64  92 135 180 213 254 318 392
#     4   9  19  33  59  95 128 158 205 277 330 367
#     4  12  22  37  67  96 128 160 222 260 320 372
#
# _framework density 19.461379999999998
#
# number of rings (size 3 to 8) (size 9 to 14) (size 15 to 20)
#    0.000    1.833    3.333    3.000   11.667    0.000 
#    0.000    2.500    0.000    0.000    0.000    0.000 
#    0.000    0.000    0.000    0.000    0.000    0.000 
#
# Total GULP energy -133803.355584 kJ/mol
# GULP energy per Si atom -5575.139816 kJ/mol
# Density = 1.941708 g / cm^3
# Si number density = 19.461380 Si / 1000 Ang^3
#
#
#
# Elastic Constant Matrix: (Units=GPa)
#
#
# Indices 1 2 3 4 5 6 
#
# 1 87.3131 55.3860 29.3250 0.0000 0.6507 0.0000
# 2 55.3860 83.0123 20.0610 0.0000 -7.3060 0.0001
# 3 29.3250 20.0610 56.5957 0.0000 0.8219 0.0002
# 4 0.0000 0.0000 0.0000 1.8493 0.0000 63.6990
# 5 0.6507 -7.3060 0.8219 0.0000 14.7120 0.0001
# 6 0.0000 0.0001 0.0002 63.6990 0.0001 -627.9210
#
#
#
# Elastic Compliance Matrix: (Units=1/GPa)
#
#
# Indices 1 2 3 4 5 6 
#
# 1 0.022807 -0.014294 -0.006639 0.000000 -0.007736 0.000000
# 2 -0.014294 0.022852 -0.000868 0.000000 0.012029 0.000000
# 3 -0.006639 -0.000868 0.021436 0.000000 -0.001335 0.000000
# 4 0.000000 0.000000 0.000000 0.120319 0.000000 0.012206
# 5 -0.007736 0.012029 -0.001335 0.000000 0.074362 0.000000
# 6 0.000000 0.000000 0.000000 0.012206 0.000000 -0.000354
#
#
# Mechanical properties :
#
#
# Convention : Reuss Voigt Hill
#
# Bulk Modulus (GPa) = 42.56474 48.49611 45.53042
# Shear Modulus (GPa) = 15.98183 -114.12865 -49.07341
#
# Velocity S-wave (km/s) = 2.86878 -7.66622 -5.02698
# Velocity P-wave (km/s) = 5.73516 7.30671 3.20125
#
# Compressibility (1/GPa) = 0.02349363
#
# Stress axis : x y z
#
# Youngs Moduli (GPa) = 43.84542 43.76035 46.64991
#
# Poissons Ratio (x) = 0.62550 0.30970
# Poissons Ratio (y) = 0.62671 0.04051
# Poissons Ratio (z) = 0.29108 0.03801
#
# Static dielectric constant tensor:
#      x y z
#    x 1.731490 0.000000 0.000090 
#    y 0.000000 1.750780 0.000000 
#    z 0.000090 0.000000 1.642560 
# 
# From -- ./inp_files/260474.got.cif
#   From: 2010.05.17/outbox.cif.g08.bks.cpg/sg12_131_cif.got.tgz:260474.got - 2010.06.03 13:09:07.
