data_PCOD9197147
_publ_section_title
;
Structure prediction by ZEFSAII (Michael W. Deem and Ramdas Pophale) SiO2 
 PCOD9197147
Probable space group: C 2/M
;
_chemical_formula_sum "Si O2"
_cell_formula_units_Z 48
_cell_length_a 28.628181
_cell_length_b 13.697264
_cell_length_c 12.961938
_cell_angle_alpha 90.000000
_cell_angle_beta 27.660313
_cell_angle_gamma 90.000000
_cell_volume 2359.551495
_symmetry_space_group_name_H-M "C 2/M"
_symmetry_group_IT_number 12
_symmetry_cell_setting 'monoclinic'
loop_
_space_group_symop_operation_xyz
x,y,z
-x,y,-z
-x,-y,-z
x,-y,z
1/2+x,1/2+y,z
1/2-x,1/2+y,-z
1/2-x,1/2-y,-z
1/2+x,1/2-y,z
loop_
_atom_site_type_symbol
_atom_site_label
_atom_site_fract_x
_atom_site_fract_y
_atom_site_fract_z
Si Si1 0.679086 0.117613 0.483113
Si Si2 0.381134 0.390235 0.729596
Si Si3 0.655017 0.708824 0.984701
Si Si4 0.719252 0.116170 0.627987
Si Si5 0.277306 0.616107 0.726916
Si Si6 0.979096 0.738942 0.927890
O O1 0.747092 0.158511 0.258077
O O2 0.742196 0.140526 0.465033
O O3 0.572957 0.172848 0.706182
O O4 0.665676 0.000000 0.501457
O O5 0.500000 0.396770 0.500000
O O6 0.338652 0.500000 0.824992
O O7 0.350454 0.353486 0.676139
O O8 0.353164 0.328700 0.883864
O O9 0.676278 0.824501 0.948160
O O10 0.562330 0.695216 0.085993
O O11 0.797929 0.139945 0.565652
O O12 0.704091 0.000000 0.660084
O O13 0.614533 0.167521 0.861033
O O14 0.266895 0.500000 0.752071
O O15 0.000000 0.786834 0.000000
#
# Coordination Sequence:
#
# PCOD9197147 Si02
#       6
#     8   8   8   8   8   8
#     4  10  20  35  58  88 120 152 188 234 286 335
#     4  10  22  40  59  78 107 150 194 233 282 345
#     4  11  22  36  60  87 117 145 189 242 289 334
#     4   8  15  31  55  82 114 150 186 225 276 339
#     4   9  19  36  58  81 108 146 188 229 276 337
#     4   9  19  33  53  85 119 154 188 225 278 345
#
# _framework density 20.342849999999999
#
# number of rings (size 3 to 8) (size 9 to 14) (size 15 to 20)
#    0.000    2.500    0.000    1.500    2.333    8.667 
#    0.000    0.000    0.000    1.500    0.000    0.000 
#    0.000    0.000    0.000    0.000    0.000    0.000 
#
# Total GULP energy -133683.198536 kJ/mol
# GULP energy per Si atom -5570.133272 kJ/mol
# Density = 2.029655 g / cm^3
# Si number density = 20.342850 Si / 1000 Ang^3
#
#
#
# Elastic Constant Matrix: (Units=GPa)
#
#
# Indices 1 2 3 4 5 6 
#
# 1 149.3921 8.3179 32.5986 0.0000 5.5851 0.0000
# 2 8.3179 44.0851 17.6486 0.0000 3.7971 0.0000
# 3 32.5986 17.6486 71.8801 0.0000 14.7259 0.0000
# 4 0.0000 0.0000 0.0000 17.3773 0.0000 4.5887
# 5 5.5851 3.7971 14.7259 0.0000 27.0065 0.0000
# 6 0.0000 0.0000 0.0000 4.5887 0.0000 31.5322
#
#
#
# Elastic Compliance Matrix: (Units=1/GPa)
#
#
# Indices 1 2 3 4 5 6 
#
# 1 0.007432 -0.000060 -0.003425 0.000000 0.000339 0.000000
# 2 -0.000060 0.025157 -0.006110 0.000000 -0.000193 0.000000
# 3 -0.003425 -0.006110 0.018738 0.000000 -0.008650 0.000000
# 4 0.000000 0.000000 0.000000 0.059846 0.000000 -0.008709
# 5 0.000339 -0.000193 -0.008650 0.000000 0.041702 0.000000
# 6 0.000000 0.000000 0.000000 -0.008709 0.000000 0.032981
#
#
# Mechanical properties :
#
#
# Convention : Reuss Voigt Hill
#
# Bulk Modulus (GPa) = 31.11759 42.49861 36.80810
# Shear Modulus (GPa) = 23.17407 28.96934 26.07170
#
# Velocity S-wave (km/s) = 3.37883 3.77776 3.58385
# Velocity P-wave (km/s) = 5.52736 6.32180 5.93788
#
# Compressibility (1/GPa) = 0.03213617
#
# Stress axis : x y z
#
# Youngs Moduli (GPa) = 134.55573 39.74971 53.36858
#
# Poissons Ratio (x) = 0.00240 0.18279
# Poissons Ratio (y) = 0.00811 0.32608
# Poissons Ratio (z) = 0.46087 0.24287
#
# Static dielectric constant tensor:
#      x y z
#    x 1.838280 0.000000 0.005090 
#    y 0.000000 1.774520 0.000000 
#    z 0.005090 0.000000 1.687290 
# 
# From -- ./inp_files/183670.got.cif
#   From: 2010.05.17/outbox.cif.g08.bks.cpg/sg12_92_cif.got.tgz:183670.got - 2010.06.03 13:09:07.
