data_PCOD9197529
_publ_section_title
;
Structure prediction by ZEFSAII (Michael W. Deem and Ramdas Pophale) SiO2 
 PCOD9197529
Probable space group: C 2/M
;
_chemical_formula_sum "Si O2"
_cell_formula_units_Z 58
_cell_length_a 26.454557
_cell_length_b 12.427237
_cell_length_c 18.974016
_cell_angle_alpha 90.000000
_cell_angle_beta 26.237613
_cell_angle_gamma 90.000000
_cell_volume 2757.717183
_symmetry_space_group_name_H-M "C 2/M"
_symmetry_group_IT_number 12
_symmetry_cell_setting 'monoclinic'
loop_
_space_group_symop_operation_xyz
x,y,z
-x,y,-z
-x,-y,-z
x,-y,z
1/2+x,1/2+y,z
1/2-x,1/2+y,-z
1/2-x,1/2-y,-z
1/2+x,1/2-y,z
loop_
_atom_site_type_symbol
_atom_site_label
_atom_site_fract_x
_atom_site_fract_y
_atom_site_fract_z
Si Si1 0.500000 0.000000 0.000000
Si Si2 0.741991 0.786176 0.331485
Si Si3 0.444631 0.121422 0.334063
Si Si4 0.086411 0.319119 0.784352
Si Si5 0.234686 0.380242 0.105915
Si Si6 0.094617 0.205514 0.216502
Si Si7 0.913902 0.880078 0.542207
Si Si8 0.415053 0.621587 0.007856
O O1 0.479511 0.906213 0.086169
O O2 0.649644 0.858448 0.487467
O O3 0.796790 0.707306 0.320952
O O4 0.679728 0.712236 0.350749
O O5 0.842750 0.851665 0.168288
O O6 0.395460 0.140932 0.317714
O O7 0.541824 0.209937 0.227076
O O8 0.488867 0.000000 0.283158
O O9 0.011677 0.210330 0.876206
O O10 0.182931 0.500000 0.172950
O O11 0.145372 0.282751 0.214050
O O12 0.323531 0.371993 0.058671
O O13 0.307960 0.363277 0.942803
O O14 0.994659 0.133152 0.372835
O O15 0.000000 0.868371 0.500000
O O16 0.862316 0.000000 0.609947
O O17 0.460498 0.500000 0.953117
#
# Coordination Sequence:
#
# PCOD9197529 Si02
#       8
#     2   8   8   8   8   8   8   8
#     4  12  24  44  70  84 134 156 208 270 304 372
#     4  11  24  40  62  90 124 161 206 253 311 372
#     4  11  23  40  61  87 125 160 205 252 310 370
#     4  12  24  43  63  94 122 165 209 259 313 369
#     4  10  20  35  60  88 119 158 204 251 310 361
#     4  10  20  37  58  86 122 158 203 258 302 372
#     4  10  22  39  60  87 122 162 207 257 314 375
#     4  11  23  41  65  92 127 163 209 258 309 372
#
# _framework density 21.031887999999999
#
# number of rings (size 3 to 8) (size 9 to 14) (size 15 to 20)
#    0.000    1.241    3.448    2.483    0.966    1.655 
#    0.000    0.000    0.000    6.621    0.000    0.000 
#    0.000    0.000    0.000    0.000    0.000    0.000 
#
# Total GULP energy -161790.857522 kJ/mol
# GULP energy per Si atom -5578.995087 kJ/mol
# Density = 2.098402 g / cm^3
# Si number density = 21.031888 Si / 1000 Ang^3
#
#
#
# Elastic Constant Matrix: (Units=GPa)
#
#
# Indices 1 2 3 4 5 6 
#
# 1 87.1554 23.3414 -21.1645 0.0000 5.5813 0.0000
# 2 23.3414 111.1516 3.8369 0.0000 6.7783 0.0000
# 3 -21.1645 3.8369 27.9334 0.0000 7.3438 0.0000
# 4 0.0000 0.0000 0.0000 -10.7641 0.0000 -1.3837
# 5 5.5813 6.7783 7.3438 0.0000 24.8053 0.0000
# 6 0.0000 0.0000 0.0000 -1.3837 0.0000 17.8374
#
#
#
# Elastic Compliance Matrix: (Units=1/GPa)
#
#
# Indices 1 2 3 4 5 6 
#
# 1 0.016486 -0.003539 0.014854 0.000000 -0.007140 0.000000
# 2 -0.003539 0.009920 -0.003840 0.000000 -0.000778 0.000000
# 3 0.014854 -0.003840 0.052252 0.000000 -0.017763 0.000000
# 4 0.000000 0.000000 0.000000 -0.091984 0.000000 -0.007135
# 5 -0.007140 -0.000778 -0.017763 0.000000 0.047392 0.000000
# 6 0.000000 0.000000 0.000000 -0.007135 0.000000 0.055509
#
#
# Mechanical properties :
#
#
# Convention : Reuss Voigt Hill
#
# Bulk Modulus (GPa) = 10.68284 26.47422 18.57853
# Shear Modulus (GPa) = 47.24720 21.05748 34.15234
#
# Velocity S-wave (km/s) = 4.74482 3.16763 4.03406
# Velocity P-wave (km/s) = 5.92521 5.09838 5.52728
#
# Compressibility (1/GPa) = 0.09360805
#
# Stress axis : x y z
#
# Youngs Moduli (GPa) = 60.65724 100.80705 19.13817
#
# Poissons Ratio (x) = 0.35679 -0.28429
# Poissons Ratio (y) = 0.21469 0.07349
# Poissons Ratio (z) = -0.90103 0.38709
#
# Static dielectric constant tensor:
#      x y z
#    x 1.781610 0.000000 -0.005400 
#    y 0.000000 1.725570 0.000000 
#    z -0.005400 0.000000 1.729450 
# 
# From -- ./inp_files/293269.got.cif
#   From: 2010.05.17/outbox.cif.g08.bks.cpg/sg12_147_cif.got.tgz:293269.got - 2010.06.03 13:09:07.
