data_PCOD9197375
_publ_section_title
;
Structure prediction by ZEFSAII (Michael W. Deem and Ramdas Pophale) SiO2 
 PCOD9197375
Probable space group: C 2/M
;
_chemical_formula_sum "Si O2"
_cell_formula_units_Z 64
_cell_length_a 32.549341
_cell_length_b 8.730221
_cell_length_c 18.453471
_cell_angle_alpha 90.000000
_cell_angle_beta 139.071545
_cell_angle_gamma 90.000000
_cell_volume 3435.293022
_symmetry_space_group_name_H-M "C 2/M"
_symmetry_group_IT_number 12
_symmetry_cell_setting 'monoclinic'
loop_
_space_group_symop_operation_xyz
x,y,z
-x,y,-z
-x,-y,-z
x,-y,z
1/2+x,1/2+y,z
1/2-x,1/2+y,-z
1/2-x,1/2-y,-z
1/2+x,1/2-y,z
loop_
_atom_site_type_symbol
_atom_site_label
_atom_site_fract_x
_atom_site_fract_y
_atom_site_fract_z
Si Si1 0.027117 0.683675 0.314282
Si Si2 0.341737 0.184689 0.581080
Si Si3 0.817639 0.182492 0.111404
Si Si4 0.292055 0.316974 0.662478
Si Si5 0.543411 0.316637 0.489815
Si Si6 0.605068 0.183492 0.917079
Si Si7 0.198807 0.683281 0.169573
Si Si8 0.829575 0.317184 0.285123
O O1 0.030013 0.500000 0.329277
O O2 0.093560 0.733509 0.369707
O O3 0.016070 0.761261 0.377068
O O4 0.968917 0.715414 0.183601
O O5 0.330670 0.258271 0.644764
O O6 0.280803 0.224033 0.451544
O O7 0.342603 0.000000 0.590004
O O8 0.864020 0.230469 0.109282
O O9 0.837461 0.254391 0.214211
O O10 0.813815 0.000000 0.113469
O O11 0.750000 0.250000 0.000000
O O12 0.296042 0.500000 0.673127
O O13 0.312582 0.241544 0.764659
O O14 0.500000 0.269865 0.500000
O O15 0.548509 0.500000 0.497541
O O16 0.611962 0.243517 0.590790
O O17 0.613372 0.000000 0.917363
O O18 0.642869 0.225247 0.039833
O O19 0.205204 0.500000 0.177613
O O20 0.263570 0.755573 0.227143
O O21 0.828809 0.500000 0.284425
#
# Coordination Sequence:
#
# PCOD9197375 Si02
#       8
#     8   8   8   8   8   8   8   8
#     4  10  21  39  62  86 115 155 200 242 291 353
#     4   9  19  37  60  86 114 147 188 236 292 354
#     4  12  23  37  57  82 114 153 196 243 291 343
#     4  10  20  35  59  89 118 147 187 238 295 354
#     4  11  24  40  58  85 119 155 195 242 293 347
#     4  10  22  39  59  84 116 156 199 243 292 348
#     4  11  22  37  58  85 118 152 191 240 293 348
#     4  12  24  38  59  85 115 153 196 244 295 349
#
# _framework density 18.630141999999999
#
# number of rings (size 3 to 8) (size 9 to 14) (size 15 to 20)
#    0.000    1.375    1.250    4.875    0.000    6.000 
#    0.000    0.625    0.000    3.750    0.000    0.000 
#    0.000    0.000    0.000    0.000    0.000    0.000 
#
# Total GULP energy -178913.749899 kJ/mol
# GULP energy per Si atom -5591.054684 kJ/mol
# Density = 1.858774 g / cm^3
# Si number density = 18.630142 Si / 1000 Ang^3
#
#
#
# Elastic Constant Matrix: (Units=GPa)
#
#
# Indices 1 2 3 4 5 6 
#
# 1 101.8644 35.0160 52.8316 0.0000 -1.0218 0.0000
# 2 35.0160 55.3775 41.4809 0.0000 -2.9008 0.0000
# 3 52.8316 41.4809 120.7696 0.0000 -9.3522 0.0000
# 4 0.0000 0.0000 0.0000 18.9507 0.0000 -4.7311
# 5 -1.0218 -2.9008 -9.3522 0.0000 32.6771 0.0000
# 6 0.0000 0.0000 0.0000 -4.7311 0.0000 29.5862
#
#
#
# Elastic Compliance Matrix: (Units=1/GPa)
#
#
# Indices 1 2 3 4 5 6 
#
# 1 0.013974 -0.005722 -0.004247 0.000000 -0.001287 0.000000
# 2 -0.005722 0.026658 -0.006631 0.000000 0.000290 0.000000
# 3 -0.004247 -0.006631 0.012640 0.000000 0.002896 0.000000
# 4 0.000000 0.000000 0.000000 0.054963 0.000000 0.008789
# 5 -0.001287 0.000290 0.002896 0.000000 0.031417 0.000000
# 6 0.000000 0.000000 0.000000 0.008789 0.000000 0.035205
#
#
# Mechanical properties :
#
#
# Convention : Reuss Voigt Hill
#
# Bulk Modulus (GPa) = 49.82064 59.62982 54.72523
# Shear Modulus (GPa) = 23.28331 26.15502 24.71916
#
# Velocity S-wave (km/s) = 3.53904 3.75094 3.64653
# Velocity P-wave (km/s) = 6.59543 7.12994 6.86789
#
# Compressibility (1/GPa) = 0.02007200
#
# Stress axis : x y z
#
# Youngs Moduli (GPa) = 71.56268 37.51251 79.11403
#
# Poissons Ratio (x) = 0.21464 0.33602
# Poissons Ratio (y) = 0.40946 0.52458
# Poissons Ratio (z) = 0.30395 0.24874
#
# Static dielectric constant tensor:
#      x y z
#    x 1.619690 0.000000 0.008450 
#    y 0.000000 1.624410 0.000000 
#    z 0.008450 0.000000 1.658530 
# 
# From -- ./inp_files/295679.got.cif
#   From: 2010.05.17/outbox.cif.g08.bks.cpg/sg12_148_cif.got.tgz:295679.got - 2010.06.03 13:09:07.
