data_PCOD9197301
_publ_section_title
;
Structure prediction by ZEFSAII (Michael W. Deem and Ramdas Pophale) SiO2 
 PCOD9197301
Probable space group: C 2/M
;
_chemical_formula_sum "Si O2"
_cell_formula_units_Z 56
_cell_length_a 19.637858
_cell_length_b 8.715098
_cell_length_c 18.794016
_cell_angle_alpha 90.000000
_cell_angle_beta 63.349706
_cell_angle_gamma 90.000000
_cell_volume 2874.797843
_symmetry_space_group_name_H-M "C 2/M"
_symmetry_group_IT_number 12
_symmetry_cell_setting 'monoclinic'
loop_
_space_group_symop_operation_xyz
x,y,z
-x,y,-z
-x,-y,-z
x,-y,z
1/2+x,1/2+y,z
1/2-x,1/2+y,-z
1/2-x,1/2-y,-z
1/2+x,1/2-y,z
loop_
_atom_site_type_symbol
_atom_site_label
_atom_site_fract_x
_atom_site_fract_y
_atom_site_fract_z
Si Si1 0.834506 0.184681 0.971727
Si Si2 0.188974 0.814368 0.863109
Si Si3 0.011126 0.318568 0.690057
Si Si4 0.131069 0.816083 0.737155
Si Si5 0.858428 0.816034 0.805163
Si Si6 0.568776 0.683293 0.519163
Si Si7 0.260117 0.683345 0.574488
O O1 0.854079 0.231187 0.043294
O O2 0.832513 0.000000 0.971991
O O3 0.750000 0.250000 0.000000
O O4 0.876479 0.230101 0.879286
O O5 0.146546 0.767602 0.811086
O O6 0.274790 0.747616 0.825333
O O7 0.195225 0.000000 0.859613
O O8 0.006989 0.500000 0.695715
O O9 0.055931 0.253106 0.736941
O O10 0.058428 0.267204 0.598783
O O11 0.926581 0.248833 0.726187
O O12 0.201944 0.760883 0.655920
O O13 0.125990 0.000000 0.736833
O O14 0.856702 0.000000 0.800989
O O15 0.500000 0.728281 0.500000
O O16 0.563834 0.500000 0.534620
O O17 0.651664 0.712956 0.447409
O O18 0.247175 0.500000 0.579681
O O19 0.250000 0.750000 0.500000
#
# Coordination Sequence:
#
# PCOD9197301 Si02
#       7
#     8   8   8   8   8   8   8
#     4   8  15  31  55  83 113 147 185 228 277 332
#     4   9  19  36  59  88 117 146 189 236 278 331
#     4  12  25  40  58  82 115 152 191 236 284 336
#     4  11  23  39  59  83 116 153 190 235 283 336
#     4  10  20  35  59  86 116 152 188 230 285 339
#     4  10  23  42  62  85 113 147 186 232 281 334
#     4  11  22  38  61  85 113 149 188 231 278 333
#
# _framework density 19.479631000000001
#
# number of rings (size 3 to 8) (size 9 to 14) (size 15 to 20)
#    0.000    1.857    1.429    2.571    2.000    2.571 
#    0.000    0.714    0.000    4.286    0.000    0.000 
#    0.000    0.000    0.000    0.000    0.000    0.000 
#
# Total GULP energy -156282.392325 kJ/mol
# GULP energy per Si atom -5581.514012 kJ/mol
# Density = 1.943529 g / cm^3
# Si number density = 19.479631 Si / 1000 Ang^3
#
#
#
# Elastic Constant Matrix: (Units=GPa)
#
#
# Indices 1 2 3 4 5 6 
#
# 1 68.2578 17.3377 -7.1136 0.0000 14.4942 -0.0001
# 2 17.3377 30.2520 4.3973 0.0000 5.6092 -0.0002
# 3 -7.1136 4.3973 31.1928 0.0000 14.1795 0.0000
# 4 0.0000 0.0000 0.0000 19.3416 0.0000 -1.4879
# 5 14.4942 5.6092 14.1795 0.0000 37.3715 0.0000
# 6 -0.0001 -0.0002 0.0000 -1.4879 0.0000 23.4677
#
#
#
# Elastic Compliance Matrix: (Units=1/GPa)
#
#
# Indices 1 2 3 4 5 6 
#
# 1 0.021093 -0.011749 0.011339 0.000000 -0.010720 0.000000
# 2 -0.011749 0.040779 -0.009326 0.000000 0.001975 0.000000
# 3 0.011339 -0.009326 0.045101 0.000000 -0.020110 0.000000
# 4 0.000000 0.000000 0.000000 0.051955 0.000000 0.003294
# 5 -0.010720 0.001975 -0.020110 0.000000 0.038250 0.000000
# 6 0.000000 0.000000 0.000000 0.003294 0.000000 0.042821
#
#
# Mechanical properties :
#
#
# Convention : Reuss Voigt Hill
#
# Bulk Modulus (GPa) = 11.42835 17.66060 14.54447
# Shear Modulus (GPa) = 17.32287 23.70825 20.51556
#
# Velocity S-wave (km/s) = 2.98532 3.49245 3.24879
# Velocity P-wave (km/s) = 4.21454 5.03476 4.64280
#
# Compressibility (1/GPa) = 0.08750173
#
# Stress axis : x y z
#
# Youngs Moduli (GPa) = 47.40995 24.52266 22.17242
#
# Poissons Ratio (x) = 0.28812 -0.25142
# Poissons Ratio (y) = 0.55702 0.20677
# Poissons Ratio (z) = -0.53760 0.22869
#
# Static dielectric constant tensor:
#      x y z
#    x 1.664510 0.000000 0.027880 
#    y 0.000000 1.656880 0.000000 
#    z 0.027880 0.000000 1.699400 
# 
# From -- ./inp_files/275131.got.cif
#   From: 2010.05.17/outbox.cif.g08.bks.cpg/sg12_138_cif.got.tgz:275131.got - 2010.06.03 13:09:07.
