data_PCOD9197887
_publ_section_title
;
Structure prediction by ZEFSAII (Michael W. Deem and Ramdas Pophale) SiO2 
 PCOD9197887
Probable space group: C 2/M
;
_chemical_formula_sum "Si O2"
_cell_formula_units_Z 64
_cell_length_a 24.996056
_cell_length_b 18.174466
_cell_length_c 11.549013
_cell_angle_alpha 90.000000
_cell_angle_beta 34.499032
_cell_angle_gamma 90.000000
_cell_volume 2971.634347
_symmetry_space_group_name_H-M "C 2/M"
_symmetry_group_IT_number 12
_symmetry_cell_setting 'monoclinic'
loop_
_space_group_symop_operation_xyz
x,y,z
-x,y,-z
-x,-y,-z
x,-y,z
1/2+x,1/2+y,z
1/2-x,1/2+y,-z
1/2-x,1/2-y,-z
1/2+x,1/2-y,z
loop_
_atom_site_type_symbol
_atom_site_label
_atom_site_fract_x
_atom_site_fract_y
_atom_site_fract_z
Si Si1 0.404960 0.117758 0.110010
Si Si2 0.138323 0.232202 0.707420
Si Si3 0.929559 0.241459 0.431132
Si Si4 0.752503 0.916100 0.008741
Si Si5 0.908963 0.347097 0.850828
Si Si6 0.266859 0.276578 0.101176
Si Si7 0.806570 0.080762 0.443629
Si Si8 0.400777 0.416790 0.531053
O O1 0.401330 0.205943 0.138160
O O2 0.306773 0.090145 0.340657
O O3 0.500000 0.089588 0.000000
O O4 0.411081 0.103926 0.962254
O O5 0.250000 0.250000 0.500000
O O6 0.083522 0.241836 0.683729
O O7 0.143027 0.144799 0.719786
O O8 0.824609 0.255554 0.664555
O O9 0.959827 0.159787 0.422205
O O10 0.992433 0.310289 0.359297
O O11 0.651830 0.888178 0.137870
O O12 0.782226 0.862812 0.059922
O O13 0.746807 0.000000 0.054297
O O14 0.826919 0.910382 0.769176
O O15 0.851922 0.273399 0.989031
O O16 0.250000 0.250000 0.000000
O O17 0.844872 0.085997 0.508144
O O18 0.828079 0.000000 0.360206
O O19 0.444023 0.500000 0.461989
#
# Coordination Sequence:
#
# PCOD9197887 Si02
#       8
#     8   8   8   8   8   8   8   8
#     4  11  19  32  51  83 113 142 183 230 277 323
#     4   9  18  31  53  75 109 148 186 232 271 326
#     4  11  19  34  55  83 115 147 189 236 279 337
#     4  10  20  38  60  82 110 149 186 230 289 341
#     4  11  21  35  59  85 113 150 191 237 281 336
#     4  10  20  36  54  81 109 146 190 231 284 338
#     4   9  17  30  51  75 104 144 183 225 276 321
#     4   9  16  31  54  78 106 137 180 233 280 319
#
# _framework density 21.53697
#
# number of rings (size 3 to 8) (size 9 to 14) (size 15 to 20)
#    0.000    2.000    5.000    1.500    0.000    2.250 
#    0.000    1.875    0.000    9.375    0.000    0.000 
#    0.000    0.000    0.000    0.000    0.000    0.000 
#
# Total GULP energy -178451.526497 kJ/mol
# GULP energy per Si atom -5576.610203 kJ/mol
# Density = 2.148795 g / cm^3
# Si number density = 21.536970 Si / 1000 Ang^3
#
#
#
# Elastic Constant Matrix: (Units=GPa)
#
#
# Indices 1 2 3 4 5 6 
#
# 1 40.0109 -2.8533 -17.7453 0.0000 -0.1759 0.0000
# 2 -2.8533 128.6762 -22.8124 0.0000 9.1403 0.0000
# 3 -17.7453 -22.8124 49.0613 0.0000 3.6377 0.0000
# 4 0.0000 0.0000 0.0000 26.2656 0.0000 0.0523
# 5 -0.1759 9.1403 3.6377 0.0000 14.5677 0.0000
# 6 0.0000 0.0000 0.0000 0.0523 0.0000 19.7159
#
#
#
# Elastic Compliance Matrix: (Units=1/GPa)
#
#
# Indices 1 2 3 4 5 6 
#
# 1 0.031058 0.003383 0.013180 0.000000 -0.005039 0.000000
# 2 0.003383 0.009471 0.006179 0.000000 -0.007445 0.000000
# 3 0.013180 0.006179 0.028833 0.000000 -0.010918 0.000000
# 4 0.000000 0.000000 0.000000 0.038073 0.000000 -0.000101
# 5 -0.005039 -0.007445 -0.010918 0.000000 0.075981 0.000000
# 6 0.000000 0.000000 0.000000 -0.000101 0.000000 0.050721
#
#
# Mechanical properties :
#
#
# Convention : Reuss Voigt Hill
#
# Bulk Modulus (GPa) = 8.70718 14.54737 11.62728
# Shear Modulus (GPa) = 22.03297 29.52048 25.77673
#
# Velocity S-wave (km/s) = 3.20195 3.70630 3.46332
# Velocity P-wave (km/s) = 4.20971 5.00847 4.62636
#
# Compressibility (1/GPa) = 0.11484769
#
# Stress axis : x y z
#
# Youngs Moduli (GPa) = 32.19787 105.58770 34.68277
#
# Poissons Ratio (x) = -0.35724 -0.45713
# Poissons Ratio (y) = -0.10894 -0.21432
# Poissons Ratio (z) = -0.42438 -0.65247
#
# Static dielectric constant tensor:
#      x y z
#    x 1.773230 0.000000 -0.024530 
#    y 0.000000 1.870020 0.000000 
#    z -0.024530 0.000000 1.758360 
# 
# From -- ./inp_files/251643.got.cif
#   From: 2010.05.17/outbox.cif.g08.bks.cpg/sg12_126_cif.got.tgz:251643.got - 2010.06.03 13:09:07.
