data_PCOD9197521
_publ_section_title
;
Structure prediction by ZEFSAII (Michael W. Deem and Ramdas Pophale) SiO2 
 PCOD9197521
Probable space group: C 2/M
;
_chemical_formula_sum "Si O2"
_cell_formula_units_Z 64
_cell_length_a 29.546297
_cell_length_b 7.506713
_cell_length_c 12.765752
_cell_angle_alpha 90.000000
_cell_angle_beta 92.376676
_cell_angle_gamma 90.000000
_cell_volume 2828.951688
_symmetry_space_group_name_H-M "C 2/M"
_symmetry_group_IT_number 12
_symmetry_cell_setting 'monoclinic'
loop_
_space_group_symop_operation_xyz
x,y,z
-x,y,-z
-x,-y,-z
x,-y,z
1/2+x,1/2+y,z
1/2-x,1/2+y,-z
1/2-x,1/2-y,-z
1/2+x,1/2-y,z
loop_
_atom_site_type_symbol
_atom_site_label
_atom_site_fract_x
_atom_site_fract_y
_atom_site_fract_z
Si Si1 0.434125 0.799199 0.238314
Si Si2 0.727097 0.210484 0.887929
Si Si3 0.369035 0.295821 0.056569
Si Si4 0.483752 0.216834 0.881796
Si Si5 0.659871 0.716455 0.392312
Si Si6 0.379205 0.292473 0.831238
Si Si7 0.142297 0.292252 0.617565
Si Si8 0.755690 0.283886 0.336424
O O1 0.405934 0.805665 0.127195
O O2 0.481417 0.718657 0.204573
O O3 0.398968 0.715047 0.317833
O O4 0.443870 0.000000 0.276919
O O5 0.677626 0.294329 0.885355
O O6 0.753891 0.262425 0.786261
O O7 0.720364 0.000000 0.879765
O O8 0.750000 0.250000 0.000000
O O9 0.384846 0.500000 0.047585
O O10 0.360574 0.219624 0.939847
O O11 0.433130 0.276491 0.850567
O O12 0.484536 0.000000 0.881753
O O13 0.500000 0.273060 0.000000
O O14 0.659127 0.500000 0.394555
O O15 0.637886 0.779410 0.281128
O O16 0.634309 0.780315 0.493088
O O17 0.712604 0.777359 0.398939
O O18 0.365070 0.500000 0.828229
O O19 0.145249 0.500000 0.650815
O O20 0.193352 0.217885 0.637139
O O21 0.756409 0.500000 0.346460
#
# Coordination Sequence:
#
# PCOD9197521 Si02
#       8
#     8   8   8   8   8   8   8   8
#     4  10  20  37  58  84 115 144 178 231 288 334
#     4  11  21  35  53  78 115 155 189 230 283 338
#     4  11  21  34  55  83 113 148 187 226 277 342
#     4  10  20  35  60  88 112 143 188 234 280 340
#     4  10  21  38  57  80 111 149 191 235 279 324
#     4  10  22  38  56  81 118 154 185 230 288 342
#     4  10  20  37  59  82 110 149 189 229 284 336
#     4   9  18  35  58  79 109 149 186 230 282 329
#
# _framework density 22.623221999999998
#
# number of rings (size 3 to 8) (size 9 to 14) (size 15 to 20)
#    0.000    1.875    2.500    1.875    0.000    4.250 
#    0.000    3.125    0.000    3.750    0.000    0.000 
#    0.000    0.000    0.000    0.000    0.000    0.000 
#
# Total GULP energy -178705.214825 kJ/mol
# GULP energy per Si atom -5584.537963 kJ/mol
# Density = 2.257173 g / cm^3
# Si number density = 22.623222 Si / 1000 Ang^3
#
#
#
# Elastic Constant Matrix: (Units=GPa)
#
#
# Indices 1 2 3 4 5 6 
#
# 1 76.7855 -7.7142 26.8359 0.0000 -25.7700 0.0000
# 2 -7.7142 65.5543 -1.8909 0.0000 -4.0106 0.0000
# 3 26.8359 -1.8909 127.3933 0.0000 -25.4939 0.0000
# 4 0.0000 0.0000 0.0000 17.9049 0.0000 5.1266
# 5 -25.7700 -4.0106 -25.4939 0.0000 40.9852 0.0000
# 6 0.0000 0.0000 0.0000 5.1266 0.0000 7.8991
#
#
#
# Elastic Compliance Matrix: (Units=1/GPa)
#
#
# Indices 1 2 3 4 5 6 
#
# 1 0.017225 0.002600 -0.001567 0.000000 0.010111 0.000000
# 2 0.002600 0.015780 0.000369 0.000000 0.003408 0.000000
# 3 -0.001567 0.000369 0.009132 0.000000 0.004731 0.000000
# 4 0.000000 0.000000 0.000000 0.068598 0.000000 -0.044521
# 5 0.010111 0.003408 0.004731 0.000000 0.034033 0.000000
# 6 0.000000 0.000000 0.000000 -0.044521 0.000000 0.155492
#
#
# Mechanical properties :
#
#
# Convention : Reuss Voigt Hill
#
# Bulk Modulus (GPa) = 22.25112 33.79941 28.02526
# Shear Modulus (GPa) = 16.00326 30.19132 23.09729
#
# Velocity S-wave (km/s) = 2.66255 3.65708 3.19870
# Velocity P-wave (km/s) = 4.39421 5.72756 5.10461
#
# Compressibility (1/GPa) = 0.04494156
#
# Stress axis : x y z
#
# Youngs Moduli (GPa) = 58.05414 63.37260 109.50448
#
# Poissons Ratio (x) = -0.16479 0.17155
# Poissons Ratio (y) = -0.15096 -0.04035
# Poissons Ratio (z) = 0.09095 -0.02335
#
# Static dielectric constant tensor:
#      x y z
#    x 1.832450 0.000000 -0.013790 
#    y 0.000000 1.849550 0.000000 
#    z -0.013790 0.000000 1.853890 
# 
# From -- ./inp_files/187425.got.cif
#   From: 2010.05.17/outbox.cif.g08.bks.cpg/sg12_94_cif.got.tgz:187425.got - 2010.06.03 13:09:07.
