data_PCOD9197954
_publ_section_title
;
Structure prediction by ZEFSAII (Michael W. Deem and Ramdas Pophale) SiO2 
 PCOD9197954
Probable space group: C 2/M
;
_chemical_formula_sum "Si O2"
_cell_formula_units_Z 64
_cell_length_a 30.494315
_cell_length_b 12.505516
_cell_length_c 19.441878
_cell_angle_alpha 90.000000
_cell_angle_beta 151.104217
_cell_angle_gamma 90.000000
_cell_volume 3582.628431
_symmetry_space_group_name_H-M "C 2/M"
_symmetry_group_IT_number 12
_symmetry_cell_setting 'monoclinic'
loop_
_space_group_symop_operation_xyz
x,y,z
-x,y,-z
-x,-y,-z
x,-y,z
1/2+x,1/2+y,z
1/2-x,1/2+y,-z
1/2-x,1/2-y,-z
1/2+x,1/2-y,z
loop_
_atom_site_type_symbol
_atom_site_label
_atom_site_fract_x
_atom_site_fract_y
_atom_site_fract_z
Si Si1 0.135286 0.300407 0.647591
Si Si2 0.797914 0.373535 0.681183
Si Si3 0.047318 0.378736 0.658456
Si Si4 0.562085 0.126812 0.237817
Si Si5 0.963801 0.745672 0.225069
Si Si6 0.615591 0.625312 0.507349
Si Si7 0.661596 0.375670 0.046568
Si Si8 0.068540 0.755765 0.039140
O O1 0.092890 0.298982 0.665962
O O2 0.139847 0.192115 0.609315
O O3 0.061039 0.370313 0.503642
O O4 0.234345 0.349335 0.793143
O O5 0.817312 0.500000 0.718976
O O6 0.840565 0.349008 0.664590
O O7 0.692732 0.357267 0.554698
O O8 0.851926 0.302519 0.810286
O O9 0.076918 0.500000 0.684825
O O10 0.067918 0.342551 0.763694
O O11 0.532545 0.190966 0.264904
O O12 0.556641 0.000000 0.242596
O O13 0.488458 0.165432 0.080127
O O14 0.021546 0.831110 0.347961
O O15 0.881476 0.801898 0.072190
O O16 0.612000 0.500000 0.517273
O O17 0.651119 0.500000 0.015544
O O18 0.605161 0.341823 0.036367
O O19 0.000000 0.805290 0.000000
#
# Coordination Sequence:
#
# PCOD9197954 Si02
#       8
#     8   8   8   8   8   8   8   8
#     4  10  20  37  59  83 102 133 180 226 266 314
#     4   9  16  29  52  77 103 138 178 221 265 306
#     4  10  20  38  61  82 106 136 175 226 273 308
#     4   9  17  30  50  77 107 140 178 220 265 309
#     4  10  22  35  51  78 112 147 174 211 262 324
#     4  10  20  36  55  78 108 142 178 218 264 315
#     4  11  21  35  54  77 108 144 178 215 264 321
#     4   9  17  30  49  77 107 138 176 223 263 309
#
# _framework density 17.863979
#
# number of rings (size 3 to 8) (size 9 to 14) (size 15 to 20)
#    0.000    2.250    1.250    2.625    0.000    2.750 
#    0.000    6.250    0.000    0.000    0.000    0.000 
#    0.000    0.000    0.000    0.000    0.000    0.000 
#
# Total GULP energy -178292.581888 kJ/mol
# GULP energy per Si atom -5571.643184 kJ/mol
# Density = 1.782332 g / cm^3
# Si number density = 17.863979 Si / 1000 Ang^3
#
#
#
# Elastic Constant Matrix: (Units=GPa)
#
#
# Indices 1 2 3 4 5 6 
#
# 1 84.8076 37.0616 26.8674 0.0000 -10.0106 0.0000
# 2 37.0616 75.6689 20.9301 0.0000 -3.4710 0.0000
# 3 26.8674 20.9301 55.9690 0.0000 0.5999 0.0000
# 4 0.0000 0.0000 0.0000 14.8165 0.0000 1.1473
# 5 -10.0106 -3.4710 0.5999 0.0000 27.5712 0.0000
# 6 0.0000 0.0000 0.0000 1.1473 0.0000 17.7700
#
#
#
# Elastic Compliance Matrix: (Units=1/GPa)
#
#
# Indices 1 2 3 4 5 6 
#
# 1 0.017151 -0.006528 -0.005851 0.000000 0.005533 0.000000
# 2 -0.006528 0.017333 -0.003347 0.000000 -0.000115 0.000000
# 3 -0.005851 -0.003347 0.021960 0.000000 -0.003024 0.000000
# 4 0.000000 0.000000 0.000000 0.067831 0.000000 -0.004379
# 5 0.005533 -0.000115 -0.003024 0.000000 0.038330 0.000000
# 6 0.000000 0.000000 0.000000 -0.004379 0.000000 0.056557
#
#
# Mechanical properties :
#
#
# Convention : Reuss Voigt Hill
#
# Bulk Modulus (GPa) = 40.01339 42.90708 41.46023
# Shear Modulus (GPa) = 19.30905 20.80396 20.05651
#
# Velocity S-wave (km/s) = 3.29126 3.41629 3.35436
# Velocity P-wave (km/s) = 6.07378 6.29542 6.18559
#
# Compressibility (1/GPa) = 0.02499164
#
# Stress axis : x y z
#
# Youngs Moduli (GPa) = 58.30572 57.69227 45.53756
#
# Poissons Ratio (x) = 0.37662 0.26645
# Poissons Ratio (y) = 0.38062 0.15241
# Poissons Ratio (z) = 0.34116 0.19310
#
# Static dielectric constant tensor:
#      x y z
#    x 1.643900 0.000000 0.011620 
#    y 0.000000 1.585650 0.000000 
#    z 0.011620 0.000000 1.597820 
# 
# From -- ./inp_files/296521.got.cif
#   From: 2010.05.17/outbox.cif.g08.bks.cpg/sg12_149_cif.got.tgz:296521.got - 2010.06.03 13:09:07.
