data_PCOD9197016
_publ_section_title
;
Structure prediction by ZEFSAII (Michael W. Deem and Ramdas Pophale) SiO2 
 PCOD9197016
Probable space group: C 2/M
;
_chemical_formula_sum "Si O2"
_cell_formula_units_Z 64
_cell_length_a 22.706673
_cell_length_b 9.096802
_cell_length_c 24.707994
_cell_angle_alpha 90.000000
_cell_angle_beta 44.971138
_cell_angle_gamma 90.000000
_cell_volume 3606.997628
_symmetry_space_group_name_H-M "C 2/M"
_symmetry_group_IT_number 12
_symmetry_cell_setting 'monoclinic'
loop_
_space_group_symop_operation_xyz
x,y,z
-x,y,-z
-x,-y,-z
x,-y,z
1/2+x,1/2+y,z
1/2-x,1/2+y,-z
1/2-x,1/2-y,-z
1/2+x,1/2-y,z
loop_
_atom_site_type_symbol
_atom_site_label
_atom_site_fract_x
_atom_site_fract_y
_atom_site_fract_z
Si Si1 0.997797 0.675524 0.353664
Si Si2 0.837149 0.676061 0.963001
Si Si3 0.394662 0.672650 0.217939
Si Si4 0.692282 0.175944 0.493179
Si Si5 0.463890 0.324422 0.964063
Si Si6 0.262100 0.666965 0.647261
Si Si7 0.059300 0.832612 0.414546
Si Si8 0.015663 0.674756 0.218956
O O1 0.003045 0.500000 0.353126
O O2 0.903042 0.716977 0.430721
O O3 0.054252 0.745683 0.362646
O O4 0.022846 0.718587 0.276745
O O5 0.825917 0.500000 0.978240
O O6 0.884955 0.744807 0.985174
O O7 0.902507 0.697569 0.870891
O O8 0.750000 0.750000 0.000000
O O9 0.377890 0.500000 0.233208
O O10 0.458474 0.696774 0.127234
O O11 0.309946 0.762632 0.269814
O O12 0.441985 0.733307 0.239858
O O13 0.750000 0.250000 0.500000
O O14 0.721174 0.236852 0.416681
O O15 0.698870 0.000000 0.490304
O O16 0.445021 0.500000 0.979293
O O17 0.500000 0.278835 0.000000
O O18 0.239571 0.500000 0.646154
O O19 0.348105 0.663770 0.623433
O O20 0.000000 0.767483 0.500000
O O21 0.029407 0.000000 0.424465
O O22 0.995999 0.500000 0.229511
#
# Coordination Sequence:
#
# PCOD9197016 Si02
#       8
#     8   8   8   8   8   8   8   8
#     4  10  21  36  55  78 104 136 178 224 271 323
#     4  10  20  36  60  87 119 155 192 234 282 342
#     4  10  20  35  58  86 111 142 183 227 277 331
#     4  11  22  34  53  81 108 137 177 224 274 326
#     4   9  19  38  62  87 118 153 189 234 290 349
#     4  11  22  37  55  75 107 146 183 225 272 324
#     4  10  21  38  56  74 102 144 185 222 271 321
#     4   9  19  37  58  82 112 146 180 223 280 331
#
# _framework density 17.743289999999998
#
# number of rings (size 3 to 8) (size 9 to 14) (size 15 to 20)
#    0.000    2.000    1.250    2.250    0.000    4.500 
#    2.250    0.000    0.000    0.000    0.000    0.000 
#    0.000    0.000    0.000    0.000    0.000    0.000 
#
# Total GULP energy -178470.336190 kJ/mol
# GULP energy per Si atom -5577.198006 kJ/mol
# Density = 1.770291 g / cm^3
# Si number density = 17.743290 Si / 1000 Ang^3
#
#
#
# Elastic Constant Matrix: (Units=GPa)
#
#
# Indices 1 2 3 4 5 6 
#
# 1 105.9031 45.2023 38.4959 0.0000 7.5843 0.0001
# 2 45.2023 57.2298 35.4796 -0.0001 -6.2243 0.0002
# 3 38.4959 35.4796 52.9668 0.0001 3.5881 0.0001
# 4 0.0000 -0.0001 0.0001 14.8822 -0.0001 -7.1744
# 5 7.5843 -6.2243 3.5881 -0.0001 35.2208 0.0000
# 6 0.0001 0.0002 0.0001 -7.1744 0.0000 30.6741
#
#
#
# Elastic Compliance Matrix: (Units=1/GPa)
#
#
# Indices 1 2 3 4 5 6 
#
# 1 0.015719 -0.010355 -0.004163 0.000000 -0.004791 0.000000
# 2 -0.010355 0.038734 -0.019167 0.000000 0.011028 0.000000
# 3 -0.004163 -0.019167 0.035156 0.000000 -0.006072 0.000000
# 4 0.000000 0.000000 0.000000 0.075733 0.000000 0.017713
# 5 -0.004791 0.011028 -0.006072 0.000000 0.031991 0.000000
# 6 0.000000 0.000000 0.000000 0.017713 0.000000 0.036744
#
#
# Mechanical properties :
#
#
# Convention : Reuss Voigt Hill
#
# Bulk Modulus (GPa) = 44.96826 50.49502 47.73164
# Shear Modulus (GPa) = 16.18847 22.61690 19.40268
#
# Velocity S-wave (km/s) = 3.02383 3.57413 3.31043
# Velocity P-wave (km/s) = 6.13108 6.74929 6.44760
#
# Compressibility (1/GPa) = 0.02223791
#
# Stress axis : x y z
#
# Youngs Moduli (GPa) = 63.61697 25.81687 28.44481
#
# Poissons Ratio (x) = 0.26735 0.11843
# Poissons Ratio (y) = 0.65878 0.54520
# Poissons Ratio (z) = 0.26486 0.49483
#
# Static dielectric constant tensor:
#      x y z
#    x 1.584370 0.000000 0.018760 
#    y 0.000000 1.606340 0.000000 
#    z 0.018760 0.000000 1.537050 
# 
# From -- ./inp_files/345974.got.cif
#   From: 2010.05.17/outbox.cif.g08.bks.cpg/sg12_173_cif.got.tgz:345974.got - 2010.06.03 13:09:07.
