data_PCOD9197409
_publ_section_title
;
Structure prediction by ZEFSAII (Michael W. Deem and Ramdas Pophale) SiO2 
 PCOD9197409
Probable space group: C 2/M
;
_chemical_formula_sum "Si O2"
_cell_formula_units_Z 56
_cell_length_a 23.848083
_cell_length_b 10.611565
_cell_length_c 28.221823
_cell_angle_alpha 90.000000
_cell_angle_beta 156.562918
_cell_angle_gamma 90.000000
_cell_volume 2840.659575
_symmetry_space_group_name_H-M "C 2/M"
_symmetry_group_IT_number 12
_symmetry_cell_setting 'monoclinic'
loop_
_space_group_symop_operation_xyz
x,y,z
-x,y,-z
-x,-y,-z
x,-y,z
1/2+x,1/2+y,z
1/2-x,1/2+y,-z
1/2-x,1/2-y,-z
1/2+x,1/2-y,z
loop_
_atom_site_type_symbol
_atom_site_label
_atom_site_fract_x
_atom_site_fract_y
_atom_site_fract_z
Si Si1 0.190171 0.359925 0.420460
Si Si2 0.358525 0.638170 0.092217
Si Si3 0.812945 0.150203 0.412559
Si Si4 0.597813 0.650393 0.678156
Si Si5 0.857797 0.349142 0.813275
Si Si6 0.896355 0.270124 0.214654
Si Si7 0.073781 0.857619 0.957942
O O1 0.249417 0.500000 0.476465
O O2 0.250000 0.250000 0.500000
O O3 0.226684 0.329975 0.394193
O O4 0.023428 0.361792 0.299981
O O5 0.290779 0.500000 0.037568
O O6 0.412591 0.662262 0.186902
O O7 0.458695 0.645602 0.124048
O O8 0.250000 0.750000 0.000000
O O9 0.730257 0.191037 0.301878
O O10 0.971733 0.196261 0.545850
O O11 0.826051 0.000000 0.415622
O O12 0.579964 0.500000 0.670255
O O13 0.750334 0.669413 0.773234
O O14 0.583853 0.715513 0.717802
O O15 0.893728 0.500000 0.838249
O O16 0.990413 0.255977 0.917939
O O17 0.741342 0.331466 0.091922
O O18 0.042178 0.000000 0.950325
#
# Coordination Sequence:
#
# PCOD9197409 Si02
#       7
#     8   8   8   8   8   8   8
#     4  11  22  37  59  88 119 150 187 234 291 355
#     4   9  19  34  56  83 113 151 190 233 285 343
#     4   9  18  36  61  88 117 149 188 242 296 342
#     4  10  20  35  59  90 119 149 193 249 296 338
#     4  10  21  38  62  87 112 152 205 247 283 337
#     4  11  21  36  59  88 120 154 193 235 293 354
#     4  10  22  40  58  82 120 159 195 237 290 347
#
# _framework density 19.713730999999999
#
# number of rings (size 3 to 8) (size 9 to 14) (size 15 to 20)
#    0.000    2.000    1.429    2.143    0.000    6.286 
#    0.000    7.143    0.000    0.857    0.000    0.000 
#    0.000    0.000    0.000    0.000    0.000    0.000 
#
# Total GULP energy -156094.081148 kJ/mol
# GULP energy per Si atom -5574.788612 kJ/mol
# Density = 1.966886 g / cm^3
# Si number density = 19.713731 Si / 1000 Ang^3
#
#
#
# Elastic Constant Matrix: (Units=GPa)
#
#
# Indices 1 2 3 4 5 6 
#
# 1 34.8485 23.6594 11.0474 -0.0004 13.7778 -0.0001
# 2 23.6594 90.9372 24.8775 -0.0005 21.2581 -0.0004
# 3 11.0474 24.8775 72.9189 -0.0015 21.6793 -0.0005
# 4 -0.0004 -0.0005 -0.0015 23.8036 -0.0004 4.1714
# 5 13.7778 21.2581 21.6793 -0.0004 30.2630 0.0000
# 6 -0.0001 -0.0004 -0.0005 4.1714 0.0000 21.6918
#
#
#
# Elastic Compliance Matrix: (Units=1/GPa)
#
#
# Indices 1 2 3 4 5 6 
#
# 1 0.038465 -0.007128 0.000409 0.000000 -0.012798 0.000000
# 2 -0.007128 0.014765 -0.002336 0.000000 -0.005453 0.000000
# 3 0.000409 -0.002336 0.017809 0.000001 -0.011303 0.000000
# 4 0.000000 0.000000 0.000001 0.043476 0.000000 -0.008361
# 5 -0.012798 -0.005453 -0.011303 0.000000 0.050798 0.000000
# 6 0.000000 0.000000 0.000000 -0.008361 0.000000 0.047708
#
#
# Mechanical properties :
#
#
# Convention : Reuss Voigt Hill
#
# Bulk Modulus (GPa) = 18.89294 35.31924 27.10609
# Shear Modulus (GPa) = 20.09859 24.42637 22.26248
#
# Velocity S-wave (km/s) = 3.19646 3.52384 3.36413
# Velocity P-wave (km/s) = 4.81950 5.87465 5.37304
#
# Compressibility (1/GPa) = 0.05292983
#
# Stress axis : x y z
#
# Youngs Moduli (GPa) = 25.99766 67.72845 56.14990
#
# Poissons Ratio (x) = 0.48275 -0.02297
# Poissons Ratio (y) = 0.18530 0.13118
# Poissons Ratio (z) = -0.01064 0.15823
#
# Static dielectric constant tensor:
#      x y z
#    x 1.699940 0.000000 -0.018820 
#    y 0.000000 1.683890 0.000000 
#    z -0.018820 0.000000 1.746500 
# 
# From -- ./inp_files/164890.got.cif
#   From: 2010.05.17/outbox.cif.g08.bks.cpg/sg12_83_cif.got.tgz:164890.got - 2010.06.03 13:09:07.
