data_PCOD9197773
_publ_section_title
;
Structure prediction by ZEFSAII (Michael W. Deem and Ramdas Pophale) SiO2 
 PCOD9197773
Probable space group: C 2/M
;
_chemical_formula_sum "Si O2"
_cell_formula_units_Z 36
_cell_length_a 16.026483
_cell_length_b 12.667184
_cell_length_c 19.949831
_cell_angle_alpha 90.000000
_cell_angle_beta 19.586873
_cell_angle_gamma 90.000000
_cell_volume 1357.712522
_symmetry_space_group_name_H-M "C 2/M"
_symmetry_group_IT_number 12
_symmetry_cell_setting 'monoclinic'
loop_
_space_group_symop_operation_xyz
x,y,z
-x,y,-z
-x,-y,-z
x,-y,z
1/2+x,1/2+y,z
1/2-x,1/2+y,-z
1/2-x,1/2-y,-z
1/2+x,1/2-y,z
loop_
_atom_site_type_symbol
_atom_site_label
_atom_site_fract_x
_atom_site_fract_y
_atom_site_fract_z
Si Si1 0.431355 0.111244 0.943319
Si Si2 0.587390 0.844457 0.537651
Si Si3 0.700444 0.000000 0.091890
Si Si4 0.911020 0.113247 0.416720
Si Si5 0.602806 0.653839 0.825752
O O1 0.565140 0.220121 0.857764
O O2 0.548204 0.000000 0.880437
O O3 0.160158 0.118157 0.183373
O O4 0.392579 0.090887 0.893708
O O5 0.680653 0.885085 0.538687
O O6 0.596208 0.717378 0.534469
O O7 0.787260 0.876647 0.330436
O O8 0.319238 0.875357 0.713468
O O9 0.848420 0.908092 0.022576
O O10 0.900449 0.000000 0.459875
#
# Coordination Sequence:
#
# PCOD9197773 Si02
#       5
#     8   8   4   8   8
#     4   9  20  36  63  81 110 151 189 225 277 337
#     4  10  23  34  59  86 115 145 180 245 274 331
#     4  10  20  35  64  83 110 150 184 242 272 331
#     4  10  20  40  58  81 114 154 185 222 289 335
#     4  11  21  38  58  90 111 142 197 230 281 327
#
# _framework density 26.515184000000001
#
# number of rings (size 3 to 8) (size 9 to 14) (size 15 to 20)
#    0.667    1.333    2.222    0.667    1.556    3.556 
#    0.000    4.444    0.000    1.333    0.000    0.000 
#    0.000    0.000    0.000    0.000    0.000    0.000 
#
# Total GULP energy -100376.765028 kJ/mol
# GULP energy per Si atom -5576.486946 kJ/mol
# Density = 2.645483 g / cm^3
# Si number density = 26.515184 Si / 1000 Ang^3
#
#
#
# Elastic Constant Matrix: (Units=GPa)
#
#
# Indices 1 2 3 4 5 6 
#
# 1 77.6654 2.9560 34.5933 -0.0412 0.5173 0.0330
# 2 2.9560 198.5536 8.3624 -0.0318 -9.9480 0.0494
# 3 34.5933 8.3624 100.7695 -0.0470 -5.5326 -0.0396
# 4 -0.0412 -0.0318 -0.0470 90.9405 0.0251 -28.8422
# 5 0.5173 -9.9480 -5.5326 0.0251 40.3793 0.0042
# 6 0.0330 0.0494 -0.0396 -28.8422 0.0042 48.2365
#
#
#
# Elastic Compliance Matrix: (Units=1/GPa)
#
#
# Indices 1 2 3 4 5 6 
#
# 1 0.015234 -0.000051 -0.005277 0.000000 -0.000931 -0.000015
# 2 -0.000051 0.005112 -0.000340 -0.000001 0.001214 -0.000006
# 3 -0.005277 -0.000340 0.011852 0.000009 0.001608 0.000019
# 4 0.000000 -0.000001 0.000009 0.013569 -0.000008 0.008114
# 5 -0.000931 0.001214 0.001608 -0.000008 0.025296 -0.000006
# 6 -0.000015 -0.000006 0.000019 0.008114 -0.000006 0.025583
#
#
# Mechanical properties :
#
#
# Convention : Reuss Voigt Hill
#
# Bulk Modulus (GPa) = 47.93333 52.09023 50.01178
# Shear Modulus (GPa) = 43.50234 57.98306 50.74270
#
# Velocity S-wave (km/s) = 4.05490 4.68138 4.37936
# Velocity P-wave (km/s) = 6.32771 6.99346 6.66890
#
# Compressibility (1/GPa) = 0.02086231
#
# Stress axis : x y z
#
# Youngs Moduli (GPa) = 65.64183 195.60630 84.37717
#
# Poissons Ratio (x) = 0.01002 0.44523
# Poissons Ratio (y) = 0.00336 0.02869
# Poissons Ratio (z) = 0.34637 0.06651
#
# Static dielectric constant tensor:
#      x y z
#    x 2.006430 -0.000010 0.068850 
#    y -0.000010 2.035360 0.000070 
#    z 0.068850 0.000070 2.167810 
# 
# From -- ./inp_files/343645.got.cif
#   From: 2010.05.17/outbox.cif.g08.bks.cpg/sg12_172_cif.got.tgz:343645.got - 2010.06.03 13:09:07.
