data_PCOD9197523
_publ_section_title
;
Structure prediction by ZEFSAII (Michael W. Deem and Ramdas Pophale) SiO2 
 PCOD9197523
Probable space group: C 2/M
;
_chemical_formula_sum "Si O2"
_cell_formula_units_Z 40
_cell_length_a 16.315903
_cell_length_b 18.083332
_cell_length_c 5.382727
_cell_angle_alpha 90.000000
_cell_angle_beta 97.870994
_cell_angle_gamma 90.000000
_cell_volume 1573.189377
_symmetry_space_group_name_H-M "C 2/M"
_symmetry_group_IT_number 12
_symmetry_cell_setting 'monoclinic'
loop_
_space_group_symop_operation_xyz
x,y,z
-x,y,-z
-x,-y,-z
x,-y,z
1/2+x,1/2+y,z
1/2-x,1/2+y,-z
1/2-x,1/2-y,-z
1/2+x,1/2-y,z
loop_
_atom_site_type_symbol
_atom_site_label
_atom_site_fract_x
_atom_site_fract_y
_atom_site_fract_z
Si Si1 0.752354 0.918540 0.351246
Si Si2 0.066831 0.084702 0.318563
Si Si3 0.157807 0.170036 0.975120
Si Si4 0.184406 0.303522 0.681580
Si Si5 0.052724 0.585236 0.771838
O O1 0.839369 0.919897 0.536117
O O2 0.787331 0.898719 0.096357
O O3 0.695674 0.853107 0.437954
O O4 0.713324 0.000000 0.346548
O O5 0.000000 0.107821 0.500000
O O6 0.044626 0.000000 0.244760
O O7 0.081099 0.138651 0.092093
O O8 0.143981 0.224142 0.733516
O O9 0.220838 0.209302 0.192032
O O10 0.128321 0.358811 0.817965
O O11 0.080220 0.500000 0.763423
O O12 0.000000 0.602152 0.500000
O O13 0.000000 0.592308 0.000000
#
# Coordination Sequence:
#
# PCOD9197523 Si02
#       5
#     8   8   8   8   8
#     4  10  20  35  60  88 114 161 213 259 318 389
#     4   9  19  37  57  85 124 162 208 261 312 385
#     4  10  21  38  61  88 126 166 210 262 331 398
#     4  10  22  40  60  89 126 163 210 274 333 395
#     4  10  23  44  67  96 131 173 228 285 342 405
#
# _framework density 25.426054000000001
#
# number of rings (size 3 to 8) (size 9 to 14) (size 15 to 20)
#    0.000    2.200    0.000    1.800    2.800    3.200 
#    3.600    3.000    0.000    0.000    0.000    0.000 
#    0.000    0.000    0.000    0.000    0.000    0.000 
#
# Total GULP energy -111659.426391 kJ/mol
# GULP energy per Si atom -5582.971320 kJ/mol
# Density = 2.536818 g / cm^3
# Si number density = 25.426054 Si / 1000 Ang^3
#
#
#
# Elastic Constant Matrix: (Units=GPa)
#
#
# Indices 1 2 3 4 5 6 
#
# 1 93.0934 65.4518 41.6349 0.0000 -27.7389 0.0000
# 2 65.4518 164.2057 78.4226 0.0000 -41.6439 0.0000
# 3 41.6349 78.4226 123.6592 0.0000 -43.3370 0.0000
# 4 0.0000 0.0000 0.0000 31.4933 0.0000 -18.9090
# 5 -27.7389 -41.6439 -43.3370 0.0000 59.9836 0.0000
# 6 0.0000 0.0000 0.0000 -18.9090 0.0000 27.2026
#
#
#
# Elastic Compliance Matrix: (Units=1/GPa)
#
#
# Indices 1 2 3 4 5 6 
#
# 1 0.015589 -0.004945 -0.001057 0.000000 0.003012 0.000000
# 2 -0.004945 0.010660 -0.004423 0.000000 0.001918 0.000000
# 3 -0.001057 -0.004423 0.013391 0.000000 0.006115 0.000000
# 4 0.000000 0.000000 0.000000 0.054498 0.000000 0.037882
# 5 0.003012 0.001918 0.006115 0.000000 0.023814 0.000000
# 6 0.000000 0.000000 0.000000 0.037882 0.000000 0.063094
#
#
# Mechanical properties :
#
#
# Convention : Reuss Voigt Hill
#
# Bulk Modulus (GPa) = 53.22158 83.55299 68.38729
# Shear Modulus (GPa) = 24.02017 36.76583 30.39300
#
# Velocity S-wave (km/s) = 3.07694 3.80674 3.46113
# Velocity P-wave (km/s) = 5.79662 7.22871 6.55191
#
# Compressibility (1/GPa) = 0.01878937
#
# Stress axis : x y z
#
# Youngs Moduli (GPa) = 64.14852 93.80963 74.67869
#
# Poissons Ratio (x) = 0.46388 0.07893
# Poissons Ratio (y) = 0.31721 0.33031
# Poissons Ratio (z) = 0.06780 0.41493
#
# Static dielectric constant tensor:
#      x y z
#    x 1.998270 0.000000 0.100530 
#    y 0.000000 2.013650 0.000000 
#    z 0.100530 0.000000 2.141230 
# 
# From -- ./inp_files/15126.got.cif
#   From: 2010.05.17/outbox.cif.g08.bks.cpg/sg12_8_cif.got.tgz:15126.got - 2010.06.03 13:09:07.
