data_PCOD9197883
_publ_section_title
;
Structure prediction by ZEFSAII (Michael W. Deem and Ramdas Pophale) SiO2 
 PCOD9197883
Probable space group: C 2/M
;
_chemical_formula_sum "Si O2"
_cell_formula_units_Z 56
_cell_length_a 26.948495
_cell_length_b 26.625972
_cell_length_c 21.470287
_cell_angle_alpha 90.000000
_cell_angle_beta 168.353038
_cell_angle_gamma 90.000000
_cell_volume 3110.088555
_symmetry_space_group_name_H-M "C 2/M"
_symmetry_group_IT_number 12
_symmetry_cell_setting 'monoclinic'
loop_
_space_group_symop_operation_xyz
x,y,z
-x,y,-z
-x,-y,-z
x,-y,z
1/2+x,1/2+y,z
1/2-x,1/2+y,-z
1/2-x,1/2-y,-z
1/2+x,1/2-y,z
loop_
_atom_site_type_symbol
_atom_site_label
_atom_site_fract_x
_atom_site_fract_y
_atom_site_fract_z
Si Si1 0.088124 0.738590 0.240266
Si Si2 0.923531 0.129634 0.182777
Si Si3 0.725061 0.055468 0.227895
Si Si4 0.258127 0.058053 0.948454
Si Si5 0.490505 0.875194 0.840689
Si Si6 0.832152 0.306292 0.240457
Si Si7 0.475868 0.727544 0.317750
O O1 0.250000 0.750000 0.500000
O O2 0.267238 0.737397 0.401471
O O3 0.968394 0.684403 0.106265
O O4 0.892242 0.782121 0.997737
O O5 0.789642 0.080083 0.041822
O O6 0.202555 0.119169 0.504342
O O7 0.940846 0.167762 0.264039
O O8 0.776743 0.157836 0.947218
O O9 0.988330 0.060547 0.584001
O O10 0.718095 0.000000 0.188557
O O11 0.500000 0.056584 0.000000
O O12 0.664524 0.098576 0.105157
O O13 0.336147 0.000000 0.043286
O O14 0.444022 0.095147 0.141487
O O15 0.000000 0.330309 0.500000
O O16 0.960143 0.258462 0.362458
O O17 0.250000 0.750000 0.000000
#
# Coordination Sequence:
#
# PCOD9197883 Si02
#       7
#     8   8   8   8   8   8   8
#     4  11  20  36  57  85 115 152 195 234 276 338
#     4  10  21  37  58  78 114 151 190 235 281 341
#     4  10  20  36  54  80 119 151 186 236 282 336
#     4  11  23  36  58  86 112 150 196 240 289 343
#     4  11  21  34  57  80 116 158 192 225 286 337
#     4  11  23  38  57  86 115 151 194 238 289 340
#     4   9  18  34  59  79 111 154 183 233 282 329
#
# _framework density 18.005918000000001
#
# number of rings (size 3 to 8) (size 9 to 14) (size 15 to 20)
#    0.000    1.571    5.714    1.714    2.000    4.571 
#    0.000    0.000    0.000    0.429    0.000    1.000 
#    0.000    0.000    0.000    0.000    0.000    0.000 
#
# Total GULP energy -156161.134762 kJ/mol
# GULP energy per Si atom -5577.183384 kJ/mol
# Density = 1.796494 g / cm^3
# Si number density = 18.005918 Si / 1000 Ang^3
#
#
#
# Elastic Constant Matrix: (Units=GPa)
#
#
# Indices 1 2 3 4 5 6 
#
# 1 48.7762 24.7368 19.1392 -0.0129 4.7116 -0.0079
# 2 24.7368 88.7431 31.5881 -0.0012 0.0243 0.0022
# 3 19.1392 31.5881 52.4213 -0.0037 3.8675 -0.0140
# 4 -0.0129 -0.0012 -0.0037 21.2749 -0.0012 -3.9517
# 5 4.7116 0.0243 3.8675 -0.0012 33.4112 -0.0063
# 6 -0.0079 0.0022 -0.0140 -3.9517 -0.0063 25.0719
#
#
#
# Elastic Compliance Matrix: (Units=1/GPa)
#
#
# Indices 1 2 3 4 5 6 
#
# 1 0.025730 -0.004970 -0.006185 0.000015 -0.002909 0.000007
# 2 -0.004970 0.015338 -0.007543 -0.000005 0.001563 -0.000007
# 3 -0.006185 -0.007543 0.026037 0.000003 -0.002136 0.000013
# 4 0.000015 -0.000005 0.000003 0.048421 0.000001 0.007632
# 5 -0.002909 0.001563 -0.002136 0.000001 0.030586 0.000006
# 6 0.000007 -0.000007 0.000013 0.007632 0.000006 0.041088
#
#
# Mechanical properties :
#
#
# Convention : Reuss Voigt Hill
#
# Bulk Modulus (GPa) = 33.65894 37.87430 35.76662
# Shear Modulus (GPa) = 21.32182 23.58338 22.45260
#
# Velocity S-wave (km/s) = 3.44489 3.62298 3.53506
# Velocity P-wave (km/s) = 5.87851 6.21139 6.04724
#
# Compressibility (1/GPa) = 0.02970979
#
# Stress axis : x y z
#
# Youngs Moduli (GPa) = 38.86501 65.19544 38.40623
#
# Poissons Ratio (x) = 0.32401 0.23753
# Poissons Ratio (y) = 0.19316 0.28972
# Poissons Ratio (z) = 0.24037 0.49180
#
# Static dielectric constant tensor:
#      x y z
#    x 1.660720 0.000000 0.010070 
#    y 0.000000 1.635630 0.000000 
#    z 0.010070 0.000000 1.615400 
# 
# From -- ./inp_files/354553.got.cif
#   From: 2010.05.17/outbox.cif.g08.bks.cpg/sg12_178_cif.got.tgz:354553.got - 2010.06.03 13:09:07.
