data_PCOD9197283
_publ_section_title
;
Structure prediction by ZEFSAII (Michael W. Deem and Ramdas Pophale) SiO2 
 PCOD9197283
Probable space group: C 2/M
;
_chemical_formula_sum "Si O2"
_cell_formula_units_Z 64
_cell_length_a 12.267629
_cell_length_b 25.719496
_cell_length_c 11.300416
_cell_angle_alpha 90.000000
_cell_angle_beta 47.878898
_cell_angle_gamma 90.000000
_cell_volume 2644.616503
_symmetry_space_group_name_H-M "C 2/M"
_symmetry_group_IT_number 12
_symmetry_cell_setting 'monoclinic'
loop_
_space_group_symop_operation_xyz
x,y,z
-x,y,-z
-x,-y,-z
x,-y,z
1/2+x,1/2+y,z
1/2-x,1/2+y,-z
1/2-x,1/2-y,-z
1/2+x,1/2-y,z
loop_
_atom_site_type_symbol
_atom_site_label
_atom_site_fract_x
_atom_site_fract_y
_atom_site_fract_z
Si Si1 0.979421 0.341363 0.389444
Si Si2 0.993321 0.842168 0.746097
Si Si3 0.558504 0.442887 0.090790
Si Si4 0.627629 0.258283 0.823031
Si Si5 0.119519 0.440787 0.811056
Si Si6 0.722219 0.341360 0.399021
Si Si7 0.611077 0.056341 0.233670
Si Si8 0.730140 0.806634 0.062686
O O1 0.071812 0.394557 0.340995
O O2 0.064146 0.319242 0.212537
O O3 0.000000 0.312385 0.500000
O O4 0.816683 0.344722 0.455280
O O5 0.058548 0.792747 0.768988
O O6 0.057917 0.839888 0.569619
O O7 0.025471 0.898190 0.778743
O O8 0.819463 0.839081 0.901679
O O9 0.532625 0.500000 0.161733
O O10 0.500000 0.441947 0.000000
O O11 0.734396 0.436247 0.946234
O O12 0.731016 0.212137 0.700765
O O13 0.698268 0.302178 0.858616
O O14 0.500000 0.234683 0.000000
O O15 0.179141 0.500000 0.789821
O O16 0.232129 0.393219 0.707296
O O17 0.020362 0.444041 0.765154
O O18 0.000000 0.429114 0.000000
O O19 0.619761 0.000000 0.287629
O O20 0.750000 0.750000 0.000000
#
# Coordination Sequence:
#
# PCOD9197283 Si02
#       8
#     8   8   8   8   8   8   8   8
#     4  11  22  36  58  87 116 152 191 242 291 348
#     4  11  22  38  59  84 119 156 192 239 298 359
#     4  10  20  35  59  85 118 160 197 233 289 361
#     4  10  21  38  60  82 113 154 194 243 287 352
#     4   9  19  38  65  89 116 157 204 253 299 351
#     4  11  23  38  59  88 121 150 196 249 298 353
#     4   9  19  36  58  88 117 150 196 239 286 350
#     4  11  23  39  60  82 112 153 199 239 295 357
#
# _framework density 24.200106000000002
#
# number of rings (size 3 to 8) (size 9 to 14) (size 15 to 20)
#    0.000    1.750    1.250    4.125    1.750    2.750 
#    0.000    0.000    0.000    0.000    0.000    3.500 
#    0.000    0.000    0.000    0.000    0.000    0.000 
#
# Total GULP energy -178662.351245 kJ/mol
# GULP energy per Si atom -5583.198476 kJ/mol
# Density = 2.414503 g / cm^3
# Si number density = 24.200106 Si / 1000 Ang^3
#
#
#
# Elastic Constant Matrix: (Units=GPa)
#
#
# Indices 1 2 3 4 5 6 
#
# 1 42.8885 4.4058 13.3404 0.0000 11.6367 0.0000
# 2 4.4058 144.1945 82.7964 0.0000 -0.9164 0.0000
# 3 13.3404 82.7964 170.1539 0.0000 6.9076 0.0000
# 4 0.0000 0.0000 0.0000 14.1893 0.0000 10.1989
# 5 11.6367 -0.9164 6.9076 0.0000 20.2752 0.0000
# 6 0.0000 0.0000 0.0000 10.1989 0.0000 12.1603
#
#
#
# Elastic Compliance Matrix: (Units=1/GPa)
#
#
# Indices 1 2 3 4 5 6 
#
# 1 0.028023 -0.000078 -0.001527 0.000000 -0.015567 0.000000
# 2 -0.000078 0.009710 -0.004805 0.000000 0.002121 0.000000
# 3 -0.001527 -0.004805 0.008424 0.000000 -0.002211 0.000000
# 4 0.000000 0.000000 0.000000 0.177449 0.000000 -0.148827
# 5 -0.015567 0.002121 -0.002211 0.000000 0.059105 0.000000
# 6 0.000000 0.000000 0.000000 -0.148827 0.000000 0.207057
#
#
# Mechanical properties :
#
#
# Convention : Reuss Voigt Hill
#
# Bulk Modulus (GPa) = 29.99659 62.03577 46.01618
# Shear Modulus (GPa) = 9.73329 26.43790 18.08560
#
# Velocity S-wave (km/s) = 2.00767 3.30884 2.73671
# Velocity P-wave (km/s) = 4.21858 6.34729 5.38909
#
# Compressibility (1/GPa) = 0.03333712
#
# Stress axis : x y z
#
# Youngs Moduli (GPa) = 35.68503 102.98856 118.70190
#
# Poissons Ratio (x) = 0.00807 0.18126
# Poissons Ratio (y) = 0.00280 0.57033
# Poissons Ratio (z) = 0.05449 0.49483
#
# Static dielectric constant tensor:
#      x y z
#    x 2.271070 0.000000 -0.297420 
#    y 0.000000 2.135360 0.000000 
#    z -0.297420 0.000000 2.735820 
# 
# From -- ./inp_files/149720.got.cif
#   From: 2010.05.17/outbox.cif.g08.bks.cpg/sg12_75_cif.got.tgz:149720.got - 2010.06.03 13:09:07.
