data_PCOD9197835
_publ_section_title
;
Structure prediction by ZEFSAII (Michael W. Deem and Ramdas Pophale) SiO2 
 PCOD9197835
Probable space group: C 2/M
;
_chemical_formula_sum "Si O2"
_cell_formula_units_Z 56
_cell_length_a 15.703490
_cell_length_b 24.626211
_cell_length_c 9.399950
_cell_angle_alpha 90.000000
_cell_angle_beta 50.348672
_cell_angle_gamma 90.000000
_cell_volume 2798.834881
_symmetry_space_group_name_H-M "C 2/M"
_symmetry_group_IT_number 12
_symmetry_cell_setting 'monoclinic'
loop_
_space_group_symop_operation_xyz
x,y,z
-x,y,-z
-x,-y,-z
x,-y,z
1/2+x,1/2+y,z
1/2-x,1/2+y,-z
1/2-x,1/2-y,-z
1/2+x,1/2-y,z
loop_
_atom_site_type_symbol
_atom_site_label
_atom_site_fract_x
_atom_site_fract_y
_atom_site_fract_z
Si Si1 0.536939 0.665786 0.124514
Si Si2 0.211971 0.561305 0.034704
Si Si3 0.717004 0.846106 0.228972
Si Si4 0.051144 0.721335 0.231591
Si Si5 0.697734 0.189990 0.549059
Si Si6 0.626416 0.850294 0.911059
Si Si7 0.475231 0.561076 0.693416
O O1 0.517885 0.716211 0.250055
O O2 0.488203 0.610561 0.243672
O O3 0.500000 0.675275 0.000000
O O4 0.669968 0.663777 0.976027
O O5 0.169866 0.500000 0.081801
O O6 0.163311 0.598697 0.962834
O O7 0.343470 0.558766 0.863983
O O8 0.183270 0.594445 0.209267
O O9 0.625335 0.801384 0.280934
O O10 0.745308 0.841526 0.363918
O O11 0.933536 0.691908 0.344297
O O12 0.121289 0.702817 0.017786
O O13 0.750000 0.250000 0.500000
O O14 0.704379 0.161642 0.694478
O O15 0.500000 0.859004 0.000000
O O16 0.500000 0.571960 0.500000
O O17 0.519415 0.500000 0.678110
#
# Coordination Sequence:
#
# PCOD9197835 Si02
#       7
#     8   8   8   8   8   8   8
#     4  11  21  34  54  80 106 136 178 221 264 317
#     4   9  19  37  58  76 101 143 186 220 263 321
#     4  10  21  36  54  76 109 143 175 218 268 319
#     4  10  20  36  53  75 108 146 176 206 262 328
#     4  11  21  33  53  82 113 139 171 218 270 321
#     4   9  19  35  55  78 111 143 173 221 272 312
#     4   9  20  37  54  75 105 140 178 220 265 316
#
# _framework density 20.008324999999999
#
# number of rings (size 3 to 8) (size 9 to 14) (size 15 to 20)
#    0.000    2.143    0.000    3.857    0.000    6.286 
#    0.000    0.714    0.000   11.143    0.000    0.000 
#    0.000    0.000    0.000    0.000    0.000    0.000 
#
# Total GULP energy -156102.063071 kJ/mol
# GULP energy per Si atom -5575.073681 kJ/mol
# Density = 1.996278 g / cm^3
# Si number density = 20.008325 Si / 1000 Ang^3
#
#
#
# Elastic Constant Matrix: (Units=GPa)
#
#
# Indices 1 2 3 4 5 6 
#
# 1 51.4192 26.3725 3.1152 0.0000 10.1246 0.0000
# 2 26.3725 141.4612 35.0793 0.0000 27.7186 0.0000
# 3 3.1152 35.0793 83.4063 0.0000 27.0341 0.0000
# 4 0.0000 0.0000 0.0000 6.1762 0.0000 -2.5876
# 5 10.1246 27.7186 27.0341 0.0000 30.1860 0.0000
# 6 0.0000 0.0000 0.0000 -2.5876 0.0000 17.1217
#
#
#
# Elastic Compliance Matrix: (Units=1/GPa)
#
#
# Indices 1 2 3 4 5 6 
#
# 1 0.022444 -0.003558 0.002873 0.000000 -0.006834 0.000000
# 2 -0.003558 0.009318 -0.001972 0.000000 -0.005597 0.000000
# 3 0.002873 -0.001972 0.017524 0.000000 -0.014847 0.000000
# 4 0.000000 0.000000 0.000000 0.172857 0.000000 0.026124
# 5 -0.006834 -0.005597 -0.014847 0.000000 0.053856 0.000000
# 6 0.000000 0.000000 0.000000 0.026124 0.000000 0.062353
#
#
# Mechanical properties :
#
#
# Convention : Reuss Voigt Hill
#
# Bulk Modulus (GPa) = 22.74106 45.04676 33.89391
# Shear Modulus (GPa) = 13.95385 24.81144 19.38264
#
# Velocity S-wave (km/s) = 2.64370 3.52526 3.11582
# Velocity P-wave (km/s) = 4.55075 6.25563 5.47002
#
# Compressibility (1/GPa) = 0.04397332
#
# Stress axis : x y z
#
# Youngs Moduli (GPa) = 44.55479 107.31863 57.06503
#
# Poissons Ratio (x) = 0.38180 -0.16396
# Poissons Ratio (y) = 0.15851 0.11253
# Poissons Ratio (z) = -0.12801 0.21163
#
# Static dielectric constant tensor:
#      x y z
#    x 1.674890 0.000000 0.016150 
#    y 0.000000 1.735920 0.000000 
#    z 0.016150 0.000000 1.733000 
# 
# From -- ./inp_files/65793.got.cif
#   From: 2010.05.17/outbox.cif.g08.bks.cpg/sg12_33_cif.got.tgz:65793.got - 2010.06.03 13:09:07.
