data_PCOD9197187
_publ_section_title
;
Structure prediction by ZEFSAII (Michael W. Deem and Ramdas Pophale) SiO2 
 PCOD9197187
Probable space group: C 2/M
;
_chemical_formula_sum "Si O2"
_cell_formula_units_Z 48
_cell_length_a 18.343621
_cell_length_b 19.152245
_cell_length_c 9.266927
_cell_angle_alpha 90.000000
_cell_angle_beta 45.682842
_cell_angle_gamma 90.000000
_cell_volume 2329.378988
_symmetry_space_group_name_H-M "C 2/M"
_symmetry_group_IT_number 12
_symmetry_cell_setting 'monoclinic'
loop_
_space_group_symop_operation_xyz
x,y,z
-x,y,-z
-x,-y,-z
x,-y,z
1/2+x,1/2+y,z
1/2-x,1/2+y,-z
1/2-x,1/2-y,-z
1/2+x,1/2-y,z
loop_
_atom_site_type_symbol
_atom_site_label
_atom_site_fract_x
_atom_site_fract_y
_atom_site_fract_z
Si Si1 0.849015 0.082188 0.069073
Si Si2 0.723096 0.181036 0.446492
Si Si3 0.770312 0.418478 0.326508
Si Si4 0.280060 0.862365 0.008812
Si Si5 0.615605 0.756392 0.318630
Si Si6 0.964398 0.916454 0.383791
O O1 0.811925 0.135209 0.244231
O O2 0.855935 0.000000 0.104204
O O3 0.767157 0.089491 0.051552
O O4 0.954439 0.106894 0.848477
O O5 0.750000 0.250000 0.500000
O O6 0.675944 0.127280 0.626442
O O7 0.654578 0.208358 0.411236
O O8 0.773769 0.500000 0.355076
O O9 0.807885 0.403912 0.113279
O O10 0.651066 0.393904 0.485772
O O11 0.191151 0.806333 0.171401
O O12 0.370913 0.815525 0.821684
O O13 0.500000 0.735502 0.500000
O O14 0.000000 0.905422 0.500000
O O15 0.963343 0.000000 0.370685
#
# Coordination Sequence:
#
# PCOD9197187 Si02
#       6
#     8   8   8   8   8   8
#     4  10  20  35  58  89 128 164 202 249 302 372
#     4  11  23  40  57  85 126 163 205 246 303 365
#     4  11  21  36  61  90 128 163 197 255 316 363
#     4  10  20  36  64  92 119 156 212 248 304 372
#     4  10  23  42  63  87 122 163 207 257 301 361
#     4   9  17  30  53  91 127 158 194 234 300 385
#
# _framework density 20.606349999999999
#
# number of rings (size 3 to 8) (size 9 to 14) (size 15 to 20)
#    0.000    1.833    3.333    1.000    2.333    0.667 
#    0.000    6.667    0.000   19.000    0.000    0.000 
#    0.000    0.000    0.000    0.000    0.000    0.000 
#
# Total GULP energy -133967.712374 kJ/mol
# GULP energy per Si atom -5581.988016 kJ/mol
# Density = 2.055945 g / cm^3
# Si number density = 20.606350 Si / 1000 Ang^3
#
#
#
# Elastic Constant Matrix: (Units=GPa)
#
#
# Indices 1 2 3 4 5 6 
#
# 1 33.3507 19.3120 18.1836 0.0000 21.6232 0.0000
# 2 19.3120 110.0506 35.1784 0.0000 16.4606 0.0000
# 3 18.1836 35.1784 82.9939 0.0000 20.5847 0.0000
# 4 0.0000 0.0000 0.0000 40.8528 0.0000 12.5346
# 5 21.6232 16.4606 20.5847 0.0000 32.4063 0.0000
# 6 0.0000 0.0000 0.0000 12.5346 0.0000 21.1358
#
#
#
# Elastic Compliance Matrix: (Units=1/GPa)
#
#
# Indices 1 2 3 4 5 6 
#
# 1 0.055101 -0.004005 -0.002090 0.000000 -0.033405 0.000000
# 2 -0.004005 0.011050 -0.003652 0.000000 -0.000620 0.000000
# 3 -0.002090 -0.003652 0.015727 0.000000 -0.006740 0.000000
# 4 0.000000 0.000000 0.000000 0.029923 0.000000 -0.017746
# 5 -0.033405 -0.000620 -0.006740 0.000000 0.057745 0.000000
# 6 0.000000 0.000000 0.000000 -0.017746 0.000000 0.057837
#
#
# Mechanical properties :
#
#
# Convention : Reuss Voigt Hill
#
# Bulk Modulus (GPa) = 16.02968 41.30480 28.66724
# Shear Modulus (GPa) = 18.67966 29.12706 23.90336
#
# Velocity S-wave (km/s) = 3.01408 3.76373 3.40957
# Velocity P-wave (km/s) = 4.46193 6.24306 5.42607
#
# Compressibility (1/GPa) = 0.06238428
#
# Stress axis : x y z
#
# Youngs Moduli (GPa) = 18.14842 90.49939 63.58585
#
# Poissons Ratio (x) = 0.36244 0.13287
# Poissons Ratio (y) = 0.07268 0.23224
# Poissons Ratio (z) = 0.03792 0.33053
#
# Static dielectric constant tensor:
#      x y z
#    x 1.739600 0.000000 0.008470 
#    y 0.000000 1.742110 0.000000 
#    z 0.008470 0.000000 1.770230 
# 
# From -- ./inp_files/89430.got.cif
#   From: 2010.05.17/outbox.cif.g08.bks.cpg/sg12_45_cif.got.tgz:89430.got - 2010.06.03 13:09:07.
