data_PCOD9197847
_publ_section_title
;
Structure prediction by ZEFSAII (Michael W. Deem and Ramdas Pophale) SiO2 
 PCOD9197847
Probable space group: C 2/M
;
_chemical_formula_sum "Si O2"
_cell_formula_units_Z 64
_cell_length_a 9.384209
_cell_length_b 21.681242
_cell_length_c 16.333727
_cell_angle_alpha 90.000000
_cell_angle_beta 80.788505
_cell_angle_gamma 90.000000
_cell_volume 3280.424956
_symmetry_space_group_name_H-M "C 2/M"
_symmetry_group_IT_number 12
_symmetry_cell_setting 'monoclinic'
loop_
_space_group_symop_operation_xyz
x,y,z
-x,y,-z
-x,-y,-z
x,-y,z
1/2+x,1/2+y,z
1/2-x,1/2+y,-z
1/2-x,1/2-y,-z
1/2+x,1/2-y,z
loop_
_atom_site_type_symbol
_atom_site_label
_atom_site_fract_x
_atom_site_fract_y
_atom_site_fract_z
Si Si1 0.844090 0.430544 0.789129
Si Si2 0.931463 0.202268 0.338697
Si Si3 0.191979 0.129402 0.145385
Si Si4 0.102669 0.241359 0.063415
Si Si5 0.335583 0.068437 0.984472
Si Si6 0.364019 0.224365 0.557141
Si Si7 0.963864 0.319161 0.212645
Si Si8 0.467892 0.568088 0.266206
O O1 0.905981 0.500000 0.769915
O O2 0.688138 0.428921 0.762177
O O3 0.942243 0.372927 0.753753
O O4 0.825956 0.423324 0.888667
O O5 0.759378 0.194542 0.374224
O O6 0.938776 0.259248 0.272292
O O7 0.982180 0.133095 0.312183
O O8 0.042376 0.225854 0.399512
O O9 0.103634 0.190503 0.133915
O O10 0.253923 0.114356 0.050582
O O11 0.316025 0.148935 0.197034
O O12 0.094240 0.075012 0.187884
O O13 0.042640 0.299264 0.120188
O O14 0.250000 0.250000 0.000000
O O15 0.000000 0.222399 0.000000
O O16 0.278767 0.000000 0.007333
O O17 0.500000 0.070288 0.000000
O O18 0.500000 0.189498 0.500000
O O19 0.250000 0.250000 0.500000
O O20 0.479323 0.500000 0.305530
#
# Coordination Sequence:
#
# PCOD9197847 Si02
#       8
#     8   8   8   8   8   8   8   8
#     4  10  23  39  56  78 115 162 213 268 320 369
#     4  11  21  39  65  95 127 160 195 245 298 362
#     4  12  24  36  55  80 113 155 211 275 321 374
#     4  12  26  38  52  80 118 159 210 274 331 372
#     4  10  20  36  54  71 100 153 215 273 322 366
#     4   9  20  39  68 102 129 151 182 229 290 359
#     4  12  24  38  60  88 117 158 213 256 316 371
#     4  11  25  41  58  87 125 164 204 253 310 366
#
# _framework density 19.509667
#
# number of rings (size 3 to 8) (size 9 to 14) (size 15 to 20)
#    0.000    1.125    3.750    2.625    5.250    0.500 
#    0.000    1.875    0.000    3.750    0.000    3.500 
#    0.000    0.000    0.000    0.000    0.000    0.000 
#
# Total GULP energy -178164.767523 kJ/mol
# GULP energy per Si atom -5567.648985 kJ/mol
# Density = 1.946526 g / cm^3
# Si number density = 19.509667 Si / 1000 Ang^3
#
#
#
# Elastic Constant Matrix: (Units=GPa)
#
#
# Indices 1 2 3 4 5 6 
#
# 1 95.4199 28.5138 19.4368 0.0000 -1.5408 0.0000
# 2 28.5138 113.7225 17.1808 0.0000 -9.3319 0.0000
# 3 19.4368 17.1808 35.1482 0.0000 -4.9723 0.0000
# 4 0.0000 0.0000 0.0000 10.6613 0.0000 -2.2397
# 5 -1.5408 -9.3319 -4.9723 0.0000 35.2758 0.0000
# 6 0.0000 0.0000 0.0000 -2.2397 0.0000 29.6829
#
#
#
# Elastic Compliance Matrix: (Units=1/GPa)
#
#
# Indices 1 2 3 4 5 6 
#
# 1 0.012336 -0.002285 -0.005830 0.000000 -0.000887 0.000000
# 2 -0.002285 0.010044 -0.003351 0.000000 0.002085 0.000000
# 3 -0.005830 -0.003351 0.033826 0.000000 0.003627 0.000000
# 4 0.000000 0.000000 0.000000 0.095308 0.000000 0.007191
# 5 -0.000887 0.002085 0.003627 0.000000 0.029372 0.000000
# 6 0.000000 0.000000 0.000000 0.007191 0.000000 0.034232
#
#
# Mechanical properties :
#
#
# Convention : Reuss Voigt Hill
#
# Bulk Modulus (GPa) = 30.05418 41.61703 35.83561
# Shear Modulus (GPa) = 20.06896 27.06797 23.56846
#
# Velocity S-wave (km/s) = 3.21076 3.72884 3.47946
# Velocity P-wave (km/s) = 5.40218 6.31797 5.87794
#
# Compressibility (1/GPa) = 0.03327324
#
# Stress axis : x y z
#
# Youngs Moduli (GPa) = 81.06273 99.56611 29.56296
#
# Poissons Ratio (x) = 0.22751 0.17236
# Poissons Ratio (y) = 0.18523 0.09906
# Poissons Ratio (z) = 0.47263 0.33363
#
# Static dielectric constant tensor:
#      x y z
#    x 1.699030 0.000000 -0.061870 
#    y 0.000000 1.760910 0.000000 
#    z -0.061870 0.000000 1.728900 
# 
# From -- ./inp_files/258110.got.cif
#   From: 2010.05.17/outbox.cif.g08.bks.cpg/sg12_130_cif.got.tgz:258110.got - 2010.06.03 13:09:07.
