data_PCOD9197819
_publ_section_title
;
Structure prediction by ZEFSAII (Michael W. Deem and Ramdas Pophale) SiO2 
 PCOD9197819
Probable space group: C 2/M
;
_chemical_formula_sum "Si O2"
_cell_formula_units_Z 64
_cell_length_a 27.201403
_cell_length_b 24.619778
_cell_length_c 11.691613
_cell_angle_alpha 90.000000
_cell_angle_beta 27.420471
_cell_angle_gamma 90.000000
_cell_volume 3605.749049
_symmetry_space_group_name_H-M "C 2/M"
_symmetry_group_IT_number 12
_symmetry_cell_setting 'monoclinic'
loop_
_space_group_symop_operation_xyz
x,y,z
-x,y,-z
-x,-y,-z
x,-y,z
1/2+x,1/2+y,z
1/2-x,1/2+y,-z
1/2-x,1/2-y,-z
1/2+x,1/2-y,z
loop_
_atom_site_type_symbol
_atom_site_label
_atom_site_fract_x
_atom_site_fract_y
_atom_site_fract_z
Si Si1 0.111422 0.331786 0.006035
Si Si2 0.696297 0.301971 0.558073
Si Si3 0.670979 0.584671 0.657310
Si Si4 0.996159 0.939235 0.197842
Si Si5 0.923630 0.752462 0.381180
Si Si6 0.712165 0.743098 0.948698
Si Si7 0.470629 0.656245 0.689968
Si Si8 0.912157 0.437127 0.082879
O O1 0.009430 0.294622 0.186873
O O2 0.214100 0.323927 0.713591
O O3 0.152063 0.299732 0.036433
O O4 0.082355 0.394376 0.034952
O O5 0.750000 0.250000 0.500000
O O6 0.672386 0.351812 0.688726
O O7 0.592909 0.284077 0.702411
O O8 0.602880 0.578014 0.680217
O O9 0.792315 0.566091 0.384958
O O10 0.599741 0.557819 0.901802
O O11 0.018356 0.895198 0.249825
O O12 0.974022 0.000000 0.287816
O O13 0.809174 0.732634 0.661008
O O14 0.954184 0.796724 0.413192
O O15 0.750000 0.750000 0.000000
O O16 0.639168 0.689899 0.087747
O O17 0.500000 0.641497 0.500000
O O18 0.930741 0.500000 0.010686
O O19 0.000000 0.422883 0.000000
#
# Coordination Sequence:
#
# PCOD9197819 Si02
#       8
#     8   8   8   8   8   8   8   8
#     4   9  22  32  52  81 108 143 183 218 276 335
#     4  10  21  31  51  82 115 142 175 221 280 337
#     4  10  21  38  57  81 114 153 189 226 282 343
#     4  11  23  38  58  82 110 152 195 233 278 334
#     4  10  20  36  52  78 114 143 179 226 282 338
#     4  10  20  37  58  80 107 140 182 230 288 341
#     4  11  22  37  58  82 110 144 186 236 282 336
#     4  10  21  37  55  79 114 155 192 228 267 324
#
# _framework density 17.749433
#
# number of rings (size 3 to 8) (size 9 to 14) (size 15 to 20)
#    0.000    1.875    2.500    1.500    8.750    0.250 
#    0.000    0.000    0.000    0.750    0.000    0.875 
#    0.000    0.000    0.000    0.875    0.000    0.000 
#
# Total GULP energy -178172.643727 kJ/mol
# GULP energy per Si atom -5567.895116 kJ/mol
# Density = 1.770903 g / cm^3
# Si number density = 17.749433 Si / 1000 Ang^3
#
#
#
# Elastic Constant Matrix: (Units=GPa)
#
#
# Indices 1 2 3 4 5 6 
#
# 1 82.4479 52.8413 28.2429 0.0002 -7.7406 -0.0005
# 2 52.8413 139.2243 26.1211 0.0001 -1.6613 -0.0002
# 3 28.2429 26.1211 68.7374 0.0003 -14.7786 -0.0008
# 4 0.0002 0.0001 0.0003 19.1215 0.0000 -10.8304
# 5 -7.7406 -1.6613 -14.7786 0.0000 24.0695 0.0003
# 6 -0.0005 -0.0002 -0.0008 -10.8304 0.0003 -45.5645
#
#
#
# Elastic Compliance Matrix: (Units=1/GPa)
#
#
# Indices 1 2 3 4 5 6 
#
# 1 0.017634 -0.005820 -0.004494 0.000000 0.002510 0.000000
# 2 -0.005820 0.009700 -0.001790 0.000000 -0.002301 0.000000
# 3 -0.004494 -0.001790 0.019283 0.000000 0.010271 0.000000
# 4 0.000000 0.000000 0.000000 0.046092 0.000000 -0.010956
# 5 0.002510 -0.002301 0.010271 0.000000 0.048501 0.000000
# 6 0.000000 0.000000 0.000000 -0.010956 0.000000 -0.019343
#
#
# Mechanical properties :
#
#
# Convention : Reuss Voigt Hill
#
# Bulk Modulus (GPa) = 44.62343 56.09113 50.35728
# Shear Modulus (GPa) = 32.56408 11.73891 22.15149
#
# Velocity S-wave (km/s) = 4.28793 2.57450 3.53655
# Velocity P-wave (km/s) = 7.05057 6.36456 6.71633
#
# Compressibility (1/GPa) = 0.02240975
#
# Stress axis : x y z
#
# Youngs Moduli (GPa) = 56.70912 103.09564 51.85914
#
# Poissons Ratio (x) = 0.59998 0.23307
# Poissons Ratio (y) = 0.33003 0.09280
# Poissons Ratio (z) = 0.25487 0.18449
#
# Static dielectric constant tensor:
#      x y z
#    x 1.637560 0.000000 -0.000320 
#    y 0.000000 1.642660 0.000000 
#    z -0.000320 0.000000 1.675750 
# 
# From -- ./inp_files/184944.got.cif
#   From: 2010.05.17/outbox.cif.g08.bks.cpg/sg12_93_cif.got.tgz:184944.got - 2010.06.03 13:09:07.
