data_PCOD9197905
_publ_section_title
;
Structure prediction by ZEFSAII (Michael W. Deem and Ramdas Pophale) SiO2 
 PCOD9197905
Probable space group: C 2/M
;
_chemical_formula_sum "Si O2"
_cell_formula_units_Z 56
_cell_length_a 9.938327
_cell_length_b 20.571138
_cell_length_c 15.881933
_cell_angle_alpha 90.000000
_cell_angle_beta 104.636580
_cell_angle_gamma 90.000000
_cell_volume 3141.575473
_symmetry_space_group_name_H-M "C 2/M"
_symmetry_group_IT_number 12
_symmetry_cell_setting 'monoclinic'
loop_
_space_group_symop_operation_xyz
x,y,z
-x,y,-z
-x,-y,-z
x,-y,z
1/2+x,1/2+y,z
1/2-x,1/2+y,-z
1/2-x,1/2-y,-z
1/2+x,1/2-y,z
loop_
_atom_site_type_symbol
_atom_site_label
_atom_site_fract_x
_atom_site_fract_y
_atom_site_fract_z
Si Si1 0.123811 0.078012 0.254379
Si Si2 0.285362 0.142273 0.698161
Si Si3 0.494991 0.326803 0.904738
Si Si4 0.266875 0.266866 0.160354
Si Si5 0.147190 0.748382 0.561153
Si Si6 0.601971 0.155135 0.701965
Si Si7 0.976551 0.075468 0.400128
O O1 0.040725 0.118268 0.170201
O O2 0.284040 0.099055 0.268560
O O3 0.070006 0.102894 0.337992
O O4 0.105486 0.000000 0.245247
O O5 0.273857 0.169786 0.790818
O O6 0.214237 0.200499 0.634892
O O7 0.444393 0.134365 0.695581
O O8 0.181718 0.084321 0.657030
O O9 0.637661 0.291756 0.900308
O O10 0.371818 0.273164 0.882567
O O11 0.500000 0.353490 0.000000
O O12 0.359068 0.215587 0.230028
O O13 0.250000 0.750000 0.500000
O O14 0.122121 0.683220 0.610976
O O15 0.000000 0.766412 0.500000
O O16 0.000000 0.098766 0.500000
O O17 0.013724 0.000000 0.408971
#
# Coordination Sequence:
#
# PCOD9197905 Si02
#       7
#     8   8   8   8   8   8   8
#     4  10  23  41  59  81 114 151 195 239 276 333
#     4  11  20  34  56  77 113 149 184 232 280 340
#     4  11  21  37  63  89 118 149 181 228 288 344
#     4  10  20  36  54  88 119 143 177 227 280 343
#     4  11  22  32  48  81 114 144 186 236 287 339
#     4  10  22  34  54  79 111 152 185 227 291 336
#     4  10  22  38  57  79 105 149 200 241 277 321
#
# _framework density 17.82545
#
# number of rings (size 3 to 8) (size 9 to 14) (size 15 to 20)
#    0.000    1.571    4.286    0.857    4.000    0.857 
#    0.000    0.000    0.000    3.000    0.000    1.000 
#    0.000    0.000    0.000    0.000    0.000    0.000 
#
# Total GULP energy -156049.082674 kJ/mol
# GULP energy per Si atom -5573.181524 kJ/mol
# Density = 1.778488 g / cm^3
# Si number density = 17.825450 Si / 1000 Ang^3
#
#
#
# Elastic Constant Matrix: (Units=GPa)
#
#
# Indices 1 2 3 4 5 6 
#
# 1 121.3561 8.0575 32.8555 0.0000 -19.8143 0.0000
# 2 8.0575 47.3331 27.6958 0.0000 -8.2039 0.0000
# 3 32.8555 27.6958 107.9140 0.0000 -19.3282 0.0000
# 4 0.0000 0.0000 0.0000 17.9031 0.0000 -3.8973
# 5 -19.8143 -8.2039 -19.3282 0.0000 24.9378 0.0000
# 6 0.0000 0.0000 0.0000 -3.8973 0.0000 29.2096
#
#
#
# Elastic Compliance Matrix: (Units=1/GPa)
#
#
# Indices 1 2 3 4 5 6 
#
# 1 0.009788 0.000611 -0.001983 0.000000 0.006441 0.000000
# 2 0.000611 0.025205 -0.005902 0.000000 0.004202 0.000000
# 3 -0.001983 -0.005902 0.012489 0.000000 0.006162 0.000000
# 4 0.000000 0.000000 0.000000 0.057527 0.000000 0.007676
# 5 0.006441 0.004202 0.006162 0.000000 0.051376 0.000000
# 6 0.000000 0.000000 0.000000 0.007676 0.000000 0.035259
#
#
# Mechanical properties :
#
#
# Convention : Reuss Voigt Hill
#
# Bulk Modulus (GPa) = 30.36501 45.98009 38.17255
# Shear Modulus (GPa) = 23.02333 28.27639 25.64986
#
# Velocity S-wave (km/s) = 3.59778 3.98715 3.79746
# Velocity P-wave (km/s) = 5.85921 6.85909 6.37877
#
# Compressibility (1/GPa) = 0.03293265
#
# Stress axis : x y z
#
# Youngs Moduli (GPa) = 102.16343 39.67522 80.07148
#
# Poissons Ratio (x) = -0.02422 0.15880
# Poissons Ratio (y) = -0.06237 0.47257
# Poissons Ratio (z) = 0.20261 0.23416
#
# Static dielectric constant tensor:
#      x y z
#    x 1.588140 0.000000 -0.004690 
#    y 0.000000 0.466340 0.000000 
#    z -0.004690 0.000000 1.638280 
# 
# From -- ./inp_files/197541.got.cif
#   From: 2010.05.17/outbox.cif.g08.bks.cpg/sg12_99_cif.got.tgz:197541.got - 2010.06.03 13:09:07.
