data_PCOD9197367
_publ_section_title
;
Structure prediction by ZEFSAII (Michael W. Deem and Ramdas Pophale) SiO2 
 PCOD9197367
Probable space group: C 2/M
;
_chemical_formula_sum "Si O2"
_cell_formula_units_Z 56
_cell_length_a 17.636973
_cell_length_b 13.425522
_cell_length_c 13.137546
_cell_angle_alpha 90.000000
_cell_angle_beta 129.078348
_cell_angle_gamma 90.000000
_cell_volume 2414.851880
_symmetry_space_group_name_H-M "C 2/M"
_symmetry_group_IT_number 12
_symmetry_cell_setting 'monoclinic'
loop_
_space_group_symop_operation_xyz
x,y,z
-x,y,-z
-x,-y,-z
x,-y,z
1/2+x,1/2+y,z
1/2-x,1/2+y,-z
1/2-x,1/2-y,-z
1/2+x,1/2-y,z
loop_
_atom_site_type_symbol
_atom_site_label
_atom_site_fract_x
_atom_site_fract_y
_atom_site_fract_z
Si Si1 0.716142 0.616189 0.650865
Si Si2 0.136642 0.884269 0.946620
Si Si3 0.386119 0.811110 0.387236
Si Si4 0.852895 0.383426 0.130735
Si Si5 0.607380 0.765421 0.109098
Si Si6 0.328697 0.114043 0.538000
Si Si7 0.479987 0.742552 0.761940
O O1 0.696211 0.500000 0.652045
O O2 0.632403 0.694168 0.608991
O O3 0.809102 0.654676 0.795986
O O4 0.747212 0.627593 0.556924
O O5 0.244922 0.866538 0.995092
O O6 0.128101 0.817407 0.041447
O O7 0.128374 0.000000 0.964415
O O8 0.050163 0.849941 0.797903
O O9 0.500000 0.838246 0.500000
O O10 0.357446 0.841753 0.249280
O O11 0.314658 0.868248 0.406264
O O12 0.871643 0.500000 0.148409
O O13 0.937407 0.326065 0.144477
O O14 0.587239 0.712221 0.200671
O O15 0.500000 0.811588 0.000000
O O16 0.410192 0.198022 0.628218
O O17 0.363886 0.000000 0.581988
#
# Coordination Sequence:
#
# PCOD9197367 Si02
#       7
#     8   8   8   8   8   8   8
#     4  10  22  41  60  85 124 162 202 249 301 363
#     4  10  21  39  63  90 122 159 200 250 306 363
#     4  12  23  38  64  90 123 161 203 253 302 357
#     4  11  22  38  62  89 123 158 200 256 308 356
#     4   9  19  37  63  89 118 155 199 250 299 354
#     4  10  21  39  64  91 120 157 204 256 302 349
#     4  10  20  35  59  88 125 154 194 249 302 359
#
# _framework density 23.189827999999999
#
# number of rings (size 3 to 8) (size 9 to 14) (size 15 to 20)
#    0.000    1.714    2.857    1.714    0.000    4.286 
#    0.000    5.714    0.000    0.000    0.000    0.000 
#    0.000    0.000    0.000    0.000    0.000    0.000 
#
# Total GULP energy -156231.156887 kJ/mol
# GULP energy per Si atom -5579.684175 kJ/mol
# Density = 2.313705 g / cm^3
# Si number density = 23.189828 Si / 1000 Ang^3
#
#
#
# Elastic Constant Matrix: (Units=GPa)
#
#
# Indices 1 2 3 4 5 6 
#
# 1 66.5667 22.6045 20.1971 0.0000 -10.2140 0.0000
# 2 22.6045 129.5399 16.1377 0.0000 -8.0537 0.0000
# 3 20.1971 16.1377 39.3030 0.0000 -0.4298 0.0000
# 4 0.0000 0.0000 0.0000 24.6542 0.0000 -6.8124
# 5 -10.2140 -8.0537 -0.4298 0.0000 35.6786 0.0000
# 6 0.0000 0.0000 0.0000 -6.8124 0.0000 6.3700
#
#
#
# Elastic Compliance Matrix: (Units=1/GPa)
#
#
# Indices 1 2 3 4 5 6 
#
# 1 0.019165 -0.001915 -0.009008 0.000000 0.004946 0.000000
# 2 -0.001915 0.008444 -0.002469 0.000000 0.001328 0.000000
# 3 -0.009008 -0.002469 0.031056 0.000000 -0.002762 0.000000
# 4 0.000000 0.000000 0.000000 0.057575 0.000000 0.061574
# 5 0.004946 0.001328 -0.002762 0.000000 0.029710 0.000000
# 6 0.000000 0.000000 0.000000 0.061574 0.000000 0.222837
#
#
# Mechanical properties :
#
#
# Convention : Reuss Voigt Hill
#
# Bulk Modulus (GPa) = 31.36595 39.25426 35.31010
# Shear Modulus (GPa) = 12.30929 25.10523 18.70726
#
# Velocity S-wave (km/s) = 2.30642 3.29385 2.84333
# Velocity P-wave (km/s) = 4.54399 5.60625 5.10284
#
# Compressibility (1/GPa) = 0.03188171
#
# Stress axis : x y z
#
# Youngs Moduli (GPa) = 52.17926 118.42979 32.19993
#
# Poissons Ratio (x) = 0.22673 0.29006
# Poissons Ratio (y) = 0.09990 0.07949
# Poissons Ratio (z) = 0.47004 0.29236
#
# Static dielectric constant tensor:
#      x y z
#    x 1.879570 0.000000 0.000380 
#    y 0.000000 1.823320 0.000000 
#    z 0.000380 0.000000 2.009380 
# 
# From -- ./inp_files/223937.got.cif
#   From: 2010.05.17/outbox.cif.g08.bks.cpg/sg12_112_cif.got.tgz:223937.got - 2010.06.03 13:09:07.
