data_PCOD9197491
_publ_section_title
;
Structure prediction by ZEFSAII (Michael W. Deem and Ramdas Pophale) SiO2 
 PCOD9197491
Probable space group: C 2/M
;
_chemical_formula_sum "Si O2"
_cell_formula_units_Z 58
_cell_length_a 11.087349
_cell_length_b 16.583714
_cell_length_c 16.229047
_cell_angle_alpha 90.000000
_cell_angle_beta 66.132388
_cell_angle_gamma 90.000000
_cell_volume 2728.840108
_symmetry_space_group_name_H-M "C 2/M"
_symmetry_group_IT_number 12
_symmetry_cell_setting 'monoclinic'
loop_
_space_group_symop_operation_xyz
x,y,z
-x,y,-z
-x,-y,-z
x,-y,z
1/2+x,1/2+y,z
1/2-x,1/2+y,-z
1/2-x,1/2-y,-z
1/2+x,1/2-y,z
loop_
_atom_site_type_symbol
_atom_site_label
_atom_site_fract_x
_atom_site_fract_y
_atom_site_fract_z
Si Si1 0.314305 0.903964 0.349984
Si Si2 0.470039 0.189389 0.919562
Si Si3 0.887611 0.641235 0.780143
Si Si4 0.081587 0.862878 0.109038
Si Si5 0.668785 0.408790 0.724626
Si Si6 0.766258 0.184008 0.785158
Si Si7 0.500000 0.500000 0.000000
Si Si8 0.847748 0.401454 0.526187
O O1 0.468899 0.885435 0.289970
O O2 0.227077 0.859662 0.304926
O O3 0.296176 0.878973 0.450039
O O4 0.294240 0.000000 0.348891
O O5 0.387654 0.135988 0.878914
O O6 0.404170 0.277380 0.941187
O O7 0.612681 0.203561 0.839316
O O8 0.500000 0.154910 0.000000
O O9 0.776116 0.589486 0.767697
O O10 0.851518 0.734072 0.767639
O O11 0.196102 0.869762 0.145568
O O12 0.954709 0.862459 0.205186
O O13 0.055083 0.930262 0.049222
O O14 0.625989 0.500000 0.716831
O O15 0.747670 0.373532 0.624991
O O16 0.850004 0.500000 0.529957
O O17 0.000000 0.375849 0.500000
#
# Coordination Sequence:
#
# PCOD9197491 Si02
#       8
#     8   8   8   8   8   8   2   8
#     4  10  20  38  64  89 115 159 207 246 293 355
#     4  10  21  39  60  82 108 154 200 240 295 364
#     4  10  20  35  60  85 116 152 197 241 305 351
#     4  11  23  38  59  84 121 153 198 239 298 358
#     4  11  20  35  60  89 118 154 197 250 292 351
#     4  10  23  39  61  83 125 160 191 247 311 363
#     4  12  24  40  56  88 114 160 196 240 292 348
#     4   9  17  32  59  90 117 152 201 245 292 355
#
# _framework density 21.254453000000002
#
# number of rings (size 3 to 8) (size 9 to 14) (size 15 to 20)
#    0.000    1.793    4.138    0.414    0.966    3.310 
#    0.000    1.379    6.069    4.552    0.000    0.000 
#    0.000    0.000    0.000    0.000    0.000    0.000 
#
# Total GULP energy -161571.841877 kJ/mol
# GULP energy per Si atom -5571.442823 kJ/mol
# Density = 2.120608 g / cm^3
# Si number density = 21.254453 Si / 1000 Ang^3
#
#
#
# Elastic Constant Matrix: (Units=GPa)
#
#
# Indices 1 2 3 4 5 6 
#
# 1 62.0772 13.9200 24.5901 0.0000 21.7475 0.0000
# 2 13.9200 40.8010 31.8283 0.0000 12.6094 0.0000
# 3 24.5901 31.8283 89.0860 0.0000 35.6389 0.0000
# 4 0.0000 0.0000 0.0000 0.2033 0.0000 -0.0590
# 5 21.7475 12.6094 35.6389 0.0000 44.7628 0.0000
# 6 0.0000 0.0000 0.0000 -0.0590 0.0000 22.0571
#
#
#
# Elastic Compliance Matrix: (Units=1/GPa)
#
#
# Indices 1 2 3 4 5 6 
#
# 1 0.020110 -0.003542 -0.001139 0.000000 -0.007866 0.000000
# 2 -0.003542 0.034604 -0.011995 0.000000 0.001523 0.000000
# 3 -0.001139 -0.011995 0.020913 0.000000 -0.012718 0.000000
# 4 0.000000 0.000000 0.000000 4.923036 0.000000 0.013167
# 5 -0.007866 0.001523 -0.012718 0.000000 0.035858 0.000000
# 6 0.000000 0.000000 0.000000 0.013167 0.000000 0.045372
#
#
# Mechanical properties :
#
#
# Convention : Reuss Voigt Hill
#
# Bulk Modulus (GPa) = 23.65401 36.96011 30.30706
# Shear Modulus (GPa) = 0.97517 21.51303 11.24410
#
# Velocity S-wave (km/s) = 0.67809 3.18491 2.30255
# Velocity P-wave (km/s) = 3.43019 5.56345 4.62159
#
# Compressibility (1/GPa) = 0.04227614
#
# Stress axis : x y z
#
# Youngs Moduli (GPa) = 49.72690 28.89861 47.81774
#
# Poissons Ratio (x) = 0.10235 0.05446
# Poissons Ratio (y) = 0.17611 0.57356
# Poissons Ratio (z) = 0.05663 0.34663
#
# Static dielectric constant tensor:
#      x y z
#    x 1.794320 0.000000 -0.016990 
#    y 0.000000 1.749740 0.000000 
#    z -0.016990 0.000000 1.811340 
# 
# From -- ./inp_files/206157.got.cif
#   From: 2010.05.17/outbox.cif.g08.bks.cpg/sg12_104_cif.got.tgz:206157.got - 2010.06.03 13:09:07.
