data_PCOD9197390
_publ_section_title
;
Structure prediction by ZEFSAII (Michael W. Deem and Ramdas Pophale) SiO2 
 PCOD9197390
Probable space group: C 2/M
;
_chemical_formula_sum "Si O2"
_cell_formula_units_Z 64
_cell_length_a 28.725534
_cell_length_b 8.744629
_cell_length_c 17.293198
_cell_angle_alpha 90.000000
_cell_angle_beta 45.917778
_cell_angle_gamma 90.000000
_cell_volume 3120.442545
_symmetry_space_group_name_H-M "C 2/M"
_symmetry_group_IT_number 12
_symmetry_cell_setting 'monoclinic'
loop_
_space_group_symop_operation_xyz
x,y,z
-x,y,-z
-x,-y,-z
x,-y,z
1/2+x,1/2+y,z
1/2-x,1/2+y,-z
1/2-x,1/2-y,-z
1/2+x,1/2-y,z
loop_
_atom_site_type_symbol
_atom_site_label
_atom_site_fract_x
_atom_site_fract_y
_atom_site_fract_z
Si Si1 0.998706 0.821410 0.674737
Si Si2 0.895902 0.182791 0.565327
Si Si3 0.825602 0.181837 0.094776
Si Si4 0.681120 0.183767 0.215257
Si Si5 0.383276 0.678090 0.340279
Si Si6 0.791507 0.681019 0.567847
Si Si7 0.370342 0.820501 0.885323
Si Si8 0.347815 0.819038 0.230903
O O1 0.034600 0.780932 0.552815
O O2 0.054436 0.809946 0.676226
O O3 0.940128 0.715985 0.768037
O O4 0.978171 0.000000 0.694459
O O5 0.877565 0.235087 0.672096
O O6 0.842838 0.267186 0.573516
O O7 0.888059 0.000000 0.566752
O O8 0.750015 0.229150 0.172283
O O9 0.856572 0.260903 0.133519
O O10 0.826754 0.000000 0.104556
O O11 0.859421 0.226692 0.975691
O O12 0.678689 0.221346 0.127412
O O13 0.674180 0.000000 0.230696
O O14 0.364787 0.500000 0.358109
O O15 0.325643 0.770264 0.448694
O O16 0.393211 0.742038 0.243073
O O17 0.781103 0.500000 0.583203
O O18 0.724564 0.765901 0.661599
O O19 0.363590 0.000000 0.910206
O O20 0.353465 0.000000 0.227950
#
# Coordination Sequence:
#
# PCOD9197390 Si02
#       8
#     8   8   8   8   8   8   8   8
#     4   9  21  41  61  85 119 159 202 244 292 351
#     4  10  20  35  59  89 121 158 198 245 296 351
#     4  11  23  41  63  87 119 158 198 245 299 354
#     4  10  22  39  61  90 122 155 195 242 301 362
#     4  10  21  38  59  85 118 157 200 242 292 351
#     4  11  20  33  54  84 123 160 194 237 294 354
#     4  11  24  41  62  88 117 156 202 249 298 351
#     4  12  23  36  57  88 121 154 196 242 295 353
#
# _framework density 20.509910999999999
#
# number of rings (size 3 to 8) (size 9 to 14) (size 15 to 20)
#    0.000    1.500    1.250    5.250    0.000    5.000 
#    0.000    3.125    0.000    3.750    0.000    0.000 
#    0.000    0.000    0.000    0.000    0.000    0.000 
#
# Total GULP energy -178923.196256 kJ/mol
# GULP energy per Si atom -5591.349883 kJ/mol
# Density = 2.046323 g / cm^3
# Si number density = 20.509911 Si / 1000 Ang^3
#
#
#
# Elastic Constant Matrix: (Units=GPa)
#
#
# Indices 1 2 3 4 5 6 
#
# 1 29.9814 11.2056 19.5700 -0.0035 15.5113 0.0008
# 2 11.2056 48.2151 19.4899 -0.0068 8.4609 0.0039
# 3 19.5700 19.4899 94.6711 -0.0095 21.0769 0.0052
# 4 -0.0035 -0.0068 -0.0095 36.3271 0.0035 3.6793
# 5 15.5113 8.4609 21.0769 0.0035 32.9065 -0.0017
# 6 0.0008 0.0039 0.0052 3.6793 -0.0017 23.5688
#
#
#
# Elastic Compliance Matrix: (Units=1/GPa)
#
#
# Indices 1 2 3 4 5 6 
#
# 1 0.048030 -0.006111 -0.004642 0.000004 -0.018096 -0.000001
# 2 -0.006111 0.023713 -0.003385 0.000003 -0.001048 -0.000004
# 3 -0.004642 -0.003385 0.013457 0.000003 -0.005561 -0.000003
# 4 0.000004 0.000003 0.000003 0.027970 -0.000008 -0.004366
# 5 -0.018096 -0.001048 -0.005561 -0.000008 0.042751 0.000006
# 6 -0.000001 -0.000004 -0.000003 -0.004366 0.000006 0.043111
#
#
# Mechanical properties :
#
#
# Convention : Reuss Voigt Hill
#
# Bulk Modulus (GPa) = 17.56699 30.37762 23.97231
# Shear Modulus (GPa) = 20.30194 26.73394 23.51794
#
# Velocity S-wave (km/s) = 3.14962 3.61427 3.38991
# Velocity P-wave (km/s) = 4.67017 5.67984 5.19957
#
# Compressibility (1/GPa) = 0.05692495
#
# Stress axis : x y z
#
# Youngs Moduli (GPa) = 20.82032 42.17105 74.30838
#
# Poissons Ratio (x) = 0.25770 0.34493
# Poissons Ratio (y) = 0.12723 0.25155
# Poissons Ratio (z) = 0.09664 0.14276
#
# Static dielectric constant tensor:
#      x y z
#    x 1.759720 0.000000 0.025600 
#    y 0.000000 1.678950 0.000000 
#    z 0.025600 0.000000 1.736990 
# 
# From -- ./inp_files/249701.got.cif
#   From: 2010.05.17/outbox.cif.g08.bks.cpg/sg12_125_cif.got.tgz:249701.got - 2010.06.03 13:09:07.
