data_PCOD9197164
_publ_section_title
;
Structure prediction by ZEFSAII (Michael W. Deem and Ramdas Pophale) SiO2 
 PCOD9197164
Probable space group: C 2/M
;
_chemical_formula_sum "Si O2"
_cell_formula_units_Z 56
_cell_length_a 18.063960
_cell_length_b 18.623006
_cell_length_c 8.753582
_cell_angle_alpha 90.000000
_cell_angle_beta 68.288397
_cell_angle_gamma 90.000000
_cell_volume 2735.843344
_symmetry_space_group_name_H-M "C 2/M"
_symmetry_group_IT_number 12
_symmetry_cell_setting 'monoclinic'
loop_
_space_group_symop_operation_xyz
x,y,z
-x,y,-z
-x,-y,-z
x,-y,z
1/2+x,1/2+y,z
1/2-x,1/2+y,-z
1/2-x,1/2-y,-z
1/2+x,1/2-y,z
loop_
_atom_site_type_symbol
_atom_site_label
_atom_site_fract_x
_atom_site_fract_y
_atom_site_fract_z
Si Si1 0.129272 0.774666 0.702152
Si Si2 0.592894 0.579286 0.887683
Si Si3 0.674992 0.917257 0.531731
Si Si4 0.020361 0.358609 0.812228
Si Si5 0.294679 0.582562 0.904045
Si Si6 0.279718 0.310078 0.648551
Si Si7 0.865929 0.584423 0.785147
O O1 0.111334 0.855201 0.763512
O O2 0.206739 0.744651 0.734547
O O3 0.153518 0.772049 0.504951
O O4 0.056064 0.721672 0.789576
O O5 0.612599 0.500000 0.808768
O O6 0.500000 0.580613 0.000000
O O7 0.644241 0.587808 0.002401
O O8 0.591162 0.904328 0.681750
O O9 0.738519 0.867529 0.566232
O O10 0.664622 0.899421 0.361493
O O11 0.697764 0.000000 0.526307
O O12 0.940779 0.368021 0.775142
O O13 0.000000 0.382144 0.000000
O O14 0.299689 0.500000 0.839945
O O15 0.308611 0.644607 0.770155
O O16 0.206164 0.592426 0.040723
O O17 0.890177 0.500000 0.767610
#
# Coordination Sequence:
#
# PCOD9197164 Si02
#       7
#     8   8   8   8   8   8   8
#     4  10  22  40  58  83 118 159 197 236 295 348
#     4  10  22  42  64  84 110 147 195 247 298 353
#     4  10  20  35  58  88 125 164 195 232 287 349
#     4  11  22  36  55  82 123 162 198 240 283 339
#     4  10  21  38  64  94 117 146 192 243 294 348
#     4  10  21  38  59  88 122 152 195 245 285 342
#     4  10  20  35  58  90 125 161 196 229 281 354
#
# _framework density 20.469007999999999
#
# number of rings (size 3 to 8) (size 9 to 14) (size 15 to 20)
#    0.000    1.857    0.000    4.286    0.000    6.286 
#    0.000   13.571    0.000    2.571    0.000    0.000 
#    0.000    0.000    0.000    0.000    0.000    0.000 
#
# Total GULP energy -156532.439843 kJ/mol
# GULP energy per Si atom -5590.444280 kJ/mol
# Density = 2.042242 g / cm^3
# Si number density = 20.469008 Si / 1000 Ang^3
#
#
#
# Elastic Constant Matrix: (Units=GPa)
#
#
# Indices 1 2 3 4 5 6 
#
# 1 61.8414 14.5079 -5.6148 0.0000 -10.6016 0.0000
# 2 14.5079 90.7642 10.3994 0.0000 1.6974 0.0000
# 3 -5.6148 10.3994 39.9530 0.0000 -4.7248 0.0000
# 4 0.0000 0.0000 0.0000 35.3658 0.0000 -19.0683
# 5 -10.6016 1.6974 -4.7248 0.0000 16.0795 0.0000
# 6 0.0000 0.0000 0.0000 -19.0683 0.0000 94.7450
#
#
#
# Elastic Compliance Matrix: (Units=1/GPa)
#
#
# Indices 1 2 3 4 5 6 
#
# 1 0.020353 -0.004208 0.005797 0.000000 0.015567 0.000000
# 2 -0.004208 0.012298 -0.004428 0.000000 -0.005374 0.000000
# 3 0.005797 -0.004428 0.028494 0.000000 0.012662 0.000000
# 4 0.000000 0.000000 0.000000 0.031718 0.000000 0.006383
# 5 0.015567 -0.005374 0.012662 0.000000 0.076742 0.000000
# 6 0.000000 0.000000 0.000000 0.006383 0.000000 0.011839
#
#
# Mechanical properties :
#
#
# Convention : Reuss Voigt Hill
#
# Bulk Modulus (GPa) = 18.02943 25.68262 21.85603
# Shear Modulus (GPa) = 24.31760 40.78912 32.55336
#
# Velocity S-wave (km/s) = 3.45051 4.46884 3.99227
# Velocity P-wave (km/s) = 4.97010 6.26112 5.65259
#
# Compressibility (1/GPa) = 0.05546486
#
# Stress axis : x y z
#
# Youngs Moduli (GPa) = 49.13378 81.31339 35.09505
#
# Poissons Ratio (x) = 0.34220 -0.20343
# Poissons Ratio (y) = 0.20678 0.15540
# Poissons Ratio (z) = -0.28481 0.36006
#
# Static dielectric constant tensor:
#      x y z
#    x 1.706010 0.000000 -0.018610 
#    y 0.000000 1.748800 0.000000 
#    z -0.018610 0.000000 1.727930 
# 
# From -- ./inp_files/75904.got.cif
#   From: 2010.05.17/outbox.cif.g08.bks.cpg/sg12_38_cif.got.tgz:75904.got - 2010.06.03 13:09:07.
