data_PCOD9197307
_publ_section_title
;
Structure prediction by ZEFSAII (Michael W. Deem and Ramdas Pophale) SiO2 
 PCOD9197307
Probable space group: C 2/M
;
_chemical_formula_sum "Si O2"
_cell_formula_units_Z 64
_cell_length_a 23.884729
_cell_length_b 7.863267
_cell_length_c 17.163454
_cell_angle_alpha 90.000000
_cell_angle_beta 96.032253
_cell_angle_gamma 90.000000
_cell_volume 3205.653778
_symmetry_space_group_name_H-M "C 2/M"
_symmetry_group_IT_number 12
_symmetry_cell_setting 'monoclinic'
loop_
_space_group_symop_operation_xyz
x,y,z
-x,y,-z
-x,-y,-z
x,-y,z
1/2+x,1/2+y,z
1/2-x,1/2+y,-z
1/2-x,1/2-y,-z
1/2+x,1/2-y,z
loop_
_atom_site_type_symbol
_atom_site_label
_atom_site_fract_x
_atom_site_fract_y
_atom_site_fract_z
Si Si1 0.234161 0.700258 0.113517
Si Si2 0.322325 0.698667 0.734766
Si Si3 0.492541 0.296825 0.370231
Si Si4 0.158634 0.701311 0.960127
Si Si5 0.950156 0.303577 0.777196
Si Si6 0.695363 0.705655 0.443227
Si Si7 0.912596 0.796102 0.483937
Si Si8 0.468724 0.207409 0.075625
O O1 0.239512 0.500000 0.099834
O O2 0.210996 0.725463 0.196845
O O3 0.295341 0.774818 0.101308
O O4 0.188953 0.769803 0.043222
O O5 0.308451 0.500000 0.732717
O O6 0.389513 0.718275 0.756761
O O7 0.307021 0.768615 0.646491
O O8 0.488206 0.500000 0.354112
O O9 0.513899 0.207839 0.296380
O O10 0.436134 0.232658 0.404816
O O11 0.540358 0.274703 0.442832
O O12 0.151040 0.500000 0.971812
O O13 0.096021 0.769385 0.933977
O O14 0.937409 0.500000 0.794577
O O15 0.990560 0.230288 0.849768
O O16 0.689451 0.500000 0.437701
O O17 0.750000 0.750000 0.500000
O O18 0.643686 0.774119 0.487050
O O19 0.906282 0.000000 0.472552
O O20 0.466815 0.000000 0.082619
O O21 0.500000 0.247791 0.000000
#
# Coordination Sequence:
#
# PCOD9197307 Si02
#       8
#     8   8   8   8   8   8   8   8
#     4  10  20  35  59  87 111 142 189 238 273 313
#     4  11  22  38  59  80 108 146 185 223 276 341
#     4   9  16  32  57  78 101 138 178 217 265 327
#     4   9  18  36  59  81 113 154 188 221 272 332
#     4  11  21  33  54  84 112 138 180 234 274 317
#     4  10  21  38  57  79 106 141 181 224 273 330
#     4   8  15  32  57  77  99 136 179 212 256 325
#     4   9  18  34  55  79 111 150 183 216 268 326
#
# _framework density 19.964727
#
# number of rings (size 3 to 8) (size 9 to 14) (size 15 to 20)
#    0.000    2.375    1.250    2.625    0.000    3.500 
#    2.250    3.125    0.000    2.625    0.000    0.000 
#    0.000    0.000    0.000    0.000    0.000    0.000 
#
# Total GULP energy -178445.647729 kJ/mol
# GULP energy per Si atom -5576.426492 kJ/mol
# Density = 1.991929 g / cm^3
# Si number density = 19.964727 Si / 1000 Ang^3
#
#
#
# Elastic Constant Matrix: (Units=GPa)
#
#
# Indices 1 2 3 4 5 6 
#
# 1 125.5629 -6.4910 74.9300 0.0000 -2.7443 0.0000
# 2 -6.4910 17.2375 -11.3696 0.0000 6.5248 0.0000
# 3 74.9300 -11.3696 90.0418 0.0000 -11.2490 0.0000
# 4 0.0000 0.0000 0.0000 12.8592 0.0000 3.3235
# 5 -2.7443 6.5248 -11.2490 0.0000 27.9928 0.0000
# 6 0.0000 0.0000 0.0000 3.3235 0.0000 19.1734
#
#
#
# Elastic Compliance Matrix: (Units=1/GPa)
#
#
# Indices 1 2 3 4 5 6 
#
# 1 0.016295 -0.001869 -0.014258 0.000000 -0.003697 0.000000
# 2 -0.001869 0.067682 0.008536 0.000000 -0.012529 0.000000
# 3 -0.014258 0.008536 0.024875 0.000000 0.006608 0.000000
# 4 0.000000 0.000000 0.000000 0.081413 0.000000 -0.014112
# 5 -0.003697 -0.012529 0.006608 0.000000 0.040937 0.000000
# 6 0.000000 0.000000 0.000000 -0.014112 0.000000 0.054602
#
#
# Mechanical properties :
#
#
# Convention : Reuss Voigt Hill
#
# Bulk Modulus (GPa) = 10.67573 38.55344 24.61458
# Shear Modulus (GPa) = 15.05074 23.72328 19.38701
#
# Velocity S-wave (km/s) = 2.74864 3.45085 3.11957
# Velocity P-wave (km/s) = 3.92839 5.93553 5.03303
#
# Compressibility (1/GPa) = 0.09367040
#
# Stress axis : x y z
#
# Youngs Moduli (GPa) = 61.36684 14.77492 40.20128
#
# Poissons Ratio (x) = 0.02762 0.57321
# Poissons Ratio (y) = 0.11470 -0.34317
# Poissons Ratio (z) = 0.87499 -0.12612
#
# Static dielectric constant tensor:
#      x y z
#    x 1.714270 0.000000 0.011130 
#    y 0.000000 1.739540 0.000000 
#    z 0.011130 0.000000 1.714060 
# 
# From -- ./inp_files/238570.got.cif
#   From: 2010.05.17/outbox.cif.g08.bks.cpg/sg12_120_cif.got.tgz:238570.got - 2010.06.03 13:09:07.
