data_PCOD9197984
_publ_section_title
;
Structure prediction by ZEFSAII (Michael W. Deem and Ramdas Pophale) SiO2 
 PCOD9197984
Probable space group: C 2/M
;
_chemical_formula_sum "Si O2"
_cell_formula_units_Z 64
_cell_length_a 31.580636
_cell_length_b 7.947621
_cell_length_c 15.228150
_cell_angle_alpha 90.000000
_cell_angle_beta 131.307690
_cell_angle_gamma 90.000000
_cell_volume 2871.088680
_symmetry_space_group_name_H-M "C 2/M"
_symmetry_group_IT_number 12
_symmetry_cell_setting 'monoclinic'
loop_
_space_group_symop_operation_xyz
x,y,z
-x,y,-z
-x,-y,-z
x,-y,z
1/2+x,1/2+y,z
1/2-x,1/2+y,-z
1/2-x,1/2-y,-z
1/2+x,1/2-y,z
loop_
_atom_site_type_symbol
_atom_site_label
_atom_site_fract_x
_atom_site_fract_y
_atom_site_fract_z
Si Si1 0.167960 0.196182 0.320498
Si Si2 0.792598 0.696449 0.450748
Si Si3 0.850478 0.705478 0.994008
Si Si4 0.957209 0.799748 0.365689
Si Si5 0.452496 0.298531 0.869882
Si Si6 0.168185 0.695705 0.832322
Si Si7 0.237458 0.194694 0.766331
Si Si8 0.976395 0.702270 0.193798
O O1 0.167256 0.212323 0.425547
O O2 0.228840 0.267212 0.377407
O O3 0.110503 0.271657 0.204246
O O4 0.169837 0.000000 0.299195
O O5 0.794048 0.500000 0.476110
O O6 0.800842 0.716019 0.358662
O O7 0.849797 0.500000 0.991409
O O8 0.832988 0.757456 0.068863
O O9 0.915203 0.759099 0.071212
O O10 0.801346 0.764535 0.861690
O O11 0.896177 0.714236 0.287995
O O12 0.979828 0.763480 0.298623
O O13 0.000000 0.743267 0.500000
O O14 0.948864 0.000000 0.363625
O O15 0.449314 0.500000 0.878597
O O16 0.474863 0.265787 0.802746
O O17 0.500000 0.228519 0.000000
O O18 0.184245 0.500000 0.854566
O O19 0.209298 0.789968 0.822922
O O20 0.240154 0.000000 0.745505
O O21 0.976445 0.500000 0.194914
#
# Coordination Sequence:
#
# PCOD9197984 Si02
#       8
#     8   8   8   8   8   8   8   8
#     4   9  20  40  60  80 113 149 186 233 286 343
#     4  10  21  37  58  84 110 145 191 236 286 337
#     4   8  18  35  54  78 112 148 183 226 276 332
#     4  10  21  38  60  84 112 150 192 233 283 342
#     4  10  22  39  61  88 118 153 193 238 291 350
#     4  10  20  36  55  80 114 146 184 231 277 328
#     4  11  21  34  55  82 112 147 187 228 278 336
#     4  10  21  38  58  85 117 150 191 237 287 341
#
# _framework density 22.291195999999999
#
# number of rings (size 3 to 8) (size 9 to 14) (size 15 to 20)
#    0.000    2.250    0.000    3.000    1.750    3.250 
#    0.000    7.500    0.000    0.000    0.000    0.000 
#    0.000    0.000    0.000    0.000    0.000    0.000 
#
# Total GULP energy -178737.762320 kJ/mol
# GULP energy per Si atom -5585.555072 kJ/mol
# Density = 2.224046 g / cm^3
# Si number density = 22.291196 Si / 1000 Ang^3
#
#
#
# Elastic Constant Matrix: (Units=GPa)
#
#
# Indices 1 2 3 4 5 6 
#
# 1 45.9322 -6.2347 3.3900 0.0000 11.5027 0.0000
# 2 -6.2347 39.9274 -2.8307 0.0000 1.0948 0.0000
# 3 3.3900 -2.8307 92.8334 0.0000 12.3204 0.0000
# 4 0.0000 0.0000 0.0000 15.9766 0.0000 -3.3175
# 5 11.5027 1.0948 12.3204 0.0000 15.5213 0.0000
# 6 0.0000 0.0000 0.0000 -3.3175 0.0000 15.0970
#
#
#
# Elastic Compliance Matrix: (Units=1/GPa)
#
#
# Indices 1 2 3 4 5 6 
#
# 1 0.028037 0.005159 0.002168 0.000000 -0.022863 0.000000
# 2 0.005159 0.026147 0.001521 0.000000 -0.006875 0.000000
# 3 0.002168 0.001521 0.012258 0.000000 -0.011444 0.000000
# 4 0.000000 0.000000 0.000000 0.065584 0.000000 0.014412
# 5 -0.022863 -0.006875 -0.011444 0.000000 0.090940 0.000000
# 6 0.000000 0.000000 0.000000 0.014412 0.000000 0.069405
#
#
# Mechanical properties :
#
#
# Convention : Reuss Voigt Hill
#
# Bulk Modulus (GPa) = 11.88531 18.59356 15.23943
# Shear Modulus (GPa) = 16.51680 21.61019 19.06350
#
# Velocity S-wave (km/s) = 2.72500 3.11698 2.92756
# Velocity P-wave (km/s) = 3.90439 4.61664 4.27537
#
# Compressibility (1/GPa) = 0.08413747
#
# Stress axis : x y z
#
# Youngs Moduli (GPa) = 35.66729 38.24480 81.57944
#
# Poissons Ratio (x) = -0.19729 -0.17684
# Poissons Ratio (y) = -0.18399 -0.12411
# Poissons Ratio (z) = -0.07732 -0.05818
#
# Static dielectric constant tensor:
#      x y z
#    x 1.835600 0.000000 0.002040 
#    y 0.000000 1.790510 0.000000 
#    z 0.002040 0.000000 1.857680 
# 
# From -- ./inp_files/250108.got.cif
#   From: 2010.05.17/outbox.cif.g08.bks.cpg/sg12_126_cif.got.tgz:250108.got - 2010.06.03 13:09:07.
