data_PCOD9197619
_publ_section_title
;
Structure prediction by ZEFSAII (Michael W. Deem and Ramdas Pophale) SiO2 
 PCOD9197619
Probable space group: C 2/M
;
_chemical_formula_sum "Si O2"
_cell_formula_units_Z 40
_cell_length_a 25.485578
_cell_length_b 11.740747
_cell_length_c 5.323568
_cell_angle_alpha 90.000000
_cell_angle_beta 81.199475
_cell_angle_gamma 90.000000
_cell_volume 1574.163106
_symmetry_space_group_name_H-M "C 2/M"
_symmetry_group_IT_number 12
_symmetry_cell_setting 'monoclinic'
loop_
_space_group_symop_operation_xyz
x,y,z
-x,y,-z
-x,-y,-z
x,-y,z
1/2+x,1/2+y,z
1/2-x,1/2+y,-z
1/2-x,1/2-y,-z
1/2+x,1/2-y,z
loop_
_atom_site_type_symbol
_atom_site_label
_atom_site_fract_x
_atom_site_fract_y
_atom_site_fract_z
Si Si1 0.417484 0.370810 0.996714
Si Si2 0.227794 0.625325 0.100270
Si Si3 0.623947 0.805417 0.352356
Si Si4 0.183792 0.881027 0.598215
Si Si5 0.032298 0.319615 0.733046
O O1 0.434436 0.500000 0.926563
O O2 0.356627 0.376529 0.136596
O O3 0.452132 0.309858 0.190090
O O4 0.414717 0.278500 0.776677
O O5 0.243280 0.500000 0.973034
O O6 0.163825 0.625404 0.148866
O O7 0.256585 0.618455 0.350826
O O8 0.250000 0.750000 0.000000
O O9 0.666463 0.723067 0.449012
O O10 0.589861 0.864471 0.596516
O O11 0.170077 0.000000 0.477077
O O12 0.000000 0.334068 0.500000
O O13 0.000000 0.365971 0.000000
#
# Coordination Sequence:
#
# PCOD9197619 Si02
#       5
#     8   8   8   8   8
#     4  10  20  35  60  95 135 180 230 288 357 430
#     4  11  23  41  68 104 146 190 239 291 352 433
#     4  11  21  38  65  91 136 179 242 290 359 422
#     4   9  19  35  58  93 135 180 228 283 353 423
#     4  11  23  42  62  93 133 188 239 305 362 426
#
# _framework density 25.410326000000001
#
# number of rings (size 3 to 8) (size 9 to 14) (size 15 to 20)
#    0.000    1.600    4.000    1.200    0.000    2.400 
#    0.000    1.000    0.000    1.200    0.000    0.000 
#    0.000    0.000    0.000    0.000    0.000    0.000 
#
# Total GULP energy -111375.976211 kJ/mol
# GULP energy per Si atom -5568.798811 kJ/mol
# Density = 2.535249 g / cm^3
# Si number density = 25.410326 Si / 1000 Ang^3
#
#
#
# Elastic Constant Matrix: (Units=GPa)
#
#
# Indices 1 2 3 4 5 6 
#
# 1 79.3358 19.4044 40.6539 0.0000 -14.4243 0.0000
# 2 19.4044 165.5407 29.3600 0.0000 -3.7142 0.0000
# 3 40.6539 29.3600 121.2034 0.0000 -22.1632 0.0000
# 4 0.0000 0.0000 0.0000 -8.0797 0.0000 -12.9666
# 5 -14.4243 -3.7142 -22.1632 0.0000 61.4571 0.0000
# 6 0.0000 0.0000 0.0000 -12.9666 0.0000 -6.8989
#
#
#
# Elastic Compliance Matrix: (Units=1/GPa)
#
#
# Indices 1 2 3 4 5 6 
#
# 1 0.015565 -0.000959 -0.004637 0.000000 0.001923 0.000000
# 2 -0.000959 0.006373 -0.001277 0.000000 -0.000300 0.000000
# 3 -0.004637 -0.001277 0.010601 0.000000 0.002658 0.000000
# 4 0.000000 0.000000 0.000000 0.061383 0.000000 -0.115370
# 5 0.001923 -0.000300 0.002658 0.000000 0.017663 0.000000
# 6 0.000000 0.000000 0.000000 -0.115370 0.000000 0.071889
#
#
# Mechanical properties :
#
#
# Convention : Reuss Voigt Hill
#
# Bulk Modulus (GPa) = 53.21027 60.54627 56.87827
# Shear Modulus (GPa) = 24.57200 27.73980 26.15590
#
# Velocity S-wave (km/s) = 3.11305 3.30763 3.21182
# Velocity P-wave (km/s) = 5.82300 6.20213 6.01555
#
# Compressibility (1/GPa) = 0.01879336
#
# Stress axis : x y z
#
# Youngs Moduli (GPa) = 64.24726 156.91265 94.32898
#
# Poissons Ratio (x) = 0.15047 0.43739
# Poissons Ratio (y) = 0.06161 0.12046
# Poissons Ratio (z) = 0.29790 0.20039
#
# Static dielectric constant tensor:
#      x y z
#    x 2.042340 0.000000 -0.058720 
#    y 0.000000 1.977340 0.000000 
#    z -0.058720 0.000000 2.100010 
# 
# From -- ./inp_files/27411.got.cif
#   From: 2010.05.17/outbox.cif.g08.bks.cpg/sg12_14_cif.got.tgz:27411.got - 2010.06.03 13:09:07.
