data_PCOD9197812
_publ_section_title
;
Structure prediction by ZEFSAII (Michael W. Deem and Ramdas Pophale) SiO2 
 PCOD9197812
Probable space group: C 2/M
;
_chemical_formula_sum "Si O2"
_cell_formula_units_Z 52
_cell_length_a 9.095608
_cell_length_b 26.461132
_cell_length_c 24.744596
_cell_angle_alpha 90.000000
_cell_angle_beta 26.690776
_cell_angle_gamma 90.000000
_cell_volume 2675.076846
_symmetry_space_group_name_H-M "C 2/M"
_symmetry_group_IT_number 12
_symmetry_cell_setting 'monoclinic'
loop_
_space_group_symop_operation_xyz
x,y,z
-x,y,-z
-x,-y,-z
x,-y,z
1/2+x,1/2+y,z
1/2-x,1/2+y,-z
1/2-x,1/2-y,-z
1/2+x,1/2-y,z
loop_
_atom_site_type_symbol
_atom_site_label
_atom_site_fract_x
_atom_site_fract_y
_atom_site_fract_z
Si Si1 0.426967 0.055939 0.431841
Si Si2 0.000000 0.237630 0.000000
Si Si3 0.464205 0.555842 0.683263
Si Si4 0.391399 0.682688 0.935380
Si Si5 0.352351 0.743298 0.404576
Si Si6 0.192149 0.651203 0.289902
Si Si7 0.208261 0.160863 0.218932
O O1 0.120809 0.061839 0.572546
O O2 0.737148 0.055830 0.371292
O O3 0.476748 0.102688 0.375748
O O4 0.413271 0.000000 0.410883
O O5 0.894120 0.204618 0.086093
O O6 0.712479 0.273075 0.072147
O O7 0.308687 0.500000 0.737891
O O8 0.267603 0.605608 0.762608
O O9 0.573596 0.642327 0.838732
O O10 0.049383 0.669583 0.076237
O O11 0.250000 0.750000 0.500000
O O12 0.481743 0.798846 0.345424
O O13 0.604836 0.701944 0.298115
O O14 0.000000 0.726163 0.500000
O O15 0.424516 0.661865 0.265834
#
# Coordination Sequence:
#
# PCOD9197812 Si02
#       7
#     8   4   8   8   8   8   8
#     4   8  15  30  52  77 105 143 183 224 274 321
#     4  10  20  36  52  70 110 146 192 218 250 324
#     4   8  15  29  51  77 107 143 181 224 276 321
#     4  11  22  36  55  80 107 152 188 220 271 327
#     4  12  24  36  52  79 111 148 180 223 278 321
#     4  11  21  35  55  80 114 144 181 228 272 331
#     4  11  21  34  55  80 116 143 181 231 270 328
#
# _framework density 19.438694999999999
#
# number of rings (size 3 to 8) (size 9 to 14) (size 15 to 20)
#    0.000    1.846    3.077    3.692    2.154    1.231 
#    0.000    0.769    0.000    4.154    0.000    4.308 
#    0.000    0.000    0.000    0.000    0.000    0.000 
#
# Total GULP energy -144898.116247 kJ/mol
# GULP energy per Si atom -5573.004471 kJ/mol
# Density = 1.939445 g / cm^3
# Si number density = 19.438695 Si / 1000 Ang^3
#
#
#
# Elastic Constant Matrix: (Units=GPa)
#
#
# Indices 1 2 3 4 5 6 
#
# 1 42.2602 9.2275 13.7024 0.0007 22.9515 0.0092
# 2 9.2275 150.1059 67.9792 0.0007 22.6762 0.0005
# 3 13.7024 67.9792 107.2008 0.0003 18.5220 0.0092
# 4 0.0007 0.0007 0.0003 19.1807 0.0016 6.6758
# 5 22.9515 22.6762 18.5220 0.0016 26.7519 -0.0013
# 6 0.0092 0.0005 0.0092 6.6758 -0.0013 17.6212
#
#
#
# Elastic Compliance Matrix: (Units=1/GPa)
#
#
# Indices 1 2 3 4 5 6 
#
# 1 0.046038 0.004072 -0.001188 0.000013 -0.042127 -0.000032
# 2 0.004072 0.010171 -0.005540 0.000000 -0.008280 0.000000
# 3 -0.001188 -0.005540 0.013637 0.000003 -0.003727 -0.000008
# 4 0.000013 0.000000 0.000003 0.060054 -0.000018 -0.022751
# 5 -0.042127 -0.008280 -0.003727 -0.000018 0.083121 0.000037
# 6 -0.000032 0.000000 -0.000008 -0.022751 0.000037 0.065369
#
#
# Mechanical properties :
#
#
# Convention : Reuss Voigt Hill
#
# Bulk Modulus (GPa) = 15.49564 53.48724 34.49144
# Shear Modulus (GPa) = 16.38195 26.62129 21.50162
#
# Velocity S-wave (km/s) = 2.90616 3.70469 3.32945
# Velocity P-wave (km/s) = 4.38747 6.77313 5.70636
#
# Compressibility (1/GPa) = 0.06453429
#
# Stress axis : x y z
#
# Youngs Moduli (GPa) = 21.72117 98.31605 73.32988
#
# Poissons Ratio (x) = -0.40034 0.08712
# Poissons Ratio (y) = -0.08845 0.40624
# Poissons Ratio (z) = 0.02581 0.54466
#
# Static dielectric constant tensor:
#      x y z
#    x 1.711560 0.000000 0.002070 
#    y 0.000000 1.706580 0.000000 
#    z 0.002070 0.000000 1.705800 
# 
# From -- ./inp_files/334194.got.cif
#   From: 2010.05.17/outbox.cif.g08.bks.cpg/sg12_168_cif.got.tgz:334194.got - 2010.06.03 13:09:07.
