data_PCOD9197769
_publ_section_title
;
Structure prediction by ZEFSAII (Michael W. Deem and Ramdas Pophale) SiO2 
 PCOD9197769
Probable space group: C 2/M
;
_chemical_formula_sum "Si O2"
_cell_formula_units_Z 48
_cell_length_a 11.446376
_cell_length_b 15.941080
_cell_length_c 12.050750
_cell_angle_alpha 90.000000
_cell_angle_beta 108.721164
_cell_angle_gamma 90.000000
_cell_volume 2082.533016
_symmetry_space_group_name_H-M "C 2/M"
_symmetry_group_IT_number 12
_symmetry_cell_setting 'monoclinic'
loop_
_space_group_symop_operation_xyz
x,y,z
-x,y,-z
-x,-y,-z
x,-y,z
1/2+x,1/2+y,z
1/2-x,1/2+y,-z
1/2-x,1/2-y,-z
1/2+x,1/2-y,z
loop_
_atom_site_type_symbol
_atom_site_label
_atom_site_fract_x
_atom_site_fract_y
_atom_site_fract_z
Si Si1 0.497671 0.865500 0.341752
Si Si2 0.641089 0.500000 0.090022
Si Si3 0.567113 0.329171 0.635958
Si Si4 0.209547 0.589640 0.575659
Si Si5 0.106721 0.161283 0.229526
Si Si6 0.650753 0.000000 0.036850
Si Si7 0.336849 0.152875 0.798539
O O1 0.463335 0.769713 0.359802
O O2 0.380247 0.915062 0.345773
O O3 0.614687 0.891169 0.450397
O O4 0.542784 0.877885 0.231916
O O5 0.643050 0.584201 0.164286
O O6 0.500000 0.500000 0.000000
O O7 0.758455 0.500000 0.042710
O O8 0.500000 0.357529 0.500000
O O9 0.518825 0.359570 0.742801
O O10 0.713210 0.346071 0.684586
O O11 0.272263 0.500000 0.575524
O O12 0.303627 0.662083 0.634721
O O13 0.127548 0.248860 0.172216
O O14 0.684347 0.912807 0.110519
O O15 0.500000 0.000000 0.000000
#
# Coordination Sequence:
#
# PCOD9197769 Si02
#       7
#     8   4   8   8   8   4   8
#     4  10  20  35  63  97 143 176 214 258 324 403
#     4  12  28  52  72  96 134 174 238 304 360 416
#     4  11  20  39  65 102 147 180 221 264 321 415
#     4  11  20  35  61 102 135 185 215 257 316 412
#     4  11  24  41  73  94 133 184 224 269 346 415
#     4  12  32  50  74 100 130 170 242 320 358 397
#     4  11  25  44  68  99 135 176 224 283 348 402
#
# _framework density 23.048855
#
# number of rings (size 3 to 8) (size 9 to 14) (size 15 to 20)
#    0.000    1.000    4.167    3.000    4.667    4.000 
#    0.000    0.833    0.000    0.000    0.000    0.000 
#    0.000    0.000    0.000    0.000    0.000    0.000 
#
# Total GULP energy -133765.282750 kJ/mol
# GULP energy per Si atom -5573.553448 kJ/mol
# Density = 2.299639 g / cm^3
# Si number density = 23.048855 Si / 1000 Ang^3
#
#
#
# Elastic Constant Matrix: (Units=GPa)
#
#
# Indices 1 2 3 4 5 6 
#
# 1 123.0353 29.8783 35.0483 0.0000 -17.4977 0.0000
# 2 29.8783 100.5900 41.6531 0.0000 -20.2497 0.0000
# 3 35.0483 41.6531 64.4894 0.0000 -9.1466 0.0000
# 4 0.0000 0.0000 0.0000 35.1964 0.0000 -3.1258
# 5 -17.4977 -20.2497 -9.1466 0.0000 50.2269 0.0000
# 6 0.0000 0.0000 0.0000 -3.1258 0.0000 32.3306
#
#
#
# Elastic Compliance Matrix: (Units=1/GPa)
#
#
# Indices 1 2 3 4 5 6 
#
# 1 0.009941 -0.000511 -0.004733 0.000000 0.002395 0.000000
# 2 -0.000511 0.014418 -0.008454 0.000000 0.004096 0.000000
# 3 -0.004733 -0.008454 0.023427 0.000000 -0.000791 0.000000
# 4 0.000000 0.000000 0.000000 0.028658 0.000000 0.002771
# 5 0.002395 0.004096 -0.000791 0.000000 0.022251 0.000000
# 6 0.000000 0.000000 0.000000 0.002771 0.000000 0.031198
#
#
# Mechanical properties :
#
#
# Convention : Reuss Voigt Hill
#
# Bulk Modulus (GPa) = 49.04303 55.69711 52.37007
# Shear Modulus (GPa) = 30.47184 35.65311 33.06247
#
# Velocity S-wave (km/s) = 3.63995 3.93727 3.79152
# Velocity P-wave (km/s) = 6.24417 6.69975 6.47597
#
# Compressibility (1/GPa) = 0.02039026
#
# Stress axis : x y z
#
# Youngs Moduli (GPa) = 100.59705 69.35641 42.68581
#
# Poissons Ratio (x) = 0.03541 0.20203
# Poissons Ratio (y) = 0.05137 0.36088
# Poissons Ratio (z) = 0.47612 0.58636
#
# Static dielectric constant tensor:
#      x y z
#    x 1.931880 0.000000 -0.011430 
#    y 0.000000 1.852380 0.000000 
#    z -0.011430 0.000000 1.903440 
# 
# From -- ./inp_files/131795.got.cif
#   From: 2010.05.17/outbox.cif.g08.bks.cpg/sg12_66_cif.got.tgz:131795.got - 2010.06.03 13:09:07.
