data_PCOD9197350
_publ_section_title
;
Structure prediction by ZEFSAII (Michael W. Deem and Ramdas Pophale) SiO2 
 PCOD9197350
Probable space group: C 2/M
;
_chemical_formula_sum "Si O2"
_cell_formula_units_Z 56
_cell_length_a 24.247639
_cell_length_b 15.082554
_cell_length_c 16.532725
_cell_angle_alpha 90.000000
_cell_angle_beta 28.121449
_cell_angle_gamma 90.000000
_cell_volume 2849.869674
_symmetry_space_group_name_H-M "C 2/M"
_symmetry_group_IT_number 12
_symmetry_cell_setting 'monoclinic'
loop_
_space_group_symop_operation_xyz
x,y,z
-x,y,-z
-x,-y,-z
x,-y,z
1/2+x,1/2+y,z
1/2-x,1/2+y,-z
1/2-x,1/2-y,-z
1/2+x,1/2-y,z
loop_
_atom_site_type_symbol
_atom_site_label
_atom_site_fract_x
_atom_site_fract_y
_atom_site_fract_z
Si Si1 0.552473 0.643657 0.347691
Si Si2 0.846313 0.899628 0.341541
Si Si3 0.750787 0.602196 0.981416
Si Si4 0.007062 0.351163 0.399792
Si Si5 0.255727 0.797364 0.671881
Si Si6 0.823207 0.900793 0.558973
Si Si7 0.874521 0.105184 0.017572
O O1 0.500000 0.607918 0.500000
O O2 0.540652 0.748699 0.367057
O O3 0.462519 0.606511 0.397077
O O4 0.685635 0.629997 0.147676
O O5 0.791993 0.826425 0.353486
O O6 0.801781 0.895606 0.490929
O O7 0.986046 0.888644 0.166194
O O8 0.823477 0.000000 0.339333
O O9 0.721692 0.500000 0.013868
O O10 0.889116 0.611854 0.789940
O O11 0.687288 0.641760 0.983992
O O12 0.000000 0.390880 0.500000
O O13 0.880005 0.346499 0.524570
O O14 0.271669 0.690994 0.661432
O O15 0.171594 0.838080 0.848122
O O16 0.785578 0.000000 0.635694
O O17 0.845021 0.000000 0.066684
#
# Coordination Sequence:
#
# PCOD9197350 Si02
#       7
#     8   8   8   8   8   8   8
#     4  10  21  38  63  83 111 153 205 249 285 337
#     4  10  20  37  61  87 116 150 198 250 292 339
#     4  11  21  35  57  85 121 156 189 239 302 353
#     4  10  21  37  54  85 121 159 189 231 293 356
#     4  11  21  35  58  88 121 156 198 232 292 359
#     4  10  21  38  58  83 114 150 196 249 294 337
#     4  10  20  35  59  88 118 151 192 244 295 346
#
# _framework density 19.650020999999999
#
# number of rings (size 3 to 8) (size 9 to 14) (size 15 to 20)
#    0.000    1.714    2.857    2.143    0.000    3.714 
#    0.000    0.000    0.000    1.714    0.000    2.000 
#    0.000    0.000    0.000    0.000    0.000    0.000 
#
# Total GULP energy -156095.168259 kJ/mol
# GULP energy per Si atom -5574.827438 kJ/mol
# Density = 1.960530 g / cm^3
# Si number density = 19.650021 Si / 1000 Ang^3
#
#
#
# Elastic Constant Matrix: (Units=GPa)
#
#
# Indices 1 2 3 4 5 6 
#
# 1 49.1725 8.8760 18.9093 0.0000 5.3822 0.0000
# 2 8.8760 68.7797 16.9004 0.0000 -1.1407 0.0000
# 3 18.9093 16.9004 62.5795 0.0000 15.2430 0.0000
# 4 0.0000 0.0000 0.0000 10.4198 0.0000 -8.7802
# 5 5.3822 -1.1407 15.2430 0.0000 21.0892 0.0000
# 6 0.0000 0.0000 0.0000 -8.7802 0.0000 16.8853
#
#
#
# Elastic Compliance Matrix: (Units=1/GPa)
#
#
# Indices 1 2 3 4 5 6 
#
# 1 0.023165 -0.001481 -0.006238 0.000000 -0.001483 0.000000
# 2 -0.001481 0.016063 -0.005090 0.000000 0.004926 0.000000
# 3 -0.006238 -0.005090 0.022961 0.000000 -0.015279 0.000000
# 4 0.000000 0.000000 0.000000 0.170818 0.000000 0.088824
# 5 -0.001483 0.004926 -0.015279 0.000000 0.059106 0.000000
# 6 0.000000 0.000000 0.000000 0.088824 0.000000 0.105411
#
#
# Mechanical properties :
#
#
# Convention : Reuss Voigt Hill
#
# Bulk Modulus (GPa) = 27.34532 29.98921 28.66726
# Shear Modulus (GPa) = 11.48545 18.73526 15.11036
#
# Velocity S-wave (km/s) = 2.42027 3.09114 2.77605
# Velocity P-wave (km/s) = 4.66440 5.29481 4.98957
#
# Compressibility (1/GPa) = 0.03656934
#
# Stress axis : x y z
#
# Youngs Moduli (GPa) = 43.16805 62.25568 43.55197
#
# Poissons Ratio (x) = 0.09221 0.27170
# Poissons Ratio (y) = 0.06394 0.22169
# Poissons Ratio (z) = 0.26930 0.31690
#
# Static dielectric constant tensor:
#      x y z
#    x 1.720100 0.000000 0.043810 
#    y 0.000000 1.714900 0.000000 
#    z 0.043810 0.000000 1.722410 
# 
# From -- ./inp_files/240874.got.cif
#   From: 2010.05.17/outbox.cif.g08.bks.cpg/sg12_121_cif.got.tgz:240874.got - 2010.06.03 13:09:07.
