data_PCOD9197964
_publ_section_title
;
Structure prediction by ZEFSAII (Michael W. Deem and Ramdas Pophale) SiO2 
 PCOD9197964
Probable space group: C 2/M
;
_chemical_formula_sum "Si O2"
_cell_formula_units_Z 64
_cell_length_a 25.150710
_cell_length_b 8.718503
_cell_length_c 16.619618
_cell_angle_alpha 90.000000
_cell_angle_beta 91.697500
_cell_angle_gamma 90.000000
_cell_volume 3642.693056
_symmetry_space_group_name_H-M "C 2/M"
_symmetry_group_IT_number 12
_symmetry_cell_setting 'monoclinic'
loop_
_space_group_symop_operation_xyz
x,y,z
-x,y,-z
-x,-y,-z
x,-y,z
1/2+x,1/2+y,z
1/2-x,1/2+y,-z
1/2-x,1/2-y,-z
1/2+x,1/2-y,z
loop_
_atom_site_type_symbol
_atom_site_label
_atom_site_fract_x
_atom_site_fract_y
_atom_site_fract_z
Si Si1 0.441116 0.816240 0.030721
Si Si2 0.633097 0.182960 0.381331
Si Si3 0.194193 0.816842 0.528412
Si Si4 0.069809 0.815596 0.791153
Si Si5 0.178731 0.186766 0.711281
Si Si6 0.885210 0.817291 0.877411
Si Si7 0.793857 0.315530 0.770159
Si Si8 0.040427 0.315809 0.259960
O O1 0.433366 0.744986 0.117979
O O2 0.437505 0.000000 0.035207
O O3 0.500000 0.777059 0.000000
O O4 0.399299 0.751632 0.964552
O O5 0.649371 0.266952 0.463084
O O6 0.676627 0.216960 0.313555
O O7 0.576484 0.223226 0.339050
O O8 0.634587 0.000000 0.394906
O O9 0.250000 0.750000 0.500000
O O10 0.182207 0.763176 0.618564
O O11 0.198701 0.000000 0.530177
O O12 0.124703 0.764699 0.752055
O O13 0.018431 0.750874 0.742682
O O14 0.067728 0.000000 0.791265
O O15 0.232778 0.233211 0.759216
O O16 0.179072 0.000000 0.710792
O O17 0.828245 0.764786 0.840519
O O18 0.928179 0.750239 0.815857
O O19 0.889149 0.000000 0.879155
O O20 0.796769 0.500000 0.781675
O O21 0.039221 0.500000 0.252245
#
# Coordination Sequence:
#
# PCOD9197964 Si02
#       8
#     8   8   8   8   8   8   8   8
#     4  11  22  37  58  82 112 147 184 224 279 335
#     4   9  18  33  55  81 109 143 185 230 274 323
#     4  11  20  34  56  83 113 145 186 231 276 325
#     4  11  22  37  59  84 111 144 188 233 275 325
#     4   9  20  38  57  80 114 153 183 223 282 335
#     4  11  21  33  55  87 114 137 183 237 274 316
#     4   9  17  35  57  77 112 152 183 219 279 336
#     4  10  20  36  55  78 113 151 182 221 282 337
#
# _framework density 17.569417999999999
#
# number of rings (size 3 to 8) (size 9 to 14) (size 15 to 20)
#    0.000    1.875    2.500    3.375    0.000    3.000 
#    0.000    5.000    0.000    3.750    0.000    0.000 
#    0.000    0.000    0.000    0.000    0.000    0.000 
#
# Total GULP energy -178666.270239 kJ/mol
# GULP energy per Si atom -5583.320945 kJ/mol
# Density = 1.752943 g / cm^3
# Si number density = 17.569418 Si / 1000 Ang^3
#
#
#
# Elastic Constant Matrix: (Units=GPa)
#
#
# Indices 1 2 3 4 5 6 
#
# 1 166.5667 45.4587 81.5589 0.0000 11.0777 0.0000
# 2 45.4587 52.9148 39.9923 0.0000 4.9671 0.0000
# 3 81.5589 39.9923 105.7027 0.0000 9.8662 0.0000
# 4 0.0000 0.0000 0.0000 27.1903 0.0000 8.0427
# 5 11.0777 4.9671 9.8662 0.0000 28.4901 0.0000
# 6 0.0000 0.0000 0.0000 8.0427 0.0000 26.5576
#
#
#
# Elastic Compliance Matrix: (Units=1/GPa)
#
#
# Indices 1 2 3 4 5 6 
#
# 1 0.010239 -0.003920 -0.006313 0.000000 -0.001111 0.000000
# 2 -0.003920 0.028006 -0.007500 0.000000 -0.000761 0.000000
# 3 -0.006313 -0.007500 0.017380 0.000000 -0.002256 0.000000
# 4 0.000000 0.000000 0.000000 0.040397 0.000000 -0.012234
# 5 -0.001111 -0.000761 -0.002256 0.000000 0.036446 0.000000
# 6 0.000000 0.000000 0.000000 -0.012234 0.000000 0.041359
#
#
# Mechanical properties :
#
#
# Convention : Reuss Voigt Hill
#
# Bulk Modulus (GPa) = 49.60897 73.24489 61.42693
# Shear Modulus (GPa) = 23.14685 26.99255 25.06970
#
# Velocity S-wave (km/s) = 3.63361 3.92387 3.78152
# Velocity P-wave (km/s) = 6.77506 7.89356 7.35560
#
# Compressibility (1/GPa) = 0.02015764
#
# Stress axis : x y z
#
# Youngs Moduli (GPa) = 97.67014 35.70644 57.53815
#
# Poissons Ratio (x) = 0.13998 0.36324
# Poissons Ratio (y) = 0.38289 0.43155
# Poissons Ratio (z) = 0.61659 0.26780
#
# Static dielectric constant tensor:
#      x y z
#    x 1.600670 0.000000 0.015790 
#    y 0.000000 1.589270 0.000000 
#    z 0.015790 0.000000 1.579060 
# 
# From -- ./inp_files/238644.got.cif
#   From: 2010.05.17/outbox.cif.g08.bks.cpg/sg12_120_cif.got.tgz:238644.got - 2010.06.03 13:09:07.
