data_PCOD9197880
_publ_section_title
;
Structure prediction by ZEFSAII (Michael W. Deem and Ramdas Pophale) SiO2 
 PCOD9197880
Probable space group: C 2/M
;
_chemical_formula_sum "Si O2"
_cell_formula_units_Z 58
_cell_length_a 14.196568
_cell_length_b 12.973459
_cell_length_c 15.824361
_cell_angle_alpha 90.000000
_cell_angle_beta 84.805367
_cell_angle_gamma 90.000000
_cell_volume 2902.538318
_symmetry_space_group_name_H-M "C 2/M"
_symmetry_group_IT_number 12
_symmetry_cell_setting 'monoclinic'
loop_
_space_group_symop_operation_xyz
x,y,z
-x,y,-z
-x,-y,-z
x,-y,z
1/2+x,1/2+y,z
1/2-x,1/2+y,-z
1/2-x,1/2-y,-z
1/2+x,1/2-y,z
loop_
_atom_site_type_symbol
_atom_site_label
_atom_site_fract_x
_atom_site_fract_y
_atom_site_fract_z
Si Si1 0.134494 0.620547 0.450973
Si Si2 0.046304 0.692853 0.627284
Si Si3 0.000000 0.500000 0.000000
Si Si4 0.623039 0.813496 0.950614
Si Si5 0.174103 0.877444 0.663525
Si Si6 0.686262 0.616249 0.007562
Si Si7 0.210710 0.618964 0.182706
Si Si8 0.502762 0.879648 0.810346
O O1 0.111145 0.500000 0.437016
O O2 0.114457 0.645907 0.549983
O O3 0.241231 0.636206 0.411376
O O4 0.058949 0.687296 0.403834
O O5 0.086092 0.805529 0.647207
O O6 0.042364 0.626483 0.712884
O O7 0.920071 0.409025 0.995772
O O8 0.612090 0.707722 0.002215
O O9 0.569480 0.815436 0.866587
O O10 0.733724 0.843124 0.934598
O O11 0.221464 0.841834 0.748511
O O12 0.151199 0.000000 0.670290
O O13 0.655364 0.500000 0.028538
O O14 0.736075 0.617727 0.910760
O O15 0.192006 0.500000 0.209671
O O16 0.104597 0.661587 0.185204
O O17 0.506837 0.000000 0.844079
#
# Coordination Sequence:
#
# PCOD9197880 Si02
#       8
#     8   8   2   8   8   8   8   8
#     4  10  20  37  55  81 111 142 183 235 278 331
#     4  11  20  32  57  83 109 145 185 231 280 332
#     4  12  20  40  54  88 108 148 184 238 274 334
#     4  11  22  33  58  84 114 145 188 234 280 331
#     4  10  20  36  54  80 110 147 188 228 276 337
#     4  10  20  37  54  83 115 152 183 229 283 342
#     4   9  18  32  55  79 109 142 183 228 274 331
#     4  11  19  32  54  87 110 141 186 235 280 329
#
# _framework density 19.982510000000001
#
# number of rings (size 3 to 8) (size 9 to 14) (size 15 to 20)
#    0.000    1.655    2.759    3.724    1.931    0.000 
#    0.000    1.724    0.000    2.483    1.793    0.000 
#    0.000    0.000    0.000    0.000    0.000    0.000 
#
# Total GULP energy -161656.208996 kJ/mol
# GULP energy per Si atom -5574.352034 kJ/mol
# Density = 1.993703 g / cm^3
# Si number density = 19.982510 Si / 1000 Ang^3
#
#
#
# Elastic Constant Matrix: (Units=GPa)
#
#
# Indices 1 2 3 4 5 6 
#
# 1 68.0409 48.6001 22.5261 0.0000 17.3192 0.0000
# 2 48.6001 130.6702 11.1490 0.0000 21.5717 0.0000
# 3 22.5261 11.1490 80.6256 0.0000 11.4137 0.0000
# 4 0.0000 0.0000 0.0000 -25.6838 0.0000 67.3983
# 5 17.3192 21.5717 11.4137 0.0000 25.4255 0.0000
# 6 0.0000 0.0000 0.0000 67.3983 0.0000 -30.6039
#
#
#
# Elastic Compliance Matrix: (Units=1/GPa)
#
#
# Indices 1 2 3 4 5 6 
#
# 1 0.023095 -0.006911 -0.004378 0.000000 -0.007902 0.000000
# 2 -0.006911 0.010970 0.001137 0.000000 -0.005110 0.000000
# 3 -0.004378 0.001137 0.014078 0.000000 -0.004303 0.000000
# 4 0.000000 0.000000 0.000000 0.008147 0.000000 0.017942
# 5 -0.007902 -0.005110 -0.004303 0.000000 0.050980 0.000000
# 6 0.000000 0.000000 0.000000 0.017942 0.000000 0.006837
#
#
# Mechanical properties :
#
#
# Convention : Reuss Voigt Hill
#
# Bulk Modulus (GPa) = 35.92154 49.32080 42.62117
# Shear Modulus (GPa) = 34.79697 6.96499 20.88098
#
# Velocity S-wave (km/s) = 4.17750 1.86899 3.23610
# Velocity P-wave (km/s) = 6.42528 5.42154 5.94463
#
# Compressibility (1/GPa) = 0.02783845
#
# Stress axis : x y z
#
# Youngs Moduli (GPa) = 43.30005 91.15797 71.03282
#
# Poissons Ratio (x) = 0.63004 0.31098
# Poissons Ratio (y) = 0.29927 -0.08080
# Poissons Ratio (z) = 0.18957 -0.10369
#
# Static dielectric constant tensor:
#      x y z
#    x 1.739340 0.000000 0.017560 
#    y 0.000000 1.741330 0.000000 
#    z 0.017560 0.000000 1.653000 
# 
# From -- ./inp_files/268825.got.cif
#   From: 2010.05.17/outbox.cif.g08.bks.cpg/sg12_135_cif.got.tgz:268825.got - 2010.06.03 13:09:07.
