data_PCOD9197788
_publ_section_title
;
Structure prediction by ZEFSAII (Michael W. Deem and Ramdas Pophale) SiO2 
 PCOD9197788
Probable space group: C 2/M
;
_chemical_formula_sum "Si O2"
_cell_formula_units_Z 40
_cell_length_a 17.789729
_cell_length_b 28.129979
_cell_length_c 8.477759
_cell_angle_alpha 90.000000
_cell_angle_beta 25.783736
_cell_angle_gamma 90.000000
_cell_volume 1845.374945
_symmetry_space_group_name_H-M "C 2/M"
_symmetry_group_IT_number 12
_symmetry_cell_setting 'monoclinic'
loop_
_space_group_symop_operation_xyz
x,y,z
-x,y,-z
-x,-y,-z
x,-y,z
1/2+x,1/2+y,z
1/2-x,1/2+y,-z
1/2-x,1/2-y,-z
1/2+x,1/2-y,z
loop_
_atom_site_type_symbol
_atom_site_label
_atom_site_fract_x
_atom_site_fract_y
_atom_site_fract_z
Si Si1 0.300036 0.056462 0.201388
Si Si2 0.801995 0.597476 0.873994
Si Si3 0.192128 0.200379 0.689547
Si Si4 0.684064 0.300721 0.075336
Si Si5 0.810966 0.597923 0.499710
O O1 0.223359 0.071484 0.516645
O O2 0.312023 0.000000 0.170736
O O3 0.219661 0.075307 0.188142
O O4 0.493440 0.078933 0.847865
O O5 0.731799 0.591048 0.826691
O O6 0.000000 0.579518 0.500000
O O7 0.800699 0.654353 0.899341
O O8 0.250000 0.250000 0.500000
O O9 0.310064 0.153511 0.451200
O O10 0.175322 0.205598 0.906556
O O11 0.000000 0.187578 0.000000
O O12 0.500000 0.310724 0.500000
O O13 0.750000 0.250000 0.000000
#
# Coordination Sequence:
#
# PCOD9197788 Si02
#       5
#     8   8   8   8   8
#     4  10  20  35  65  92 118 159 206 261 311 358
#     4   9  20  36  57  89 119 155 199 253 305 363
#     4  11  25  39  60  91 124 168 206 249 311 373
#     4  11  23  39  60  87 122 163 202 252 306 369
#     4   9  20  36  55  87 124 153 200 251 307 357
#
# _framework density 21.675812000000001
#
# number of rings (size 3 to 8) (size 9 to 14) (size 15 to 20)
#    0.000    2.000    0.000    3.000    8.400    6.000 
#    0.000    0.000    0.000    3.000    0.000    0.000 
#    0.000    0.000    0.000    0.000    0.000    0.000 
#
# Total GULP energy -111445.524912 kJ/mol
# GULP energy per Si atom -5572.276246 kJ/mol
# Density = 2.162648 g / cm^3
# Si number density = 21.675812 Si / 1000 Ang^3
#
#
#
# Elastic Constant Matrix: (Units=GPa)
#
#
# Indices 1 2 3 4 5 6 
#
# 1 135.4428 95.9514 26.8628 -0.0001 39.3326 -0.0001
# 2 95.9514 151.1067 27.6151 0.0000 30.7423 0.0000
# 3 26.8628 27.6151 53.7700 -0.0008 16.6870 -0.0004
# 4 -0.0001 0.0000 -0.0008 30.3931 0.0004 3.3006
# 5 39.3326 30.7423 16.6870 0.0004 27.6429 0.0001
# 6 -0.0001 0.0000 -0.0004 3.3006 0.0001 32.9365
#
#
#
# Elastic Compliance Matrix: (Units=1/GPa)
#
#
# Indices 1 2 3 4 5 6 
#
# 1 0.017811 -0.007983 0.000383 0.000000 -0.016697 0.000000
# 2 -0.007983 0.012271 -0.001974 0.000000 -0.001096 0.000000
# 3 0.000383 -0.001974 0.023267 0.000001 -0.012396 0.000000
# 4 0.000000 0.000000 0.000001 0.033264 -0.000001 -0.003333
# 5 -0.016697 -0.001096 -0.012396 -0.000001 0.068635 0.000000
# 6 0.000000 0.000000 0.000000 -0.003333 0.000000 0.030696
#
#
# Mechanical properties :
#
#
# Convention : Reuss Voigt Hill
#
# Bulk Modulus (GPa) = 29.23814 71.24200 50.24007
# Shear Modulus (GPa) = 23.09564 30.85383 26.97474
#
# Velocity S-wave (km/s) = 3.26775 3.77692 3.53152
# Velocity P-wave (km/s) = 5.26836 7.20823 6.31325
#
# Compressibility (1/GPa) = 0.03420190
#
# Stress axis : x y z
#
# Youngs Moduli (GPa) = 56.14384 81.49434 42.97989
#
# Poissons Ratio (x) = 0.65059 -0.01647
# Poissons Ratio (y) = 0.44821 0.08482
# Poissons Ratio (z) = -0.02152 0.16083
#
# Static dielectric constant tensor:
#      x y z
#    x 1.819020 0.000000 0.071580 
#    y 0.000000 1.802050 0.000000 
#    z 0.071580 0.000000 1.817620 
# 
# From -- ./inp_files/39345.got.cif
#   From: 2010.05.17/outbox.cif.g08.bks.cpg/sg12_20_cif.got.tgz:39345.got - 2010.06.03 13:09:07.
