data_PCOD9197798
_publ_section_title
;
Structure prediction by ZEFSAII (Michael W. Deem and Ramdas Pophale) SiO2 
 PCOD9197798
Probable space group: C 2/M
;
_chemical_formula_sum "Si O2"
_cell_formula_units_Z 36
_cell_length_a 14.598947
_cell_length_b 18.866253
_cell_length_c 8.566849
_cell_angle_alpha 90.000000
_cell_angle_beta 128.930318
_cell_angle_gamma 90.000000
_cell_volume 1835.515572
_symmetry_space_group_name_H-M "C 2/M"
_symmetry_group_IT_number 12
_symmetry_cell_setting 'monoclinic'
loop_
_space_group_symop_operation_xyz
x,y,z
-x,y,-z
-x,-y,-z
x,-y,z
1/2+x,1/2+y,z
1/2-x,1/2+y,-z
1/2-x,1/2-y,-z
1/2+x,1/2-y,z
loop_
_atom_site_type_symbol
_atom_site_label
_atom_site_fract_x
_atom_site_fract_y
_atom_site_fract_z
Si Si1 0.904475 0.342385 0.038501
Si Si2 0.307585 0.579733 0.051034
Si Si3 0.000000 0.128518 0.500000
Si Si4 0.689129 0.296159 0.199135
Si Si5 0.416397 0.753761 0.611767
O O1 0.817388 0.404505 0.997230
O O2 0.976451 0.308602 0.260493
O O3 0.817193 0.278023 0.899240
O O4 0.000000 0.357635 0.000000
O O5 0.308959 0.500000 0.989472
O O6 0.321797 0.638647 0.930052
O O7 0.413449 0.587768 0.290241
O O8 0.076116 0.184620 0.484476
O O9 0.590709 0.281321 0.224454
O O10 0.805681 0.297912 0.431123
#
# Coordination Sequence:
#
# PCOD9197798 Si02
#       5
#     8   8   4   8   8
#     4  10  20  38  65  90 116 156 208 257 295 347
#     4  12  25  40  58  90 131 166 196 242 313 372
#     4  12  21  38  62  92 119 162 202 252 295 362
#     4  10  20  39  62  93 121 158 202 257 304 352
#     4  10  20  35  69  94 114 146 216 260 298 345
#
# _framework density 19.613018
#
# number of rings (size 3 to 8) (size 9 to 14) (size 15 to 20)
#    0.000    1.333    4.444    2.333    0.000    0.444 
#    0.000    5.556    0.000    0.000    0.000    0.000 
#    0.000    0.000    0.000    0.000    0.000    0.000 
#
# Total GULP energy -100262.946826 kJ/mol
# GULP energy per Si atom -5570.163713 kJ/mol
# Density = 1.956838 g / cm^3
# Si number density = 19.613018 Si / 1000 Ang^3
#
#
#
# Elastic Constant Matrix: (Units=GPa)
#
#
# Indices 1 2 3 4 5 6 
#
# 1 51.2354 32.1636 23.0596 0.0000 -3.6130 0.0000
# 2 32.1636 83.7369 31.1014 0.0000 -4.1664 0.0000
# 3 23.0596 31.1014 122.6023 0.0000 11.1301 0.0000
# 4 0.0000 0.0000 0.0000 17.5750 0.0000 -4.1053
# 5 -3.6130 -4.1664 11.1301 0.0000 34.2111 0.0000
# 6 0.0000 0.0000 0.0000 -4.1053 0.0000 9.2176
#
#
#
# Elastic Compliance Matrix: (Units=1/GPa)
#
#
# Indices 1 2 3 4 5 6 
#
# 1 0.026711 -0.009019 -0.002980 0.000000 0.002692 0.000000
# 2 -0.009019 0.016490 -0.002661 0.000000 0.001922 0.000000
# 3 -0.002980 -0.002661 0.009738 0.000000 -0.003807 0.000000
# 4 0.000000 0.000000 0.000000 0.063506 0.000000 0.028284
# 5 0.002692 0.001922 -0.003807 0.000000 0.030987 0.000000
# 6 0.000000 0.000000 0.000000 0.028284 0.000000 0.121085
#
#
# Mechanical properties :
#
#
# Convention : Reuss Voigt Hill
#
# Bulk Modulus (GPa) = 42.34113 47.80266 45.07189
# Shear Modulus (GPa) = 16.35533 23.61740 19.98637
#
# Velocity S-wave (km/s) = 2.89087 3.47388 3.19570
# Velocity P-wave (km/s) = 5.72520 6.36524 6.05369
#
# Compressibility (1/GPa) = 0.02361770
#
# Stress axis : x y z
#
# Youngs Moduli (GPa) = 37.43837 60.64144 102.69299
#
# Poissons Ratio (x) = 0.54691 0.30607
# Poissons Ratio (y) = 0.33764 0.27331
# Poissons Ratio (z) = 0.11158 0.16139
#
# Static dielectric constant tensor:
#      x y z
#    x 3.058790 0.000000 -2.009280 
#    y 0.000000 1.638710 0.000000 
#    z -2.009280 0.000000 4.943070 
# 
# From -- ./inp_files/48403.got.cif
#   From: 2010.05.17/outbox.cif.g08.bks.cpg/sg12_25_cif.got.tgz:48403.got - 2010.06.03 13:09:07.
