data_PCOD9197451
_publ_section_title
;
Structure prediction by ZEFSAII (Michael W. Deem and Ramdas Pophale) SiO2 
 PCOD9197451
Probable space group: C 2/M
;
_chemical_formula_sum "Si O2"
_cell_formula_units_Z 44
_cell_length_a 13.868854
_cell_length_b 13.283199
_cell_length_c 22.155559
_cell_angle_alpha 90.000000
_cell_angle_beta 150.345053
_cell_angle_gamma 90.000000
_cell_volume 2019.454837
_symmetry_space_group_name_H-M "C 2/M"
_symmetry_group_IT_number 12
_symmetry_cell_setting 'monoclinic'
loop_
_space_group_symop_operation_xyz
x,y,z
-x,y,-z
-x,-y,-z
x,-y,z
1/2+x,1/2+y,z
1/2-x,1/2+y,-z
1/2-x,1/2-y,-z
1/2+x,1/2-y,z
loop_
_atom_site_type_symbol
_atom_site_label
_atom_site_fract_x
_atom_site_fract_y
_atom_site_fract_z
Si Si1 0.081169 0.283271 0.667873
Si Si2 0.801078 0.384533 0.056973
Si Si3 0.621769 0.884289 0.125973
Si Si4 0.500000 0.678193 0.500000
Si Si5 0.089240 0.116822 0.221066
Si Si6 0.097370 0.305279 0.307905
O O1 0.207379 0.193194 0.766584
O O2 0.232266 0.367946 0.727896
O O3 0.992536 0.241112 0.557809
O O4 0.928388 0.315653 0.634992
O O5 0.754729 0.500000 0.046118
O O6 0.969901 0.382263 0.098474
O O7 0.894128 0.337836 0.166974
O O8 0.604047 0.344881 0.919142
O O9 0.691750 0.000000 0.156438
O O10 0.500000 0.857107 0.000000
O O11 0.717141 0.631442 0.616834
O O12 0.124460 0.191754 0.296404
O O13 0.064980 0.000000 0.225101
#
# Coordination Sequence:
#
# PCOD9197451 Si02
#       6
#     8   8   8   4   8   8
#     4  11  23  38  65  89 124 163 209 252 313 363
#     4  10  20  37  59  89 126 157 195 253 313 372
#     4  10  20  35  59  92 124 156 199 249 305 369
#     4  10  22  44  58  88 120 164 212 258 296 362
#     4  10  22  39  61  93 131 164 200 250 312 378
#     4  11  22  39  64  87 120 164 212 253 310 361
#
# _framework density 21.788059000000001
#
# number of rings (size 3 to 8) (size 9 to 14) (size 15 to 20)
#    0.000    1.636    3.636    2.182    2.545    2.909 
#    0.000   10.909    0.000    8.727    0.000    0.000 
#    0.000    0.000    0.000    0.000    0.000    0.000 
#
# Total GULP energy -122805.380210 kJ/mol
# GULP energy per Si atom -5582.062737 kJ/mol
# Density = 2.173847 g / cm^3
# Si number density = 21.788059 Si / 1000 Ang^3
#
#
#
# Elastic Constant Matrix: (Units=GPa)
#
#
# Indices 1 2 3 4 5 6 
#
# 1 114.0092 -17.0115 14.0447 0.0001 -7.3116 0.0000
# 2 -17.0115 54.3601 9.4084 0.0002 -3.3707 0.0000
# 3 14.0447 9.4084 85.0893 0.0008 -9.5387 0.0002
# 4 0.0001 0.0002 0.0008 -1.2330 0.0002 -1.8379
# 5 -7.3116 -3.3707 -9.5387 0.0002 45.3530 0.0000
# 6 0.0000 0.0000 0.0002 -1.8379 0.0000 12.1443
#
#
#
# Elastic Compliance Matrix: (Units=1/GPa)
#
#
# Indices 1 2 3 4 5 6 
#
# 1 0.009592 0.003401 -0.001800 0.000000 0.001421 0.000000
# 2 0.003401 0.020004 -0.002607 0.000002 0.001487 0.000000
# 3 -0.001800 -0.002607 0.012580 0.000006 0.002162 0.000001
# 4 0.000000 0.000002 0.000006 -0.661747 0.000004 -0.100147
# 5 0.001421 0.001487 0.002162 0.000004 0.022843 0.000001
# 6 0.000000 0.000000 0.000001 -0.100147 0.000001 0.067187
#
#
# Mechanical properties :
#
#
# Convention : Reuss Voigt Hill
#
# Bulk Modulus (GPa) = 24.89761 29.59353 27.24557
# Shear Modulus (GPa) = -9.72493 27.72067 8.99787
#
# Velocity S-wave (km/s) = -2.11497 3.57078 2.03438
# Velocity P-wave (km/s) = 2.34261 5.53286 4.24855
#
# Compressibility (1/GPa) = 0.04016450
#
# Stress axis : x y z
#
# Youngs Moduli (GPa) = 104.25826 49.99113 79.49108
#
# Poissons Ratio (x) = -0.17003 0.14308
# Poissons Ratio (y) = -0.35461 0.20720
# Poissons Ratio (z) = 0.18766 0.13030
#
# Static dielectric constant tensor:
#      x y z
#    x 1.791000 0.000000 0.033240 
#    y 0.000000 1.820320 0.000000 
#    z 0.033240 0.000000 1.867920 
# 
# From -- ./inp_files/310893.got.cif
#   From: 2010.05.17/outbox.cif.g08.bks.cpg/sg12_156_cif.got.tgz:310893.got - 2010.06.03 13:09:07.
