data_PCOD9197995
_publ_section_title
;
Structure prediction by ZEFSAII (Michael W. Deem and Ramdas Pophale) SiO2 
 PCOD9197995
Probable space group: C 2/M
;
_chemical_formula_sum "Si O2"
_cell_formula_units_Z 64
_cell_length_a 19.770576
_cell_length_b 19.826023
_cell_length_c 11.880848
_cell_angle_alpha 90.000000
_cell_angle_beta 43.711257
_cell_angle_gamma 90.000000
_cell_volume 3218.072140
_symmetry_space_group_name_H-M "C 2/M"
_symmetry_group_IT_number 12
_symmetry_cell_setting 'monoclinic'
loop_
_space_group_symop_operation_xyz
x,y,z
-x,y,-z
-x,-y,-z
x,-y,z
1/2+x,1/2+y,z
1/2-x,1/2+y,-z
1/2-x,1/2-y,-z
1/2+x,1/2-y,z
loop_
_atom_site_type_symbol
_atom_site_label
_atom_site_fract_x
_atom_site_fract_y
_atom_site_fract_z
Si Si1 0.798279 0.856672 0.541209
Si Si2 0.127819 0.139930 0.777936
Si Si3 0.593124 0.799821 0.813951
Si Si4 0.918362 0.281140 0.435112
Si Si5 0.893105 0.924437 0.611430
Si Si6 0.577561 0.580787 0.064087
Si Si7 0.291952 0.652332 0.911952
Si Si8 0.639779 0.203956 0.252559
O O1 0.791090 0.865266 0.415941
O O2 0.692594 0.839906 0.718274
O O3 0.867537 0.791889 0.481731
O O4 0.856561 0.917147 0.528704
O O5 0.111160 0.219883 0.817742
O O6 0.029748 0.108132 0.839969
O O7 0.141426 0.099876 0.876834
O O8 0.578508 0.807594 0.696801
O O9 0.500000 0.820541 0.000000
O O10 0.861539 0.311990 0.612487
O O11 0.030018 0.282541 0.342451
O O12 0.805290 0.895037 0.789851
O O13 0.000000 0.890224 0.500000
O O14 0.905504 0.000000 0.635081
O O15 0.577742 0.500000 0.084710
O O16 0.620056 0.626169 0.113502
O O17 0.305583 0.725813 0.840215
O O18 0.196080 0.651531 0.104718
#
# Coordination Sequence:
#
# PCOD9197995 Si02
#       8
#     8   8   8   8   8   8   8   8
#     4  11  23  36  60  88 123 156 195 244 304 363
#     4  10  20  36  55  81 122 159 193 239 295 363
#     4  11  23  36  61  91 124 157 187 248 309 366
#     4  10  20  37  56  88 122 147 193 235 308 361
#     4  11  23  40  61  86 120 164 207 248 295 352
#     4  11  22  35  57  85 122 161 199 243 295 356
#     4  11  22  34  57  85 120 153 199 246 299 356
#     4  10  22  34  59  87 117 159 189 250 304 358
#
# _framework density 19.887682000000002
#
# number of rings (size 3 to 8) (size 9 to 14) (size 15 to 20)
#    0.000    1.375    2.500    5.625    5.250    2.000 
#    0.000    0.000    0.000    0.375    0.000    7.000 
#    0.000    0.000    0.000    0.000    0.000    0.000 
#
# Total GULP energy -178405.910712 kJ/mol
# GULP energy per Si atom -5575.184710 kJ/mol
# Density = 1.984242 g / cm^3
# Si number density = 19.887682 Si / 1000 Ang^3
#
#
#
# Elastic Constant Matrix: (Units=GPa)
#
#
# Indices 1 2 3 4 5 6 
#
# 1 61.6831 -0.3746 24.0404 0.0000 15.1519 0.0000
# 2 -0.3746 27.1319 28.5645 0.0000 -2.4500 0.0000
# 3 24.0404 28.5645 146.7156 0.0000 6.3749 0.0000
# 4 0.0000 0.0000 0.0000 -72.4525 0.0000 -48.4561
# 5 15.1519 -2.4500 6.3749 0.0000 32.3321 0.0000
# 6 0.0000 0.0000 0.0000 -48.4561 0.0000 -17.6143
#
#
#
# Elastic Compliance Matrix: (Units=1/GPa)
#
#
# Indices 1 2 3 4 5 6 
#
# 1 0.019616 0.003182 -0.003475 0.000000 -0.008266 0.000000
# 2 0.003182 0.047808 -0.010008 0.000000 0.004104 0.000000
# 3 -0.003475 -0.010008 0.009376 0.000000 -0.000979 0.000000
# 4 0.000000 0.000000 0.000000 0.016434 0.000000 -0.045210
# 5 -0.008266 0.004104 -0.000979 0.000000 0.035307 0.000000
# 6 0.000000 0.000000 0.000000 -0.045210 0.000000 0.067599
#
#
# Mechanical properties :
#
#
# Convention : Reuss Voigt Hill
#
# Bulk Modulus (GPa) = 17.79355 37.77681 27.78518
# Shear Modulus (GPa) = 21.23382 0.67309 10.95345
#
# Velocity S-wave (km/s) = 3.27109 0.58239 2.34939
# Velocity P-wave (km/s) = 4.82008 4.41458 4.62178
#
# Compressibility (1/GPa) = 0.05620012
#
# Stress axis : x y z
#
# Youngs Moduli (GPa) = 50.97878 20.91722 106.65321
#
# Poissons Ratio (x) = -0.06657 0.37058
# Poissons Ratio (y) = -0.16224 1.06734
# Poissons Ratio (z) = 0.17713 0.20933
#
# Static dielectric constant tensor:
#      x y z
#    x 1.757720 0.000000 0.024920 
#    y 0.000000 1.699060 0.000000 
#    z 0.024920 0.000000 1.786360 
# 
# From -- ./inp_files/169673.got.cif
#   From: 2010.05.17/outbox.cif.g08.bks.cpg/sg12_85_cif.got.tgz:169673.got - 2010.06.03 13:09:07.
