data_PCOD9197910
_publ_section_title
;
Structure prediction by ZEFSAII (Michael W. Deem and Ramdas Pophale) SiO2 
 PCOD9197910
Probable space group: C 2/M
;
_chemical_formula_sum "Si O2"
_cell_formula_units_Z 48
_cell_length_a 27.323893
_cell_length_b 8.197978
_cell_length_c 16.130659
_cell_angle_alpha 90.000000
_cell_angle_beta 144.791758
_cell_angle_gamma 90.000000
_cell_volume 2083.235191
_symmetry_space_group_name_H-M "C 2/M"
_symmetry_group_IT_number 12
_symmetry_cell_setting 'monoclinic'
loop_
_space_group_symop_operation_xyz
x,y,z
-x,y,-z
-x,-y,-z
x,-y,z
1/2+x,1/2+y,z
1/2-x,1/2+y,-z
1/2-x,1/2-y,-z
1/2+x,1/2-y,z
loop_
_atom_site_type_symbol
_atom_site_label
_atom_site_fract_x
_atom_site_fract_y
_atom_site_fract_z
Si Si1 0.628270 0.318605 0.688524
Si Si2 0.049893 0.500000 0.958809
Si Si3 0.263657 0.318892 0.644383
Si Si4 0.633400 0.000000 0.257312
Si Si5 0.315552 0.256986 0.902241
Si Si6 0.080786 0.802314 0.442969
Si Si7 0.605225 0.808518 0.836899
O O1 0.596852 0.500000 0.664784
O O2 0.725523 0.328236 0.792382
O O3 0.581413 0.255279 0.541688
O O4 0.623370 0.218209 0.765045
O O5 0.950295 0.500000 0.801826
O O6 0.084212 0.500000 0.100885
O O7 0.098552 0.656177 0.992146
O O8 0.273854 0.500000 0.620553
O O9 0.299783 0.331278 0.789289
O O10 0.164728 0.272485 0.517257
O O11 0.311621 0.166754 0.666842
O O12 0.337701 0.311666 0.026733
O O13 0.993197 0.736729 0.286615
O O14 0.086128 0.000000 0.445966
O O15 0.623273 0.000000 0.878104
#
# Coordination Sequence:
#
# PCOD9197910 Si02
#       7
#     8   4   8   4   8   8   8
#     4  10  20  36  55  74 110 156 208 247 287 343
#     4   9  16  36  60  83 114 155 188 233 310 350
#     4  10  20  37  63  91 118 152 196 243 295 357
#     4   9  18  34  64  93 115 149 190 243 299 359
#     4  10  20  36  56  81 116 157 195 237 298 353
#     4  10  21  38  57  79 115 159 202 248 291 347
#     4  12  23  33  52  83 118 159 200 249 291 343
#
# _framework density 23.041087000000001
#
# number of rings (size 3 to 8) (size 9 to 14) (size 15 to 20)
#    0.000    1.833    2.500    2.000    0.000    6.667 
#    0.000    6.667    0.000    1.000    0.000    0.000 
#    0.000    0.000    0.000    0.000    0.000    0.000 
#
# Total GULP energy -133729.665380 kJ/mol
# GULP energy per Si atom -5572.069391 kJ/mol
# Density = 2.298864 g / cm^3
# Si number density = 23.041087 Si / 1000 Ang^3
#
#
#
# Elastic Constant Matrix: (Units=GPa)
#
#
# Indices 1 2 3 4 5 6 
#
# 1 54.2333 34.3143 21.9182 0.0000 17.8644 0.0000
# 2 34.3143 117.9333 18.0923 0.0000 14.0924 0.0000
# 3 21.9182 18.0923 112.4650 0.0000 -1.0941 0.0000
# 4 0.0000 0.0000 0.0000 -3.4536 0.0000 10.6083
# 5 17.8644 14.0924 -1.0941 0.0000 39.7626 0.0000
# 6 0.0000 0.0000 0.0000 10.6083 0.0000 7.5013
#
#
#
# Elastic Compliance Matrix: (Units=1/GPa)
#
#
# Indices 1 2 3 4 5 6 
#
# 1 0.027497 -0.006080 -0.004481 0.000000 -0.010322 0.000000
# 2 -0.006080 0.010443 -0.000505 0.000000 -0.000984 0.000000
# 3 -0.004481 -0.000505 0.009870 0.000000 0.002464 0.000000
# 4 0.000000 0.000000 0.000000 -0.054184 0.000000 0.076626
# 5 -0.010322 -0.000984 0.002464 0.000000 0.030203 0.000000
# 6 0.000000 0.000000 0.000000 0.076626 0.000000 0.024946
#
#
# Mechanical properties :
#
#
# Convention : Reuss Voigt Hill
#
# Bulk Modulus (GPa) = 38.94225 48.14236 43.54230
# Shear Modulus (GPa) = 62.91970 22.78254 42.85112
#
# Velocity S-wave (km/s) = 5.23134 3.14790 4.31718
# Velocity P-wave (km/s) = 7.30938 5.84396 6.61736
#
# Compressibility (1/GPa) = 0.02567905
#
# Stress axis : x y z
#
# Youngs Moduli (GPa) = 36.36799 95.75520 101.31558
#
# Poissons Ratio (x) = 0.58216 0.45401
# Poissons Ratio (y) = 0.22110 0.05114
# Poissons Ratio (z) = 0.16297 0.04833
#
# Static dielectric constant tensor:
#      x y z
#    x 2.006000 0.000000 -0.043780 
#    y 0.000000 1.895230 0.000000 
#    z -0.043780 0.000000 1.843080 
# 
# From -- ./inp_files/295926.got.cif
#   From: 2010.05.17/outbox.cif.g08.bks.cpg/sg12_148_cif.got.tgz:295926.got - 2010.06.03 13:09:07.
