data_PCOD9197111
_publ_section_title
;
Structure prediction by ZEFSAII (Michael W. Deem and Ramdas Pophale) SiO2 
 PCOD9197111
Probable space group: C 2/M
;
_chemical_formula_sum "Si O2"
_cell_formula_units_Z 64
_cell_length_a 9.516147
_cell_length_b 28.403144
_cell_length_c 12.151867
_cell_angle_alpha 90.000000
_cell_angle_beta 91.183350
_cell_angle_gamma 90.000000
_cell_volume 3283.809328
_symmetry_space_group_name_H-M "C 2/M"
_symmetry_group_IT_number 12
_symmetry_cell_setting 'monoclinic'
loop_
_space_group_symop_operation_xyz
x,y,z
-x,y,-z
-x,-y,-z
x,-y,z
1/2+x,1/2+y,z
1/2-x,1/2+y,-z
1/2-x,1/2-y,-z
1/2+x,1/2-y,z
loop_
_atom_site_type_symbol
_atom_site_label
_atom_site_fract_x
_atom_site_fract_y
_atom_site_fract_z
Si Si1 0.330027 0.851866 0.620141
Si Si2 0.679911 0.728599 0.748961
Si Si3 0.178555 0.126165 0.168773
Si Si4 0.158141 0.326050 0.630730
Si Si5 0.680437 0.053483 0.257988
Si Si6 0.913521 0.224597 0.892675
Si Si7 0.455384 0.553953 0.127256
Si Si8 0.590703 0.052947 0.891766
O O1 0.237322 0.818297 0.695071
O O2 0.494290 0.839495 0.643920
O O3 0.303060 0.839508 0.492656
O O4 0.301760 0.905736 0.652573
O O5 0.678424 0.771197 0.661052
O O6 0.784112 0.743798 0.850202
O O7 0.524937 0.723232 0.794971
O O8 0.247609 0.146345 0.280140
O O9 0.140185 0.171146 0.093440
O O10 0.291980 0.092178 0.114818
O O11 0.044040 0.093876 0.189628
O O12 0.792822 0.059751 0.159864
O O13 0.523246 0.057080 0.207317
O O14 0.700389 0.000000 0.299706
O O15 0.000000 0.241415 0.000000
O O16 0.492303 0.500000 0.157864
O O17 0.500000 0.559508 0.000000
O O18 0.652546 0.000000 0.891307
O O19 0.500000 0.057510 0.000000
#
# Coordination Sequence:
#
# PCOD9197111 Si02
#       8
#     8   8   8   8   8   8   8   8
#     4  11  21  42  66  86 122 160 206 260 309 354
#     4  11  22  43  65  91 121 158 208 254 303 358
#     4  11  21  38  56  89 122 155 205 247 310 361
#     4  10  23  40  61  92 116 157 211 256 306 363
#     4  10  21  38  59  92 125 160 204 247 309 371
#     4  11  24  40  60  91 126 161 195 244 306 380
#     4  10  20  36  60  87 123 165 202 247 300 365
#     4  10  20  35  58  87 121 160 207 256 297 358
#
# _framework density 19.489561999999999
#
# number of rings (size 3 to 8) (size 9 to 14) (size 15 to 20)
#    0.000    1.500    2.500    3.000    0.000    3.000 
#    0.000    7.500    0.000    1.500    0.000    0.000 
#    0.000    0.000    0.000    0.000    0.000    0.000 
#
# Total GULP energy -178786.715609 kJ/mol
# GULP energy per Si atom -5587.084863 kJ/mol
# Density = 1.944520 g / cm^3
# Si number density = 19.489562 Si / 1000 Ang^3
#
#
#
# Elastic Constant Matrix: (Units=GPa)
#
#
# Indices 1 2 3 4 5 6 
#
# 1 64.5826 19.9428 -2.6465 0.0000 -4.7545 0.0000
# 2 19.9428 117.3145 30.4065 0.0000 -4.5144 0.0000
# 3 -2.6465 30.4065 51.6399 0.0000 4.3052 0.0000
# 4 0.0000 0.0000 0.0000 -6.6983 0.0000 1.8557
# 5 -4.7545 -4.5144 4.3052 0.0000 24.8661 0.0000
# 6 0.0000 0.0000 0.0000 1.8557 0.0000 34.3802
#
#
#
# Elastic Compliance Matrix: (Units=1/GPa)
#
#
# Indices 1 2 3 4 5 6 
#
# 1 0.016830 -0.003490 0.002742 0.000000 0.002109 0.000000
# 2 -0.003490 0.010993 -0.006861 0.000000 0.002516 0.000000
# 3 0.002742 -0.006861 0.023951 0.000000 -0.004868 0.000000
# 4 0.000000 0.000000 0.000000 -0.147093 0.000000 0.007940
# 5 0.002109 0.002516 -0.004868 0.000000 0.041918 0.000000
# 6 0.000000 0.000000 0.000000 0.007940 0.000000 0.028658
#
#
# Mechanical properties :
#
#
# Convention : Reuss Voigt Hill
#
# Bulk Modulus (GPa) = 27.35699 36.54919 31.95309
# Shear Modulus (GPa) = 1878.48549 22.89855 950.69202
#
# Velocity S-wave (km/s) = 31.07948 3.43142 22.11005
# Velocity P-wave (km/s) = 36.08295 5.87311 25.85027
#
# Compressibility (1/GPa) = 0.03655372
#
# Stress axis : x y z
#
# Youngs Moduli (GPa) = 59.41943 90.96994 41.75132
#
# Poissons Ratio (x) = 0.31752 -0.11448
# Poissons Ratio (y) = 0.20740 0.28647
# Poissons Ratio (z) = -0.16292 0.62417
#
# Static dielectric constant tensor:
#      x y z
#    x 1.685090 0.000000 0.014390 
#    y 0.000000 1.671150 0.000000 
#    z 0.014390 0.000000 1.666830 
# 
# From -- ./inp_files/125758.got.cif
#   From: 2010.05.17/outbox.cif.g08.bks.cpg/sg12_63_cif.got.tgz:125758.got - 2010.06.03 13:09:07.
