data_PCOD9197292
_publ_section_title
;
Structure prediction by ZEFSAII (Michael W. Deem and Ramdas Pophale) SiO2 
 PCOD9197292
Probable space group: C 2/M
;
_chemical_formula_sum "Si O2"
_cell_formula_units_Z 64
_cell_length_a 27.023974
_cell_length_b 7.345613
_cell_length_c 13.880271
_cell_angle_alpha 90.000000
_cell_angle_beta 68.905960
_cell_angle_gamma 90.000000
_cell_volume 2570.707399
_symmetry_space_group_name_H-M "C 2/M"
_symmetry_group_IT_number 12
_symmetry_cell_setting 'monoclinic'
loop_
_space_group_symop_operation_xyz
x,y,z
-x,y,-z
-x,-y,-z
x,-y,z
1/2+x,1/2+y,z
1/2-x,1/2+y,-z
1/2-x,1/2-y,-z
1/2+x,1/2-y,z
loop_
_atom_site_type_symbol
_atom_site_label
_atom_site_fract_x
_atom_site_fract_y
_atom_site_fract_z
Si Si1 0.606305 0.776655 0.677665
Si Si2 0.628477 0.721382 0.003919
Si Si3 0.911415 0.780203 0.755149
Si Si4 0.177098 0.799023 0.316319
Si Si5 0.544443 0.204913 0.906001
Si Si6 0.522043 0.213301 0.586271
Si Si7 0.255087 0.286664 0.107680
Si Si8 0.227672 0.284210 0.620682
O O1 0.568539 0.717303 0.791898
O O2 0.576151 0.718632 0.600305
O O3 0.666630 0.717191 0.659468
O O4 0.607968 0.000000 0.675126
O O5 0.626546 0.500000 0.005980
O O6 0.613079 0.779058 0.124212
O O7 0.589424 0.802146 0.954089
O O8 0.685082 0.772209 0.918486
O O9 0.877339 0.714037 0.685546
O O10 0.972692 0.730457 0.695437
O O11 0.907976 0.000000 0.755735
O O12 0.209556 0.815219 0.194503
O O13 0.223773 0.710288 0.347581
O O14 0.165243 0.000000 0.365805
O O15 0.525479 0.000000 0.893895
O O16 0.500000 0.302544 0.000000
O O17 0.500000 0.290949 0.500000
O O18 0.531934 0.000000 0.562334
O O19 0.249258 0.500000 0.132216
O O20 0.250000 0.250000 0.000000
O O21 0.224662 0.500000 0.646068
O O22 0.250000 0.250000 0.500000
#
# Coordination Sequence:
#
# PCOD9197292 Si02
#       8
#     8   8   8   8   8   8   8   8
#     4   9  19  38  58  83 119 150 186 240 293 340
#     4  10  21  36  54  81 119 153 185 232 285 336
#     4  10  21  38  57  82 119 153 187 235 288 346
#     4  10  21  39  59  84 119 157 195 241 295 347
#     4  10  20  35  59  86 113 152 196 234 277 344
#     4  10  22  39  61  86 111 144 190 243 293 340
#     4  11  21  35  55  83 118 157 193 235 285 341
#     4  10  22  39  62  85 114 155 194 244 301 349
#
# _framework density 24.895872000000001
#
# number of rings (size 3 to 8) (size 9 to 14) (size 15 to 20)
#    0.000    2.000    1.250    1.875    1.750    5.000 
#    0.000    1.875    0.000    0.000    0.000    0.000 
#    0.000    0.000    0.000    0.000    0.000    0.000 
#
# Total GULP energy -178538.503266 kJ/mol
# GULP energy per Si atom -5579.328227 kJ/mol
# Density = 2.483921 g / cm^3
# Si number density = 24.895872 Si / 1000 Ang^3
#
#
#
# Elastic Constant Matrix: (Units=GPa)
#
#
# Indices 1 2 3 4 5 6 
#
# 1 133.3089 3.7850 -0.1428 0.0000 21.8948 0.0000
# 2 3.7850 93.2463 -3.1252 0.0000 1.3966 0.0000
# 3 -0.1428 -3.1252 70.5776 0.0000 13.5962 0.0000
# 4 0.0000 0.0000 0.0000 16.1406 0.0000 -3.6476
# 5 21.8948 1.3966 13.5962 0.0000 49.2409 0.0000
# 6 0.0000 0.0000 0.0000 -3.6476 0.0000 4.2829
#
#
#
# Elastic Compliance Matrix: (Units=1/GPa)
#
#
# Indices 1 2 3 4 5 6 
#
# 1 0.008136 -0.000248 0.000740 0.000000 -0.003815 0.000000
# 2 -0.000248 0.010758 0.000542 0.000000 -0.000344 0.000000
# 3 0.000740 0.000542 0.015062 0.000000 -0.004503 0.000000
# 4 0.000000 0.000000 0.000000 0.076722 0.000000 0.065342
# 5 -0.003815 -0.000344 -0.004503 0.000000 0.023258 0.000000
# 6 0.000000 0.000000 0.000000 0.065342 0.000000 0.289134
#
#
# Mechanical properties :
#
#
# Convention : Reuss Voigt Hill
#
# Bulk Modulus (GPa) = 27.75934 33.12965 30.44449
# Shear Modulus (GPa) = 11.54710 33.70726 22.62718
#
# Velocity S-wave (km/s) = 2.15598 3.68357 3.01802
# Velocity P-wave (km/s) = 4.16798 5.60605 4.93962
#
# Compressibility (1/GPa) = 0.03602392
#
# Stress axis : x y z
#
# Youngs Moduli (GPa) = 122.91372 92.95676 66.39287
#
# Poissons Ratio (x) = 0.02308 -0.04916
# Poissons Ratio (y) = 0.03052 -0.03600
# Poissons Ratio (z) = -0.09100 -0.05040
#
# Static dielectric constant tensor:
#      x y z
#    x 1.887660 0.000000 0.154350 
#    y 0.000000 1.954590 0.000000 
#    z 0.154350 0.000000 1.887030 
# 
# From -- ./inp_files/243843.got.cif
#   From: 2010.05.17/outbox.cif.g08.bks.cpg/sg12_122_cif.got.tgz:243843.got - 2010.06.03 13:09:07.
