data_PCOD9197032
_publ_section_title
;
Structure prediction by ZEFSAII (Michael W. Deem and Ramdas Pophale) SiO2 
 PCOD9197032
Probable space group: C 2/M
;
_chemical_formula_sum "Si O2"
_cell_formula_units_Z 48
_cell_length_a 21.206274
_cell_length_b 8.526129
_cell_length_c 27.550160
_cell_angle_alpha 90.000000
_cell_angle_beta 29.991582
_cell_angle_gamma 90.000000
_cell_volume 2490.002947
_symmetry_space_group_name_H-M "C 2/M"
_symmetry_group_IT_number 12
_symmetry_cell_setting 'monoclinic'
loop_
_space_group_symop_operation_xyz
x,y,z
-x,y,-z
-x,-y,-z
x,-y,z
1/2+x,1/2+y,z
1/2-x,1/2+y,-z
1/2-x,1/2-y,-z
1/2+x,1/2-y,z
loop_
_atom_site_type_symbol
_atom_site_label
_atom_site_fract_x
_atom_site_fract_y
_atom_site_fract_z
Si Si1 0.375865 0.311952 0.890527
Si Si2 0.618874 0.689974 0.225484
Si Si3 0.875525 0.689809 0.221892
Si Si4 0.875794 0.810159 0.552874
Si Si5 0.872406 0.308615 0.111847
Si Si6 0.873772 0.686634 0.444601
O O1 0.373882 0.500000 0.892709
O O2 0.380240 0.261084 0.831324
O O3 0.499228 0.251900 0.836014
O O4 0.250000 0.250000 0.000000
O O5 0.614420 0.500000 0.229933
O O6 0.747369 0.740737 0.166491
O O7 0.497501 0.753707 0.334185
O O8 0.879491 0.500000 0.219604
O O9 0.750531 0.738705 0.334432
O O10 0.869434 0.740975 0.169876
O O11 0.876554 0.745729 0.498056
O O12 0.000000 0.761785 0.500000
O O13 0.876485 0.000000 0.549887
O O14 0.873133 0.500000 0.111080
O O15 0.000000 0.256801 0.000000
O O16 0.870688 0.500000 0.446014
O O17 0.750000 0.750000 0.500000
#
# Coordination Sequence:
#
# PCOD9197032 Si02
#       6
#     8   8   8   8   8   8
#     4  11  23  38  59  85 115 151 190 236 287 343
#     4  10  21  39  62  86 113 150 196 240 286 342
#     4  10  20  35  58  86 115 149 189 234 284 338
#     4  10  21  39  63  89 119 156 197 241 290 349
#     4   9  17  33  59  87 113 145 188 233 277 333
#     4  12  25  40  60  86 118 155 197 246 298 352
#
# _framework density 19.277085
#
# number of rings (size 3 to 8) (size 9 to 14) (size 15 to 20)
#    0.000    1.667    0.000    5.000    0.000   10.333 
#    0.000    2.500    0.000    2.000    0.000    0.000 
#    0.000    0.000    0.000    0.000    0.000    0.000 
#
# Total GULP energy -134190.992653 kJ/mol
# GULP energy per Si atom -5591.291361 kJ/mol
# Density = 1.923321 g / cm^3
# Si number density = 19.277085 Si / 1000 Ang^3
#
#
#
# Elastic Constant Matrix: (Units=GPa)
#
#
# Indices 1 2 3 4 5 6 
#
# 1 180.1062 22.5823 88.5436 0.0001 -0.8464 -0.0001
# 2 22.5823 17.3079 23.4398 0.0000 1.3281 0.0003
# 3 88.5436 23.4398 183.1335 0.0002 -0.9504 -0.0002
# 4 0.0001 0.0000 0.0002 26.6837 0.0000 -3.3055
# 5 -0.8464 1.3281 -0.9504 0.0000 46.6929 0.0000
# 6 -0.0001 0.0003 -0.0002 -3.3055 0.0000 31.1947
#
#
#
# Elastic Compliance Matrix: (Units=1/GPa)
#
#
# Indices 1 2 3 4 5 6 
#
# 1 0.007788 -0.006149 -0.002977 0.000000 0.000255 0.000000
# 2 -0.006149 0.074968 -0.006635 0.000000 -0.002379 -0.000001
# 3 -0.002977 -0.006635 0.007751 0.000000 0.000293 0.000000
# 4 0.000000 0.000000 0.000000 0.037975 0.000000 0.004024
# 5 0.000255 -0.002379 0.000293 0.000000 0.021495 0.000000
# 6 0.000000 -0.000001 0.000000 0.004024 0.000000 0.032483
#
#
# Mechanical properties :
#
#
# Convention : Reuss Voigt Hill
#
# Bulk Modulus (GPa) = 16.95358 72.18654 44.57006
# Shear Modulus (GPa) = 21.40026 37.31304 29.35665
#
# Velocity S-wave (km/s) = 3.33549 4.40434 3.90664
# Velocity P-wave (km/s) = 4.86290 7.96193 6.59697
#
# Compressibility (1/GPa) = 0.05898460
#
# Stress axis : x y z
#
# Youngs Moduli (GPa) = 128.40140 13.33909 129.02223
#
# Poissons Ratio (x) = 0.08202 0.38411
# Poissons Ratio (y) = 0.78956 0.85601
# Poissons Ratio (z) = 0.38226 0.08850
#
# Static dielectric constant tensor:
#      x y z
#    x 1.640420 0.000000 0.002860 
#    y 0.000000 1.665280 0.000000 
#    z 0.002860 0.000000 1.637120 
# 
# From -- ./inp_files/365392.got.cif
#   From: 2010.05.17/outbox.cif.g08.bks.cpg/sg12_183_cif.got.tgz:365392.got - 2010.06.03 13:09:07.
