data_PCOD9197649
_publ_section_title
;
Structure prediction by ZEFSAII (Michael W. Deem and Ramdas Pophale) SiO2 
 PCOD9197649
Probable space group: C 2/M
;
_chemical_formula_sum "Si O2"
_cell_formula_units_Z 58
_cell_length_a 18.188078
_cell_length_b 7.443077
_cell_length_c 18.160533
_cell_angle_alpha 90.000000
_cell_angle_beta 88.336743
_cell_angle_gamma 90.000000
_cell_volume 2457.451156
_symmetry_space_group_name_H-M "C 2/M"
_symmetry_group_IT_number 12
_symmetry_cell_setting 'monoclinic'
loop_
_space_group_symop_operation_xyz
x,y,z
-x,y,-z
-x,-y,-z
x,-y,z
1/2+x,1/2+y,z
1/2-x,1/2+y,-z
1/2-x,1/2-y,-z
1/2+x,1/2-y,z
loop_
_atom_site_type_symbol
_atom_site_label
_atom_site_fract_x
_atom_site_fract_y
_atom_site_fract_z
Si Si1 0.167783 0.286459 0.028131
Si Si2 0.165789 0.284914 0.481254
Si Si3 0.500000 0.500000 0.000000
Si Si4 0.847546 0.214279 0.231428
Si Si5 0.426425 0.787546 0.378907
Si Si6 0.410234 0.219857 0.665205
Si Si7 0.817048 0.720119 0.807165
Si Si8 0.445027 0.207276 0.091790
O O1 0.154421 0.500000 0.030232
O O2 0.163008 0.219247 0.111512
O O3 0.250000 0.250000 0.000000
O O4 0.118066 0.218729 0.962362
O O5 0.157650 0.500000 0.480292
O O6 0.250000 0.250000 0.500000
O O7 0.110583 0.214239 0.545839
O O8 0.141499 0.222826 0.401213
O O9 0.507405 0.342011 0.064777
O O10 0.870280 0.263732 0.313154
O O11 0.766109 0.277841 0.211163
O O12 0.910010 0.280695 0.173280
O O13 0.846869 0.000000 0.225698
O O14 0.506676 0.717819 0.353298
O O15 0.436953 0.000000 0.390666
O O16 0.374657 0.277027 0.743231
O O17 0.411194 0.000000 0.667198
O O18 0.816405 0.500000 0.807971
O O19 0.464937 0.000000 0.078845
#
# Coordination Sequence:
#
# PCOD9197649 Si02
#       8
#     8   8   2   8   8   8   8   8
#     4  10  20  35  61  90 120 161 215 269 329 386
#     4  10  20  36  60  91 121 159 207 257 314 379
#     4  12  26  44  64  90 132 168 216 274 338 394
#     4  11  21  38  62  89 124 166 212 261 322 386
#     4  10  21  36  59  87 123 163 208 261 315 382
#     4   9  18  35  58  86 120 161 206 258 317 384
#     4   9  18  33  58  87 118 159 212 267 319 383
#     4  11  24  42  65  94 127 173 221 274 331 397
#
# _framework density 23.601689
#
# number of rings (size 3 to 8) (size 9 to 14) (size 15 to 20)
#    0.000    1.931    2.069    1.862    0.966    4.414 
#    0.000    3.448    0.000    3.310    0.000    0.000 
#    0.000    0.000    0.000    0.000    0.000    0.000 
#
# Total GULP energy -161903.768548 kJ/mol
# GULP energy per Si atom -5582.888571 kJ/mol
# Density = 2.354797 g / cm^3
# Si number density = 23.601689 Si / 1000 Ang^3
#
#
#
# Elastic Constant Matrix: (Units=GPa)
#
#
# Indices 1 2 3 4 5 6 
#
# 1 75.5702 -3.1749 29.4758 0.0000 -5.5553 0.0000
# 2 -3.1749 77.0422 -2.6666 0.0000 -20.0506 0.0000
# 3 29.4758 -2.6666 169.2289 0.0000 -22.0582 0.0000
# 4 0.0000 0.0000 0.0000 -54.9957 0.0000 16.0094
# 5 -5.5553 -20.0506 -22.0582 0.0000 46.7910 0.0000
# 6 0.0000 0.0000 0.0000 16.0094 0.0000 0.3645
#
#
#
# Elastic Compliance Matrix: (Units=1/GPa)
#
#
# Indices 1 2 3 4 5 6 
#
# 1 0.014248 0.000740 -0.002353 0.000000 0.000899 0.000000
# 2 0.000740 0.014848 0.001008 0.000000 0.006925 0.000000
# 3 -0.002353 0.001008 0.006771 0.000000 0.003344 0.000000
# 4 0.000000 0.000000 0.000000 -0.001319 0.000000 0.057932
# 5 0.000899 0.006925 0.003344 0.000000 0.026023 0.000000
# 6 0.000000 0.000000 0.000000 0.057932 0.000000 0.199009
#
#
# Mechanical properties :
#
#
# Convention : Reuss Voigt Hill
#
# Bulk Modulus (GPa) = 28.85527 41.01221 34.93374
# Shear Modulus (GPa) = 18.35935 18.31244 18.33589
#
# Velocity S-wave (km/s) = 2.79208 2.78851 2.79030
# Velocity P-wave (km/s) = 4.75886 5.27089 5.02141
#
# Compressibility (1/GPa) = 0.03465572
#
# Stress axis : x y z
#
# Youngs Moduli (GPa) = 70.18732 67.35087 147.69413
#
# Poissons Ratio (x) = -0.04983 0.34748
# Poissons Ratio (y) = -0.05192 -0.14884
# Poissons Ratio (z) = 0.16513 -0.06788
#
# Static dielectric constant tensor:
#      x y z
#    x 2.054020 0.000000 -0.042200 
#    y 0.000000 1.934370 0.000000 
#    z -0.042200 0.000000 1.848360 
# 
# From -- ./inp_files/275416.got.cif
#   From: 2010.05.17/outbox.cif.g08.bks.cpg/sg12_138_cif.got.tgz:275416.got - 2010.06.03 13:09:07.
