data_PCOD9197402
_publ_section_title
;
Structure prediction by ZEFSAII (Michael W. Deem and Ramdas Pophale) SiO2 
 PCOD9197402
Probable space group: C 2/M
;
_chemical_formula_sum "Si O2"
_cell_formula_units_Z 50
_cell_length_a 14.593291
_cell_length_b 8.648794
_cell_length_c 24.415236
_cell_angle_alpha 90.000000
_cell_angle_beta 53.280837
_cell_angle_gamma 90.000000
_cell_volume 2470.098521
_symmetry_space_group_name_H-M "C 2/M"
_symmetry_group_IT_number 12
_symmetry_cell_setting 'monoclinic'
loop_
_space_group_symop_operation_xyz
x,y,z
-x,y,-z
-x,-y,-z
x,-y,z
1/2+x,1/2+y,z
1/2-x,1/2+y,-z
1/2-x,1/2-y,-z
1/2+x,1/2-y,z
loop_
_atom_site_type_symbol
_atom_site_label
_atom_site_fract_x
_atom_site_fract_y
_atom_site_fract_z
Si Si1 0.264315 0.819180 0.055278
Si Si2 0.000000 0.000000 0.500000
Si Si3 0.927246 0.180344 0.289225
Si Si4 0.470060 0.179620 0.849443
Si Si5 0.123736 0.818368 0.883087
Si Si6 0.833207 0.185067 0.739439
Si Si7 0.292726 0.670379 0.627931
O O1 0.138459 0.786478 0.124787
O O2 0.352674 0.733376 0.063281
O O3 0.289177 0.000000 0.044480
O O4 0.250000 0.750000 0.000000
O O5 0.093667 0.133520 0.446810
O O6 0.805631 0.219195 0.359636
O O7 0.938650 0.279504 0.229736
O O8 0.038278 0.216007 0.285876
O O9 0.931014 0.000000 0.273395
O O10 0.524018 0.224132 0.888407
O O11 0.437466 0.000000 0.859583
O O12 0.238995 0.777184 0.807803
O O13 0.099817 0.000000 0.888483
O O14 0.825442 0.220312 0.677776
O O15 0.811164 0.000000 0.754837
O O16 0.236550 0.500000 0.652652
#
# Coordination Sequence:
#
# PCOD9197402 Si02
#       7
#     8   2   8   8   8   8   8
#     4  12  26  46  66  91 129 172 216 267 327 391
#     4   8  20  40  66  84 124 174 220 248 312 404
#     4  11  21  34  59  95 125 156 207 269 321 369
#     4  12  24  40  63  94 128 167 214 270 323 383
#     4  12  24  39  63  96 127 165 215 270 322 386
#     4  10  20  35  59  89 125 160 202 262 319 369
#     4   9  19  38  62  84 119 167 208 248 312 383
#
# _framework density 20.242108000000002
#
# number of rings (size 3 to 8) (size 9 to 14) (size 15 to 20)
#    0.480    0.640    3.200    4.800    0.000    1.280 
#    0.000    4.400    0.000    0.000    0.000    0.000 
#    0.000    0.000    0.000    0.000    0.000    0.000 
#
# Total GULP energy -139383.301240 kJ/mol
# GULP energy per Si atom -5575.332050 kJ/mol
# Density = 2.019604 g / cm^3
# Si number density = 20.242108 Si / 1000 Ang^3
#
#
#
# Elastic Constant Matrix: (Units=GPa)
#
#
# Indices 1 2 3 4 5 6 
#
# 1 61.7049 4.2571 -13.5129 0.0000 -0.6130 0.0000
# 2 4.2571 64.2563 -3.1376 0.0000 1.4336 0.0000
# 3 -13.5129 -3.1376 44.2981 0.0000 -16.5918 0.0000
# 4 0.0000 0.0000 0.0000 31.5710 0.0000 -7.2461
# 5 -0.6130 1.4336 -16.5918 0.0000 11.2241 0.0000
# 6 0.0000 0.0000 0.0000 -7.2461 0.0000 26.8190
#
#
#
# Elastic Compliance Matrix: (Units=1/GPa)
#
#
# Indices 1 2 3 4 5 6 
#
# 1 0.019625 -0.001101 0.014256 0.000000 0.022286 0.000000
# 2 -0.001101 0.015682 0.000005 0.000000 -0.002056 0.000000
# 3 0.014256 0.000005 0.060975 0.000000 0.090913 0.000000
# 4 0.000000 0.000000 0.000000 0.033769 0.000000 0.009124
# 5 0.022286 -0.002056 0.090913 0.000000 0.224965 0.000000
# 6 0.000000 0.000000 0.000000 0.009124 0.000000 0.039752
#
#
# Mechanical properties :
#
#
# Convention : Reuss Voigt Hill
#
# Bulk Modulus (GPa) = 8.15659 16.16361 12.16010
# Shear Modulus (GPa) = 12.21551 26.09965 19.15758
#
# Velocity S-wave (km/s) = 2.45923 3.59468 3.07973
# Velocity P-wave (km/s) = 3.47879 5.02309 4.32050
#
# Compressibility (1/GPa) = 0.12260021
#
# Stress axis : x y z
#
# Youngs Moduli (GPa) = 50.95418 63.76843 16.40025
#
# Poissons Ratio (x) = 0.07023 -0.23380
# Poissons Ratio (y) = 0.05612 -0.00008
# Poissons Ratio (z) = -0.72640 -0.00029
#
# Static dielectric constant tensor:
#      x y z
#    x 1.741910 0.000000 -0.015300 
#    y 0.000000 1.696960 0.000000 
#    z -0.015300 0.000000 1.775320 
# 
# From -- ./inp_files/359616.got.cif
#   From: 2010.05.17/outbox.cif.g08.bks.cpg/sg12_180_cif.got.tgz:359616.got - 2010.06.03 13:09:07.
