data_PCOD9197645
_publ_section_title
;
Structure prediction by ZEFSAII (Michael W. Deem and Ramdas Pophale) SiO2 
 PCOD9197645
Probable space group: C 2/M
;
_chemical_formula_sum "Si O2"
_cell_formula_units_Z 50
_cell_length_a 14.820044
_cell_length_b 7.377903
_cell_length_c 26.581899
_cell_angle_alpha 90.000000
_cell_angle_beta 39.589063
_cell_angle_gamma 90.000000
_cell_volume 1852.237243
_symmetry_space_group_name_H-M "C 2/M"
_symmetry_group_IT_number 12
_symmetry_cell_setting 'monoclinic'
loop_
_space_group_symop_operation_xyz
x,y,z
-x,y,-z
-x,-y,-z
x,-y,z
1/2+x,1/2+y,z
1/2-x,1/2+y,-z
1/2-x,1/2-y,-z
1/2+x,1/2-y,z
loop_
_atom_site_type_symbol
_atom_site_label
_atom_site_fract_x
_atom_site_fract_y
_atom_site_fract_z
Si Si1 0.091912 0.207986 0.618144
Si Si2 0.000000 0.500000 0.000000
Si Si3 0.305400 0.281117 0.322454
Si Si4 0.391825 0.281441 0.851008
Si Si5 0.963778 0.779552 0.928666
Si Si6 0.286810 0.796254 0.789987
Si Si7 0.502504 0.290159 0.554406
O O1 0.930106 0.205187 0.708891
O O2 0.087990 0.290992 0.564312
O O3 0.182650 0.286450 0.624874
O O4 0.134601 0.000000 0.594548
O O5 0.935339 0.658701 0.989527
O O6 0.301944 0.500000 0.324600
O O7 0.448319 0.227800 0.233418
O O8 0.162433 0.214470 0.359284
O O9 0.383018 0.500000 0.851421
O O10 0.376948 0.230426 0.915506
O O11 0.298385 0.206367 0.845761
O O12 0.129805 0.730079 0.845623
O O13 0.957699 0.000000 0.938791
O O14 0.295278 0.000000 0.766603
O O15 0.500000 0.205091 0.500000
O O16 0.544013 0.500000 0.531511
#
# Coordination Sequence:
#
# PCOD9197645 Si02
#       7
#     8   2   8   8   8   8   8
#     4   9  19  35  54  78 110 145 184 233 292 344
#     4  12  26  40  68  86 120 166 204 228 280 362
#     4   9  18  34  54  80 108 141 183 233 290 339
#     4   9  19  37  62  87 118 147 185 242 296 342
#     4  10  23  42  62  87 124 157 195 244 288 343
#     4  10  20  35  61  90 116 142 189 246 291 341
#     4  10  21  35  50  73 109 150 192 232 280 344
#
# _framework density 26.994384
#
# number of rings (size 3 to 8) (size 9 to 14) (size 15 to 20)
#    0.000    2.400    0.000    2.640    3.360    5.440 
#    0.000    0.800    0.000    0.000    0.000    0.000 
#    0.000    0.000    0.000    0.000    0.000    0.000 
#
# Total GULP energy -139672.024887 kJ/mol
# GULP energy per Si atom -5586.880995 kJ/mol
# Density = 2.693294 g / cm^3
# Si number density = 26.994384 Si / 1000 Ang^3
#
#
#
# Elastic Constant Matrix: (Units=GPa)
#
#
# Indices 1 2 3 4 5 6 
#
# 1 173.3033 4.6575 38.6011 -0.0002 51.6543 -0.0009
# 2 4.6575 114.3143 17.5498 -0.0008 13.9600 -0.0019
# 3 38.6011 17.5498 88.9761 -0.0002 11.0961 0.0001
# 4 -0.0002 -0.0008 -0.0002 20.1856 0.0003 4.6089
# 5 51.6543 13.9600 11.0961 0.0003 62.7453 -0.0006
# 6 -0.0009 -0.0019 0.0001 4.6089 -0.0006 3.9052
#
#
#
# Elastic Compliance Matrix: (Units=1/GPa)
#
#
# Indices 1 2 3 4 5 6 
#
# 1 0.008369 0.000920 -0.002994 0.000000 -0.006565 0.000002
# 2 0.000920 0.009310 -0.001925 -0.000001 -0.002488 0.000005
# 3 -0.002994 -0.001925 0.012840 0.000001 0.000622 -0.000003
# 4 0.000000 -0.000001 0.000001 0.067814 -0.000001 -0.080034
# 5 -0.006565 -0.002488 0.000622 -0.000001 0.021786 0.000001
# 6 0.000002 0.000005 -0.000003 -0.080034 0.000001 0.350522
#
#
# Mechanical properties :
#
#
# Convention : Reuss Voigt Hill
#
# Bulk Modulus (GPa) = 44.40163 55.35673 49.87918
# Shear Modulus (GPa) = 10.28499 38.41959 24.35229
#
# Velocity S-wave (km/s) = 1.95405 3.77668 3.00680
# Velocity P-wave (km/s) = 4.64492 6.29039 5.52921
#
# Compressibility (1/GPa) = 0.02252169
#
# Stress axis : x y z
#
# Youngs Moduli (GPa) = 119.48789 107.41405 77.88250
#
# Poissons Ratio (x) = -0.09886 0.23315
# Poissons Ratio (y) = -0.10997 0.14994
# Poissons Ratio (z) = 0.35770 0.20679
#
# Static dielectric constant tensor:
#      x y z
#    x 2.068590 0.000000 0.001760 
#    y 0.000000 2.103060 0.000000 
#    z 0.001760 0.000000 2.247790 
# 
# From -- ./inp_files/308386.got.cif
#   From: 2010.05.17/outbox.cif.g08.bks.cpg/sg12_155_cif.got.tgz:308386.got - 2010.06.03 13:09:07.
