data_PCOD9197339
_publ_section_title
;
Structure prediction by ZEFSAII (Michael W. Deem and Ramdas Pophale) SiO2 
 PCOD9197339
Probable space group: C 2/M
;
_chemical_formula_sum "Si O2"
_cell_formula_units_Z 56
_cell_length_a 22.072711
_cell_length_b 13.283403
_cell_length_c 19.111975
_cell_angle_alpha 90.000000
_cell_angle_beta 151.909050
_cell_angle_gamma 90.000000
_cell_volume 2638.602442
_symmetry_space_group_name_H-M "C 2/M"
_symmetry_group_IT_number 12
_symmetry_cell_setting 'monoclinic'
loop_
_space_group_symop_operation_xyz
x,y,z
-x,y,-z
-x,-y,-z
x,-y,z
1/2+x,1/2+y,z
1/2-x,1/2+y,-z
1/2-x,1/2-y,-z
1/2+x,1/2-y,z
loop_
_atom_site_type_symbol
_atom_site_label
_atom_site_fract_x
_atom_site_fract_y
_atom_site_fract_z
Si Si1 0.519098 0.115860 0.648968
Si Si2 0.021057 0.722435 0.101840
Si Si3 0.366534 0.384316 0.154180
Si Si4 0.068193 0.325645 0.845904
Si Si5 0.787469 0.710311 0.332749
Si Si6 0.371417 0.389801 0.323211
Si Si7 0.700371 0.387964 0.117436
O O1 0.493662 0.125051 0.705366
O O2 0.421160 0.185183 0.506164
O O3 0.670007 0.143177 0.791976
O O4 0.506382 0.000000 0.612765
O O5 0.167730 0.759471 0.258421
O O6 0.988221 0.654462 0.134939
O O7 0.000000 0.685604 0.000000
O O8 0.919965 0.814132 0.007779
O O9 0.398307 0.500000 0.167017
O O10 0.426178 0.293923 0.169074
O O11 0.400174 0.372150 0.270818
O O12 0.213229 0.367640 0.993807
O O13 0.797931 0.799701 0.286059
O O14 0.745857 0.615244 0.244227
O O15 0.500000 0.395973 0.500000
O O16 0.305908 0.500000 0.260616
O O17 0.665965 0.500000 0.060231
#
# Coordination Sequence:
#
# PCOD9197339 Si02
#       7
#     8   8   8   8   8   8   8
#     4  11  23  38  61  90 116 148 192 241 291 341
#     4  10  23  38  57  83 116 156 193 232 289 350
#     4  10  20  35  59  88 115 150 197 244 287 333
#     4  11  21  37  57  80 117 155 191 239 289 341
#     4  11  21  37  59  87 122 154 188 232 286 345
#     4  10  20  36  60  88 116 151 197 244 288 336
#     4  10  20  36  60  89 118 149 189 236 287 343
#
# _framework density 21.223357
#
# number of rings (size 3 to 8) (size 9 to 14) (size 15 to 20)
#    0.000    1.571    0.000    7.286    0.000    6.571 
#    0.000    1.429    0.000    9.000    0.000    0.000 
#    0.000    0.000    0.000    0.000    0.000    0.000 
#
# Total GULP energy -156302.222310 kJ/mol
# GULP energy per Si atom -5582.222225 kJ/mol
# Density = 2.117505 g / cm^3
# Si number density = 21.223357 Si / 1000 Ang^3
#
#
#
# Elastic Constant Matrix: (Units=GPa)
#
#
# Indices 1 2 3 4 5 6 
#
# 1 86.0289 -0.2609 16.2013 0.0000 -9.9216 0.0000
# 2 -0.2609 86.6646 -0.7810 0.0000 3.4055 0.0000
# 3 16.2013 -0.7810 23.2400 0.0000 -13.1801 0.0000
# 4 0.0000 0.0000 0.0000 18.0793 0.0000 -3.8199
# 5 -9.9216 3.4055 -13.1801 0.0000 39.3580 0.0000
# 6 0.0000 0.0000 0.0000 -3.8199 0.0000 2.8274
#
#
#
# Elastic Compliance Matrix: (Units=1/GPa)
#
#
# Indices 1 2 3 4 5 6 
#
# 1 0.013384 -0.000055 -0.009155 0.000000 0.000313 0.000000
# 2 -0.000055 0.011579 -0.000184 0.000000 -0.001077 0.000000
# 3 -0.009155 -0.000184 0.059383 0.000000 0.017594 0.000001
# 4 0.000000 0.000000 0.000000 0.077408 0.000000 0.104580
# 5 0.000313 -0.001077 0.017594 0.000000 0.031472 0.000000
# 6 0.000000 0.000000 0.000001 0.104580 0.000000 0.494973
#
#
# Mechanical properties :
#
#
# Convention : Reuss Voigt Hill
#
# Bulk Modulus (GPa) = 15.25307 25.13913 20.19610
# Shear Modulus (GPa) = 6.86022 24.10455 15.48238
#
# Velocity S-wave (km/s) = 1.79984 3.37375 2.70385
# Velocity P-wave (km/s) = 3.39437 5.20068 4.39140
#
# Compressibility (1/GPa) = 0.06556059
#
# Stress axis : x y z
#
# Youngs Moduli (GPa) = 74.71615 86.36139 16.83971
#
# Poissons Ratio (x) = 0.00471 0.15416
# Poissons Ratio (y) = 0.00407 0.00309
# Poissons Ratio (z) = 0.68401 0.01587
#
# Static dielectric constant tensor:
#      x y z
#    x 1.794960 0.000000 -0.026670 
#    y 0.000000 1.840530 0.000000 
#    z -0.026670 0.000000 1.757090 
# 
# From -- ./inp_files/284559.got.cif
#   From: 2010.05.17/outbox.cif.g08.bks.cpg/sg12_143_cif.got.tgz:284559.got - 2010.06.03 13:09:07.
