data_PCOD9197589
_publ_section_title
;
Structure prediction by ZEFSAII (Michael W. Deem and Ramdas Pophale) SiO2 
 PCOD9197589
Probable space group: C 2/M
;
_chemical_formula_sum "Si O2"
_cell_formula_units_Z 40
_cell_length_a 16.569901
_cell_length_b 17.081873
_cell_length_c 7.898366
_cell_angle_alpha 90.000000
_cell_angle_beta 126.290579
_cell_angle_gamma 90.000000
_cell_volume 1801.944872
_symmetry_space_group_name_H-M "C 2/M"
_symmetry_group_IT_number 12
_symmetry_cell_setting 'monoclinic'
loop_
_space_group_symop_operation_xyz
x,y,z
-x,y,-z
-x,-y,-z
x,-y,z
1/2+x,1/2+y,z
1/2-x,1/2+y,-z
1/2-x,1/2-y,-z
1/2+x,1/2-y,z
loop_
_atom_site_type_symbol
_atom_site_label
_atom_site_fract_x
_atom_site_fract_y
_atom_site_fract_z
Si Si1 0.285676 0.703470 0.209546
Si Si2 0.442008 0.809686 0.595501
Si Si3 0.441080 0.657550 0.163319
Si Si4 0.166819 0.589704 0.280111
Si Si5 0.868678 0.086611 0.748689
O O1 0.373243 0.646747 0.244072
O O2 0.341866 0.762423 0.409072
O O3 0.250000 0.750000 0.000000
O O4 0.196261 0.651814 0.172796
O O5 0.500000 0.838791 0.500000
O O6 0.512151 0.743394 0.762870
O O7 0.417007 0.875544 0.700182
O O8 0.376846 0.647049 0.912940
O O9 0.536082 0.601809 0.252605
O O10 0.147946 0.500000 0.203102
O O11 0.232031 0.909164 0.481071
O O12 0.875358 0.000000 0.833034
#
# Coordination Sequence:
#
# PCOD9197589 Si02
#       5
#     8   8   8   8   8
#     4  11  23  38  61  90 122 168 213 259 304 369
#     4  10  22  41  63  93 122 162 218 262 307 368
#     4  10  20  35  60  92 121 160 206 253 307 369
#     4  11  24  41  63  92 130 167 206 261 316 376
#     4  10  21  36  60  94 129 164 200 255 327 380
#
# _framework density 22.198236999999999
#
# number of rings (size 3 to 8) (size 9 to 14) (size 15 to 20)
#    0.000    1.600    2.000    3.000    5.600    2.000 
#    0.000    3.000    0.000    6.000    0.000    0.000 
#    0.000    0.000    0.000    0.000    0.000    0.000 
#
# Total GULP energy -111808.452015 kJ/mol
# GULP energy per Si atom -5590.422601 kJ/mol
# Density = 2.214771 g / cm^3
# Si number density = 22.198237 Si / 1000 Ang^3
#
#
#
# Elastic Constant Matrix: (Units=GPa)
#
#
# Indices 1 2 3 4 5 6 
#
# 1 89.8506 50.5316 3.9734 0.0000 -29.9249 0.0000
# 2 50.5316 104.4463 46.5204 0.0000 -25.6246 0.0000
# 3 3.9734 46.5204 71.1807 0.0000 -7.3794 0.0000
# 4 0.0000 0.0000 0.0000 15.8377 0.0000 12.0675
# 5 -29.9249 -25.6246 -7.3794 0.0000 37.6484 0.0000
# 6 0.0000 0.0000 0.0000 12.0675 0.0000 13.9811
#
#
#
# Elastic Compliance Matrix: (Units=1/GPa)
#
#
# Indices 1 2 3 4 5 6 
#
# 1 0.019880 -0.009983 0.006480 0.000000 0.010277 0.000000
# 2 -0.009983 0.021062 -0.012804 0.000000 0.003890 0.000000
# 3 0.006480 -0.012804 0.022136 0.000000 0.000775 0.000000
# 4 0.000000 0.000000 0.000000 0.184437 0.000000 -0.159193
# 5 0.010277 0.003890 0.000775 0.000000 0.037530 0.000000
# 6 0.000000 0.000000 0.000000 -0.159193 0.000000 0.208928
#
#
# Mechanical properties :
#
#
# Convention : Reuss Voigt Hill
#
# Bulk Modulus (GPa) = 32.82647 51.94760 42.38704
# Shear Modulus (GPa) = 9.31546 24.45692 16.88619
#
# Velocity S-wave (km/s) = 2.05075 3.32286 2.76107
# Velocity P-wave (km/s) = 4.51967 6.17854 5.41303
#
# Compressibility (1/GPa) = 0.03046322
#
# Stress axis : x y z
#
# Youngs Moduli (GPa) = 50.30096 47.47962 45.17601
#
# Poissons Ratio (x) = 0.47399 -0.29275
# Poissons Ratio (y) = 0.50216 0.57845
# Poissons Ratio (z) = -0.32596 0.60795
#
# Static dielectric constant tensor:
#      x y z
#    x 1.877100 0.000000 0.023440 
#    y 0.000000 1.795120 0.000000 
#    z 0.023440 0.000000 1.841330 
# 
# From -- ./inp_files/71407.got.cif
#   From: 2010.05.17/outbox.cif.g08.bks.cpg/sg12_36_cif.got.tgz:71407.got - 2010.06.03 13:09:07.
