data_PCOD9197237
_publ_section_title
;
Structure prediction by ZEFSAII (Michael W. Deem and Ramdas Pophale) SiO2 
 PCOD9197237
Probable space group: C 2/M
;
_chemical_formula_sum "Si O2"
_cell_formula_units_Z 56
_cell_length_a 24.006431
_cell_length_b 14.801319
_cell_length_c 7.919221
_cell_angle_alpha 90.000000
_cell_angle_beta 114.878871
_cell_angle_gamma 90.000000
_cell_volume 2552.778584
_symmetry_space_group_name_H-M "C 2/M"
_symmetry_group_IT_number 12
_symmetry_cell_setting 'monoclinic'
loop_
_space_group_symop_operation_xyz
x,y,z
-x,y,-z
-x,-y,-z
x,-y,z
1/2+x,1/2+y,z
1/2-x,1/2+y,-z
1/2-x,1/2-y,-z
1/2+x,1/2-y,z
loop_
_atom_site_type_symbol
_atom_site_label
_atom_site_fract_x
_atom_site_fract_y
_atom_site_fract_z
Si Si1 0.369415 0.604060 0.542726
Si Si2 0.774048 0.110816 0.942445
Si Si3 0.064170 0.345260 0.541275
Si Si4 0.475271 0.294075 0.795534
Si Si5 0.735493 0.889656 0.259786
Si Si6 0.811265 0.604314 0.462311
Si Si7 0.594284 0.669975 0.774194
O O1 0.363766 0.500000 0.575931
O O2 0.412822 0.650047 0.734069
O O3 0.300881 0.639128 0.424494
O O4 0.401163 0.618787 0.399901
O O5 0.737233 0.139333 0.066594
O O6 0.843148 0.146846 0.049954
O O7 0.776610 0.000000 0.943966
O O8 0.738517 0.144454 0.731085
O O9 0.042644 0.280273 0.362742
O O10 0.123528 0.394391 0.547066
O O11 0.087300 0.276411 0.717115
O O12 0.000000 0.394719 0.500000
O O13 0.531514 0.352424 0.791052
O O14 0.500000 0.254649 0.000000
O O15 0.687778 0.859740 0.343899
O O16 0.733757 0.000000 0.244116
O O17 0.792558 0.500000 0.456425
#
# Coordination Sequence:
#
# PCOD9197237 Si02
#       7
#     8   8   8   8   8   8   8
#     4   9  17  31  51  74 106 145 178 210 253 304
#     4   9  18  33  55  82 110 140 172 209 258 312
#     4   9  20  40  55  72 103 138 175 215 266 315
#     4  10  21  34  50  73 106 141 179 220 258 301
#     4   8  16  32  50  76 112 136 162 213 262 307
#     4  10  20  35  59  82 103 133 172 222 271 316
#     4   9  18  34  53  71 106 146 172 211 255 311
#
# _framework density 21.936881
#
# number of rings (size 3 to 8) (size 9 to 14) (size 15 to 20)
#    0.000    2.857    0.000    2.571    2.000    2.857 
#    5.143    6.429    0.000    0.429    0.000    0.000 
#    0.000    0.000    0.000    0.000    0.000    0.000 
#
# Total GULP energy -156047.719372 kJ/mol
# GULP energy per Si atom -5573.132835 kJ/mol
# Density = 2.188695 g / cm^3
# Si number density = 21.936881 Si / 1000 Ang^3
#
#
#
# Elastic Constant Matrix: (Units=GPa)
#
#
# Indices 1 2 3 4 5 6 
#
# 1 52.9680 3.8743 18.1203 0.0000 -4.6843 0.0000
# 2 3.8743 29.9951 5.8050 0.0000 2.9551 0.0000
# 3 18.1203 5.8050 69.2870 0.0000 5.3592 0.0000
# 4 0.0000 0.0000 0.0000 10.2159 0.0000 5.9205
# 5 -4.6843 2.9551 5.3592 0.0000 20.9590 0.0000
# 6 0.0000 0.0000 0.0000 5.9205 0.0000 20.2828
#
#
#
# Elastic Compliance Matrix: (Units=1/GPa)
#
#
# Indices 1 2 3 4 5 6 
#
# 1 0.021693 -0.002302 -0.005999 0.000000 0.006707 0.000000
# 2 -0.002302 0.034487 -0.001909 0.000000 -0.004889 0.000000
# 3 -0.005999 -0.001909 0.016572 0.000000 -0.005309 0.000000
# 4 0.000000 0.000000 0.000000 0.117817 0.000000 -0.034391
# 5 0.006707 -0.004889 -0.005309 0.000000 0.051258 0.000000
# 6 0.000000 0.000000 0.000000 -0.034391 0.000000 0.059342
#
#
# Mechanical properties :
#
#
# Convention : Reuss Voigt Hill
#
# Bulk Modulus (GPa) = 19.10871 23.09436 21.10154
# Shear Modulus (GPa) = 14.74777 18.58824 16.66801
#
# Velocity S-wave (km/s) = 2.59565 2.91409 2.75947
# Velocity P-wave (km/s) = 4.20867 4.67686 4.44893
#
# Compressibility (1/GPa) = 0.05233216
#
# Stress axis : x y z
#
# Youngs Moduli (GPa) = 46.09745 28.99627 60.34166
#
# Poissons Ratio (x) = 0.06674 0.36200
# Poissons Ratio (y) = 0.10610 0.11521
# Poissons Ratio (z) = 0.27655 0.05536
#
# Static dielectric constant tensor:
#      x y z
#    x 1.875480 0.000000 -0.023640 
#    y 0.000000 1.823430 0.000000 
#    z -0.023640 0.000000 1.788070 
# 
# From -- ./inp_files/88062.got.cif
#   From: 2010.05.17/outbox.cif.g08.bks.cpg/sg12_45_cif.got.tgz:88062.got - 2010.06.03 13:09:07.
