data_PCOD9197420
_publ_section_title
;
Structure prediction by ZEFSAII (Michael W. Deem and Ramdas Pophale) SiO2 
 PCOD9197420
Probable space group: C 2/M
;
_chemical_formula_sum "Si O2"
_cell_formula_units_Z 64
_cell_length_a 14.923256
_cell_length_b 9.036689
_cell_length_c 26.195465
_cell_angle_alpha 90.000000
_cell_angle_beta 60.951021
_cell_angle_gamma 90.000000
_cell_volume 3088.248925
_symmetry_space_group_name_H-M "C 2/M"
_symmetry_group_IT_number 12
_symmetry_cell_setting 'monoclinic'
loop_
_space_group_symop_operation_xyz
x,y,z
-x,y,-z
-x,-y,-z
x,-y,z
1/2+x,1/2+y,z
1/2-x,1/2+y,-z
1/2-x,1/2-y,-z
1/2+x,1/2-y,z
loop_
_atom_site_type_symbol
_atom_site_label
_atom_site_fract_x
_atom_site_fract_y
_atom_site_fract_z
Si Si1 0.733603 0.322583 0.853566
Si Si2 0.483650 0.825156 0.064800
Si Si3 0.353915 0.328247 0.455249
Si Si4 0.119568 0.675245 0.277883
Si Si5 0.727924 0.670345 0.631278
Si Si6 0.046590 0.824794 0.747183
Si Si7 0.903117 0.824905 0.879318
Si Si8 0.578734 0.676626 0.397437
O O1 0.729935 0.500000 0.860822
O O2 0.623113 0.251464 0.891052
O O3 0.781163 0.291974 0.784384
O O4 0.811659 0.252022 0.873284
O O5 0.572726 0.750020 0.073602
O O6 0.480029 0.000000 0.076972
O O7 0.500000 0.805622 0.000000
O O8 0.347139 0.500000 0.472176
O O9 0.250000 0.250000 0.500000
O O10 0.350157 0.320784 0.394475
O O11 0.464187 0.268796 0.442494
O O12 0.116636 0.500000 0.288685
O O13 0.108310 0.762286 0.333498
O O14 0.025899 0.724672 0.267675
O O15 0.761728 0.500000 0.626200
O O16 0.663174 0.709814 0.699684
O O17 0.827564 0.768294 0.594169
O O18 0.005416 0.806717 0.815794
O O19 0.032152 0.000000 0.738438
O O20 0.883213 0.000000 0.889744
O O21 0.574414 0.500000 0.398108
#
# Coordination Sequence:
#
# PCOD9197420 Si02
#       8
#     8   8   8   8   8   8   8   8
#     4  10  22  40  62  90 123 160 203 251 303 361
#     4  11  25  43  62  87 121 162 208 254 301 360
#     4  10  23  43  64  84 118 160 201 248 297 348
#     4  10  20  35  59  90 123 157 197 243 296 358
#     4  10  21  39  60  87 122 159 197 243 297 355
#     4   9  18  36  60  86 123 158 193 242 298 357
#     4  10  21  38  63  92 122 160 200 249 307 360
#     4  11  23  39  59  89 122 158 199 245 299 354
#
# _framework density 20.723718999999999
#
# number of rings (size 3 to 8) (size 9 to 14) (size 15 to 20)
#    0.000    1.875    1.250    1.875    1.750    6.000 
#    0.000    2.500    0.000    0.000    0.000    0.000 
#    0.000    0.000    0.000    0.000    0.000    0.000 
#
# Total GULP energy -178781.973496 kJ/mol
# GULP energy per Si atom -5586.936672 kJ/mol
# Density = 2.067655 g / cm^3
# Si number density = 20.723719 Si / 1000 Ang^3
#
#
#
# Elastic Constant Matrix: (Units=GPa)
#
#
# Indices 1 2 3 4 5 6 
#
# 1 58.6619 10.4484 5.3491 0.0000 -10.0230 0.0000
# 2 10.4484 49.0300 25.4561 0.0000 -8.8217 0.0000
# 3 5.3491 25.4561 36.0189 0.0000 -9.8561 0.0000
# 4 0.0000 0.0000 0.0000 29.8398 0.0000 -0.9480
# 5 -10.0230 -8.8217 -9.8561 0.0000 34.4379 0.0000
# 6 0.0000 0.0000 0.0000 -0.9480 0.0000 33.2657
#
#
#
# Elastic Compliance Matrix: (Units=1/GPa)
#
#
# Indices 1 2 3 4 5 6 
#
# 1 0.018406 -0.003670 0.001160 0.000000 0.004749 0.000000
# 2 -0.003670 0.033062 -0.022563 0.000000 0.000944 0.000000
# 3 0.001160 -0.022563 0.045621 0.000000 0.007614 0.000000
# 4 0.000000 0.000000 0.000000 0.033543 0.000000 0.000956
# 5 0.004749 0.000944 0.007614 0.000000 0.032841 0.000000
# 6 0.000000 0.000000 0.000000 0.000956 0.000000 0.030088
#
#
# Mechanical properties :
#
#
# Convention : Reuss Voigt Hill
#
# Bulk Modulus (GPa) = 21.30279 25.13532 23.21906
# Shear Modulus (GPa) = 19.27857 26.33917 22.80887
#
# Velocity S-wave (km/s) = 3.05334 3.56893 3.32115
# Velocity P-wave (km/s) = 4.76783 5.39797 5.09266
#
# Compressibility (1/GPa) = 0.04694221
#
# Stress axis : x y z
#
# Youngs Moduli (GPa) = 54.32965 30.24602 21.91979
#
# Poissons Ratio (x) = 0.11101 -0.02542
# Poissons Ratio (y) = 0.19940 0.49458
# Poissons Ratio (z) = -0.06301 0.68245
#
# Static dielectric constant tensor:
#      x y z
#    x 1.762220 0.000000 0.014310 
#    y 0.000000 1.692760 0.000000 
#    z 0.014310 0.000000 1.761890 
# 
# From -- ./inp_files/338783.got.cif
#   From: 2010.05.17/outbox.cif.g08.bks.cpg/sg12_170_cif.got.tgz:338783.got - 2010.06.03 13:09:07.
