data_PCOD9197486
_publ_section_title
;
Structure prediction by ZEFSAII (Michael W. Deem and Ramdas Pophale) SiO2 
 PCOD9197486
Probable space group: C 2/M
;
_chemical_formula_sum "Si O2"
_cell_formula_units_Z 64
_cell_length_a 19.473934
_cell_length_b 18.711571
_cell_length_c 16.638686
_cell_angle_alpha 90.000000
_cell_angle_beta 36.442431
_cell_angle_gamma 90.000000
_cell_volume 3601.473592
_symmetry_space_group_name_H-M "C 2/M"
_symmetry_group_IT_number 12
_symmetry_cell_setting 'monoclinic'
loop_
_space_group_symop_operation_xyz
x,y,z
-x,y,-z
-x,-y,-z
x,-y,z
1/2+x,1/2+y,z
1/2-x,1/2+y,-z
1/2-x,1/2-y,-z
1/2+x,1/2-y,z
loop_
_atom_site_type_symbol
_atom_site_label
_atom_site_fract_x
_atom_site_fract_y
_atom_site_fract_z
Si Si1 0.847520 0.302162 0.443943
Si Si2 0.415484 0.820272 0.864811
Si Si3 0.230362 0.799084 0.902201
Si Si4 0.401378 0.084853 0.029919
Si Si5 0.434087 0.331157 0.441406
Si Si6 0.657508 0.585922 0.629203
Si Si7 0.676714 0.329161 0.281681
Si Si8 0.457774 0.582456 0.948041
O O1 0.750000 0.250000 0.500000
O O2 0.908304 0.252920 0.452929
O O3 0.778817 0.373545 0.532762
O O4 0.950735 0.312103 0.283838
O O5 0.335781 0.823822 0.860298
O O6 0.356523 0.754029 0.967484
O O7 0.413748 0.885788 0.928158
O O8 0.277299 0.750495 0.784146
O O9 0.151982 0.866427 0.955316
O O10 0.280737 0.116971 0.171651
O O11 0.401832 0.000000 0.030103
O O12 0.500000 0.110193 0.000000
O O13 0.386330 0.379480 0.413702
O O14 0.570920 0.342243 0.320193
O O15 0.372935 0.344220 0.583606
O O16 0.670169 0.500000 0.611707
O O17 0.561239 0.602044 0.788386
O O18 0.427526 0.500000 0.958674
O O19 0.500000 0.586676 0.000000
#
# Coordination Sequence:
#
# PCOD9197486 Si02
#       8
#     8   8   8   8   8   8   8   8
#     4  10  20  35  60  83 115 150 194 243 292 342
#     4  10  21  37  58  89 115 155 199 243 294 354
#     4  10  20  37  62  85 119 149 197 250 294 349
#     4  10  24  40  56  84 125 161 198 243 296 359
#     4  10  21  39  60  88 118 152 197 246 291 354
#     4  10  23  39  60  87 119 157 196 242 295 356
#     4  10  22  38  61  87 116 156 199 240 297 348
#     4  10  23  41  61  87 117 154 201 248 299 351
#
# _framework density 17.770503999999999
#
# number of rings (size 3 to 8) (size 9 to 14) (size 15 to 20)
#    0.000    2.000    1.250    1.500    8.750    4.000 
#    0.000    1.250    0.000    0.000    0.000    4.375 
#    0.000    0.000    0.000    0.000    0.000    0.000 
#
# Total GULP energy -178297.521966 kJ/mol
# GULP energy per Si atom -5571.797561 kJ/mol
# Density = 1.773006 g / cm^3
# Si number density = 17.770504 Si / 1000 Ang^3
#
#
#
# Elastic Constant Matrix: (Units=GPa)
#
#
# Indices 1 2 3 4 5 6 
#
# 1 65.5244 40.8931 37.0918 0.0000 -7.1476 0.0000
# 2 40.8931 83.3906 39.9317 0.0000 -10.9827 0.0000
# 3 37.0918 39.9317 111.4888 0.0000 -18.7400 0.0000
# 4 0.0000 0.0000 0.0000 13.1722 0.0000 -3.9270
# 5 -7.1476 -10.9827 -18.7400 0.0000 27.3043 0.0000
# 6 0.0000 0.0000 0.0000 -3.9270 0.0000 14.4070
#
#
#
# Elastic Compliance Matrix: (Units=1/GPa)
#
#
# Indices 1 2 3 4 5 6 
#
# 1 0.023739 -0.009535 -0.004615 0.000000 -0.000789 0.000000
# 2 -0.009535 0.018464 -0.002953 0.000000 0.002904 0.000000
# 3 -0.004615 -0.002953 0.012615 0.000000 0.006262 0.000000
# 4 0.000000 0.000000 0.000000 0.082633 0.000000 0.022524
# 5 -0.000789 0.002904 0.006262 0.000000 0.041884 0.000000
# 6 0.000000 0.000000 0.000000 0.022524 0.000000 0.075550
#
#
# Mechanical properties :
#
#
# Convention : Reuss Voigt Hill
#
# Bulk Modulus (GPa) = 48.51541 55.13744 51.82642
# Shear Modulus (GPa) = 16.89413 20.47586 18.68499
#
# Velocity S-wave (km/s) = 3.08666 3.39815 3.24614
# Velocity P-wave (km/s) = 6.32959 6.81846 6.57857
#
# Compressibility (1/GPa) = 0.02061201
#
# Stress axis : x y z
#
# Youngs Moduli (GPa) = 42.12555 54.15986 79.26927
#
# Poissons Ratio (x) = 0.51640 0.36585
# Poissons Ratio (y) = 0.40166 0.23407
# Poissons Ratio (z) = 0.19442 0.15992
#
# Static dielectric constant tensor:
#      x y z
#    x 1.623730 0.000000 0.025590 
#    y 0.000000 1.615810 0.000000 
#    z 0.025590 0.000000 1.657630 
# 
# From -- ./inp_files/285210.got.cif
#   From: 2010.05.17/outbox.cif.g08.bks.cpg/sg12_143_cif.got.tgz:285210.got - 2010.06.03 13:09:07.
