data_PCOD9197310
_publ_section_title
;
Structure prediction by ZEFSAII (Michael W. Deem and Ramdas Pophale) SiO2 
 PCOD9197310
Probable space group: C 2/M
;
_chemical_formula_sum "Si O2"
_cell_formula_units_Z 56
_cell_length_a 29.773305
_cell_length_b 8.974975
_cell_length_c 22.218340
_cell_angle_alpha 90.000000
_cell_angle_beta 31.362680
_cell_angle_gamma 90.000000
_cell_volume 3089.967288
_symmetry_space_group_name_H-M "C 2/M"
_symmetry_group_IT_number 12
_symmetry_cell_setting 'monoclinic'
loop_
_space_group_symop_operation_xyz
x,y,z
-x,y,-z
-x,-y,-z
x,-y,z
1/2+x,1/2+y,z
1/2-x,1/2+y,-z
1/2-x,1/2-y,-z
1/2+x,1/2-y,z
loop_
_atom_site_type_symbol
_atom_site_label
_atom_site_fract_x
_atom_site_fract_y
_atom_site_fract_z
Si Si1 0.759645 0.676786 0.892523
Si Si2 0.888000 0.320459 0.268046
Si Si3 0.959129 0.175432 0.980276
Si Si4 0.083032 0.678833 0.629722
Si Si5 0.282234 0.320754 0.611875
Si Si6 0.229194 0.321420 0.805473
Si Si7 0.382577 0.178142 0.864407
O O1 0.753671 0.500000 0.891110
O O2 0.775340 0.755918 0.811298
O O3 0.833015 0.707831 0.858426
O O4 0.670859 0.738513 0.022825
O O5 0.897865 0.500000 0.252583
O O6 0.877818 0.281450 0.349794
O O7 0.805000 0.275901 0.323855
O O8 0.973136 0.245036 0.143802
O O9 0.946838 0.000000 0.982709
O O10 0.868003 0.258368 0.082702
O O11 0.000000 0.192999 0.000000
O O12 0.086984 0.500000 0.618822
O O13 0.136829 0.752535 0.515096
O O14 0.982277 0.721686 0.746354
O O15 0.287130 0.500000 0.603640
O O16 0.272473 0.276799 0.692697
O O17 0.226526 0.500000 0.811412
O O18 0.378069 0.000000 0.881180
#
# Coordination Sequence:
#
# PCOD9197310 Si02
#       7
#     8   8   8   8   8   8   8
#     4  10  20  35  59  87 113 140 178 229 278 326
#     4  10  20  36  56  80 110 147 185 222 273 331
#     4  11  22  34  53  83 113 141 179 226 272 320
#     4  10  21  36  57  80 105 142 185 227 273 325
#     4  10  22  37  53  76 109 148 187 226 269 323
#     4  11  22  37  56  78 111 151 186 221 272 331
#     4   9  19  37  58  85 115 142 177 224 281 336
#
# _framework density 18.123169000000001
#
# number of rings (size 3 to 8) (size 9 to 14) (size 15 to 20)
#    0.000    1.857    1.429    2.571    0.000    5.143 
#    0.000    0.714    0.000    4.286    0.000    0.000 
#    0.000    0.000    0.000    0.000    0.000    0.000 
#
# Total GULP energy -156435.991648 kJ/mol
# GULP energy per Si atom -5586.999702 kJ/mol
# Density = 1.808192 g / cm^3
# Si number density = 18.123169 Si / 1000 Ang^3
#
#
#
# Elastic Constant Matrix: (Units=GPa)
#
#
# Indices 1 2 3 4 5 6 
#
# 1 93.8503 39.7764 53.9106 -0.0009 26.2396 0.0004
# 2 39.7764 35.9946 33.3325 -0.0043 13.9844 0.0026
# 3 53.9106 33.3325 110.1101 -0.0034 25.3214 0.0021
# 4 -0.0009 -0.0043 -0.0034 33.9528 0.0012 4.3999
# 5 26.2396 13.9844 25.3214 0.0012 23.6862 -0.0004
# 6 0.0004 0.0026 0.0021 4.3999 -0.0004 26.6114
#
#
#
# Elastic Compliance Matrix: (Units=1/GPa)
#
#
# Indices 1 2 3 4 5 6 
#
# 1 0.023710 -0.018593 -0.003268 -0.000002 -0.011796 0.000002
# 2 -0.018593 0.056829 -0.006790 0.000007 -0.005696 -0.000006
# 3 -0.003268 -0.006790 0.014563 0.000001 -0.007939 -0.000001
# 4 -0.000002 0.000007 0.000001 0.030098 -0.000005 -0.004976
# 5 -0.011796 -0.005696 -0.007939 -0.000005 0.067137 0.000003
# 6 0.000002 -0.000006 -0.000001 -0.004976 0.000003 0.038401
#
#
# Mechanical properties :
#
#
# Convention : Reuss Voigt Hill
#
# Bulk Modulus (GPa) = 26.45423 54.88821 40.67122
# Shear Modulus (GPa) = 16.63122 24.37912 20.50517
#
# Velocity S-wave (km/s) = 3.03260 3.67166 3.36733
# Velocity P-wave (km/s) = 5.18564 6.95175 6.13260
#
# Compressibility (1/GPa) = 0.03780113
#
# Stress axis : x y z
#
# Youngs Moduli (GPa) = 42.17541 17.59663 68.66672
#
# Poissons Ratio (x) = 0.32717 0.22439
# Poissons Ratio (y) = 0.78415 0.46627
# Poissons Ratio (z) = 0.13782 0.11949
#
# Static dielectric constant tensor:
#      x y z
#    x 1.639110 0.000000 0.005040 
#    y 0.000000 1.605660 0.000000 
#    z 0.005040 0.000000 1.578870 
# 
# From -- ./inp_files/237905.got.cif
#   From: 2010.05.17/outbox.cif.g08.bks.cpg/sg12_119_cif.got.tgz:237905.got - 2010.06.03 13:09:07.
