data_PCOD9197183
_publ_section_title
;
Structure prediction by ZEFSAII (Michael W. Deem and Ramdas Pophale) SiO2 
 PCOD9197183
Probable space group: C 2/M
;
_chemical_formula_sum "Si O2"
_cell_formula_units_Z 56
_cell_length_a 28.258882
_cell_length_b 8.757023
_cell_length_c 12.155877
_cell_angle_alpha 90.000000
_cell_angle_beta 71.073861
_cell_angle_gamma 90.000000
_cell_volume 2845.510544
_symmetry_space_group_name_H-M "C 2/M"
_symmetry_group_IT_number 12
_symmetry_cell_setting 'monoclinic'
loop_
_space_group_symop_operation_xyz
x,y,z
-x,y,-z
-x,-y,-z
x,-y,z
1/2+x,1/2+y,z
1/2-x,1/2+y,-z
1/2-x,1/2-y,-z
1/2+x,1/2-y,z
loop_
_atom_site_type_symbol
_atom_site_label
_atom_site_fract_x
_atom_site_fract_y
_atom_site_fract_z
Si Si1 0.743476 0.678470 0.125310
Si Si2 0.499285 0.181324 0.129718
Si Si3 0.693871 0.317061 0.529114
Si Si4 0.603599 0.676798 0.756883
Si Si5 0.341122 0.675157 0.065102
Si Si6 0.155087 0.680861 0.331579
Si Si7 0.908423 0.181286 0.805808
O O1 0.730524 0.500000 0.132946
O O2 0.798348 0.708185 0.132388
O O3 0.703079 0.772590 0.222764
O O4 0.750000 0.750000 0.000000
O O5 0.445499 0.223081 0.221731
O O6 0.542158 0.257135 0.171745
O O7 0.507287 0.000000 0.123409
O O8 0.500000 0.232332 0.000000
O O9 0.699110 0.500000 0.522681
O O10 0.750000 0.250000 0.500000
O O11 0.654374 0.277635 0.655474
O O12 0.666664 0.259592 0.439013
O O13 0.592980 0.500000 0.734510
O O14 0.615858 0.681150 0.877024
O O15 0.321394 0.500000 0.080270
O O16 0.364221 0.708755 0.928715
O O17 0.151721 0.500000 0.347646
O O18 0.108038 0.741568 0.296051
O O19 0.912162 0.000000 0.787357
#
# Coordination Sequence:
#
# PCOD9197183 Si02
#       7
#     8   8   8   8   8   8   8
#     4  12  23  35  55  85 122 161 204 255 315 382
#     4  11  23  38  61  95 133 169 211 261 317 381
#     4  11  24  44  70  98 129 169 218 266 319 382
#     4  10  22  41  65  92 124 165 212 261 315 379
#     4  10  20  35  58  89 124 161 204 255 315 380
#     4  12  25  42  63  88 127 170 214 266 321 381
#     4  11  22  38  63  91 126 165 208 259 317 381
#
# _framework density 19.680125
#
# number of rings (size 3 to 8) (size 9 to 14) (size 15 to 20)
#    0.000    1.000    2.857    4.714    0.000    4.000 
#    0.000    0.714    0.000    4.286    0.000    0.000 
#    0.000    0.000    0.000    0.000    0.000    0.000 
#
# Total GULP energy -156411.316326 kJ/mol
# GULP energy per Si atom -5586.118440 kJ/mol
# Density = 1.963533 g / cm^3
# Si number density = 19.680125 Si / 1000 Ang^3
#
#
#
# Elastic Constant Matrix: (Units=GPa)
#
#
# Indices 1 2 3 4 5 6 
#
# 1 130.5961 55.1098 34.0109 0.0000 6.7675 0.0000
# 2 55.1098 60.7687 26.1431 0.0000 -2.6329 0.0000
# 3 34.0109 26.1431 76.0113 0.0000 10.8928 0.0000
# 4 0.0000 0.0000 0.0000 24.8795 0.0000 1.4943
# 5 6.7675 -2.6329 10.8928 0.0000 31.9437 0.0000
# 6 0.0000 0.0000 0.0000 1.4943 0.0000 40.6085
#
#
#
# Elastic Compliance Matrix: (Units=1/GPa)
#
#
# Indices 1 2 3 4 5 6 
#
# 1 0.012952 -0.011250 -0.001472 0.000000 -0.003169 0.000000
# 2 -0.011250 0.029598 -0.006137 0.000000 0.006916 0.000000
# 3 -0.001472 -0.006137 0.016773 0.000000 -0.005914 0.000000
# 4 0.000000 0.000000 0.000000 0.040283 0.000000 -0.001482
# 5 -0.003169 0.006916 -0.005914 0.000000 0.034563 0.000000
# 6 0.000000 0.000000 0.000000 -0.001482 0.000000 0.024680
#
#
# Mechanical properties :
#
#
# Convention : Reuss Voigt Hill
#
# Bulk Modulus (GPa) = 46.28600 55.32265 50.80432
# Shear Modulus (GPa) = 24.53761 29.62716 27.08238
#
# Velocity S-wave (km/s) = 3.53487 3.88420 3.71365
# Velocity P-wave (km/s) = 6.34276 6.94896 6.65277
#
# Compressibility (1/GPa) = 0.02160481
#
# Stress axis : x y z
#
# Youngs Moduli (GPa) = 77.20732 33.78580 59.62041
#
# Poissons Ratio (x) = 0.38009 0.08775
# Poissons Ratio (y) = 0.86859 0.36590
# Poissons Ratio (z) = 0.11364 0.20735
#
# Static dielectric constant tensor:
#      x y z
#    x 1.744200 0.000000 0.027850 
#    y 0.000000 1.680010 0.000000 
#    z 0.027850 0.000000 1.715100 
# 
# From -- ./inp_files/187231.got.cif
#   From: 2010.05.17/outbox.cif.g08.bks.cpg/sg12_94_cif.got.tgz:187231.got - 2010.06.03 13:09:07.
