data_PCOD9197509
_publ_section_title
;
Structure prediction by ZEFSAII (Michael W. Deem and Ramdas Pophale) SiO2 
 PCOD9197509
Probable space group: C 2/M
;
_chemical_formula_sum "Si O2"
_cell_formula_units_Z 58
_cell_length_a 8.534408
_cell_length_b 16.249924
_cell_length_c 21.883248
_cell_angle_alpha 90.000000
_cell_angle_beta 50.553760
_cell_angle_gamma 90.000000
_cell_volume 2343.571263
_symmetry_space_group_name_H-M "C 2/M"
_symmetry_group_IT_number 12
_symmetry_cell_setting 'monoclinic'
loop_
_space_group_symop_operation_xyz
x,y,z
-x,y,-z
-x,-y,-z
x,-y,z
1/2+x,1/2+y,z
1/2-x,1/2+y,-z
1/2-x,1/2-y,-z
1/2+x,1/2-y,z
loop_
_atom_site_type_symbol
_atom_site_label
_atom_site_fract_x
_atom_site_fract_y
_atom_site_fract_z
Si Si1 0.800316 0.373079 0.884812
Si Si2 0.357393 0.366239 0.201623
Si Si3 0.740970 0.595505 0.513935
Si Si4 0.000000 0.000000 0.000000
Si Si5 0.252090 0.097269 0.378555
Si Si6 0.777573 0.698649 0.056564
Si Si7 0.784453 0.676208 0.244349
Si Si8 0.143406 0.905856 0.664846
O O1 0.748223 0.406548 0.830511
O O2 0.674329 0.427548 0.962171
O O3 0.725015 0.278629 0.898651
O O4 0.038601 0.369142 0.836980
O O5 0.596061 0.360135 0.123296
O O6 0.300280 0.271774 0.228248
O O7 0.290998 0.406983 0.281462
O O8 0.808278 0.500000 0.495058
O O9 0.813747 0.630263 0.430605
O O10 0.494697 0.598751 0.567406
O O11 0.777741 0.626290 0.574265
O O12 0.327693 0.152734 0.304241
O O13 0.306116 0.000000 0.359048
O O14 0.750000 0.750000 0.000000
O O15 0.000000 0.660259 0.000000
O O16 0.564013 0.644484 0.282772
O O17 0.096622 0.000000 0.659032
#
# Coordination Sequence:
#
# PCOD9197509 Si02
#       8
#     8   8   8   2   8   8   8   8
#     4  11  24  38  57  81 110 151 181 232 288 352
#     4  11  23  39  57  82 117 153 187 230 299 357
#     4   7  12  26  49  78 115 149 183 231 284 333
#     4  12  24  40  56  74 112 140 194 224 284 338
#     4   8  13  25  50  84 113 145 190 235 279 330
#     4  11  20  39  60  82 104 146 193 233 287 352
#     4  10  20  35  60  87 114 146 195 242 285 336
#     4  10  21  37  59  88 117 151 196 243 285 337
#
# _framework density 24.748553999999999
#
# number of rings (size 3 to 8) (size 9 to 14) (size 15 to 20)
#    0.000    2.207    2.069    3.724    4.828    0.000 
#    0.000    0.690    0.000    3.724    0.000    2.897 
#    0.000    0.000    0.000    0.000    0.000    0.000 
#
# Total GULP energy -161700.423126 kJ/mol
# GULP energy per Si atom -5575.876660 kJ/mol
# Density = 2.469223 g / cm^3
# Si number density = 24.748554 Si / 1000 Ang^3
#
#
#
# Elastic Constant Matrix: (Units=GPa)
#
#
# Indices 1 2 3 4 5 6 
#
# 1 44.3515 3.0606 24.9721 -0.0005 0.6583 0.0005
# 2 3.0606 56.3447 12.1413 -0.0004 -8.1340 0.0004
# 3 24.9721 12.1413 107.5385 -0.0010 17.8358 0.0008
# 4 -0.0005 -0.0004 -0.0010 26.8793 0.0008 8.2861
# 5 0.6583 -8.1340 17.8358 0.0008 65.6385 -0.0007
# 6 0.0005 0.0004 0.0008 8.2861 -0.0007 9.7553
#
#
#
# Elastic Compliance Matrix: (Units=1/GPa)
#
#
# Indices 1 2 3 4 5 6 
#
# 1 0.026071 0.000158 -0.006316 0.000001 0.001474 -0.000001
# 2 0.000158 0.018752 -0.002659 0.000000 0.003045 -0.000001
# 3 -0.006316 -0.002659 0.011634 0.000001 -0.003428 -0.000002
# 4 0.000001 0.000000 0.000001 0.050400 -0.000001 -0.042810
# 5 0.001474 0.003045 -0.003428 -0.000001 0.016529 0.000002
# 6 -0.000001 -0.000001 -0.000002 -0.042810 0.000002 0.138871
#
#
# Mechanical properties :
#
#
# Convention : Reuss Voigt Hill
#
# Bulk Modulus (GPa) = 25.75839 32.06474 28.91156
# Shear Modulus (GPa) = 17.07462 31.65867 24.36664
#
# Velocity S-wave (km/s) = 2.62949 3.58049 3.14119
# Velocity P-wave (km/s) = 4.43279 5.48430 4.98634
#
# Compressibility (1/GPa) = 0.03882231
#
# Stress axis : x y z
#
# Youngs Moduli (GPa) = 38.35705 53.32829 85.95200
#
# Poissons Ratio (x) = -0.00841 0.54291
# Poissons Ratio (y) = -0.00605 0.22852
# Poissons Ratio (z) = 0.24228 0.14178
#
# Static dielectric constant tensor:
#      x y z
#    x 2.055140 0.000000 0.091470 
#    y 0.000000 1.925420 0.000000 
#    z 0.091470 0.000000 2.093900 
# 
# From -- ./inp_files/301122.got.cif
#   From: 2010.05.17/outbox.cif.g08.bks.cpg/sg12_151_cif.got.tgz:301122.got - 2010.06.03 13:09:07.
