data_PCOD9197355
_publ_section_title
;
Structure prediction by ZEFSAII (Michael W. Deem and Ramdas Pophale) SiO2 
 PCOD9197355
Probable space group: C 2/M
;
_chemical_formula_sum "Si O2"
_cell_formula_units_Z 40
_cell_length_a 25.853896
_cell_length_b 15.329819
_cell_length_c 7.863562
_cell_angle_alpha 90.000000
_cell_angle_beta 34.095163
_cell_angle_gamma 90.000000
_cell_volume 1747.074738
_symmetry_space_group_name_H-M "C 2/M"
_symmetry_group_IT_number 12
_symmetry_cell_setting 'monoclinic'
loop_
_space_group_symop_operation_xyz
x,y,z
-x,y,-z
-x,-y,-z
x,-y,z
1/2+x,1/2+y,z
1/2-x,1/2+y,-z
1/2-x,1/2-y,-z
1/2+x,1/2-y,z
loop_
_atom_site_type_symbol
_atom_site_label
_atom_site_fract_x
_atom_site_fract_y
_atom_site_fract_z
Si Si1 0.242829 0.262443 0.719072
Si Si2 0.700154 0.409074 0.008057
Si Si3 0.050450 0.726358 0.700419
Si Si4 0.625387 0.900233 0.234767
Si Si5 0.015791 0.094126 0.661389
O O1 0.250000 0.250000 0.500000
O O2 0.188060 0.178425 0.938216
O O3 0.344791 0.253221 0.527858
O O4 0.182762 0.346354 0.937164
O O5 0.688125 0.500000 0.942067
O O6 0.800099 0.409095 0.816631
O O7 0.626878 0.410041 0.359046
O O8 0.052267 0.663053 0.530327
O O9 0.994320 0.815434 0.810180
O O10 0.000000 0.684230 0.000000
O O11 0.599881 0.000000 0.256238
O O12 0.000000 0.098104 0.500000
O O13 0.980945 0.000000 0.821260
#
# Coordination Sequence:
#
# PCOD9197355 Si02
#       5
#     8   8   8   8   8
#     4  11  22  37  59  90 117 157 206 248 302 358
#     4   9  17  35  59  81 112 153 197 243 293 353
#     4  11  23  38  60  90 125 159 199 253 306 359
#     4  10  20  40  64  83 115 161 205 247 294 353
#     4  10  20  35  59  88 120 157 194 240 306 364
#
# _framework density 22.895415
#
# number of rings (size 3 to 8) (size 9 to 14) (size 15 to 20)
#    0.000    1.800    4.000    1.200    2.800    1.600 
#    0.000    0.000    0.000    4.200    0.000    0.000 
#    0.000    0.000    0.000    0.000    0.000    0.000 
#
# Total GULP energy -111452.115807 kJ/mol
# GULP energy per Si atom -5572.605790 kJ/mol
# Density = 2.284330 g / cm^3
# Si number density = 22.895415 Si / 1000 Ang^3
#
#
#
# Elastic Constant Matrix: (Units=GPa)
#
#
# Indices 1 2 3 4 5 6 
#
# 1 60.7006 44.2591 16.0255 0.0000 7.6950 0.0000
# 2 44.2591 191.6737 47.7780 0.0000 29.1958 0.0000
# 3 16.0255 47.7780 83.4800 0.0000 14.2004 0.0000
# 4 0.0000 0.0000 0.0000 1.3882 0.0000 3.1814
# 5 7.6950 29.1958 14.2004 0.0000 41.4083 0.0000
# 6 0.0000 0.0000 0.0000 3.1814 0.0000 -6.6890
#
#
#
# Elastic Compliance Matrix: (Units=1/GPa)
#
#
# Indices 1 2 3 4 5 6 
#
# 1 0.019950 -0.004226 -0.001367 0.000000 -0.000259 0.000000
# 2 -0.004226 0.007434 -0.002852 0.000000 -0.003478 0.000000
# 3 -0.001367 -0.002852 0.014324 0.000000 -0.002648 0.000000
# 4 0.000000 0.000000 0.000000 0.344674 0.000000 0.163933
# 5 -0.000259 -0.003478 -0.002648 0.000000 0.027558 0.000000
# 6 0.000000 0.000000 0.000000 0.163933 0.000000 -0.071529
#
#
# Mechanical properties :
#
#
# Convention : Reuss Voigt Hill
#
# Bulk Modulus (GPa) = 40.29431 61.33107 50.81269
# Shear Modulus (GPa) = 13.60277 22.40759 18.00518
#
# Velocity S-wave (km/s) = 2.44012 3.13180 2.80734
# Velocity P-wave (km/s) = 5.05731 6.31848 5.72274
#
# Compressibility (1/GPa) = 0.02481740
#
# Stress axis : x y z
#
# Youngs Moduli (GPa) = 50.12633 134.52274 69.81442
#
# Poissons Ratio (x) = 0.56855 0.09542
# Poissons Ratio (y) = 0.21186 0.19908
# Poissons Ratio (z) = 0.06851 0.38360
#
# Static dielectric constant tensor:
#      x y z
#    x 1.924420 0.000000 -0.072080 
#    y 0.000000 1.960670 0.000000 
#    z -0.072080 0.000000 1.887190 
# 
# From -- ./inp_files/73344.got.cif
#   From: 2010.05.17/outbox.cif.g08.bks.cpg/sg12_37_cif.got.tgz:73344.got - 2010.06.03 13:09:07.
