data_PCOD9197122
_publ_section_title
;
Structure prediction by ZEFSAII (Michael W. Deem and Ramdas Pophale) SiO2 
 PCOD9197122
Probable space group: C 2/M
;
_chemical_formula_sum "Si O2"
_cell_formula_units_Z 64
_cell_length_a 20.256421
_cell_length_b 13.785843
_cell_length_c 15.217750
_cell_angle_alpha 90.000000
_cell_angle_beta 126.666866
_cell_angle_gamma 90.000000
_cell_volume 3408.681605
_symmetry_space_group_name_H-M "C 2/M"
_symmetry_group_IT_number 12
_symmetry_cell_setting 'monoclinic'
loop_
_space_group_symop_operation_xyz
x,y,z
-x,y,-z
-x,-y,-z
x,-y,z
1/2+x,1/2+y,z
1/2-x,1/2+y,-z
1/2-x,1/2-y,-z
1/2+x,1/2-y,z
loop_
_atom_site_type_symbol
_atom_site_label
_atom_site_fract_x
_atom_site_fract_y
_atom_site_fract_z
Si Si1 0.855700 0.384255 0.009394
Si Si2 0.551565 0.611709 0.785000
Si Si3 0.831861 0.753556 0.842498
Si Si4 0.296859 0.262007 0.409676
Si Si5 0.468460 0.783286 0.817155
Si Si6 0.832214 0.616046 0.587635
Si Si7 0.285105 0.611648 0.967117
Si Si8 0.087888 0.891732 0.615217
O O1 0.861288 0.500000 0.013802
O O2 0.820770 0.346652 0.888150
O O3 0.793710 0.353787 0.038830
O O4 0.945148 0.336516 0.094847
O O5 0.521117 0.500000 0.759702
O O6 0.488760 0.686612 0.778164
O O7 0.573900 0.640144 0.703832
O O8 0.635784 0.614126 0.906829
O O9 0.772227 0.773160 0.713520
O O10 0.921314 0.746907 0.868760
O O11 0.811501 0.830440 0.901892
O O12 0.251153 0.341712 0.434356
O O13 0.334907 0.176599 0.498866
O O14 0.361563 0.316836 0.401218
O O15 0.407135 0.850752 0.710942
O O16 0.830958 0.500000 0.576548
O O17 0.268377 0.500000 0.930158
O O18 0.000000 0.899727 0.500000
O O19 0.126308 0.000000 0.647378
#
# Coordination Sequence:
#
# PCOD9197122 Si02
#       8
#     8   8   8   8   8   8   8   8
#     4  11  23  38  60  90 124 164 207 253 307 367
#     4  10  21  37  60  87 121 162 201 250 306 362
#     4  11  23  38  59  89 120 159 203 251 304 362
#     4  10  22  38  62  88 115 159 201 251 304 356
#     4  11  23  38  62  90 125 163 202 253 311 367
#     4  10  22  42  62  87 122 160 203 248 306 370
#     4  10  22  39  59  86 121 163 205 248 306 368
#     4  10  20  35  58  88 115 146 197 254 305 354
#
# _framework density 18.775589
#
# number of rings (size 3 to 8) (size 9 to 14) (size 15 to 20)
#    0.000    1.625    1.250    3.000    1.750    5.500 
#    0.000    7.500    0.000    1.125    0.000    0.000 
#    0.000    0.000    0.000    0.000    0.000    0.000 
#
# Total GULP energy -178616.607525 kJ/mol
# GULP energy per Si atom -5581.768985 kJ/mol
# Density = 1.873285 g / cm^3
# Si number density = 18.775589 Si / 1000 Ang^3
#
#
#
# Elastic Constant Matrix: (Units=GPa)
#
#
# Indices 1 2 3 4 5 6 
#
# 1 126.8414 68.5930 28.0085 0.0000 -28.6601 0.0000
# 2 68.5930 76.0360 10.3510 0.0000 -17.0718 0.0000
# 3 28.0085 10.3510 62.4026 0.0000 -19.7308 0.0000
# 4 0.0000 0.0000 0.0000 20.7492 0.0000 -2.6297
# 5 -28.6601 -17.0718 -19.7308 0.0000 35.7545 0.0000
# 6 0.0000 0.0000 0.0000 -2.6297 0.0000 23.2853
#
#
#
# Elastic Compliance Matrix: (Units=1/GPa)
#
#
# Indices 1 2 3 4 5 6 
#
# 1 0.017570 -0.014158 -0.003903 0.000000 0.005170 0.000000
# 2 -0.014158 0.026143 0.002879 0.000000 0.002722 0.000000
# 3 -0.003903 0.002879 0.020284 0.000000 0.009440 0.000000
# 4 0.000000 0.000000 0.000000 0.048894 0.000000 0.005522
# 5 0.005170 0.002722 0.009440 0.000000 0.038622 0.000000
# 6 0.000000 0.000000 0.000000 0.005522 0.000000 0.043569
#
#
# Mechanical properties :
#
#
# Convention : Reuss Voigt Hill
#
# Bulk Modulus (GPa) = 29.73269 53.24276 41.48773
# Shear Modulus (GPa) = 21.12750 26.51298 23.82024
#
# Velocity S-wave (km/s) = 3.35814 3.76187 3.56572
# Velocity P-wave (km/s) = 5.55934 6.87662 6.25277
#
# Compressibility (1/GPa) = 0.03363301
#
# Stress axis : x y z
#
# Youngs Moduli (GPa) = 56.91393 38.25059 49.30028
#
# Poissons Ratio (x) = 0.54156 0.19242
# Poissons Ratio (y) = 0.80581 -0.14194
# Poissons Ratio (z) = 0.22214 -0.11012
#
# Static dielectric constant tensor:
#      x y z
#    x 1.638130 0.000000 -0.000620 
#    y 0.000000 1.664090 0.000000 
#    z -0.000620 0.000000 1.639430 
# 
# From -- ./inp_files/225351.got.cif
#   From: 2010.05.17/outbox.cif.g08.bks.cpg/sg12_113_cif.got.tgz:225351.got - 2010.06.03 13:09:07.
