data_PCOD9197500
_publ_section_title
;
Structure prediction by ZEFSAII (Michael W. Deem and Ramdas Pophale) SiO2 
 PCOD9197500
Probable space group: C 2/M
;
_chemical_formula_sum "Si O2"
_cell_formula_units_Z 42
_cell_length_a 25.319107
_cell_length_b 12.960706
_cell_length_c 6.239824
_cell_angle_alpha 90.000000
_cell_angle_beta 94.853497
_cell_angle_gamma 90.000000
_cell_volume 2040.277936
_symmetry_space_group_name_H-M "C 2/M"
_symmetry_group_IT_number 12
_symmetry_cell_setting 'monoclinic'
loop_
_space_group_symop_operation_xyz
x,y,z
-x,y,-z
-x,-y,-z
x,-y,z
1/2+x,1/2+y,z
1/2-x,1/2+y,-z
1/2-x,1/2-y,-z
1/2+x,1/2-y,z
loop_
_atom_site_type_symbol
_atom_site_label
_atom_site_fract_x
_atom_site_fract_y
_atom_site_fract_z
Si Si1 0.687619 0.306425 0.744224
Si Si2 0.500000 0.500000 0.000000
Si Si3 0.553736 0.882273 0.656518
Si Si4 0.577492 0.688036 0.949413
Si Si5 0.132063 0.717374 0.349804
Si Si6 0.292083 0.113884 0.963360
O O1 0.633331 0.334045 0.848864
O O2 0.672895 0.290082 0.492469
O O3 0.735866 0.379323 0.822987
O O4 0.705949 0.195777 0.844859
O O5 0.539215 0.591605 0.919046
O O6 0.500000 0.877062 0.500000
O O7 0.554751 0.793212 0.836129
O O8 0.601263 0.851634 0.511796
O O9 0.559534 0.000000 0.739550
O O10 0.591285 0.713160 0.200881
O O11 0.163374 0.648919 0.189823
O O12 0.302283 0.000000 0.047181
#
# Coordination Sequence:
#
# PCOD9197500 Si02
#       6
#     8   2   8   8   8   8
#     4   9  21  39  56  84 121 151 195 247 293 350
#     4  12  24  44  64  84 120 170 208 250 292 354
#     4  10  21  38  61  88 118 151 192 248 307 359
#     4  10  23  40  60  86 120 158 204 247 297 352
#     4  10  20  38  58  87 119 152 196 248 295 361
#     4  10  20  35  60  86 117 156 194 239 299 356
#
# _framework density 20.585432000000001
#
# number of rings (size 3 to 8) (size 9 to 14) (size 15 to 20)
#    0.000    2.095    0.000    2.286    1.333    8.381 
#    1.714   11.429    0.000    0.000    0.000    0.000 
#    0.000    0.000    0.000    0.000    0.000    0.000 
#
# Total GULP energy -117053.039409 kJ/mol
# GULP energy per Si atom -5573.954258 kJ/mol
# Density = 2.053858 g / cm^3
# Si number density = 20.585432 Si / 1000 Ang^3
#
#
#
# Elastic Constant Matrix: (Units=GPa)
#
#
# Indices 1 2 3 4 5 6 
#
# 1 61.9960 22.9174 -7.4825 0.0000 8.7860 0.0000
# 2 22.9174 122.8677 38.5367 0.0000 -4.8464 0.0000
# 3 -7.4825 38.5367 73.6439 0.0000 20.2603 0.0000
# 4 0.0000 0.0000 0.0000 -141.8636 0.0000 -254.7809
# 5 8.7860 -4.8464 20.2603 0.0000 20.8692 0.0000
# 6 0.0000 0.0000 0.0000 -254.7809 0.0000 -385.5070
#
#
#
# Elastic Compliance Matrix: (Units=1/GPa)
#
#
# Indices 1 2 3 4 5 6 
#
# 1 0.026915 -0.011676 0.017339 0.000000 -0.030876 0.000000
# 2 -0.011676 0.016547 -0.016720 0.000000 0.024991 0.000000
# 3 0.017339 -0.016720 0.037066 0.000000 -0.047168 0.000000
# 4 0.000000 0.000000 0.000000 0.037706 0.000000 -0.024920
# 5 -0.030876 0.024991 -0.047168 0.000000 0.112512 0.000000
# 6 0.000000 0.000000 0.000000 -0.024920 0.000000 0.013876
#
#
# Mechanical properties :
#
#
# Convention : Reuss Voigt Hill
#
# Bulk Modulus (GPa) = 17.11955 40.71674 28.91815
# Shear Modulus (GPa) = 17.46985 -87.66454 -35.09735
#
# Velocity S-wave (km/s) = 2.91632 -6.53285 -4.13360
# Velocity P-wave (km/s) = 4.43557 6.08949 2.95022
#
# Compressibility (1/GPa) = 0.05841274
#
# Stress axis : x y z
#
# Youngs Moduli (GPa) = 37.15441 60.43523 26.97859
#
# Poissons Ratio (x) = 0.70566 -0.46778
# Poissons Ratio (y) = 0.43383 0.45109
# Poissons Ratio (z) = -0.64422 1.01049
#
# Static dielectric constant tensor:
#      x y z
#    x 1.766490 0.000000 0.027940 
#    y 0.000000 1.700990 0.000000 
#    z 0.027940 0.000000 1.732600 
# 
# From -- ./inp_files/30817.got.cif
#   From: 2010.05.17/outbox.cif.g08.bks.cpg/sg12_16_cif.got.tgz:30817.got - 2010.06.03 13:09:07.
