data_PCOD9197106
_publ_section_title
;
Structure prediction by ZEFSAII (Michael W. Deem and Ramdas Pophale) SiO2 
 PCOD9197106
Probable space group: C 2/M
;
_chemical_formula_sum "Si O2"
_cell_formula_units_Z 52
_cell_length_a 15.966653
_cell_length_b 26.804326
_cell_length_c 10.547819
_cell_angle_alpha 90.000000
_cell_angle_beta 30.057698
_cell_angle_gamma 90.000000
_cell_volume 2261.039098
_symmetry_space_group_name_H-M "C 2/M"
_symmetry_group_IT_number 12
_symmetry_cell_setting 'monoclinic'
loop_
_space_group_symop_operation_xyz
x,y,z
-x,y,-z
-x,-y,-z
x,-y,z
1/2+x,1/2+y,z
1/2-x,1/2+y,-z
1/2-x,1/2-y,-z
1/2+x,1/2-y,z
loop_
_atom_site_type_symbol
_atom_site_label
_atom_site_fract_x
_atom_site_fract_y
_atom_site_fract_z
Si Si1 0.813305 0.411550 0.703678
Si Si2 0.500000 0.765731 0.000000
Si Si3 0.776490 0.053856 0.909409
Si Si4 0.334045 0.336485 0.771789
Si Si5 0.763063 0.657048 0.379544
Si Si6 0.388018 0.317700 0.968333
Si Si7 0.104919 0.554970 0.678055
O O1 0.754193 0.444295 0.899485
O O2 0.824579 0.440024 0.557078
O O3 0.000000 0.394589 0.500000
O O4 0.692827 0.364178 0.852583
O O5 0.389554 0.798184 0.242968
O O6 0.611739 0.729476 0.941029
O O7 0.595604 0.057826 0.078022
O O8 0.849357 0.000000 0.781116
O O9 0.870006 0.105403 0.760307
O O10 0.500000 0.311017 0.500000
O O11 0.225137 0.340166 0.789266
O O12 0.286903 0.312872 0.967705
O O13 0.578641 0.668858 0.675267
O O14 0.824312 0.602622 0.341322
O O15 0.146211 0.500000 0.677208
#
# Coordination Sequence:
#
# PCOD9197106 Si02
#       7
#     8   4   8   8   8   8   8
#     4   9  18  36  61  87 118 152 193 242 289 337
#     4  12  24  40  65  86 113 154 192 240 296 342
#     4   9  17  31  54  84 116 155 199 237 280 337
#     4   9  20  38  56  78 115 153 190 239 288 343
#     4  11  23  40  59  87 121 152 192 237 285 347
#     4  10  22  41  62  87 115 149 194 244 290 338
#     4  10  20  35  58  87 120 156 193 236 286 341
#
# _framework density 22.998275
#
# number of rings (size 3 to 8) (size 9 to 14) (size 15 to 20)
#    0.000    2.154    0.000    2.769    0.000    3.385 
#    0.000   11.923    0.000    0.000    0.000    0.000 
#    0.000    0.000    0.000    0.000    0.000    0.000 
#
# Total GULP energy -145101.806825 kJ/mol
# GULP energy per Si atom -5580.838724 kJ/mol
# Density = 2.294593 g / cm^3
# Si number density = 22.998275 Si / 1000 Ang^3
#
#
#
# Elastic Constant Matrix: (Units=GPa)
#
#
# Indices 1 2 3 4 5 6 
#
# 1 71.9629 18.3655 2.6834 -0.0232 10.2755 -0.0395
# 2 18.3655 132.2159 32.5665 0.0009 -9.4560 0.0015
# 3 2.6834 32.5665 82.6742 -0.0641 4.7130 -0.1019
# 4 -0.0232 0.0009 -0.0641 -173.1535 0.0483 -334.6885
# 5 10.2755 -9.4560 4.7130 0.0483 16.0630 0.0801
# 6 -0.0395 0.0015 -0.1019 -334.6885 0.0801 -554.7072
#
#
#
# Elastic Compliance Matrix: (Units=1/GPa)
#
#
# Indices 1 2 3 4 5 6 
#
# 1 0.016675 -0.003680 0.001668 0.000000 -0.013323 -0.000003
# 2 -0.003680 0.009798 -0.004275 0.000000 0.009376 0.000003
# 3 0.001668 -0.004275 0.014167 0.000001 -0.007740 -0.000005
# 4 0.000000 0.000000 0.000001 0.034741 -0.000001 -0.020961
# 5 -0.013323 0.009376 -0.007740 -0.000001 0.078568 0.000014
# 6 -0.000003 0.000003 -0.000005 -0.020961 0.000014 0.010845
#
#
# Mechanical properties :
#
#
# Convention : Reuss Voigt Hill
#
# Bulk Modulus (GPa) = 35.62970 43.78709 39.70839
# Shear Modulus (GPa) = 26.77771 -126.81035 -50.01632
#
# Velocity S-wave (km/s) = 3.41594 -7.43362 -4.66852
# Velocity P-wave (km/s) = 5.57532 7.38903 3.42882
#
# Compressibility (1/GPa) = 0.02806647
#
# Stress axis : x y z
#
# Youngs Moduli (GPa) = 59.96870 102.06131 70.58861
#
# Poissons Ratio (x) = 0.37558 -0.11773
# Poissons Ratio (y) = 0.22068 0.30174
# Poissons Ratio (z) = -0.10002 0.43628
#
# Static dielectric constant tensor:
#      x y z
#    x 1.940080 0.000000 -0.038420 
#    y 0.000000 1.861150 0.000000 
#    z -0.038420 0.000000 1.857990 
# 
# From -- ./inp_files/160788.got.cif
#   From: 2010.05.17/outbox.cif.g08.bks.cpg/sg12_81_cif.got.tgz:160788.got - 2010.06.03 13:09:07.
