data_PCOD9197230
_publ_section_title
;
Structure prediction by ZEFSAII (Michael W. Deem and Ramdas Pophale) SiO2 
 PCOD9197230
Probable space group: C 2/M
;
_chemical_formula_sum "Si O2"
_cell_formula_units_Z 52
_cell_length_a 14.019994
_cell_length_b 17.296517
_cell_length_c 12.182505
_cell_angle_alpha 90.000000
_cell_angle_beta 132.382426
_cell_angle_gamma 90.000000
_cell_volume 2182.171697
_symmetry_space_group_name_H-M "C 2/M"
_symmetry_group_IT_number 12
_symmetry_cell_setting 'monoclinic'
loop_
_space_group_symop_operation_xyz
x,y,z
-x,y,-z
-x,-y,-z
x,-y,z
1/2+x,1/2+y,z
1/2-x,1/2+y,-z
1/2-x,1/2-y,-z
1/2+x,1/2-y,z
loop_
_atom_site_type_symbol
_atom_site_label
_atom_site_fract_x
_atom_site_fract_y
_atom_site_fract_z
Si Si1 0.099107 0.138932 0.436437
Si Si2 0.809172 0.594010 0.779227
Si Si3 0.468789 0.500000 0.211508
Si Si4 0.693797 0.160427 0.573842
Si Si5 0.025192 0.650322 0.781631
Si Si6 0.203481 0.000000 0.253413
Si Si7 0.800076 0.500000 0.086829
Si Si8 0.843426 0.227333 0.246560
O O1 0.192604 0.102212 0.599862
O O2 0.188287 0.180945 0.415893
O O3 0.021632 0.072156 0.317299
O O4 0.983902 0.193279 0.380876
O O5 0.831466 0.500000 0.815745
O O6 0.931475 0.635606 0.813953
O O7 0.758032 0.655214 0.832271
O O8 0.552696 0.500000 0.165992
O O9 0.316509 0.500000 0.088535
O O10 0.568139 0.152339 0.398876
O O11 0.728806 0.075146 0.643432
O O12 0.691126 0.216891 0.676832
O O13 0.111467 0.574363 0.848629
O O14 0.123222 0.722162 0.836461
O O15 0.226843 0.000000 0.144482
#
# Coordination Sequence:
#
# PCOD9197230 Si02
#       8
#     8   8   4   8   8   4   4   8
#     4  10  21  38  59  84 122 159 198 245 298 359
#     4  11  22  37  61  94 128 160 195 244 307 375
#     4  10  23  40  58  84 111 160 216 255 283 342
#     4  10  20  35  58  94 122 152 186 248 312 368
#     4  11  22  37  59  93 125 157 196 246 307 368
#     4  10  20  36  63  84 117 151 205 254 305 357
#     4  12  22  38  64  82 115 163 209 255 298 352
#     4  12  23  35  61  95 129 154 192 247 315 369
#
# _framework density 23.829471000000002
#
# number of rings (size 3 to 8) (size 9 to 14) (size 15 to 20)
#    0.000    1.231    3.077    4.385    3.231    3.692 
#    0.000    0.769    0.000    3.692    0.000    0.000 
#    0.000    0.000    0.000    0.000    0.000    0.000 
#
# Total GULP energy -145278.448087 kJ/mol
# GULP energy per Si atom -5587.632619 kJ/mol
# Density = 2.377523 g / cm^3
# Si number density = 23.829471 Si / 1000 Ang^3
#
#
#
# Elastic Constant Matrix: (Units=GPa)
#
#
# Indices 1 2 3 4 5 6 
#
# 1 147.1624 87.5970 32.5422 0.0000 19.5507 0.0000
# 2 87.5970 192.7884 37.6069 0.0000 15.7892 0.0000
# 3 32.5422 37.6069 61.3599 0.0000 18.2976 0.0000
# 4 0.0000 0.0000 0.0000 -0.4004 0.0000 -21.0611
# 5 19.5507 15.7892 18.2976 0.0000 28.5044 0.0000
# 6 0.0000 0.0000 0.0000 -21.0611 0.0000 -6.6324
#
#
#
# Elastic Compliance Matrix: (Units=1/GPa)
#
#
# Indices 1 2 3 4 5 6 
#
# 1 0.009987 -0.003886 -0.001872 0.000000 -0.003495 0.000000
# 2 -0.003886 0.007435 -0.002551 0.000000 0.000184 0.000000
# 3 -0.001872 -0.002551 0.022322 0.000000 -0.011632 0.000000
# 4 0.000000 0.000000 0.000000 0.015042 0.000000 -0.047767
# 5 -0.003495 0.000184 -0.011632 0.000000 0.044844 0.000000
# 6 0.000000 0.000000 0.000000 -0.047767 0.000000 0.000908
#
#
# Mechanical properties :
#
#
# Convention : Reuss Voigt Hill
#
# Bulk Modulus (GPa) = 43.24249 79.64477 61.44363
# Shear Modulus (GPa) = 40.04257 20.53195 30.28726
#
# Velocity S-wave (km/s) = 4.10369 2.93852 3.56898
# Velocity P-wave (km/s) = 6.37493 6.70884 6.54402
#
# Compressibility (1/GPa) = 0.02312541
#
# Stress axis : x y z
#
# Youngs Moduli (GPa) = 100.13180 134.49325 44.79791
#
# Poissons Ratio (x) = 0.52267 0.08388
# Poissons Ratio (y) = 0.38913 0.11428
# Poissons Ratio (z) = 0.18749 0.34309
#
# Static dielectric constant tensor:
#      x y z
#    x 1.986520 0.000000 -0.028090 
#    y 0.000000 1.905870 0.000000 
#    z -0.028090 0.000000 1.865870 
# 
# From -- ./inp_files/216894.got.cif
#   From: 2010.05.17/outbox.cif.g08.bks.cpg/sg12_109_cif.got.tgz:216894.got - 2010.06.03 13:09:07.
