data_PCOD9197502
_publ_section_title
;
Structure prediction by ZEFSAII (Michael W. Deem and Ramdas Pophale) SiO2 
 PCOD9197502
Probable space group: C 2/M
;
_chemical_formula_sum "Si O2"
_cell_formula_units_Z 52
_cell_length_a 15.608800
_cell_length_b 29.212821
_cell_length_c 9.027372
_cell_angle_alpha 90.000000
_cell_angle_beta 41.775176
_cell_angle_gamma 90.000000
_cell_volume 2742.301009
_symmetry_space_group_name_H-M "C 2/M"
_symmetry_group_IT_number 12
_symmetry_cell_setting 'monoclinic'
loop_
_space_group_symop_operation_xyz
x,y,z
-x,y,-z
-x,-y,-z
x,-y,z
1/2+x,1/2+y,z
1/2-x,1/2+y,-z
1/2-x,1/2-y,-z
1/2+x,1/2-y,z
loop_
_atom_site_type_symbol
_atom_site_label
_atom_site_fract_x
_atom_site_fract_y
_atom_site_fract_z
Si Si1 0.652581 0.593391 0.340763
Si Si2 0.500000 0.659159 0.000000
Si Si3 0.224065 0.217327 0.830434
Si Si4 0.434473 0.844913 0.423296
Si Si5 0.786192 0.090268 0.396357
Si Si6 0.854707 0.000000 0.135263
Si Si7 0.864086 0.000000 0.769963
Si Si8 0.308027 0.183568 0.047766
O O1 0.500000 0.599395 0.500000
O O2 0.684821 0.581280 0.469105
O O3 0.697900 0.548421 0.193392
O O4 0.725332 0.639946 0.203693
O O5 0.411210 0.692188 0.018034
O O6 0.399578 0.625723 0.208570
O O7 0.334751 0.196418 0.583327
O O8 0.210633 0.271593 0.827966
O O9 0.265123 0.201924 0.941815
O O10 0.500000 0.855978 0.500000
O O11 0.348059 0.885215 0.467606
O O12 0.545077 0.831004 0.166539
O O13 0.793921 0.045424 0.284413
O O14 0.866987 0.000000 0.942849
O O15 0.000000 0.000000 0.000000
O O16 0.000000 0.000000 0.500000
#
# Coordination Sequence:
#
# PCOD9197502 Si02
#       8
#     8   4   8   8   8   4   4   8
#     4  11  23  39  61  94 127 158 209 265 320 371
#     4  10  20  35  60  86 124 151 210 256 308 360
#     4   9  20  36  58  90 117 166 211 261 305 378
#     4   9  21  39  60  85 125 164 215 254 305 381
#     4  11  23  38  63  93 122 169 207 257 316 377
#     4  12  22  38  68  92 126 163 211 259 321 374
#     4  10  24  38  61  95 127 153 200 265 315 365
#     4  10  21  38  62  83 128 169 207 254 324 364
#
# _framework density 18.962177000000001
#
# number of rings (size 3 to 8) (size 9 to 14) (size 15 to 20)
#    0.000    1.846    0.769    3.231    6.462    6.154 
#    0.000    4.231    0.000    1.846    0.000    0.000 
#    0.000    0.000    0.000    0.000    0.000    0.000 
#
# Total GULP energy -145001.977830 kJ/mol
# GULP energy per Si atom -5576.999147 kJ/mol
# Density = 1.891902 g / cm^3
# Si number density = 18.962177 Si / 1000 Ang^3
#
#
#
# Elastic Constant Matrix: (Units=GPa)
#
#
# Indices 1 2 3 4 5 6 
#
# 1 100.7154 58.6493 51.5990 0.0000 -4.7046 0.0000
# 2 58.6493 170.2373 58.8962 0.0000 2.7779 0.0000
# 3 51.5990 58.8962 74.5442 0.0000 -3.0091 0.0000
# 4 0.0000 0.0000 0.0000 -59.9887 0.0000 42.9851
# 5 -4.7046 2.7779 -3.0091 0.0000 35.9413 0.0000
# 6 0.0000 0.0000 0.0000 42.9851 0.0000 20.6793
#
#
#
# Elastic Compliance Matrix: (Units=1/GPa)
#
#
# Indices 1 2 3 4 5 6 
#
# 1 0.016104 -0.002391 -0.009196 0.000000 0.001523 0.000000
# 2 -0.002391 0.008488 -0.005107 0.000000 -0.001397 0.000000
# 3 -0.009196 -0.005107 0.023864 0.000000 0.001189 0.000000
# 4 0.000000 0.000000 0.000000 -0.006696 0.000000 0.013919
# 5 0.001523 -0.001397 0.001189 0.000000 0.028230 0.000000
# 6 0.000000 0.000000 0.000000 0.013919 0.000000 0.019425
#
#
# Mechanical properties :
#
#
# Convention : Reuss Voigt Hill
#
# Bulk Modulus (GPa) = 66.37547 75.97619 71.17583
# Shear Modulus (GPa) = 39.11583 11.08321 25.09952
#
# Velocity S-wave (km/s) = 4.54677 2.42025 3.64216
# Velocity P-wave (km/s) = 7.91481 6.92563 7.43669
#
# Compressibility (1/GPa) = 0.01506581
#
# Stress axis : x y z
#
# Youngs Moduli (GPa) = 62.09575 117.81797 41.90499
#
# Poissons Ratio (x) = 0.28175 0.38537
# Poissons Ratio (y) = 0.14849 0.21401
# Poissons Ratio (z) = 0.57105 0.60170
#
# Static dielectric constant tensor:
#      x y z
#    x 1.611690 0.000000 -0.026360 
#    y 0.000000 1.623810 0.000000 
#    z -0.026360 0.000000 1.622100 
# 
# From -- ./inp_files/68569.got.cif
#   From: 2010.05.17/outbox.cif.g08.bks.cpg/sg12_35_cif.got.tgz:68569.got - 2010.06.03 13:09:07.
