data_PCOD9197275
_publ_section_title
;
Structure prediction by ZEFSAII (Michael W. Deem and Ramdas Pophale) SiO2 
 PCOD9197275
Probable space group: C 2/M
;
_chemical_formula_sum "Si O2"
_cell_formula_units_Z 40
_cell_length_a 14.540057
_cell_length_b 11.120452
_cell_length_c 14.084046
_cell_angle_alpha 90.000000
_cell_angle_beta 58.292458
_cell_angle_gamma 90.000000
_cell_volume 1937.375589
_symmetry_space_group_name_H-M "C 2/M"
_symmetry_group_IT_number 12
_symmetry_cell_setting 'monoclinic'
loop_
_space_group_symop_operation_xyz
x,y,z
-x,y,-z
-x,-y,-z
x,-y,z
1/2+x,1/2+y,z
1/2-x,1/2+y,-z
1/2-x,1/2-y,-z
1/2+x,1/2-y,z
loop_
_atom_site_type_symbol
_atom_site_label
_atom_site_fract_x
_atom_site_fract_y
_atom_site_fract_z
Si Si1 0.052012 0.136232 0.140043
Si Si2 0.859550 0.867013 0.366029
Si Si3 0.686259 0.634320 0.259484
Si Si4 0.116245 0.697588 0.468470
Si Si5 0.382509 0.137278 0.019015
O O1 0.104920 0.134204 0.215314
O O2 0.107019 0.247760 0.056057
O O3 0.925612 0.156687 0.232906
O O4 0.065851 0.000000 0.091267
O O5 0.891942 0.770419 0.428037
O O6 0.730574 0.869732 0.420044
O O7 0.892539 0.000000 0.381363
O O8 0.698958 0.500000 0.290975
O O9 0.644491 0.714762 0.366352
O O10 0.798242 0.666941 0.147677
O O11 0.000000 0.642228 0.500000
O O12 0.353758 0.000000 0.997440
O O13 0.500000 0.126727 0.000000
#
# Coordination Sequence:
#
# PCOD9197275 Si02
#       5
#     8   8   8   8   8
#     4  10  20  37  60  86 115 152 199 246 293 355
#     4  10  22  38  59  88 120 154 197 248 299 357
#     4  10  20  35  59  85 113 152 198 243 291 353
#     4  11  21  37  61  86 117 155 198 245 298 357
#     4  10  21  37  56  83 118 153 193 245 299 353
#
# _framework density 20.646487
#
# number of rings (size 3 to 8) (size 9 to 14) (size 15 to 20)
#    0.000    1.800    2.000    2.400    0.000    1.600 
#    0.000    6.000    0.000    0.000    0.000    0.000 
#    0.000    0.000    0.000    0.000    0.000    0.000 
#
# Total GULP energy -111387.806393 kJ/mol
# GULP energy per Si atom -5569.390320 kJ/mol
# Density = 2.059949 g / cm^3
# Si number density = 20.646487 Si / 1000 Ang^3
#
#
#
# Elastic Constant Matrix: (Units=GPa)
#
#
# Indices 1 2 3 4 5 6 
#
# 1 85.0871 5.2631 5.4938 0.0000 -22.9073 0.0000
# 2 5.2631 114.6187 48.3798 0.0000 14.1968 0.0000
# 3 5.4938 48.3798 75.9506 0.0000 -19.9041 0.0000
# 4 0.0000 0.0000 0.0000 41.4613 0.0000 6.8489
# 5 -22.9073 14.1968 -19.9041 0.0000 39.2449 0.0000
# 6 0.0000 0.0000 0.0000 6.8489 0.0000 21.1730
#
#
#
# Elastic Compliance Matrix: (Units=1/GPa)
#
#
# Indices 1 2 3 4 5 6 
#
# 1 0.015256 -0.004564 0.005270 0.000000 0.013229 0.000000
# 2 -0.004564 0.017346 -0.015064 0.000000 -0.016579 0.000000
# 3 0.005270 -0.015064 0.028388 0.000000 0.022923 0.000000
# 4 0.000000 0.000000 0.000000 0.025480 0.000000 -0.008242
# 5 0.013229 -0.016579 0.022923 0.000000 0.050826 0.000000
# 6 0.000000 0.000000 0.000000 -0.008242 0.000000 0.049896
#
#
# Mechanical properties :
#
#
# Convention : Reuss Voigt Hill
#
# Bulk Modulus (GPa) = 30.98270 43.76997 37.37634
# Shear Modulus (GPa) = 22.05887 34.81048 28.43467
#
# Velocity S-wave (km/s) = 3.27220 4.11058 3.71511
# Velocity P-wave (km/s) = 5.41435 6.61626 6.04525
#
# Compressibility (1/GPa) = 0.03227607
#
# Stress axis : x y z
#
# Youngs Moduli (GPa) = 65.54712 57.65041 35.22589
#
# Poissons Ratio (x) = 0.26310 -0.18565
# Poissons Ratio (y) = 0.29914 0.53064
# Poissons Ratio (z) = -0.34546 0.86843
#
# Static dielectric constant tensor:
#      x y z
#    x 1.795920 0.000000 -0.076900 
#    y 0.000000 1.773170 0.000000 
#    z -0.076900 0.000000 1.746290 
# 
# From -- ./inp_files/140806.got.cif
#   From: 2010.05.17/outbox.cif.g08.bks.cpg/sg12_71_cif.got.tgz:140806.got - 2010.06.03 13:09:07.
