data_PCOD9197091
_publ_section_title
;
Structure prediction by ZEFSAII (Michael W. Deem and Ramdas Pophale) SiO2 
 PCOD9197091
Probable space group: C 2/M
;
_chemical_formula_sum "Si O2"
_cell_formula_units_Z 56
_cell_length_a 15.526169
_cell_length_b 10.471615
_cell_length_c 28.321389
_cell_angle_alpha 90.000000
_cell_angle_beta 141.581689
_cell_angle_gamma 90.000000
_cell_volume 2861.294240
_symmetry_space_group_name_H-M "C 2/M"
_symmetry_group_IT_number 12
_symmetry_cell_setting 'monoclinic'
loop_
_space_group_symop_operation_xyz
x,y,z
-x,y,-z
-x,-y,-z
x,-y,z
1/2+x,1/2+y,z
1/2-x,1/2+y,-z
1/2-x,1/2-y,-z
1/2+x,1/2-y,z
loop_
_atom_site_type_symbol
_atom_site_label
_atom_site_fract_x
_atom_site_fract_y
_atom_site_fract_z
Si Si1 0.133250 0.763431 0.170666
Si Si2 0.468687 0.852959 0.783367
Si Si3 0.072474 0.647736 0.665865
Si Si4 0.777851 0.151889 0.888878
Si Si5 0.399431 0.149112 0.501811
Si Si6 0.849015 0.139250 0.024059
Si Si7 0.177009 0.349339 0.369384
O O1 0.073813 0.657032 0.180467
O O2 0.278115 0.799468 0.256954
O O3 0.170793 0.758828 0.131432
O O4 0.999686 0.856312 0.112496
O O5 0.623243 0.805475 0.838417
O O6 0.354455 0.801817 0.697510
O O7 0.476090 0.000000 0.773283
O O8 0.095755 0.500000 0.664560
O O9 0.987916 0.698227 0.584597
O O10 0.969661 0.655849 0.666289
O O11 0.776218 0.000000 0.872618
O O12 0.864670 0.155616 0.974395
O O13 0.500000 0.145546 0.500000
O O14 0.279649 0.250637 0.438779
O O15 0.353028 0.000000 0.490665
O O16 0.783714 0.000000 0.003389
O O17 0.750000 0.250000 0.000000
O O18 0.223359 0.500000 0.390620
#
# Coordination Sequence:
#
# PCOD9197091 Si02
#       7
#     8   8   8   8   8   8   8
#     4  12  21  36  65  91 118 159 213 258 303 369
#     4  10  21  38  61  88 125 162 199 256 318 363
#     4  10  20  35  58  87 117 156 206 254 306 364
#     4  10  20  39  62  87 119 159 205 252 302 367
#     4  10  21  37  56  84 124 161 195 255 317 358
#     4  11  23  39  63  94 125 163 208 260 311 367
#     4  10  20  38  63  87 116 162 211 252 299 372
#
# _framework density 19.571563000000001
#
# number of rings (size 3 to 8) (size 9 to 14) (size 15 to 20)
#    0.000    1.571    2.857    3.000    0.000    1.429 
#    0.000    3.571    0.000    1.714    0.000    0.000 
#    0.000    0.000    0.000    0.000    0.000    0.000 
#
# Total GULP energy -155911.734291 kJ/mol
# GULP energy per Si atom -5568.276225 kJ/mol
# Density = 1.952702 g / cm^3
# Si number density = 19.571563 Si / 1000 Ang^3
#
#
#
# Elastic Constant Matrix: (Units=GPa)
#
#
# Indices 1 2 3 4 5 6 
#
# 1 83.4282 26.0785 19.2516 0.0000 -4.2169 0.0000
# 2 26.0785 57.2257 41.2763 0.0000 7.6033 0.0000
# 3 19.2516 41.2763 117.6092 0.0000 3.1384 0.0000
# 4 0.0000 0.0000 0.0000 21.3043 0.0000 -6.6286
# 5 -4.2169 7.6033 3.1384 0.0000 38.8646 0.0000
# 6 0.0000 0.0000 0.0000 -6.6286 0.0000 19.9018
#
#
#
# Elastic Compliance Matrix: (Units=1/GPa)
#
#
# Indices 1 2 3 4 5 6 
#
# 1 0.014289 -0.006901 0.000006 0.000000 0.002900 0.000000
# 2 -0.006901 0.027343 -0.008322 0.000000 -0.005426 0.000000
# 3 0.000006 -0.008322 0.011404 0.000000 0.000708 0.000000
# 4 0.000000 0.000000 0.000000 0.052366 0.000000 0.017441
# 5 0.002900 -0.005426 0.000708 0.000000 0.027049 0.000000
# 6 0.000000 0.000000 0.000000 0.017441 0.000000 0.056056
#
#
# Mechanical properties :
#
#
# Convention : Reuss Voigt Hill
#
# Bulk Modulus (GPa) = 44.24610 47.94179 46.09394
# Shear Modulus (GPa) = 22.07759 27.45791 24.76775
#
# Velocity S-wave (km/s) = 3.36228 3.74966 3.56124
# Velocity P-wave (km/s) = 6.14245 6.57993 6.36495
#
# Compressibility (1/GPa) = 0.02260086
#
# Stress axis : x y z
#
# Youngs Moduli (GPa) = 69.98498 36.57253 87.69165
#
# Poissons Ratio (x) = 0.25239 -0.00049
# Poissons Ratio (y) = 0.48296 0.72976
# Poissons Ratio (z) = -0.00039 0.30435
#
# Static dielectric constant tensor:
#      x y z
#    x 1.703020 0.000000 -0.015980 
#    y 0.000000 1.675120 0.000000 
#    z -0.015980 0.000000 1.774870 
# 
# From -- ./inp_files/360814.got.cif
#   From: 2010.05.17/outbox.cif.g08.bks.cpg/sg12_181_cif.got.tgz:360814.got - 2010.06.03 13:09:07.
