data_PCOD9197957
_publ_section_title
;
Structure prediction by ZEFSAII (Michael W. Deem and Ramdas Pophale) SiO2 
 PCOD9197957
Probable space group: C 2/M
;
_chemical_formula_sum "Si O2"
_cell_formula_units_Z 52
_cell_length_a 15.133379
_cell_length_b 25.389222
_cell_length_c 12.283860
_cell_angle_alpha 90.000000
_cell_angle_beta 39.534441
_cell_angle_gamma 90.000000
_cell_volume 3004.326858
_symmetry_space_group_name_H-M "C 2/M"
_symmetry_group_IT_number 12
_symmetry_cell_setting 'monoclinic'
loop_
_space_group_symop_operation_xyz
x,y,z
-x,y,-z
-x,-y,-z
x,-y,z
1/2+x,1/2+y,z
1/2-x,1/2+y,-z
1/2-x,1/2-y,-z
1/2+x,1/2-y,z
loop_
_atom_site_type_symbol
_atom_site_label
_atom_site_fract_x
_atom_site_fract_y
_atom_site_fract_z
Si Si1 0.846325 0.057985 0.690644
Si Si2 0.832651 0.162390 0.834071
Si Si3 0.767867 0.755491 0.217841
Si Si4 0.956615 0.349844 0.774856
Si Si5 0.418066 0.060111 0.191960
Si Si6 0.500000 0.170761 0.500000
Si Si7 0.010074 0.234996 0.807901
O O1 0.848560 0.103663 0.776355
O O2 0.740118 0.070321 0.693731
O O3 0.000000 0.054600 0.500000
O O4 0.803288 0.000000 0.774258
O O5 0.786131 0.198625 0.774666
O O6 0.966374 0.190087 0.762657
O O7 0.705481 0.158101 0.040655
O O8 0.634795 0.792560 0.354940
O O9 0.851862 0.763759 0.250217
O O10 0.881919 0.767445 0.015671
O O11 0.020355 0.394517 0.791328
O O12 0.997327 0.362563 0.612881
O O13 0.012877 0.291261 0.745770
O O14 0.430208 0.000000 0.223185
O O15 0.500000 0.062359 0.000000
#
# Coordination Sequence:
#
# PCOD9197957 Si02
#       7
#     8   8   8   8   8   4   8
#     4  10  22  36  56  87 115 137 178 242 291 330
#     4  11  19  37  57  81 114 155 187 227 284 348
#     4  10  21  34  53  79 113 146 190 235 272 333
#     4  11  21  35  56  82 114 149 185 235 277 328
#     4  10  20  37  61  86 108 145 191 231 285 341
#     4  12  22  36  49  80 123 144 190 236 272 328
#     4  10  20  36  55  78 109 157 191 220 285 338
#
# _framework density 17.308368999999999
#
# number of rings (size 3 to 8) (size 9 to 14) (size 15 to 20)
#    0.000    1.538    4.615    1.846    3.231    1.846 
#    0.000    0.385    0.000    0.000    0.000    3.231 
#    0.000    0.000    0.000    0.000    0.000    0.000 
#
# Total GULP energy -144830.704448 kJ/mol
# GULP energy per Si atom -5570.411710 kJ/mol
# Density = 1.726897 g / cm^3
# Si number density = 17.308369 Si / 1000 Ang^3
#
#
#
# Elastic Constant Matrix: (Units=GPa)
#
#
# Indices 1 2 3 4 5 6 
#
# 1 115.2239 57.9479 28.3486 0.0000 4.3890 0.0000
# 2 57.9479 93.9339 8.4726 0.0000 21.2193 0.0000
# 3 28.3486 8.4726 41.2359 0.0000 1.6594 0.0000
# 4 0.0000 0.0000 0.0000 7.2421 0.0000 -1.8955
# 5 4.3890 21.2193 1.6594 0.0000 24.7381 0.0000
# 6 0.0000 0.0000 0.0000 -1.8955 0.0000 32.6125
#
#
#
# Elastic Compliance Matrix: (Units=1/GPa)
#
#
# Indices 1 2 3 4 5 6 
#
# 1 0.015976 -0.010584 -0.009084 0.000000 0.006854 0.000000
# 2 -0.010584 0.020431 0.003718 0.000000 -0.015896 0.000000
# 3 -0.009084 0.003718 0.029876 0.000000 -0.003582 0.000000
# 4 0.000000 0.000000 0.000000 0.140216 0.000000 0.008150
# 5 0.006854 -0.015896 -0.003582 0.000000 0.053083 0.000000
# 6 0.000000 0.000000 0.000000 0.008150 0.000000 0.031137
#
#
# Mechanical properties :
#
#
# Convention : Reuss Voigt Hill
#
# Bulk Modulus (GPa) = 29.08471 48.88133 38.98302
# Shear Modulus (GPa) = 14.96658 23.29351 19.13004
#
# Velocity S-wave (km/s) = 2.94377 3.67249 3.32813
# Velocity P-wave (km/s) = 5.32867 6.80335 6.11066
#
# Compressibility (1/GPa) = 0.03438233
#
# Stress axis : x y z
#
# Youngs Moduli (GPa) = 62.59553 48.94588 33.47191
#
# Poissons Ratio (x) = 0.51805 0.30405
# Poissons Ratio (y) = 0.66253 -0.12446
# Poissons Ratio (z) = 0.56861 -0.18199
#
# Static dielectric constant tensor:
#      x y z
#    x 1.651410 0.000000 -0.015290 
#    y 0.000000 1.600930 0.000000 
#    z -0.015290 0.000000 1.612980 
# 
# From -- ./inp_files/148880.got.cif
#   From: 2010.05.17/outbox.cif.g08.bks.cpg/sg12_75_cif.got.tgz:148880.got - 2010.06.03 13:09:07.
