data_PCOD9197277
_publ_section_title
;
Structure prediction by ZEFSAII (Michael W. Deem and Ramdas Pophale) SiO2 
 PCOD9197277
Probable space group: C 2/M
;
_chemical_formula_sum "Si O2"
_cell_formula_units_Z 64
_cell_length_a 27.209809
_cell_length_b 7.523860
_cell_length_c 22.413052
_cell_angle_alpha 90.000000
_cell_angle_beta 145.820970
_cell_angle_gamma 90.000000
_cell_volume 2577.709431
_symmetry_space_group_name_H-M "C 2/M"
_symmetry_group_IT_number 12
_symmetry_cell_setting 'monoclinic'
loop_
_space_group_symop_operation_xyz
x,y,z
-x,y,-z
-x,-y,-z
x,-y,z
1/2+x,1/2+y,z
1/2-x,1/2+y,-z
1/2-x,1/2-y,-z
1/2+x,1/2-y,z
loop_
_atom_site_type_symbol
_atom_site_label
_atom_site_fract_x
_atom_site_fract_y
_atom_site_fract_z
Si Si1 0.532936 0.714487 0.321128
Si Si2 0.777641 0.205892 0.722740
Si Si3 0.726098 0.208297 0.544748
Si Si4 0.084558 0.203516 0.043869
Si Si5 0.803770 0.290078 0.995397
Si Si6 0.987400 0.801988 0.151221
Si Si7 0.095623 0.794705 0.595799
Si Si8 0.865143 0.205745 0.226065
O O1 0.527503 0.500000 0.311980
O O2 0.622317 0.754114 0.445544
O O3 0.541422 0.779614 0.260580
O O4 0.446108 0.781497 0.268768
O O5 0.777488 0.283490 0.654844
O O6 0.838610 0.283709 0.837301
O O7 0.677138 0.212993 0.643149
O O8 0.806690 0.000000 0.748651
O O9 0.750000 0.250000 0.500000
O O10 0.739510 0.000000 0.563762
O O11 0.110794 0.000000 0.053453
O O12 0.044487 0.285897 0.942679
O O13 0.000000 0.194847 0.000000
O O14 0.823600 0.500000 0.009569
O O15 0.733716 0.223128 0.877029
O O16 0.750000 0.250000 0.000000
O O17 0.893050 0.187071 0.087609
O O18 0.023218 0.000000 0.173547
O O19 0.114647 0.795994 0.684724
O O20 0.000000 0.709688 0.500000
O O21 0.088142 0.000000 0.566156
O O22 0.856927 0.000000 0.197594
#
# Coordination Sequence:
#
# PCOD9197277 Si02
#       8
#     8   8   8   8   8   8   8   8
#     4  10  20  37  60  86 118 153 193 240 287 342
#     4  10  22  40  61  88 120 150 192 247 293 342
#     4  11  25  42  62  87 114 148 192 240 296 347
#     4   9  19  36  62  89 114 151 197 241 291 354
#     4  11  20  33  52  78 116 156 192 234 283 335
#     4  10  20  35  59  88 116 153 198 239 289 346
#     4  10  20  35  59  85 114 157 198 230 278 346
#     4   9  18  33  53  81 116 154 193 232 278 336
#
# _framework density 24.828244000000002
#
# number of rings (size 3 to 8) (size 9 to 14) (size 15 to 20)
#    0.000    2.000    1.250    2.250    1.750    2.750 
#    0.000    1.250    0.000    0.750    0.000    0.000 
#    0.000    0.000    0.000    0.000    0.000    0.000 
#
# Total GULP energy -178440.562937 kJ/mol
# GULP energy per Si atom -5576.267592 kJ/mol
# Density = 2.477173 g / cm^3
# Si number density = 24.828244 Si / 1000 Ang^3
#
#
#
# Elastic Constant Matrix: (Units=GPa)
#
#
# Indices 1 2 3 4 5 6 
#
# 1 96.0858 4.5109 5.2229 0.0000 -16.0508 0.0000
# 2 4.5109 77.9299 0.2990 0.0000 -3.4807 0.0000
# 3 5.2229 0.2990 100.8765 0.0000 -21.0960 0.0000
# 4 0.0000 0.0000 0.0000 12.9026 0.0000 10.4728
# 5 -16.0508 -3.4807 -21.0960 0.0000 48.7616 0.0000
# 6 0.0000 0.0000 0.0000 10.4728 0.0000 28.6227
#
#
#
# Elastic Compliance Matrix: (Units=1/GPa)
#
#
# Indices 1 2 3 4 5 6 
#
# 1 0.011034 -0.000475 0.000201 0.000000 0.003685 0.000000
# 2 -0.000475 0.012896 0.000161 0.000000 0.000834 0.000000
# 3 0.000201 0.000161 0.010905 0.000000 0.004795 0.000000
# 4 0.000000 0.000000 0.000000 0.110245 0.000000 -0.040338
# 5 0.003685 0.000834 0.004795 0.000000 0.023855 0.000000
# 6 0.000000 0.000000 0.000000 -0.040338 0.000000 0.049697
#
#
# Mechanical properties :
#
#
# Convention : Reuss Voigt Hill
#
# Bulk Modulus (GPa) = 28.89440 32.77310 30.83375
# Shear Modulus (GPa) = 21.70182 35.71467 28.70825
#
# Velocity S-wave (km/s) = 2.95969 3.79683 3.40409
# Velocity P-wave (km/s) = 4.83142 5.69647 5.28169
#
# Compressibility (1/GPa) = 0.03460879
#
# Stress axis : x y z
#
# Youngs Moduli (GPa) = 90.62625 77.54252 91.70017
#
# Poissons Ratio (x) = 0.03682 -0.01841
# Poissons Ratio (y) = 0.04304 -0.01474
# Poissons Ratio (z) = -0.01819 -0.01246
#
# Static dielectric constant tensor:
#      x y z
#    x 2.015600 0.000000 -0.065540 
#    y 0.000000 2.063600 0.000000 
#    z -0.065540 0.000000 2.663520 
# 
# From -- ./inp_files/353544.got.cif
#   From: 2010.05.17/outbox.cif.g08.bks.cpg/sg12_177_cif.got.tgz:353544.got - 2010.06.03 13:09:07.
