data_PCOD9197852
_publ_section_title
;
Structure prediction by ZEFSAII (Michael W. Deem and Ramdas Pophale) SiO2 
 PCOD9197852
Probable space group: C 2/M
;
_chemical_formula_sum "Si O2"
_cell_formula_units_Z 56
_cell_length_a 14.563819
_cell_length_b 7.871558
_cell_length_c 23.904956
_cell_angle_alpha 90.000000
_cell_angle_beta 70.674265
_cell_angle_gamma 90.000000
_cell_volume 2586.044365
_symmetry_space_group_name_H-M "C 2/M"
_symmetry_group_IT_number 12
_symmetry_cell_setting 'monoclinic'
loop_
_space_group_symop_operation_xyz
x,y,z
-x,y,-z
-x,-y,-z
x,-y,z
1/2+x,1/2+y,z
1/2-x,1/2+y,-z
1/2-x,1/2-y,-z
1/2+x,1/2-y,z
loop_
_atom_site_type_symbol
_atom_site_label
_atom_site_fract_x
_atom_site_fract_y
_atom_site_fract_z
Si Si1 0.289624 0.801241 0.911819
Si Si2 0.342495 0.292356 0.548810
Si Si3 0.684991 0.707525 0.324247
Si Si4 0.400429 0.801126 0.997578
Si Si5 0.116055 0.801202 0.578040
Si Si6 0.591744 0.802920 0.704589
Si Si7 0.390610 0.696644 0.779308
O O1 0.185108 0.714545 0.939726
O O2 0.340888 0.781802 0.842221
O O3 0.272773 0.000000 0.926322
O O4 0.357613 0.730268 0.948111
O O5 0.338079 0.500000 0.547838
O O6 0.368432 0.242396 0.607039
O O7 0.232886 0.222974 0.561868
O O8 0.402905 0.240556 0.481621
O O9 0.681578 0.500000 0.324548
O O10 0.798384 0.758469 0.306555
O O11 0.643281 0.768560 0.273933
O O12 0.419448 0.000000 0.982353
O O13 0.500000 0.723431 0.000000
O O14 0.073379 0.715065 0.641639
O O15 0.090058 0.000000 0.586570
O O16 0.507093 0.710659 0.755047
O O17 0.588244 0.000000 0.720521
O O18 0.361863 0.500000 0.787104
#
# Coordination Sequence:
#
# PCOD9197852 Si02
#       7
#     8   8   8   8   8   8   8
#     4  10  21  37  57  84 116 144 174 216 262 303
#     4   8  14  27  47  70  97 131 172 218 269 322
#     4   8  17  34  54  73  98 138 181 218 261 319
#     4   9  19  38  63  87 112 145 181 212 248 302
#     4   9  15  25  46  74  99 127 169 221 274 324
#     4  10  20  36  54  73 102 139 179 222 270 321
#     4  11  22  37  56  78 107 143 183 220 257 309
#
# _framework density 21.654695
#
# number of rings (size 3 to 8) (size 9 to 14) (size 15 to 20)
#    0.000    2.714    0.000    2.571    0.000    2.571 
#    0.000   13.571    0.000    4.286    0.000    0.000 
#    0.000    0.000    0.000    0.000    0.000    0.000 
#
# Total GULP energy -156220.682183 kJ/mol
# GULP energy per Si atom -5579.310078 kJ/mol
# Density = 2.160541 g / cm^3
# Si number density = 21.654695 Si / 1000 Ang^3
#
#
#
# Elastic Constant Matrix: (Units=GPa)
#
#
# Indices 1 2 3 4 5 6 
#
# 1 88.8445 1.4965 41.9362 0.0000 -8.9840 0.0000
# 2 1.4965 23.4538 -6.5275 0.0000 7.7150 0.0000
# 3 41.9362 -6.5275 117.4823 0.0000 -5.5362 0.0000
# 4 0.0000 0.0000 0.0000 29.4342 0.0000 -4.2154
# 5 -8.9840 7.7150 -5.5362 0.0000 14.0328 0.0000
# 6 0.0000 0.0000 0.0000 -4.2154 0.0000 7.9454
#
#
#
# Elastic Compliance Matrix: (Units=1/GPa)
#
#
# Indices 1 2 3 4 5 6 
#
# 1 0.014861 -0.005908 -0.005127 0.000000 0.010740 0.000000
# 2 -0.005908 0.054685 0.003620 0.000000 -0.032419 0.000000
# 3 -0.005127 0.003620 0.010490 0.000000 -0.001134 0.000000
# 4 0.000000 0.000000 0.000000 0.036768 0.000000 0.019507
# 5 0.010740 -0.032419 -0.001134 0.000000 0.095514 0.000000
# 6 0.000000 0.000000 0.000000 0.019507 0.000000 0.136209
#
#
# Mechanical properties :
#
#
# Convention : Reuss Voigt Hill
#
# Bulk Modulus (GPa) = 15.33609 33.73235 24.53422
# Shear Modulus (GPa) = 12.98389 23.14082 18.06235
#
# Velocity S-wave (km/s) = 2.45130 3.27253 2.89123
# Velocity P-wave (km/s) = 3.88707 5.46722 4.74341
#
# Compressibility (1/GPa) = 0.06520567
#
# Stress axis : x y z
#
# Youngs Moduli (GPa) = 67.28956 18.28641 95.33158
#
# Poissons Ratio (x) = 0.10803 0.48876
# Poissons Ratio (y) = 0.39754 -0.34506
# Poissons Ratio (z) = 0.34499 -0.06619
#
# Static dielectric constant tensor:
#      x y z
#    x 1.835790 0.000000 0.023770 
#    y 0.000000 1.802050 0.000000 
#    z 0.023770 0.000000 1.768170 
# 
# From -- ./inp_files/338520.got.cif
#   From: 2010.05.17/outbox.cif.g08.bks.cpg/sg12_170_cif.got.tgz:338520.got - 2010.06.03 13:09:07.
