data_PCOD9197090
_publ_section_title
;
Structure prediction by ZEFSAII (Michael W. Deem and Ramdas Pophale) SiO2 
 PCOD9197090
Probable space group: C 2/M
;
_chemical_formula_sum "Si O2"
_cell_formula_units_Z 56
_cell_length_a 21.358192
_cell_length_b 13.409193
_cell_length_c 18.645208
_cell_angle_alpha 90.000000
_cell_angle_beta 150.725081
_cell_angle_gamma 90.000000
_cell_volume 2611.222059
_symmetry_space_group_name_H-M "C 2/M"
_symmetry_group_IT_number 12
_symmetry_cell_setting 'monoclinic'
loop_
_space_group_symop_operation_xyz
x,y,z
-x,y,-z
-x,-y,-z
x,-y,z
1/2+x,1/2+y,z
1/2-x,1/2+y,-z
1/2-x,1/2-y,-z
1/2+x,1/2-y,z
loop_
_atom_site_type_symbol
_atom_site_label
_atom_site_fract_x
_atom_site_fract_y
_atom_site_fract_z
Si Si1 0.740963 0.614758 0.415332
Si Si2 0.995317 0.610555 0.408966
Si Si3 0.283783 0.725591 0.194581
Si Si4 0.796654 0.886585 0.353191
Si Si5 0.872015 0.668210 0.694434
Si Si6 0.022379 0.113451 0.689768
Si Si7 0.613804 0.747734 0.904525
O O1 0.692158 0.500000 0.357256
O O2 0.786221 0.629729 0.542838
O O3 0.657611 0.714298 0.317937
O O4 0.867028 0.623447 0.490639
O O5 0.949472 0.500000 0.342324
O O6 0.893098 0.693436 0.286478
O O7 0.000000 0.614115 0.500000
O O8 0.280924 0.692290 0.273773
O O9 0.340152 0.628563 0.210496
O O10 0.156388 0.766701 0.029723
O O11 0.671421 0.886618 0.277572
O O12 0.913864 0.856554 0.523346
O O13 0.823441 0.000000 0.354447
O O14 0.018185 0.658838 0.814939
O O15 0.032414 0.172486 0.773908
O O16 0.995426 0.000000 0.679458
O O17 0.750000 0.750000 0.000000
#
# Coordination Sequence:
#
# PCOD9197090 Si02
#       7
#     8   8   8   8   8   8   8
#     4  10  20  35  59  88 116 153 203 256 305 353
#     4  10  20  35  58  87 117 155 204 253 300 353
#     4  11  21  38  59  88 127 163 199 243 302 366
#     4  11  23  39  64  94 122 157 202 253 307 361
#     4  11  21  37  57  82 120 158 198 251 304 360
#     4  10  20  37  63  92 120 155 204 255 302 355
#     4  10  23  39  56  81 118 162 201 242 297 360
#
# _framework density 21.445896999999999
#
# number of rings (size 3 to 8) (size 9 to 14) (size 15 to 20)
#    0.000    1.571    0.000    7.286    0.000    4.000 
#    0.000    9.286    0.000    0.000    0.000    6.000 
#    0.000    0.000    0.000    0.000    0.000    0.000 
#
# Total GULP energy -156106.939380 kJ/mol
# GULP energy per Si atom -5575.247835 kJ/mol
# Density = 2.139709 g / cm^3
# Si number density = 21.445897 Si / 1000 Ang^3
#
#
#
# Elastic Constant Matrix: (Units=GPa)
#
#
# Indices 1 2 3 4 5 6 
#
# 1 112.7637 18.8718 24.5575 0.0000 -14.5874 0.0000
# 2 18.8718 92.7734 24.0087 0.0000 -14.6712 0.0000
# 3 24.5575 24.0087 86.1372 0.0000 -25.2728 0.0000
# 4 0.0000 0.0000 0.0000 11.5303 0.0000 -1.2935
# 5 -14.5874 -14.6712 -25.2728 0.0000 32.3575 0.0000
# 6 0.0000 0.0000 0.0000 -1.2935 0.0000 29.3399
#
#
#
# Elastic Compliance Matrix: (Units=1/GPa)
#
#
# Indices 1 2 3 4 5 6 
#
# 1 0.009762 -0.001139 -0.001720 0.000000 0.002541 0.000000
# 2 -0.001139 0.012073 -0.002056 0.000000 0.003355 0.000000
# 3 -0.001720 -0.002056 0.015790 0.000000 0.010625 0.000000
# 4 0.000000 0.000000 0.000000 0.087159 0.000000 0.003843
# 5 0.002541 0.003355 0.010625 0.000000 0.041870 0.000000
# 6 0.000000 0.000000 0.000000 0.003843 0.000000 0.034253
#
#
# Mechanical properties :
#
#
# Convention : Reuss Voigt Hill
#
# Bulk Modulus (GPa) = 35.97715 47.39447 41.68581
# Shear Modulus (GPa) = 22.72694 29.59462 26.16078
#
# Velocity S-wave (km/s) = 3.25889 3.71882 3.49642
# Velocity P-wave (km/s) = 5.56531 6.37079 5.98162
#
# Compressibility (1/GPa) = 0.02779542
#
# Stress axis : x y z
#
# Youngs Moduli (GPa) = 102.43784 82.82787 63.32962
#
# Poissons Ratio (x) = 0.09432 0.10894
# Poissons Ratio (y) = 0.11665 0.13022
# Poissons Ratio (z) = 0.17621 0.17031
#
# Static dielectric constant tensor:
#      x y z
#    x 1.810360 0.000000 0.013250 
#    y 0.000000 1.814530 0.000000 
#    z 0.013250 0.000000 1.821620 
# 
# From -- ./inp_files/284555.got.cif
#   From: 2010.05.17/outbox.cif.g08.bks.cpg/sg12_143_cif.got.tgz:284555.got - 2010.06.03 13:09:07.
