data_PCOD9197704
_publ_section_title
;
Structure prediction by ZEFSAII (Michael W. Deem and Ramdas Pophale) SiO2 
 PCOD9197704
Probable space group: C 2/M
;
_chemical_formula_sum "Si O2"
_cell_formula_units_Z 56
_cell_length_a 23.765242
_cell_length_b 18.189850
_cell_length_c 8.028090
_cell_angle_alpha 90.000000
_cell_angle_beta 54.583647
_cell_angle_gamma 90.000000
_cell_volume 2828.272028
_symmetry_space_group_name_H-M "C 2/M"
_symmetry_group_IT_number 12
_symmetry_cell_setting 'monoclinic'
loop_
_space_group_symop_operation_xyz
x,y,z
-x,y,-z
-x,-y,-z
x,-y,z
1/2+x,1/2+y,z
1/2-x,1/2+y,-z
1/2-x,1/2-y,-z
1/2+x,1/2-y,z
loop_
_atom_site_type_symbol
_atom_site_label
_atom_site_fract_x
_atom_site_fract_y
_atom_site_fract_z
Si Si1 0.582201 0.723050 0.904153
Si Si2 0.384061 0.082989 0.657773
Si Si3 0.319073 0.165908 0.461221
Si Si4 0.706273 0.277157 0.233601
Si Si5 0.929914 0.729891 0.697827
Si Si6 0.726591 0.579985 0.042700
Si Si7 0.182547 0.087661 0.732270
O O1 0.627503 0.789627 0.746007
O O2 0.621662 0.646020 0.794565
O O3 0.500000 0.723042 0.000000
O O4 0.584436 0.738844 0.097042
O O5 0.366269 0.117378 0.507178
O O6 0.427310 0.141160 0.691171
O O7 0.410884 0.000000 0.601143
O O8 0.308626 0.080493 0.872533
O O9 0.277594 0.230494 0.632766
O O10 0.255295 0.112663 0.521791
O O11 0.628857 0.256054 0.325225
O O12 0.711556 0.363334 0.213781
O O13 0.750000 0.250000 0.000000
O O14 0.000000 0.757212 0.500000
O O15 0.701949 0.500000 0.132744
O O16 0.695723 0.596391 0.911359
O O17 0.169634 0.000000 0.726105
#
# Coordination Sequence:
#
# PCOD9197704 Si02
#       7
#     8   8   8   8   8   8   8
#     4  12  24  39  57  87 123 161 203 243 293 355
#     4   9  18  35  60  87 114 146 186 237 295 349
#     4  10  20  35  62  90 118 151 192 245 301 349
#     4  11  16  33  59  84 108 143 189 241 283 341
#     4  11  22  37  58  83 113 153 199 242 288 347
#     4   9  16  30  57  87 110 139 184 239 289 335
#     4  10  20  37  61  87 118 159 198 243 297 348
#
# _framework density 19.800075
#
# number of rings (size 3 to 8) (size 9 to 14) (size 15 to 20)
#    0.000    1.714    5.714    3.429    0.000    0.571 
#    0.000    2.143    0.000    6.429    0.000    0.000 
#    0.000    0.000    0.000    0.000    0.000    0.000 
#
# Total GULP energy -156045.313003 kJ/mol
# GULP energy per Si atom -5573.046893 kJ/mol
# Density = 1.975501 g / cm^3
# Si number density = 19.800075 Si / 1000 Ang^3
#
#
#
# Elastic Constant Matrix: (Units=GPa)
#
#
# Indices 1 2 3 4 5 6 
#
# 1 55.6736 20.8817 14.1786 0.0000 -15.1876 0.0000
# 2 20.8817 138.8444 39.9811 0.0000 -2.6563 0.0000
# 3 14.1786 39.9811 76.1997 0.0000 -16.6570 0.0000
# 4 0.0000 0.0000 0.0000 13.1890 0.0000 5.2687
# 5 -15.1876 -2.6563 -16.6570 0.0000 28.5314 0.0000
# 6 0.0000 0.0000 0.0000 5.2687 0.0000 17.7406
#
#
#
# Elastic Compliance Matrix: (Units=1/GPa)
#
#
# Indices 1 2 3 4 5 6 
#
# 1 0.022294 -0.003141 0.000034 0.000000 0.011595 0.000000
# 2 -0.003141 0.009035 -0.004972 0.000000 -0.003734 0.000000
# 3 0.000034 -0.004972 0.017915 0.000000 0.010014 0.000000
# 4 0.000000 0.000000 0.000000 0.086026 0.000000 -0.025548
# 5 0.011595 -0.003734 0.010014 0.000000 0.046720 0.000000
# 6 0.000000 0.000000 0.000000 -0.025548 0.000000 0.063955
#
#
# Mechanical properties :
#
#
# Convention : Reuss Voigt Hill
#
# Bulk Modulus (GPa) = 30.22381 46.75560 38.48971
# Shear Modulus (GPa) = 18.30608 24.93729 21.62169
#
# Velocity S-wave (km/s) = 3.04393 3.55273 3.30813
# Velocity P-wave (km/s) = 5.25849 6.36351 5.83721
#
# Compressibility (1/GPa) = 0.03308649
#
# Stress axis : x y z
#
# Youngs Moduli (GPa) = 44.85449 110.67958 55.81895
#
# Poissons Ratio (x) = 0.34765 -0.00192
# Poissons Ratio (y) = 0.14089 0.27755
# Poissons Ratio (z) = -0.00154 0.55034
#
# Static dielectric constant tensor:
#      x y z
#    x 1.726610 0.000000 0.018440 
#    y 0.000000 1.789480 0.000000 
#    z 0.018440 0.000000 1.704800 
# 
# From -- ./inp_files/98032.got.cif
#   From: 2010.05.17/outbox.cif.g08.bks.cpg/sg12_50_cif.got.tgz:98032.got - 2010.06.03 13:09:07.
