data_PCOD9197621
_publ_section_title
;
Structure prediction by ZEFSAII (Michael W. Deem and Ramdas Pophale) SiO2 
 PCOD9197621
Probable space group: C 2/M
;
_chemical_formula_sum "Si O2"
_cell_formula_units_Z 36
_cell_length_a 16.071268
_cell_length_b 8.930345
_cell_length_c 12.167928
_cell_angle_alpha 90.000000
_cell_angle_beta 107.461670
_cell_angle_gamma 90.000000
_cell_volume 1665.888814
_symmetry_space_group_name_H-M "C 2/M"
_symmetry_group_IT_number 12
_symmetry_cell_setting 'monoclinic'
loop_
_space_group_symop_operation_xyz
x,y,z
-x,y,-z
-x,-y,-z
x,-y,z
1/2+x,1/2+y,z
1/2-x,1/2+y,-z
1/2-x,1/2-y,-z
1/2+x,1/2-y,z
loop_
_atom_site_type_symbol
_atom_site_label
_atom_site_fract_x
_atom_site_fract_y
_atom_site_fract_z
Si Si1 0.961590 0.000000 0.606907
Si Si2 0.095199 0.675965 0.991844
Si Si3 0.713144 0.169244 0.252567
Si Si4 0.402313 0.286119 0.246306
Si Si5 0.411085 0.000000 0.399204
Si Si6 0.718740 0.500000 0.373887
O O1 0.000000 0.000000 0.500000
O O2 0.006388 0.134715 0.690991
O O3 0.857384 0.000000 0.565530
O O4 0.094250 0.500000 0.960336
O O5 0.112787 0.768405 0.889014
O O6 0.162556 0.693429 0.117666
O O7 0.000000 0.715107 0.000000
O O8 0.814856 0.150032 0.265393
O O9 0.704254 0.332868 0.310826
O O10 0.683788 0.000000 0.283617
O O11 0.409528 0.135137 0.315291
O O12 0.500000 0.000000 0.500000
O O13 0.322539 0.000000 0.436910
#
# Coordination Sequence:
#
# PCOD9197621 Si02
#       6
#     4   8   8   8   4   4
#     4  12  26  45  65  98 134 174 228 289 338 392
#     4  10  20  35  60  98 136 172 218 270 331 411
#     4  10  21  41  69  99 135 176 221 271 340 410
#     4  11  21  41  66  91 135 174 222 276 337 399
#     4  10  22  44  70  96 123 177 231 278 336 397
#     4  10  24  45  72  98 136 175 226 281 337 413
#
# _framework density 21.610085000000002
#
# number of rings (size 3 to 8) (size 9 to 14) (size 15 to 20)
#    0.000    1.556    2.222    2.667    0.000    0.889 
#    2.000   14.444    0.000    0.000    0.000    0.000 
#    0.000    0.000    0.000    0.000    0.000    0.000 
#
# Total GULP energy -100230.921608 kJ/mol
# GULP energy per Si atom -5568.384534 kJ/mol
# Density = 2.156090 g / cm^3
# Si number density = 21.610085 Si / 1000 Ang^3
#
#
#
# Elastic Constant Matrix: (Units=GPa)
#
#
# Indices 1 2 3 4 5 6 
#
# 1 113.1215 38.3285 35.7286 0.0000 8.0941 0.0000
# 2 38.3285 135.5980 37.5146 0.0000 -4.6446 0.0000
# 3 35.7286 37.5146 74.3790 0.0000 8.3534 0.0000
# 4 0.0000 0.0000 0.0000 -399.7555 0.0000 130.0646
# 5 8.0941 -4.6446 8.3534 0.0000 36.4849 0.0000
# 6 0.0000 0.0000 0.0000 130.0646 0.0000 -24.1759
#
#
#
# Elastic Compliance Matrix: (Units=1/GPa)
#
#
# Indices 1 2 3 4 5 6 
#
# 1 0.010927 -0.002036 -0.004024 0.000000 -0.001762 0.000000
# 2 -0.002036 0.009115 -0.003901 0.000000 0.002505 0.000000
# 3 -0.004024 -0.003901 0.017757 0.000000 -0.003669 0.000000
# 4 0.000000 0.000000 0.000000 0.003334 0.000000 0.017934
# 5 -0.001762 0.002505 -0.003669 0.000000 0.028959 0.000000
# 6 0.000000 0.000000 0.000000 0.017934 0.000000 0.055121
#
#
# Mechanical properties :
#
#
# Convention : Reuss Voigt Hill
#
# Bulk Modulus (GPa) = 55.93528 60.69355 58.31441
# Shear Modulus (GPa) = 33.09219 -63.38753 -15.14767
#
# Velocity S-wave (km/s) = 3.91747 -5.42181 -2.65043
# Velocity P-wave (km/s) = 6.81191 3.32386 4.20441
#
# Compressibility (1/GPa) = 0.01787781
#
# Stress axis : x y z
#
# Youngs Moduli (GPa) = 91.51759 109.70706 56.31462
#
# Poissons Ratio (x) = 0.22332 0.22662
# Poissons Ratio (y) = 0.18630 0.21968
# Poissons Ratio (z) = 0.36829 0.42796
#
# Static dielectric constant tensor:
#      x y z
#    x 1.777400 0.000000 0.007040 
#    y 0.000000 1.813120 0.000000 
#    z 0.007040 0.000000 1.763330 
# 
# From -- ./inp_files/152105.got.cif
#   From: 2010.05.17/outbox.cif.g08.bks.cpg/sg12_77_cif.got.tgz:152105.got - 2010.06.03 13:09:07.
