data_PCOD9197613
_publ_section_title
;
Structure prediction by ZEFSAII (Michael W. Deem and Ramdas Pophale) SiO2 
 PCOD9197613
Probable space group: C 2/M
;
_chemical_formula_sum "Si O2"
_cell_formula_units_Z 56
_cell_length_a 9.920453
_cell_length_b 18.110595
_cell_length_c 16.271564
_cell_angle_alpha 90.000000
_cell_angle_beta 103.172415
_cell_angle_gamma 90.000000
_cell_volume 2846.516230
_symmetry_space_group_name_H-M "C 2/M"
_symmetry_group_IT_number 12
_symmetry_cell_setting 'monoclinic'
loop_
_space_group_symop_operation_xyz
x,y,z
-x,y,-z
-x,-y,-z
x,-y,z
1/2+x,1/2+y,z
1/2-x,1/2+y,-z
1/2-x,1/2-y,-z
1/2+x,1/2-y,z
loop_
_atom_site_type_symbol
_atom_site_label
_atom_site_fract_x
_atom_site_fract_y
_atom_site_fract_z
Si Si1 0.931238 0.089051 0.779976
Si Si2 0.122524 0.915853 0.951617
Si Si3 0.097009 0.588616 0.934549
Si Si4 0.242806 0.208107 0.584554
Si Si5 0.374968 0.848613 0.235620
Si Si6 0.951082 0.412153 0.585906
Si Si7 0.991689 0.209735 0.321705
O O1 0.783043 0.122768 0.784916
O O2 0.049914 0.113674 0.860534
O O3 0.978671 0.126961 0.702616
O O4 0.921393 0.000000 0.777920
O O5 0.166536 0.000000 0.936787
O O6 0.254314 0.881487 0.013868
O O7 0.000000 0.919598 0.000000
O O8 0.104795 0.500000 0.920184
O O9 0.060395 0.624481 0.841889
O O10 0.000000 0.600365 0.000000
O O11 0.250000 0.250000 0.500000
O O12 0.303883 0.126459 0.581080
O O13 0.094068 0.210887 0.605870
O O14 0.359640 0.250478 0.653870
O O15 0.447482 0.883103 0.327574
O O16 0.399053 0.761126 0.248970
O O17 0.945097 0.500000 0.589342
O O18 0.000000 0.391352 0.500000
#
# Coordination Sequence:
#
# PCOD9197613 Si02
#       7
#     8   8   8   8   8   8   8
#     4  11  22  39  66  94 125 169 216 264 321 378
#     4   9  17  32  56  85 118 161 211 256 303 371
#     4  10  20  35  60  94 127 166 216 263 314 382
#     4  11  22  42  63  87 125 170 208 255 325 386
#     4  11  21  41  64  90 131 173 207 260 331 385
#     4  10  22  38  63  97 128 162 212 266 320 389
#     4  11  24  40  63  93 124 162 217 261 312 392
#
# _framework density 19.673172000000001
#
# number of rings (size 3 to 8) (size 9 to 14) (size 15 to 20)
#    0.000    1.571    2.857    3.429    0.000    2.857 
#    0.000    2.857    0.000    1.714    0.000    0.000 
#    0.000    0.000    0.000    0.000    0.000    0.000 
#
# Total GULP energy -156096.964190 kJ/mol
# GULP energy per Si atom -5574.891578 kJ/mol
# Density = 1.962839 g / cm^3
# Si number density = 19.673172 Si / 1000 Ang^3
#
#
#
# Elastic Constant Matrix: (Units=GPa)
#
#
# Indices 1 2 3 4 5 6 
#
# 1 56.8793 10.5836 21.1414 0.0000 -7.0675 0.0000
# 2 10.5836 60.3655 19.1016 0.0000 -2.3065 0.0000
# 3 21.1414 19.1016 97.9442 0.0000 -6.6256 0.0000
# 4 0.0000 0.0000 0.0000 -27.8760 0.0000 28.2318
# 5 -7.0675 -2.3065 -6.6256 0.0000 31.5238 0.0000
# 6 0.0000 0.0000 0.0000 28.2318 0.0000 6.2448
#
#
#
# Elastic Compliance Matrix: (Units=1/GPa)
#
#
# Indices 1 2 3 4 5 6 
#
# 1 0.019764 -0.002191 -0.003601 0.000000 0.003514 0.000000
# 2 -0.002191 0.017909 -0.003007 0.000000 0.000187 0.000000
# 3 -0.003601 -0.003007 0.011670 0.000000 0.001425 0.000000
# 4 0.000000 0.000000 0.000000 -0.006431 0.000000 0.029072
# 5 0.003514 0.000187 0.001425 0.000000 0.032823 0.000000
# 6 0.000000 0.000000 0.000000 0.029072 0.000000 0.028705
#
#
# Mechanical properties :
#
#
# Convention : Reuss Voigt Hill
#
# Bulk Modulus (GPa) = 31.50217 35.20470 33.35344
# Shear Modulus (GPa) = 37.70166 12.93602 25.31884
#
# Velocity S-wave (km/s) = 4.38242 2.56705 3.59133
# Velocity P-wave (km/s) = 6.45407 5.16913 5.84700
#
# Compressibility (1/GPa) = 0.03174384
#
# Stress axis : x y z
#
# Youngs Moduli (GPa) = 50.59730 55.83902 85.68948
#
# Poissons Ratio (x) = 0.12236 0.30857
# Poissons Ratio (y) = 0.11088 0.25767
# Poissons Ratio (z) = 0.18220 0.16791
#
# Static dielectric constant tensor:
#      x y z
#    x 1.692160 0.000000 0.020700 
#    y 0.000000 1.697260 0.000000 
#    z 0.020700 0.000000 1.744040 
# 
# From -- ./inp_files/206234.got.cif
#   From: 2010.05.17/outbox.cif.g08.bks.cpg/sg12_104_cif.got.tgz:206234.got - 2010.06.03 13:09:07.
